AV-unprocessed.smi:2329|AV-procd|sdf|9305|dock9
  -GOLD-   2272012523D 1   1.00000     0.00000
 Structure written by MMmdl.
 45 48  0  0  0  0  0  0  0  0  1 V2000
  147.6522  137.4164  163.7627 C   0  0  0  0  0  0  0  0  0  0  0  0
  147.6020  136.4697  162.5824 C   0  0  0  0  0  0  0  0  0  0  0  0
  147.2564  135.1147  162.7532 C   0  0  0  0  0  0  0  0  0  0  0  0
  147.2263  134.2897  161.6147 C   0  0  0  0  0  0  0  0  0  0  0  0
  147.5409  134.8493  160.3616 C   0  0  0  0  0  0  0  0  0  0  0  0
  147.8792  136.2186  160.2774 C   0  0  0  0  0  0  0  0  0  0  0  0
  148.1810  136.6824  158.9710 N   0  0  0  0  0  0  0  0  0  0  0  0
  149.1402  137.5478  158.5880 C   0  0  0  0  0  0  0  0  0  0  0  0
  149.9398  138.0921  159.3474 O   0  0  0  0  0  0  0  0  0  0  0  0
  149.1745  137.7716  157.2625 N   0  0  0  0  0  0  0  0  0  0  0  0
  150.0889  138.6505  156.5310 C   0  0  1  0  0  0  0  0  0  0  0  0
  150.9617  137.8708  155.5342 C   0  0  2  0  0  0  0  0  0  0  0  0
  152.4493  137.7933  155.7431 C   0  0  0  0  0  0  0  0  0  0  0  0
  152.9769  138.9264  154.8588 C   0  0  0  0  0  0  0  0  0  0  0  0
  151.8648  139.8041  154.6988 O   0  0  0  0  0  0  0  0  0  0  0  0
  150.6996  138.9972  154.5466 C   0  0  2  0  0  0  0  0  0  0  0  0
  149.4504  139.4207  155.3484 C   0  0  0  0  0  0  0  0  0  0  0  0
  148.1137  138.9486  154.7715 C   0  0  0  0  0  0  0  0  0  0  0  0
  147.6537  140.0426  153.8092 C   0  0  0  0  0  0  0  0  0  0  0  0
  148.2433  141.3410  154.3673 C   0  0  0  0  0  0  0  0  0  0  0  0
  149.1967  140.9212  155.4928 C   0  0  0  0  0  0  0  0  0  0  0  0
  147.9044  137.0067  161.3808 N   0  0  0  0  0  0  0  0  0  0  0  0
  147.4880  136.8874  164.7018 H   0  0  0  0  0  0  0  0  0  0  0  0
  146.8839  138.1840  163.6649 H   0  0  0  0  0  0  0  0  0  0  0  0
  148.6245  137.9075  163.8148 H   0  0  0  0  0  0  0  0  0  0  0  0
  147.0201  134.7155  163.7286 H   0  0  0  0  0  0  0  0  0  0  0  0
  146.9664  133.2450  161.7005 H   0  0  0  0  0  0  0  0  0  0  0  0
  147.5235  134.2292  159.4770 H   0  0  0  0  0  0  0  0  0  0  0  0
  147.6062  136.3035  158.2329 H   0  0  0  0  0  0  0  0  0  0  0  0
  148.5140  137.2549  156.6998 H   0  0  0  0  0  0  0  0  0  0  0  0
  150.6927  139.3007  157.1684 H   0  0  0  0  0  0  0  0  0  0  0  0
  150.4976  136.9384  155.2072 H   0  0  0  0  0  0  0  0  0  0  0  0
  152.7048  137.9655  156.7893 H   0  0  0  0  0  0  0  0  0  0  0  0
  152.8650  136.8286  155.4512 H   0  0  0  0  0  0  0  0  0  0  0  0
  153.8340  139.4387  155.2964 H   0  0  0  0  0  0  0  0  0  0  0  0
  153.2695  138.5437  153.8799 H   0  0  0  0  0  0  0  0  0  0  0  0
  150.5279  138.6627  153.5224 H   0  0  0  0  0  0  0  0  0  0  0  0
  148.1879  137.9817  154.2727 H   0  0  0  0  0  0  0  0  0  0  0  0
  147.3695  138.8431  155.5615 H   0  0  0  0  0  0  0  0  0  0  0  0
  148.0622  139.8533  152.8158 H   0  0  0  0  0  0  0  0  0  0  0  0
  146.5679  140.0811  153.7180 H   0  0  0  0  0  0  0  0  0  0  0  0
  148.7773  141.8811  153.5846 H   0  0  0  0  0  0  0  0  0  0  0  0
  147.4641  142.0020  154.7486 H   0  0  0  0  0  0  0  0  0  0  0  0
  148.7271  141.1300  156.4541 H   0  0  0  0  0  0  0  0  0  0  0  0
  150.1156  141.5071  155.4672 H   0  0  0  0  0  0  0  0  0  0  0  0
  1  2  1  0  0  0  0
  1 23  1  0  0  0  0
  1 24  1  0  0  0  0
  1 25  1  0  0  0  0
  2 22  1  0  0  0  0
  2  3  2  0  0  0  0
  3  4  1  0  0  0  0
  3 26  1  0  0  0  0
  4  5  2  0  0  0  0
  4 27  1  0  0  0  0
  5  6  1  0  0  0  0
  5 28  1  0  0  0  0
  6  7  1  0  0  0  0
  6 22  2  0  0  0  0
  7  8  1  0  0  0  0
  7 29  1  0  0  0  0
  8  9  2  0  0  0  0
  8 10  1  0  0  0  0
 10 11  1  0  0  0  0
 10 30  1  0  0  0  0
 11 17  1  0  0  0  0
 11 12  1  0  0  0  0
 11 31  1  0  0  0  0
 12 16  1  0  0  0  0
 12 13  1  0  0  0  0
 12 32  1  0  0  0  0
 13 14  1  0  0  0  0
 13 33  1  0  0  0  0
 13 34  1  0  0  0  0
 14 15  1  0  0  0  0
 14 35  1  0  0  0  0
 14 36  1  0  0  0  0
 15 16  1  0  0  0  0
 16 17  1  0  0  0  0
 16 37  1  0  0  0  0
 17 21  1  0  0  0  0
 17 18  1  0  0  0  0
 18 19  1  0  0  0  0
 18 38  1  0  0  0  0
 18 39  1  0  0  0  0
 19 20  1  0  0  0  0
 19 40  1  0  0  0  0
 19 41  1  0  0  0  0
 20 21  1  0  0  0  0
 20 42  1  0  0  0  0
 20 43  1  0  0  0  0
 21 44  1  0  0  0  0
 21 45  1  0  0  0  0
M  END
> <s_m_source_file>
AV-unprocessed.smi

> <i_m_source_file_index>
2329

> <i_lp_mmshare_version>
43012

> <i_f3d_flags>
0

> <s_epik_input>
W0NIM11jMVtjSF1bY0hdW2NIXWMobjEpW05IXUMoPU8pW05IXVtDQEBIXTJbQ0BASF0oW0NIMl1bQ0gyXU8zKVtDQEhdM0MyNFtDSDJdW0NIMl1bQ0gyXVtDSDJdNA==

> <s_epik_cmdline>
J2VwaWtfcHl0aG9uJywgJy1waCcsICc3LjAnLCAnLXRuJywgJzgnLCAnLW1hJywgJzIwMCcsICctbWV0YWxfYmluZGluZycsICctaW1hZScsICc8aW5maWxlLm1hZT4nLCAnLW9tYWUnLCAnPG91dGZpbGUubWFlPic=

> <r_lp_tautomer_probability>
1

> <r_epik_Ionization_Penalty>
8.97002e-05

> <r_epik_Ionization_Penalty_Charging>
0

> <r_epik_Ionization_Penalty_Neutral>
8.97002e-05

> <r_epik_State_Penalty>
-0

> <r_epik_Charging_Adjusted_Penalty>
0

> <i_epik_Tot_Q>
0

> <i_epik_Tot_abs_Q>
0

> <r_epik_Metal_State_Penalty>
-0

> <b_epik_Metal_Only>
0

> <s_lp_Force_Field>
OPLS_2005

> <r_lp_Energy>
64.4638

> <b_lp_Chiralities_Consistent>
1

> <s_lp_Variant>
AV-unprocessed.smi:2329-4

> <Gold.Version>
5.8.1

> <Gold.Id.Protein>
6NUR|6NUR_protein|mol2

> <Gold.PLP.Fitness>
45.5221

> <Gold.PLP.PLP>
-38.9817

> <Gold.PLP.part.hbond>
-3.9361

> <Gold.PLP.part.metal>
0.0000

> <Gold.PLP.part.buried>
-2.0768

> <Gold.PLP.part.nonpolar>
-34.2245

> <Gold.PLP.part.repulsive>
0.2257

> <Gold.PLP.ligand.clash>
0.0000

> <Gold.PLP.ligand.torsion>
0.4653

> <Gold.PLP.Chemscore.Hbond>
2.4291

> <Gold.PLP.Chemscore.CHOScore>
0.0000

> <Gold.PLP.Chemscore.Metal>
0.0000

> <Gold.Chemscore.Hbonds>
donor molecule, donor type, donor heavy atom, donor atom, acceptor molecule, acceptor atom, score
      P1  H  6931  6943       L1    22  0.95
      P1  H  6934  6947       L1    22  0.46
      P1  H  7989  7998       L1    15  0.98

> <Gold.PLP.Chemscore.Internal.Correction>
0.1838

> <Gold.Rescore>
     Score         DG    S(hbond)    S(metal)    S(lipo)     H(rot)  DE(clash)    DE(int)     intcor
     18.73     -20.68       1.75        0.00     101.89       1.00       0.86       1.10       ----

> <Gold.Chemscore.Fitness>
18.7307

> <Gold.Chemscore.DG>
-20.6821

> <Gold.Chemscore.ZeroCoef>
-5.4800

> <Gold.Chemscore.Hbond>
1.7487

> <Gold.Chemscore.Metal>
0.0000

> <Gold.Chemscore.Lipo>
101.8937

> <Gold.Chemscore.Internal_Hbond>
0.0000

> <Gold.Chemscore.DEClash>
0.8557

> <Gold.Chemscore.DEInternal>
1.0957

> <Gold.Chemscore.Rot>
1.0000

> <Gold.Chemscore.Internal.Correction>
   9.000000E+99

> <Gold.Chemscore.Hbonds>
donor molecule, donor type, donor heavy atom, donor atom, acceptor molecule, acceptor atom, score
      P1  H  6931  6943       L1    22  0.21
      P1  H  6934  6947       L1    22  0.36
      P1  H  7989  7998       L1    15  0.28

> <Gold.Chemscore.Hbond.Weighted>
-5.8405

> <Gold.Chemscore.Metal.Weighted>
-0.0000

> <Gold.Chemscore.Lipo.Weighted>
-11.9216

> <Gold.Chemscore.Internal_Hbond.Weighted>
0.0000

> <Gold.Chemscore.DEClash.Weighted>
0.8557

> <Gold.Chemscore.DEInternal.Weighted>
1.0957

> <Gold.Chemscore.Rot.Weighted>
2.5600

> <Gold.Chemscore.Internal.Correction.Weighted>
   9.000000E+99

> <Gold.Protein.RotatedTorsions>
[ 6907 6896 6895 6894 ] final   17.77 input  -60.11 | X-H torsion
[ 7974 7965 7964 7962 ] final  -42.43 input  175.53 | X-H torsion
[ 8008 7997 7996 7995 ] final  115.12 input   59.86 | X-H torsion
[ 10167 10162 10161 10158 ] final  177.26 input  -65.29 | X-H torsion
[ 10718 10713 10712 10709 ] final  -15.91 input   66.30 | X-H torsion
[ 10763 10752 10751 10750 ] final  -94.97 input  -60.55 | X-H torsion
[ 11005 11000 10999 10996 ] final  -32.05 input  -57.11 | X-H torsion

> <Gold.Protein.ActiveResidues>
 VAL166  LYS551  ARG553  GLY616  TRP617  ASP618  TYR619  PRO620  LYS621  CYS622 
 ASP623  PHE694  ASN695  SER759  ASP760  ASP761  ALA762  ILE779  LEU786  VAL792 
 PHE793  MET794  SER795  GLU796  ALA797  LYS798  CYS799  TRP800  GLU811  SER814 

> <Gold.Protein.RotatedAtoms>
  151.8548  135.0545  160.0462 H   0  0  0  0  0  0  0  0  0  0  0  0  # atno 6907 bound_to 6896
  152.2709  133.5377  159.5446 H   0  0  0  0  0  0  0  0  0  0  0  0  # atno 6908 bound_to 6896
  150.7151  134.0616  159.3875 H   0  0  0  0  0  0  0  0  0  0  0  0  # atno 6909 bound_to 6896
  146.0117  140.6956  142.9221 H   0  0  0  0  0  0  0  0  0  0  0  0  # atno 7974 bound_to 7965
  156.2362  140.2945  156.0320 H   0  0  0  0  0  0  0  0  0  0  0  0  # atno 8008 bound_to 7997
  155.2083  140.0412  157.2946 H   0  0  0  0  0  0  0  0  0  0  0  0  # atno 8009 bound_to 7997
  154.6084  140.2445  155.7708 H   0  0  0  0  0  0  0  0  0  0  0  0  # atno 8010 bound_to 7997
  139.5246  144.2819  152.0539 H   0  0  0  0  0  0  0  0  0  0  0  0  # atno 10167 bound_to 10162
  156.5950  130.4809  149.6263 H   0  0  0  0  0  0  0  0  0  0  0  0  # atno 10718 bound_to 10713
  154.7105  135.5138  153.8660 H   0  0  0  0  0  0  0  0  0  0  0  0  # atno 10763 bound_to 10752
  153.0777  135.6621  154.0120 H   0  0  0  0  0  0  0  0  0  0  0  0  # atno 10764 bound_to 10752
  153.9963  135.3015  155.3386 H   0  0  0  0  0  0  0  0  0  0  0  0  # atno 10765 bound_to 10752
  140.9520  133.7215  156.1235 H   0  0  0  0  0  0  0  0  0  0  0  0  # atno 11005 bound_to 11000
  144.6955  140.3410  143.7199 LP  0  0  0  0  0  0  0  0  0  0  0  0  # atno 17320 bound_to 7965
  145.7332  139.1742  143.2418 LP  0  0  0  0  0  0  0  0  0  0  0  0  # atno 17321 bound_to 7965
  140.2274  144.4404  150.6315 LP  0  0  0  0  0  0  0  0  0  0  0  0  # atno 17342 bound_to 10162
  140.6378  143.2198  151.6357 LP  0  0  0  0  0  0  0  0  0  0  0  0  # atno 17343 bound_to 10162
  156.2517  130.6911  151.1651 LP  0  0  0  0  0  0  0  0  0  0  0  0  # atno 17370 bound_to 10713
  157.7294  131.0624  150.5776 LP  0  0  0  0  0  0  0  0  0  0  0  0  # atno 17371 bound_to 10713
  140.7589  134.3961  157.5529 LP  0  0  0  0  0  0  0  0  0  0  0  0  # atno 17394 bound_to 11000
  139.8850  134.8948  156.2667 LP  0  0  0  0  0  0  0  0  0  0  0  0  # atno 17395 bound_to 11000

$$$$
