#       Name:                AV-unprocessed.smi:1570
#       Creating user name   scv26
#       Creation time:       Fri Mar 27 06:52:19 2020


#       File generated by GOLD software.
#

@<TRIPOS>MOLECULE
AV-unprocessed.smi:1570
    58    60     1
SMALL
NO_CHARGES


@<TRIPOS>ATOM
      1 ****        -3.0950   4.2471  -3.1405 C.3            1 S1                 0.0000
      2 ****        -1.5831   4.3294  -2.8964 C.3            1 S1                 0.0000
      3 ****        -1.1709   3.4246  -1.8263 N.am           1 S1                 0.0000
      4 ****        -0.7597   2.1424  -1.9669 C.2            1 S1                 0.0000
      5 ****        -0.6505   1.5295  -3.0289 O.2            1 S1                 0.0000
      6 ****        -0.4945   1.6485  -0.7347 N.am           1 S1                 0.0000
      7 ****        -0.0305   0.2989  -0.4204 C.3            1 S1                 0.0000
      8 ****         1.4959   0.1572  -0.6035 C.3            1 S1                 0.0000
      9 ****         2.1810   0.7530   0.4797 O.3            1 S1                 0.0000
     10 ****         1.9680  -1.3065  -0.7609 C.3            1 S1                 0.0000
     11 ****         1.2916  -2.3074   0.0694 N.3            1 S1                 0.0000
     12 ****         1.6227  -2.1921   1.4880 C.3            1 S1                 0.0000
     13 ****         0.9206  -3.2591   2.3516 C.3            1 S1                 0.0000
     14 ****        -0.5802  -2.9861   2.5499 C.3            1 S1                 0.0000
     15 ****         1.1571  -4.5639   1.8203 O.3            1 S1                 0.0000
     16 ****         0.8479  -4.7217   0.4367 C.3            1 S1                 0.0000
     17 ****         1.2290  -6.1462   0.0208 C.3            1 S1                 0.0000
     18 ****         1.6041  -3.6580  -0.3787 C.3            1 S1                 0.0000
     19 ****        -0.7470   2.6414   0.2227 C.ar           1 S1                 0.0000
     20 ****        -0.6282   2.6293   1.6236 C.ar           1 S1                 0.0000
     21 ****        -0.9728   3.8158   2.3121 C.ar           1 S1                 0.0000
     22 ****        -1.4183   4.9632   1.6056 C.ar           1 S1                 0.0000
     23 ****        -1.5263   4.9491   0.1952 C.ar           1 S1                 0.0000
     24 ****        -1.1754   3.7581  -0.4643 C.ar           1 S1                 0.0000
     25 ****        -3.3966   4.9266  -3.9376 H              1 S1                 0.0000
     26 ****        -3.6543   4.5171  -2.2444 H              1 S1                 0.0000
     27 ****        -3.3936   3.2397  -3.4319 H              1 S1                 0.0000
     28 ****        -1.0462   4.0879  -3.8149 H              1 S1                 0.0000
     29 ****        -1.3005   5.3509  -2.6416 H              1 S1                 0.0000
     30 ****        -0.3377   0.0097   0.5850 H              1 S1                 0.0000
     31 ****        -0.5410  -0.3932  -1.0924 H              1 S1                 0.0000
     32 ****         1.8066   0.6945  -1.5005 H              1 S1                 0.0000
     33 ****         1.9523   0.2875   1.2695 H              1 S1                 0.0000
     34 ****         1.7904  -1.5688  -1.8049 H              1 S1                 0.0000
     35 ****         3.0493  -1.3719  -0.6291 H              1 S1                 0.0000
     36 ****         2.7022  -2.2871   1.6158 H              1 S1                 0.0000
     37 ****         1.3533  -1.2074   1.8665 H              1 S1                 0.0000
     38 ****         1.3790  -3.2437   3.3408 H              1 S1                 0.0000
     39 ****        -0.7364  -2.0337   3.0569 H              1 S1                 0.0000
     40 ****        -1.0392  -3.7644   3.1598 H              1 S1                 0.0000
     41 ****        -1.1181  -2.9415   1.6032 H              1 S1                 0.0000
     42 ****        -0.2256  -4.5979   0.2893 H              1 S1                 0.0000
     43 ****         1.0049  -6.3199  -1.0319 H              1 S1                 0.0000
     44 ****         0.6760  -6.8831   0.6035 H              1 S1                 0.0000
     45 ****         2.2928  -6.3314   0.1722 H              1 S1                 0.0000
     46 ****         1.3439  -3.7661  -1.4325 H              1 S1                 0.0000
     47 ****         2.6788  -3.8326  -0.3040 H              1 S1                 0.0000
     48 ****        -0.2877   1.7543   2.1570 H              1 S1                 0.0000
     49 ****        -0.8964   3.8484   3.3889 H              1 S1                 0.0000
     50 ****        -1.6777   5.8587   2.1510 H              1 S1                 0.0000
     51 ****        -1.8652   5.8190  -0.3476 H              1 S1                 0.0000
     52 ****        -0.8755   1.9812  -3.8923 LP             1 S1                 0.0000
     53 ****        -0.3368   0.5800  -3.0282 LP             1 S1                 0.0000
     54 ****         1.9116   1.7124   0.5631 LP             1 S1                 0.0000
     55 ****         3.1678   0.6959   0.3277 LP             1 S1                 0.0000
     56 ****         0.3134  -2.1282  -0.0355 LP             1 S1                 0.0000
     57 ****         0.6008  -5.2141   2.3377 LP             1 S1                 0.0000
     58 ****         2.1255  -4.7787   1.9473 LP             1 S1                 0.0000
@<TRIPOS>BOND
    1    1    2 1     
    2    1   25 1     
    3    1   26 1     
    4    1   27 1     
    5    2    3 1     
    6    2   28 1     
    7    2   29 1     
    8    3   24 1     
    9    3    4 am    
   10    4    5 2     
   11    4    6 am    
   12    6    7 1     
   13    6   19 1     
   14    7    8 1     
   15    7   30 1     
   16    7   31 1     
   17    8    9 1     
   18    8   10 1     
   19    8   32 1     
   20    9   33 1     
   21   10   11 1     
   22   10   34 1     
   23   10   35 1     
   24   11   18 1     
   25   11   12 1     
   26   12   13 1     
   27   12   36 1     
   28   12   37 1     
   29   13   14 1     
   30   13   15 1     
   31   13   38 1     
   32   14   39 1     
   33   14   40 1     
   34   14   41 1     
   35   15   16 1     
   36   16   17 1     
   37   16   18 1     
   38   16   42 1     
   39   17   43 1     
   40   17   44 1     
   41   17   45 1     
   42   18   46 1     
   43   18   47 1     
   44   19   24 ar    
   45   19   20 ar    
   46   20   21 ar    
   47   20   48 1     
   48   21   22 ar    
   49   21   49 1     
   50   22   23 ar    
   51   22   50 1     
   52   23   24 ar    
   53   23   51 1     
   54    5   52 1     
   55    5   53 1     
   56    9   54 1     
   57    9   55 1     
   58   11   56 1     
   59   15   57 1     
   60   15   58 1     
@<TRIPOS>SUBSTRUCTURE
      1 S1             1
@<TRIPOS>SET
LONE_PAIRS      STATIC     ATOMS    <user>   **** ""
7 52 53 54 55 56 57 58
DONOR_HYDROGENS      STATIC     ATOMS    <user>   **** ""
1 33
ATOM$BLUE        STATIC     ATOMS    COLORGROUP SYSTEM
7 52 53 54 55 56 57 58
ATOM$RED        STATIC     ATOMS    COLORGROUP SYSTEM
1 33
