AV-unprocessed.smi:2226|AV-procd|sdf|9016|dock2
  -GOLD-   2272012223D 1   1.00000     0.00000
 Structure written by MMmdl.
 40 42  0  0  0  0  0  0  0  0  2 V2000
  143.6427  132.7015  148.4351 C   0  0  0  0  0  0  0  0  0  0  0  0
  144.5796  132.4305  149.5513 N   0  3  1  0  0  0  0  0  0  0  0  0
  145.4943  133.5499  149.8837 C   0  0  1  0  0  0  0  0  0  0  0  0
  144.7293  134.7271  150.5408 C   0  0  0  0  0  0  0  0  0  0  0  0
  143.8533  134.3149  151.7389 C   0  0  0  0  0  0  0  0  0  0  0  0
  143.0975  132.9958  151.4901 C   0  0  0  0  0  0  0  0  0  0  0  0
  143.9452  131.9062  150.7852 C   0  0  2  0  0  0  0  0  0  0  0  0
  145.0353  131.2584  151.6698 C   0  0  0  0  0  0  0  0  0  0  0  0
  146.2568  132.1666  151.9516 C   0  0  1  0  0  0  0  0  0  0  0  0
  147.3837  131.3343  152.3707 N   0  0  0  0  0  0  0  0  0  0  0  0
  147.7885  131.1068  153.6299 C   0  0  0  0  0  0  0  0  0  0  0  0
  147.2125  131.6083  154.6005 O   0  0  0  0  0  0  0  0  0  0  0  0
  148.8917  130.2651  153.6217 N   0  0  0  0  0  0  0  0  0  0  0  0
  149.9016  130.5042  154.4014 C   0  0  0  0  0  0  0  0  0  0  0  0
  150.1664  131.5025  155.3353 N   0  0  0  0  0  0  0  0  0  0  0  0
  151.3995  131.2654  155.8749 C   0  0  0  0  0  0  0  0  0  0  0  0
  151.8926  130.1680  155.3090 C   0  0  0  0  0  0  0  0  0  0  0  0
  150.9988  129.6802  154.4035 O   0  0  0  0  0  0  0  0  0  0  0  0
  146.6753  132.9985  150.7150 C   0  0  0  0  0  0  0  0  0  0  0  0
  142.9362  133.4969  148.6708 H   0  0  0  0  0  0  0  0  0  0  0  0
  143.0722  131.8046  148.1927 H   0  0  0  0  0  0  0  0  0  0  0  0
  144.1930  132.9931  147.5403 H   0  0  0  0  0  0  0  0  0  0  0  0
  145.9203  133.9211  148.9504 H   0  0  0  0  0  0  0  0  0  0  0  0
  145.4287  135.5060  150.8465 H   0  0  0  0  0  0  0  0  0  0  0  0
  144.0892  135.1925  149.7907 H   0  0  0  0  0  0  0  0  0  0  0  0
  144.4548  134.2424  152.6408 H   0  0  0  0  0  0  0  0  0  0  0  0
  143.1368  135.1083  151.9546 H   0  0  0  0  0  0  0  0  0  0  0  0
  142.7027  132.6141  152.4322 H   0  0  0  0  0  0  0  0  0  0  0  0
  142.2221  133.2113  150.8770 H   0  0  0  0  0  0  0  0  0  0  0  0
  143.2652  131.1036  150.4956 H   0  0  0  0  0  0  0  0  0  0  0  0
  144.6043  130.9097  152.6092 H   0  0  0  0  0  0  0  0  0  0  0  0
  145.3803  130.3603  151.1541 H   0  0  0  0  0  0  0  0  0  0  0  0
  146.0005  132.8498  152.7563 H   0  0  0  0  0  0  0  0  0  0  0  0
  147.9093  130.8862  151.6339 H   0  0  0  0  0  0  0  0  0  0  0  0
  149.5823  132.2827  155.6004 H   0  0  0  0  0  0  0  0  0  0  0  0
  151.8037  131.9262  156.6276 H   0  0  0  0  0  0  0  0  0  0  0  0
  152.8209  129.6311  155.4358 H   0  0  0  0  0  0  0  0  0  0  0  0
  147.2699  132.3651  150.0540 H   0  0  0  0  0  0  0  0  0  0  0  0
  147.3382  133.8101  151.0178 H   0  0  0  0  0  0  0  0  0  0  0  0
  145.1718  131.6861  149.2117 H   0  0  0  0  0  0  0  0  0  0  0  0
  1  2  1  0  0  0  0
  1 20  1  0  0  0  0
  1 21  1  0  0  0  0
  1 22  1  0  0  0  0
  2  7  1  0  0  0  0
  2  3  1  0  0  0  0
  2 40  1  0  0  0  0
  3 19  1  0  0  0  0
  3  4  1  0  0  0  0
  3 23  1  0  0  0  0
  4  5  1  0  0  0  0
  4 24  1  0  0  0  0
  4 25  1  0  0  0  0
  5  6  1  0  0  0  0
  5 26  1  0  0  0  0
  5 27  1  0  0  0  0
  6  7  1  0  0  0  0
  6 28  1  0  0  0  0
  6 29  1  0  0  0  0
  7  8  1  0  0  0  0
  7 30  1  0  0  0  0
  8  9  1  0  0  0  0
  8 31  1  0  0  0  0
  8 32  1  0  0  0  0
  9 10  1  0  0  0  0
  9 19  1  0  0  0  0
  9 33  1  0  0  0  0
 10 34  1  0  0  0  0
 10 11  1  0  0  0  0
 11 13  1  0  0  0  0
 11 12  2  0  0  0  0
 13 14  2  0  0  0  0
 14 18  1  0  0  0  0
 14 15  1  0  0  0  0
 15 35  1  0  0  0  0
 15 16  1  0  0  0  0
 16 36  1  0  0  0  0
 16 17  2  0  0  0  0
 17 37  1  0  0  0  0
 17 18  1  0  0  0  0
 19 38  1  0  0  0  0
 19 39  1  0  0  0  0
M  CHG  1   2   1
M  END
> <s_m_source_file>
AV-unprocessed.smi

> <i_m_source_file_index>
2226

> <i_lp_mmshare_version>
43012

> <i_f3d_flags>
0

> <s_epik_input>
W0NIMl0xW0NIMl1bQ0gyXVtDQEhdKE4oW0NIM10pW0NIXTEyKVtDSDJdW0NASF0oW0NIMl0yKVtOSF1DKD1PKVtOSF1jM25bY0hdW2NIXW8z

> <s_epik_cmdline>
J2VwaWtfcHl0aG9uJywgJy1waCcsICc3LjAnLCAnLXRuJywgJzgnLCAnLW1hJywgJzIwMCcsICctbWV0YWxfYmluZGluZycsICctaW1hZScsICc8aW5maWxlLm1hZT4nLCAnLW9tYWUnLCAnPG91dGZpbGUubWFlPic=

> <r_lp_tautomer_probability>
0.107061

> <r_epik_Ionization_Penalty>
1.08307

> <r_epik_Ionization_Penalty_Charging>
1.08272

> <r_epik_Ionization_Penalty_Neutral>
0.000345913

> <r_epik_State_Penalty>
2.5744

> <r_epik_Charging_Adjusted_Penalty>
3.65713

> <i_epik_Tot_Q>
1

> <i_epik_Tot_abs_Q>
1

> <r_epik_Metal_State_Penalty>
3.72133

> <b_epik_Metal_Only>
0

> <s_lp_Force_Field>
OPLS_2005

> <r_lp_Energy>
58.4837

> <b_lp_Chiralities_Consistent>
1

> <s_lp_Variant>
AV-unprocessed.smi:2226-16

> <Gold.Version>
5.8.1

> <Gold.Id.Protein>
6NUR|6NUR_protein|mol2

> <Gold.PLP.Fitness>
33.4233

> <Gold.PLP.PLP>
-31.6593

> <Gold.PLP.part.hbond>
-1.0000

> <Gold.PLP.part.metal>
0.0000

> <Gold.PLP.part.buried>
-1.1403

> <Gold.PLP.part.nonpolar>
-29.4763

> <Gold.PLP.part.repulsive>
0.4238

> <Gold.PLP.ligand.clash>
0.0000

> <Gold.PLP.ligand.torsion>
0.6211

> <Gold.PLP.Chemscore.Hbond>
1.0000

> <Gold.PLP.Chemscore.CHOScore>
0.0000

> <Gold.PLP.Chemscore.Metal>
0.0000

> <Gold.Chemscore.Hbonds>
donor molecule, donor type, donor heavy atom, donor atom, acceptor molecule, acceptor atom, score
      L1  H    10    34       P1 10747  1.00

> <Gold.PLP.Chemscore.Internal.Correction>
0.0063

> <Gold.Rescore>
     Score         DG    S(hbond)    S(metal)    S(lipo)     H(rot)  DE(clash)    DE(int)     intcor
     14.43     -16.53       1.00        0.00      87.82       1.00       1.41       0.69       ----

> <Gold.Chemscore.Fitness>
14.4339

> <Gold.Chemscore.DG>
-16.5326

> <Gold.Chemscore.ZeroCoef>
-5.4800

> <Gold.Chemscore.Hbond>
0.9995

> <Gold.Chemscore.Metal>
0.0000

> <Gold.Chemscore.Lipo>
87.8152

> <Gold.Chemscore.Internal_Hbond>
0.0000

> <Gold.Chemscore.DEClash>
1.4070

> <Gold.Chemscore.DEInternal>
0.6917

> <Gold.Chemscore.Rot>
1.0000

> <Gold.Chemscore.Internal.Correction>
   9.000000E+99

> <Gold.Chemscore.Hbonds>
donor molecule, donor type, donor heavy atom, donor atom, acceptor molecule, acceptor atom, score
      L1  H    10    34       P1 10747  0.98

> <Gold.Chemscore.Hbond.Weighted>
-3.3382

> <Gold.Chemscore.Metal.Weighted>
-0.0000

> <Gold.Chemscore.Lipo.Weighted>
-10.2744

> <Gold.Chemscore.Internal_Hbond.Weighted>
0.0000

> <Gold.Chemscore.DEClash.Weighted>
1.4070

> <Gold.Chemscore.DEInternal.Weighted>
0.6917

> <Gold.Chemscore.Rot.Weighted>
2.5600

> <Gold.Chemscore.Internal.Correction.Weighted>
   9.000000E+99

> <Gold.Protein.RotatedTorsions>
[ 6907 6896 6895 6894 ] final   23.10 input  -60.11 | X-H torsion
[ 7974 7965 7964 7962 ] final -175.35 input  175.53 | X-H torsion
[ 8008 7997 7996 7995 ] final  120.03 input   59.86 | X-H torsion
[ 10167 10162 10161 10158 ] final    4.80 input  -65.29 | X-H torsion
[ 10718 10713 10712 10709 ] final  158.92 input   66.30 | X-H torsion
[ 10763 10752 10751 10750 ] final  -49.48 input  -60.55 | X-H torsion
[ 11005 11000 10999 10996 ] final   -9.79 input  -57.11 | X-H torsion

> <Gold.Protein.ActiveResidues>
 VAL166  LYS551  ARG553  GLY616  TRP617  ASP618  TYR619  PRO620  LYS621  CYS622 
 ASP623  PHE694  ASN695  SER759  ASP760  ASP761  ALA762  ILE779  LEU786  VAL792 
 PHE793  MET794  SER795  GLU796  ALA797  LYS798  CYS799  TRP800  GLU811  SER814 

> <Gold.Protein.RotatedAtoms>
  151.9373  135.0229  160.0533 H   0  0  0  0  0  0  0  0  0  0  0  0  # atno 6907 bound_to 6896
  152.2067  133.4876  159.5096 H   0  0  0  0  0  0  0  0  0  0  0  0  # atno 6908 bound_to 6896
  150.6966  134.1437  159.4157 H   0  0  0  0  0  0  0  0  0  0  0  0  # atno 6909 bound_to 6896
  144.7128  140.1335  143.6397 H   0  0  0  0  0  0  0  0  0  0  0  0  # atno 7974 bound_to 7965
  156.2623  140.2840  156.1084 H   0  0  0  0  0  0  0  0  0  0  0  0  # atno 8008 bound_to 7997
  155.1284  140.0393  157.2786 H   0  0  0  0  0  0  0  0  0  0  0  0  # atno 8009 bound_to 7997
  154.6618  140.2568  155.7107 H   0  0  0  0  0  0  0  0  0  0  0  0  # atno 8010 bound_to 7997
  140.6516  143.7531  150.7584 H   0  0  0  0  0  0  0  0  0  0  0  0  # atno 10167 bound_to 10162
  157.1713  131.0610  151.2181 H   0  0  0  0  0  0  0  0  0  0  0  0  # atno 10718 bound_to 10713
  154.0948  135.6572  153.4858 H   0  0  0  0  0  0  0  0  0  0  0  0  # atno 10763 bound_to 10752
  153.0309  135.5211  154.7344 H   0  0  0  0  0  0  0  0  0  0  0  0  # atno 10764 bound_to 10752
  154.6479  135.2997  154.9992 H   0  0  0  0  0  0  0  0  0  0  0  0  # atno 10765 bound_to 10752
  140.7379  133.8694  155.8944 H   0  0  0  0  0  0  0  0  0  0  0  0  # atno 11005 bound_to 11000
  145.9266  139.2579  143.1350 LP  0  0  0  0  0  0  0  0  0  0  0  0  # atno 17320 bound_to 7965
  145.9566  140.8868  143.0232 LP  0  0  0  0  0  0  0  0  0  0  0  0  # atno 17321 bound_to 7965
  140.1183  143.4635  152.2328 LP  0  0  0  0  0  0  0  0  0  0  0  0  # atno 17342 bound_to 10162
  139.5732  144.7473  151.3836 LP  0  0  0  0  0  0  0  0  0  0  0  0  # atno 17343 bound_to 10162
  157.4041  130.7349  149.6789 LP  0  0  0  0  0  0  0  0  0  0  0  0  # atno 17370 bound_to 10713
  155.9738  130.4113  150.3973 LP  0  0  0  0  0  0  0  0  0  0  0  0  # atno 17371 bound_to 10713
  140.9863  134.1339  157.4449 LP  0  0  0  0  0  0  0  0  0  0  0  0  # atno 17394 bound_to 11000
  139.8812  135.0026  156.6138 LP  0  0  0  0  0  0  0  0  0  0  0  0  # atno 17395 bound_to 11000

$$$$
