AV-unprocessed.smi:1697|AV-procd|sdf|6812|dock7
  -GOLD-   22720 7593D 1   1.00000     0.00000
 Structure written by MMmdl.
 53 55  0  0  0  0  0  0  0  0  1 V2000
  142.0235  145.1038  154.3674 C   0  0  0  0  0  0  0  0  0  0  0  0
  143.2814  145.6403  155.0647 C   0  0  0  0  0  0  0  0  0  0  0  0
  143.9003  144.6519  155.8782 O   0  0  0  0  0  0  0  0  0  0  0  0
  144.4606  143.5504  155.1731 C   0  0  0  0  0  0  0  0  0  0  0  0
  145.2964  142.6948  156.1385 C   0  0  0  0  0  0  0  0  0  0  0  0
  146.0530  141.6018  155.3653 C   0  0  0  0  0  0  0  0  0  0  0  0
  146.9243  142.1460  154.3214 N   0  0  0  0  0  0  0  0  0  0  0  0
  147.6669  141.0689  153.6622 C   0  0  0  0  0  0  0  0  0  0  0  0
  148.8576  140.4933  154.4557 C   0  0  1  0  0  0  0  0  0  0  0  0
  149.8019  139.9829  153.5349 O   0  0  0  0  0  0  0  0  0  0  0  0
  149.5295  141.5730  155.3251 C   0  0  0  0  0  0  0  0  0  0  0  0
  150.4521  141.0126  156.2967 N   0  0  0  0  0  0  0  0  0  0  0  0
  150.8936  139.7415  156.3520 C   0  0  0  0  0  0  0  0  0  0  0  0
  151.7382  139.4314  157.3311 N   0  0  0  0  0  0  0  0  0  0  0  0
  151.8589  140.6438  157.9885 C   0  0  0  0  0  0  0  0  0  0  0  0
  152.6147  140.9964  159.1279 C   0  0  0  0  0  0  0  0  0  0  0  0
  152.5865  142.3142  159.6369 C   0  0  0  0  0  0  0  0  0  0  0  0
  153.4130  142.6486  160.8661 C   0  0  0  0  0  0  0  0  0  0  0  0
  151.7940  143.3043  159.0023 C   0  0  0  0  0  0  0  0  0  0  0  0
  151.7479  144.7266  159.5318 C   0  0  0  0  0  0  0  0  0  0  0  0
  151.0337  142.9692  157.8622 C   0  0  0  0  0  0  0  0  0  0  0  0
  151.0677  141.6538  157.3665 C   0  0  0  0  0  0  0  0  0  0  0  0
  146.1255  142.9341  153.3755 C   0  0  0  0  0  0  0  0  0  0  0  0
  145.3671  144.0871  154.0554 C   0  0  0  0  0  0  0  0  0  0  0  0
  141.5231  145.8970  153.8116 H   0  0  0  0  0  0  0  0  0  0  0  0
  141.3139  144.7072  155.0940 H   0  0  0  0  0  0  0  0  0  0  0  0
  142.2613  144.3090  153.6607 H   0  0  0  0  0  0  0  0  0  0  0  0
  143.9920  146.0424  154.3411 H   0  0  0  0  0  0  0  0  0  0  0  0
  142.9992  146.4700  155.7131 H   0  0  0  0  0  0  0  0  0  0  0  0
  143.6874  142.9264  154.7197 H   0  0  0  0  0  0  0  0  0  0  0  0
  146.0103  143.3255  156.6704 H   0  0  0  0  0  0  0  0  0  0  0  0
  144.6566  142.2423  156.8962 H   0  0  0  0  0  0  0  0  0  0  0  0
  146.6473  141.0231  156.0737 H   0  0  0  0  0  0  0  0  0  0  0  0
  145.3365  140.9064  154.9250 H   0  0  0  0  0  0  0  0  0  0  0  0
  146.9881  140.2452  153.4349 H   0  0  0  0  0  0  0  0  0  0  0  0
  148.0219  141.4287  152.6951 H   0  0  0  0  0  0  0  0  0  0  0  0
  148.5388  139.6809  155.1070 H   0  0  0  0  0  0  0  0  0  0  0  0
  149.4710  140.1250  152.6610 H   0  0  0  0  0  0  0  0  0  0  0  0
  150.0663  142.2892  154.7016 H   0  0  0  0  0  0  0  0  0  0  0  0
  148.7726  142.1409  155.8677 H   0  0  0  0  0  0  0  0  0  0  0  0
  150.5764  139.0017  155.6314 H   0  0  0  0  0  0  0  0  0  0  0  0
  153.2183  140.2418  159.6105 H   0  0  0  0  0  0  0  0  0  0  0  0
  152.7705  142.9969  161.6751 H   0  0  0  0  0  0  0  0  0  0  0  0
  154.1385  143.4296  160.6379 H   0  0  0  0  0  0  0  0  0  0  0  0
  153.9614  141.7775  161.2262 H   0  0  0  0  0  0  0  0  0  0  0  0
  151.0944  145.3554  158.9265 H   0  0  0  0  0  0  0  0  0  0  0  0
  152.7432  145.1710  159.5215 H   0  0  0  0  0  0  0  0  0  0  0  0
  151.3721  144.7408  160.5549 H   0  0  0  0  0  0  0  0  0  0  0  0
  150.4279  143.7138  157.3672 H   0  0  0  0  0  0  0  0  0  0  0  0
  146.7623  143.3633  152.6040 H   0  0  0  0  0  0  0  0  0  0  0  0
  145.4139  142.2856  152.8622 H   0  0  0  0  0  0  0  0  0  0  0  0
  144.7731  144.6309  153.3204 H   0  0  0  0  0  0  0  0  0  0  0  0
  146.0824  144.8002  154.4680 H   0  0  0  0  0  0  0  0  0  0  0  0
  1  2  1  0  0  0  0
  1 25  1  0  0  0  0
  1 26  1  0  0  0  0
  1 27  1  0  0  0  0
  2  3  1  0  0  0  0
  2 28  1  0  0  0  0
  2 29  1  0  0  0  0
  3  4  1  0  0  0  0
  4 24  1  0  0  0  0
  4  5  1  0  0  0  0
  4 30  1  0  0  0  0
  5  6  1  0  0  0  0
  5 31  1  0  0  0  0
  5 32  1  0  0  0  0
  6  7  1  0  0  0  0
  6 33  1  0  0  0  0
  6 34  1  0  0  0  0
  7  8  1  0  0  0  0
  7 23  1  0  0  0  0
  8  9  1  0  0  0  0
  8 35  1  0  0  0  0
  8 36  1  0  0  0  0
  9 10  1  0  0  0  0
  9 11  1  0  0  0  0
  9 37  1  0  0  0  0
 10 38  1  0  0  0  0
 11 12  1  0  0  0  0
 11 39  1  0  0  0  0
 11 40  1  0  0  0  0
 12 22  1  0  0  0  0
 12 13  1  0  0  0  0
 13 14  2  0  0  0  0
 13 41  1  0  0  0  0
 14 15  1  0  0  0  0
 15 22  2  0  0  0  0
 15 16  1  0  0  0  0
 16 17  2  0  0  0  0
 16 42  1  0  0  0  0
 17 18  1  0  0  0  0
 17 19  1  0  0  0  0
 18 43  1  0  0  0  0
 18 44  1  0  0  0  0
 18 45  1  0  0  0  0
 19 20  1  0  0  0  0
 19 21  2  0  0  0  0
 20 46  1  0  0  0  0
 20 47  1  0  0  0  0
 20 48  1  0  0  0  0
 21 22  1  0  0  0  0
 21 49  1  0  0  0  0
 23 24  1  0  0  0  0
 23 50  1  0  0  0  0
 23 51  1  0  0  0  0
 24 52  1  0  0  0  0
 24 53  1  0  0  0  0
M  END
> <s_m_source_file>
AV-unprocessed.smi

> <i_m_source_file_index>
1697

> <i_lp_mmshare_version>
43012

> <i_f3d_flags>
0

> <s_epik_input>
W0NIM11bQ0gyXU9bQ0hdMVtDSDJdW0NIMl1OKFtDSDJdW0NIMl0xKVtDSDJdW0NASF0oW09IXSlbQ0gyXW4oW2NIXW4yKWMoYzIzKVtjSF1jKFtDSDNdKWMoW2NIXTMpW0NIM10=

> <s_epik_cmdline>
J2VwaWtfcHl0aG9uJywgJy1waCcsICc3LjAnLCAnLXRuJywgJzgnLCAnLW1hJywgJzIwMCcsICctbWV0YWxfYmluZGluZycsICctaW1hZScsICc8aW5maWxlLm1hZT4nLCAnLW9tYWUnLCAnPG91dGZpbGUubWFlPic=

> <r_epik_Ionization_Penalty>
1.9836

> <r_epik_Ionization_Penalty_Charging>
0

> <r_epik_Ionization_Penalty_Neutral>
1.9836

> <r_epik_State_Penalty>
2.07269

> <r_epik_Charging_Adjusted_Penalty>
2.07269

> <i_epik_Tot_Q>
0

> <i_epik_Tot_abs_Q>
0

> <r_epik_Metal_State_Penalty>
2.00215

> <b_epik_Metal_Only>
0

> <s_lp_Force_Field>
OPLS_2005

> <r_lp_Energy>
35.1996

> <b_lp_Chiralities_Consistent>
1

> <s_lp_Variant>
AV-unprocessed.smi:1697-10

> <Gold.Version>
5.8.1

> <Gold.Id.Protein>
6NUR|6NUR_protein|mol2

> <Gold.PLP.Fitness>
52.6902

> <Gold.PLP.PLP>
-48.9903

> <Gold.PLP.part.hbond>
-1.5576

> <Gold.PLP.part.metal>
0.0000

> <Gold.PLP.part.buried>
-9.0810

> <Gold.PLP.part.nonpolar>
-39.7939

> <Gold.PLP.part.repulsive>
0.2132

> <Gold.PLP.ligand.clash>
0.0000

> <Gold.PLP.ligand.torsion>
0.7183

> <Gold.PLP.Chemscore.Hbond>
1.6633

> <Gold.PLP.Chemscore.CHOScore>
0.0000

> <Gold.PLP.Chemscore.Metal>
0.0000

> <Gold.Chemscore.Hbonds>
donor molecule, donor type, donor heavy atom, donor atom, acceptor molecule, acceptor atom, score
      L1  H    10    38       P1  7957  0.94
      P1  H  7989  7998       L1    10  0.66

> <Gold.PLP.Chemscore.Internal.Correction>
0.1467

> <Gold.Rescore>
     Score         DG    S(hbond)    S(metal)    S(lipo)     H(rot)  DE(clash)    DE(int)     intcor
     19.20     -20.25       1.42        0.00     133.61       2.19       0.33       0.72       ----

> <Gold.Chemscore.Fitness>
19.2029

> <Gold.Chemscore.DG>
-20.2511

> <Gold.Chemscore.ZeroCoef>
-5.4800

> <Gold.Chemscore.Hbond>
1.4241

> <Gold.Chemscore.Metal>
0.0000

> <Gold.Chemscore.Lipo>
133.6075

> <Gold.Chemscore.Internal_Hbond>
0.0000

> <Gold.Chemscore.DEClash>
0.3331

> <Gold.Chemscore.DEInternal>
0.7151

> <Gold.Chemscore.Rot>
2.1943

> <Gold.Chemscore.Internal.Correction>
   9.000000E+99

> <Gold.Chemscore.Hbonds>
donor molecule, donor type, donor heavy atom, donor atom, acceptor molecule, acceptor atom, score
      L1  H    10    38       P1  7957  0.86
      P1  H  7989  7998       L1    10  0.21

> <Gold.Chemscore.Hbond.Weighted>
-4.7564

> <Gold.Chemscore.Metal.Weighted>
-0.0000

> <Gold.Chemscore.Lipo.Weighted>
-15.6321

> <Gold.Chemscore.Internal_Hbond.Weighted>
0.0000

> <Gold.Chemscore.DEClash.Weighted>
0.3331

> <Gold.Chemscore.DEInternal.Weighted>
0.7151

> <Gold.Chemscore.Rot.Weighted>
5.6174

> <Gold.Chemscore.Internal.Correction.Weighted>
   9.000000E+99

> <Gold.Protein.RotatedTorsions>
[ 6907 6896 6895 6894 ] final   37.46 input  -60.11 | X-H torsion
[ 7974 7965 7964 7962 ] final   46.78 input  175.53 | X-H torsion
[ 8008 7997 7996 7995 ] final -102.01 input   59.86 | X-H torsion
[ 10167 10162 10161 10158 ] final  127.94 input  -65.29 | X-H torsion
[ 10718 10713 10712 10709 ] final -111.69 input   66.30 | X-H torsion
[ 10763 10752 10751 10750 ] final -176.52 input  -60.55 | X-H torsion
[ 11005 11000 10999 10996 ] final   52.69 input  -57.11 | X-H torsion

> <Gold.Protein.ActiveResidues>
 VAL166  LYS551  ARG553  GLY616  TRP617  ASP618  TYR619  PRO620  LYS621  CYS622 
 ASP623  PHE694  ASN695  SER759  ASP760  ASP761  ALA762  ILE779  LEU786  VAL792 
 PHE793  MET794  SER795  GLU796  ALA797  LYS798  CYS799  TRP800  GLU811  SER814 

> <Gold.Protein.RotatedAtoms>
  152.1434  134.9045  160.0552 H   0  0  0  0  0  0  0  0  0  0  0  0  # atno 6907 bound_to 6896
  152.0104  133.3854  159.4225 H   0  0  0  0  0  0  0  0  0  0  0  0  # atno 6908 bound_to 6896
  150.6867  134.3658  159.5014 H   0  0  0  0  0  0  0  0  0  0  0  0  # atno 6909 bound_to 6896
  146.0358  139.4819  142.9809 H   0  0  0  0  0  0  0  0  0  0  0  0  # atno 7974 bound_to 7965
  154.8506  140.0431  157.1601 H   0  0  0  0  0  0  0  0  0  0  0  0  # atno 8008 bound_to 7997
  154.8947  140.2991  155.5330 H   0  0  0  0  0  0  0  0  0  0  0  0  # atno 8009 bound_to 7997
  156.2996  140.2387  156.3967 H   0  0  0  0  0  0  0  0  0  0  0  0  # atno 8010 bound_to 7997
  139.5552  144.6843  151.4203 H   0  0  0  0  0  0  0  0  0  0  0  0  # atno 10167 bound_to 10162
  156.0662  130.5880  150.8407 H   0  0  0  0  0  0  0  0  0  0  0  0  # atno 10718 bound_to 10713
  154.5714  135.2828  155.0824 H   0  0  0  0  0  0  0  0  0  0  0  0  # atno 10763 bound_to 10752
  154.2195  135.6393  153.5144 H   0  0  0  0  0  0  0  0  0  0  0  0  # atno 10764 bound_to 10752
  153.0058  135.5511  154.6338 H   0  0  0  0  0  0  0  0  0  0  0  0  # atno 10765 bound_to 10752
  140.0828  134.5315  155.8929 H   0  0  0  0  0  0  0  0  0  0  0  0  # atno 11005 bound_to 11000
  145.6965  141.0149  143.1527 LP  0  0  0  0  0  0  0  0  0  0  0  0  # atno 17320 bound_to 7965
  144.7051  139.8594  143.7432 LP  0  0  0  0  0  0  0  0  0  0  0  0  # atno 17321 bound_to 7965
  140.6824  143.8052  150.7139 LP  0  0  0  0  0  0  0  0  0  0  0  0  # atno 17342 bound_to 10162
  140.1509  143.4358  152.2132 LP  0  0  0  0  0  0  0  0  0  0  0  0  # atno 17343 bound_to 10162
  157.5704  131.0946  150.9426 LP  0  0  0  0  0  0  0  0  0  0  0  0  # atno 17370 bound_to 10713
  156.9643  130.5467  149.5287 LP  0  0  0  0  0  0  0  0  0  0  0  0  # atno 17371 bound_to 10713
  141.2052  133.6645  156.6169 LP  0  0  0  0  0  0  0  0  0  0  0  0  # atno 17394 bound_to 11000
  140.3463  134.7806  157.4435 LP  0  0  0  0  0  0  0  0  0  0  0  0  # atno 17395 bound_to 11000

$$$$
