AV-unprocessed.smi:1|AV-procd|sdf|4|dock3
  -GOLD-   2262015 83D 1   1.00000     0.00000
 Structure written by MMmdl.
 57 62  0  0  0  0  0  0  0  0  1 V2000
  154.6180  140.6628  159.5832 O   0  0  0  0  0  0  0  0  0  0  0  0
  154.1245  141.3295  160.4933 C   0  0  0  0  0  0  0  0  0  0  0  0
  154.4392  141.0846  161.8898 N   0  0  0  0  0  0  0  0  0  0  0  0
  155.2274  140.1167  162.4135 C   0  0  0  0  0  0  0  0  0  0  0  0
  156.3735  140.3943  163.0891 N   0  0  0  0  0  0  0  0  0  0  0  0
  157.1127  139.4028  163.5946 C   0  0  0  0  0  0  0  0  0  0  0  0
  156.8910  138.0880  163.5425 N   0  0  0  0  0  0  0  0  0  0  0  0
  155.7442  137.7987  162.8628 C   0  0  0  0  0  0  0  0  0  0  0  0
  154.8673  138.7512  162.2718 C   0  0  0  0  0  0  0  0  0  0  0  0
  153.8051  138.0978  161.6620 N   0  0  0  0  0  0  0  0  0  0  0  0
  154.0436  136.8332  161.8833 C   0  0  0  0  0  0  0  0  0  0  0  0
  155.1836  136.5627  162.6078 N   0  0  0  0  0  0  0  0  0  0  0  0
  155.7035  135.2191  163.0067 C   0  0  1  0  0  0  0  0  0  0  0  0
  154.7420  134.5631  163.7792 O   0  0  0  0  0  0  0  0  0  0  0  0
  154.3057  133.3690  163.1344 C   0  0  2  0  0  0  0  0  0  0  0  0
  153.9263  132.2965  164.1618 C   0  0  0  0  0  0  0  0  0  0  0  0
  154.9745  132.1715  165.1083 O   0  0  0  0  0  0  0  0  0  0  0  0
  155.1243  131.0270  165.8017 C   0  0  0  0  0  0  0  0  0  0  0  0
  154.4104  130.0345  165.6428 O   0  0  0  0  0  0  0  0  0  0  0  0
  156.2444  131.0871  166.7848 C   0  0  0  0  0  0  0  0  0  0  0  0
  156.5506  129.9422  167.5569 C   0  0  0  0  0  0  0  0  0  0  0  0
  157.6017  129.9689  168.4940 C   0  0  0  0  0  0  0  0  0  0  0  0
  158.3596  131.1411  168.6704 C   0  0  0  0  0  0  0  0  0  0  0  0
  158.0653  132.2868  167.9084 C   0  0  0  0  0  0  0  0  0  0  0  0
  157.0145  132.2622  166.9705 C   0  0  0  0  0  0  0  0  0  0  0  0
  155.4701  132.9863  162.2226 C   0  0  2  0  0  0  0  0  0  0  0  0
  156.4888  132.3088  162.9405 O   0  0  0  0  0  0  0  0  0  0  0  0
  157.9672  132.9212  162.4613 S   0  0  0  0  0  0  0  0  0  0  0  0
  158.6649  133.4235  163.6547 O   0  0  0  0  0  0  0  0  0  0  0  0
  158.5816  131.9676  161.5255 O   0  0  0  0  0  0  0  0  0  0  0  0
  157.4151  134.2323  161.5841 O   0  0  0  0  0  0  0  0  0  0  0  0
  156.0170  134.3462  161.7823 C   0  0  2  0  0  0  0  0  0  0  0  0
  153.2236  142.4980  160.2171 C   0  0  0  0  0  0  0  0  0  0  0  0
  152.7917  142.7610  158.8975 C   0  0  0  0  0  0  0  0  0  0  0  0
  151.9365  143.8479  158.6303 C   0  0  0  0  0  0  0  0  0  0  0  0
  151.4995  144.6762  159.6812 C   0  0  0  0  0  0  0  0  0  0  0  0
  151.9146  144.4141  161.0004 C   0  0  0  0  0  0  0  0  0  0  0  0
  152.7700  143.3276  161.2690 C   0  0  0  0  0  0  0  0  0  0  0  0
  154.0097  141.7110  162.5549 H   0  0  0  0  0  0  0  0  0  0  0  0
  158.0075  139.7067  164.1174 H   0  0  0  0  0  0  0  0  0  0  0  0
  153.3843  136.0559  161.5245 H   0  0  0  0  0  0  0  0  0  0  0  0
  156.5773  135.4295  163.6246 H   0  0  0  0  0  0  0  0  0  0  0  0
  153.4420  133.5990  162.5109 H   0  0  0  0  0  0  0  0  0  0  0  0
  153.0141  132.5895  164.6835 H   0  0  0  0  0  0  0  0  0  0  0  0
  153.7345  131.3423  163.6690 H   0  0  0  0  0  0  0  0  0  0  0  0
  155.9822  129.0306  167.4387 H   0  0  0  0  0  0  0  0  0  0  0  0
  157.8259  129.0885  169.0781 H   0  0  0  0  0  0  0  0  0  0  0  0
  159.1655  131.1614  169.3891 H   0  0  0  0  0  0  0  0  0  0  0  0
  158.6465  133.1874  168.0425 H   0  0  0  0  0  0  0  0  0  0  0  0
  156.8159  133.1590  166.4018 H   0  0  0  0  0  0  0  0  0  0  0  0
  155.1564  132.3695  161.3799 H   0  0  0  0  0  0  0  0  0  0  0  0
  155.5063  134.7128  160.8915 H   0  0  0  0  0  0  0  0  0  0  0  0
  153.1177  142.1343  158.0798 H   0  0  0  0  0  0  0  0  0  0  0  0
  151.6155  144.0453  157.6181 H   0  0  0  0  0  0  0  0  0  0  0  0
  150.8438  145.5095  159.4762 H   0  0  0  0  0  0  0  0  0  0  0  0
  151.5748  145.0455  161.8082 H   0  0  0  0  0  0  0  0  0  0  0  0
  153.0688  143.1394  162.2900 H   0  0  0  0  0  0  0  0  0  0  0  0
  1  2  2  0  0  0  0
  2  3  1  0  0  0  0
  2 33  1  0  0  0  0
  3  4  1  0  0  0  0
  3 39  1  0  0  0  0
  4  9  1  0  0  0  0
  4  5  2  0  0  0  0
  5  6  1  0  0  0  0
  6  7  2  0  0  0  0
  6 40  1  0  0  0  0
  7  8  1  0  0  0  0
  8 12  1  0  0  0  0
  8  9  2  0  0  0  0
  9 10  1  0  0  0  0
 10 11  2  0  0  0  0
 11 12  1  0  0  0  0
 11 41  1  0  0  0  0
 12 13  1  0  0  0  0
 13 32  1  0  0  0  0
 13 14  1  0  0  0  0
 13 42  1  0  0  0  0
 14 15  1  0  0  0  0
 15 16  1  0  0  0  0
 15 26  1  0  0  0  0
 15 43  1  0  0  0  0
 16 17  1  0  0  0  0
 16 44  1  0  0  0  0
 16 45  1  0  0  0  0
 17 18  1  0  0  0  0
 18 19  2  0  0  0  0
 18 20  1  0  0  0  0
 20 25  1  0  0  0  0
 20 21  2  0  0  0  0
 21 22  1  0  0  0  0
 21 46  1  0  0  0  0
 22 23  2  0  0  0  0
 22 47  1  0  0  0  0
 23 24  1  0  0  0  0
 23 48  1  0  0  0  0
 24 25  2  0  0  0  0
 24 49  1  0  0  0  0
 25 50  1  0  0  0  0
 26 32  1  0  0  0  0
 26 27  1  0  0  0  0
 26 51  1  0  0  0  0
 27 28  1  0  0  0  0
 28 29  2  0  0  0  0
 28 30  2  0  0  0  0
 28 31  1  0  0  0  0
 31 32  1  0  0  0  0
 32 52  1  0  0  0  0
 33 38  1  0  0  0  0
 33 34  2  0  0  0  0
 34 35  1  0  0  0  0
 34 53  1  0  0  0  0
 35 36  2  0  0  0  0
 35 54  1  0  0  0  0
 36 37  1  0  0  0  0
 36 55  1  0  0  0  0
 37 38  2  0  0  0  0
 37 56  1  0  0  0  0
 38 57  1  0  0  0  0
M  END
> <s_m_source_file>
AV-unprocessed.smi

> <i_m_source_file_index>
1

> <i_lp_mmshare_version>
43012

> <i_f3d_flags>
0

> <s_epik_input>
W2NIXTFbY0hdW2NIXVtjSF1bY0hdYzFDKD1PKVtOSF1jKG5bY0hdbjIpYyhjMjMpbltjSF1uM1tDQEBIXShbQ0BIXShbQ0BIXTQ1KU9TKE81KSg9Tyk9TylPW0NASF00W0NIMl1PQyg9TyljNltjSF1bY0hdW2NIXVtjSF1bY0hdNg==

> <s_epik_cmdline>
J2VwaWtfcHl0aG9uJywgJy1waCcsICc3LjAnLCAnLXRuJywgJzgnLCAnLW1hJywgJzIwMCcsICctbWV0YWxfYmluZGluZycsICctaW1hZScsICc8aW5maWxlLm1hZT4nLCAnLW9tYWUnLCAnPG91dGZpbGUubWFlPic=

> <r_lp_tautomer_probability>
1

> <r_epik_Ionization_Penalty>
0.00195722

> <r_epik_Ionization_Penalty_Charging>
0

> <r_epik_Ionization_Penalty_Neutral>
0.00195722

> <r_epik_State_Penalty>
0.00633741

> <r_epik_Charging_Adjusted_Penalty>
0.00633741

> <i_epik_Tot_Q>
0

> <i_epik_Tot_abs_Q>
0

> <r_epik_Metal_State_Penalty>
0.341185

> <b_epik_Metal_Only>
0

> <s_epik_Chemistry_Notes>
This compound has an ester and may undergo hydrolysis at high or low pH. This compound contains an acetal/aminal-like group ( X-CH(R)-Y where X, Y are N, S, or O) that may be acid/base labile, releasing an aldehyde.

> <s_lp_Force_Field>
OPLS_2005

> <r_lp_Energy>
46.3459

> <b_lp_Chiralities_Consistent>
1

> <s_lp_Variant>
AV-unprocessed.smi:1-4

> <Gold.Version>
5.8.1

> <Gold.Id.Protein>
6NUR|6NUR_protein|mol2

> <Gold.PLP.Fitness>
55.9484

> <Gold.PLP.PLP>
-56.9150

> <Gold.PLP.part.hbond>
-2.2594

> <Gold.PLP.part.metal>
0.0000

> <Gold.PLP.part.buried>
-6.1915

> <Gold.PLP.part.nonpolar>
-48.2631

> <Gold.PLP.part.repulsive>
0.0751

> <Gold.PLP.ligand.clash>
0.0000

> <Gold.PLP.ligand.torsion>
0.7964

> <Gold.PLP.Chemscore.Hbond>
0.0819

> <Gold.PLP.Chemscore.CHOScore>
0.0000

> <Gold.PLP.Chemscore.Metal>
0.0000

> <Gold.Chemscore.Hbonds>
donor molecule, donor type, donor heavy atom, donor atom, acceptor molecule, acceptor atom, score
      P1  H  7997  8009       L1     1  0.11

> <Gold.PLP.Chemscore.Internal.Correction>
0.3805

> <Gold.Rescore>
     Score         DG    S(hbond)    S(metal)    S(lipo)     H(rot)  DE(clash)    DE(int)     intcor
     14.84     -17.62       0.86        0.00     125.89       2.13       0.39       2.38       ----

> <Gold.Chemscore.Fitness>
14.8427

> <Gold.Chemscore.DG>
-17.6155

> <Gold.Chemscore.ZeroCoef>
-5.4800

> <Gold.Chemscore.Hbond>
0.8587

> <Gold.Chemscore.Metal>
0.0000

> <Gold.Chemscore.Lipo>
125.8876

> <Gold.Chemscore.Internal_Hbond>
0.0000

> <Gold.Chemscore.DEClash>
0.3926

> <Gold.Chemscore.DEInternal>
2.3802

> <Gold.Chemscore.Rot>
2.1333

> <Gold.Chemscore.Internal.Correction>
   9.000000E+99

> <Gold.Chemscore.Hbonds>
donor molecule, donor type, donor heavy atom, donor atom, acceptor molecule, acceptor atom, score
      P1  H  7997  8009       L1     1  0.11

> <Gold.Chemscore.Hbond.Weighted>
-2.8680

> <Gold.Chemscore.Metal.Weighted>
-0.0000

> <Gold.Chemscore.Lipo.Weighted>
-14.7288

> <Gold.Chemscore.Internal_Hbond.Weighted>
0.0000

> <Gold.Chemscore.DEClash.Weighted>
0.3926

> <Gold.Chemscore.DEInternal.Weighted>
2.3802

> <Gold.Chemscore.Rot.Weighted>
5.4614

> <Gold.Chemscore.Internal.Correction.Weighted>
   9.000000E+99

> <Gold.Protein.RotatedTorsions>
[ 6907 6896 6895 6894 ] final  -37.77 input  -60.11 | X-H torsion
[ 7974 7965 7964 7962 ] final   82.09 input  175.53 | X-H torsion
[ 8008 7997 7996 7995 ] final  118.74 input   59.86 | X-H torsion
[ 10167 10162 10161 10158 ] final  -51.89 input  -65.29 | X-H torsion
[ 10718 10713 10712 10709 ] final  170.86 input   66.30 | X-H torsion
[ 10763 10752 10751 10750 ] final  -92.20 input  -60.55 | X-H torsion
[ 11005 11000 10999 10996 ] final  -86.26 input  -57.11 | X-H torsion

> <Gold.Protein.ActiveResidues>
 VAL166  LYS551  ARG553  GLY616  TRP617  ASP618  TYR619  PRO620  LYS621  CYS622 
 ASP623  PHE694  ASN695  SER759  ASP760  ASP761  ALA762  ILE779  LEU786  VAL792 
 PHE793  MET794  SER795  GLU796  ALA797  LYS798  CYS799  TRP800  GLU811  SER814 

> <Gold.Protein.RotatedAtoms>
  151.0106  134.9394  159.8004 H   0  0  0  0  0  0  0  0  0  0  0  0  # atno 6907 bound_to 6896
  152.5301  134.3033  159.9096 H   0  0  0  0  0  0  0  0  0  0  0  0  # atno 6908 bound_to 6896
  151.3039  133.4068  159.2676 H   0  0  0  0  0  0  0  0  0  0  0  0  # atno 6909 bound_to 6896
  145.6296  139.2402  143.2092 H   0  0  0  0  0  0  0  0  0  0  0  0  # atno 7974 bound_to 7965
  156.2561  140.2868  156.0881 H   0  0  0  0  0  0  0  0  0  0  0  0  # atno 8008 bound_to 7997
  155.1492  140.0397  157.2834 H   0  0  0  0  0  0  0  0  0  0  0  0  # atno 8009 bound_to 7997
  154.6473  140.2536  155.7260 H   0  0  0  0  0  0  0  0  0  0  0  0  # atno 8010 bound_to 7997
  140.6565  143.2603  151.4569 H   0  0  0  0  0  0  0  0  0  0  0  0  # atno 10167 bound_to 10162
  157.0020  131.0179  151.2828 H   0  0  0  0  0  0  0  0  0  0  0  0  # atno 10718 bound_to 10713
  154.6837  135.5240  153.8297 H   0  0  0  0  0  0  0  0  0  0  0  0  # atno 10763 bound_to 10752
  153.0582  135.6558  154.0535 H   0  0  0  0  0  0  0  0  0  0  0  0  # atno 10764 bound_to 10752
  154.0419  135.2976  155.3333 H   0  0  0  0  0  0  0  0  0  0  0  0  # atno 10765 bound_to 10752
  141.1632  133.7445  156.9135 H   0  0  0  0  0  0  0  0  0  0  0  0  # atno 11005 bound_to 11000
  146.1367  140.7113  142.9386 LP  0  0  0  0  0  0  0  0  0  0  0  0  # atno 17320 bound_to 7965
  144.7199  140.4337  143.7016 LP  0  0  0  0  0  0  0  0  0  0  0  0  # atno 17321 bound_to 7965
  139.5789  144.1754  152.1941 LP  0  0  0  0  0  0  0  0  0  0  0  0  # atno 17342 bound_to 10162
  140.1074  144.5487  150.6948 LP  0  0  0  0  0  0  0  0  0  0  0  0  # atno 17343 bound_to 10162
  157.5383  130.8103  149.7998 LP  0  0  0  0  0  0  0  0  0  0  0  0  # atno 17370 bound_to 10713
  156.0167  130.3811  150.2087 LP  0  0  0  0  0  0  0  0  0  0  0  0  # atno 17371 bound_to 10713
  140.1500  134.9236  157.2580 LP  0  0  0  0  0  0  0  0  0  0  0  0  # atno 17394 bound_to 11000
  140.2734  134.3434  155.7366 LP  0  0  0  0  0  0  0  0  0  0  0  0  # atno 17395 bound_to 11000

$$$$
