#       Name:                AV-unprocessed.smi:1380
#       Creating user name   scv26
#       Creation time:       Fri Mar 27 05:20:44 2020


#       File generated by GOLD software.
#

@<TRIPOS>MOLECULE
AV-unprocessed.smi:1380
    36    37     1
SMALL
NO_CHARGES


@<TRIPOS>ATOM
      1 ****         0.2051   2.0803   0.9277 O.2            1 S1                 0.0000
      2 ****         0.0446   0.9460   1.3787 C.2            1 S1                 0.0000
      3 ****         1.0383   0.0682   1.5711 N.am           1 S1                 0.0000
      4 ****         2.4391   0.3082   1.2380 C.3            1 S1                 0.0000
      5 ****         2.7125   0.2257  -0.2768 C.3            1 S1                 0.0000
      6 ****         2.1958  -1.0526  -0.9141 C.ar           1 S1                 0.0000
      7 ****         2.9178  -2.2582  -0.8005 C.ar           1 S1                 0.0000
      8 ****         2.3957  -3.4205  -1.3998 C.ar           1 S1                 0.0000
      9 ****         1.1705  -3.3268  -2.0897 C.ar           1 S1                 0.0000
     10 ****         0.4700  -2.1779  -2.2050 N.ar           1 S1                 0.0000
     11 ****         0.9785  -1.0675  -1.6289 C.ar           1 S1                 0.0000
     12 ****        -1.1451   0.4332   1.7201 N.am           1 S1                 0.0000
     13 ****        -2.4193   1.1239   1.5748 C.3            1 S1                 0.0000
     14 ****        -2.9681   1.1543   0.1609 C.3            1 S1                 0.0000
     15 ****        -2.7330   2.3416  -0.7446 C.3            1 S1                 0.0000
     16 ****        -4.1127   2.0741  -0.1947 C.3            1 S1                 0.0000
     17 ****         0.8076  -0.8407   1.9451 H              1 S1                 0.0000
     18 ****         2.7602   1.2741   1.6307 H              1 S1                 0.0000
     19 ****         3.0316  -0.4465   1.7557 H              1 S1                 0.0000
     20 ****         2.2600   1.0803  -0.7817 H              1 S1                 0.0000
     21 ****         3.7846   0.3033  -0.4605 H              1 S1                 0.0000
     22 ****         3.8531  -2.2932  -0.2615 H              1 S1                 0.0000
     23 ****         2.9213  -4.3615  -1.3323 H              1 S1                 0.0000
     24 ****         0.7412  -4.1987  -2.5607 H              1 S1                 0.0000
     25 ****         0.3916  -0.1667  -1.7348 H              1 S1                 0.0000
     26 ****        -1.1745  -0.5094   2.0806 H              1 S1                 0.0000
     27 ****        -3.1439   0.6131   2.2089 H              1 S1                 0.0000
     28 ****        -2.3392   2.1415   1.9614 H              1 S1                 0.0000
     29 ****        -2.9881   0.1786  -0.3212 H              1 S1                 0.0000
     30 ****        -2.1854   3.1895  -0.3378 H              1 S1                 0.0000
     31 ****        -2.5625   2.1405  -1.8002 H              1 S1                 0.0000
     32 ****        -4.8646   1.6967  -0.8848 H              1 S1                 0.0000
     33 ****        -4.4828   2.7470   0.5762 H              1 S1                 0.0000
     34 ****         1.1215   2.3950   0.6804 LP             1 S1                 0.0000
     35 ****        -0.5809   2.6869   0.8087 LP             1 S1                 0.0000
     36 ****        -0.3977  -2.1504  -2.7013 LP             1 S1                 0.0000
@<TRIPOS>BOND
    1    1    2 2     
    2    2    3 am    
    3    2   12 am    
    4    3    4 1     
    5    3   17 1     
    6    4    5 1     
    7    4   18 1     
    8    4   19 1     
    9    5    6 1     
   10    5   20 1     
   11    5   21 1     
   12    6   11 ar    
   13    6    7 ar    
   14    7    8 ar    
   15    7   22 1     
   16    8    9 ar    
   17    8   23 1     
   18    9   10 ar    
   19    9   24 1     
   20   10   11 ar    
   21   11   25 1     
   22   12   13 1     
   23   12   26 1     
   24   13   14 1     
   25   13   27 1     
   26   13   28 1     
   27   14   16 1     
   28   14   15 1     
   29   14   29 1     
   30   15   16 1     
   31   15   30 1     
   32   15   31 1     
   33   16   32 1     
   34   16   33 1     
   35    1   34 1     
   36    1   35 1     
   37   10   36 1     
@<TRIPOS>SUBSTRUCTURE
      1 S1             1
@<TRIPOS>SET
LONE_PAIRS      STATIC     ATOMS    <user>   **** ""
3 34 35 36
DONOR_HYDROGENS      STATIC     ATOMS    <user>   **** ""
2 17 26
ATOM$BLUE        STATIC     ATOMS    COLORGROUP SYSTEM
3 34 35 36
ATOM$RED        STATIC     ATOMS    COLORGROUP SYSTEM
2 17 26
