AV-unprocessed.smi:2061|AV-procd|sdf|8371|dock8
  -GOLD-   2272011 43D 1   1.00000     0.00000
 Structure written by MMmdl.
 46 47  0  0  0  0  0  0  0  0  2 V2000
  153.2248  142.3366  160.2875 C   0  0  0  0  0  0  0  0  0  0  0  0
  152.3937  142.6795  159.0991 C   0  0  0  0  0  0  0  0  0  0  0  0
  151.5384  141.9515  158.3210 C   0  0  0  0  0  0  0  0  0  0  0  0
  151.0870  142.9063  157.3636 C   0  0  0  0  0  0  0  0  0  0  0  0
  150.1713  142.6686  156.3061 N   0  0  0  0  0  0  0  0  0  0  0  0
  149.9366  141.5215  155.6469 C   0  0  0  0  0  0  0  0  0  0  0  0
  150.5080  140.4506  155.8515 O   0  0  0  0  0  0  0  0  0  0  0  0
  148.9856  141.6841  154.7147 N   0  0  0  0  0  0  0  0  0  0  0  0
  148.4520  140.6304  153.8536 C   0  0  0  0  0  0  0  0  0  0  0  0
  147.1173  141.0155  153.1538 C   0  0  1  0  0  0  0  0  0  0  0  0
  146.6719  139.8994  152.1760 C   0  0  0  0  0  0  0  0  0  0  0  0
  146.0345  141.3486  154.1424 N   0  3  1  0  0  0  0  0  0  0  0  0
  145.8955  140.3589  155.2470 C   0  0  0  0  0  0  0  0  0  0  0  0
  144.7391  140.7209  156.1964 C   0  0  1  0  0  0  0  0  0  0  0  0
  144.6596  139.7644  157.3913 C   0  0  0  0  0  0  0  0  0  0  0  0
  144.9279  142.0339  156.7062 O   0  0  0  0  0  0  0  0  0  0  0  0
  145.0129  143.0410  155.7040 C   0  0  2  0  0  0  0  0  0  0  0  0
  143.6602  143.3075  155.0180 C   0  0  0  0  0  0  0  0  0  0  0  0
  146.1533  142.7181  154.7190 C   0  0  0  0  0  0  0  0  0  0  0  0
  151.6233  144.0994  157.5431 N   0  0  0  0  0  0  0  0  0  0  0  0
  152.4612  143.9638  158.6560 O   0  0  0  0  0  0  0  0  0  0  0  0
  153.2112  141.2629  160.4761 H   0  0  0  0  0  0  0  0  0  0  0  0
  152.8513  142.8414  161.1786 H   0  0  0  0  0  0  0  0  0  0  0  0
  154.2610  142.6394  160.1354 H   0  0  0  0  0  0  0  0  0  0  0  0
  151.2889  140.9074  158.4338 H   0  0  0  0  0  0  0  0  0  0  0  0
  149.6163  143.4660  156.0322 H   0  0  0  0  0  0  0  0  0  0  0  0
  148.5761  142.6017  154.6137 H   0  0  0  0  0  0  0  0  0  0  0  0
  149.1896  140.3135  153.1143 H   0  0  0  0  0  0  0  0  0  0  0  0
  148.3089  139.7876  154.5273 H   0  0  0  0  0  0  0  0  0  0  0  0
  147.3055  141.9133  152.5626 H   0  0  0  0  0  0  0  0  0  0  0  0
  147.4649  139.6185  151.4849 H   0  0  0  0  0  0  0  0  0  0  0  0
  145.8477  140.2075  151.5354 H   0  0  0  0  0  0  0  0  0  0  0  0
  146.3702  138.9992  152.7127 H   0  0  0  0  0  0  0  0  0  0  0  0
  145.6771  139.3665  154.8582 H   0  0  0  0  0  0  0  0  0  0  0  0
  146.8357  140.2945  155.7974 H   0  0  0  0  0  0  0  0  0  0  0  0
  143.7927  140.6638  155.6585 H   0  0  0  0  0  0  0  0  0  0  0  0
  144.5060  138.7359  157.0632 H   0  0  0  0  0  0  0  0  0  0  0  0
  143.8307  140.0302  158.0478 H   0  0  0  0  0  0  0  0  0  0  0  0
  145.5754  139.7941  157.9827 H   0  0  0  0  0  0  0  0  0  0  0  0
  145.2813  143.9587  156.2282 H   0  0  0  0  0  0  0  0  0  0  0  0
  143.7227  144.1810  154.3684 H   0  0  0  0  0  0  0  0  0  0  0  0
  142.8821  143.5032  155.7563 H   0  0  0  0  0  0  0  0  0  0  0  0
  143.3345  142.4707  154.4007 H   0  0  0  0  0  0  0  0  0  0  0  0
  147.1131  142.8026  155.2313 H   0  0  0  0  0  0  0  0  0  0  0  0
  146.1380  143.4831  153.9456 H   0  0  0  0  0  0  0  0  0  0  0  0
  145.1638  141.3275  153.6306 H   0  0  0  0  0  0  0  0  0  0  0  0
  1  2  1  0  0  0  0
  1 22  1  0  0  0  0
  1 23  1  0  0  0  0
  1 24  1  0  0  0  0
  2 21  1  0  0  0  0
  2  3  2  0  0  0  0
  3  4  1  0  0  0  0
  3 25  1  0  0  0  0
  4  5  1  0  0  0  0
  4 20  2  0  0  0  0
  5  6  1  0  0  0  0
  5 26  1  0  0  0  0
  6  7  2  0  0  0  0
  6  8  1  0  0  0  0
  8  9  1  0  0  0  0
  8 27  1  0  0  0  0
  9 10  1  0  0  0  0
  9 28  1  0  0  0  0
  9 29  1  0  0  0  0
 10 11  1  0  0  0  0
 10 12  1  0  0  0  0
 10 30  1  0  0  0  0
 11 31  1  0  0  0  0
 11 32  1  0  0  0  0
 11 33  1  0  0  0  0
 12 19  1  0  0  0  0
 12 13  1  0  0  0  0
 12 46  1  0  0  0  0
 13 14  1  0  0  0  0
 13 34  1  0  0  0  0
 13 35  1  0  0  0  0
 14 15  1  0  0  0  0
 14 16  1  0  0  0  0
 14 36  1  0  0  0  0
 15 37  1  0  0  0  0
 15 38  1  0  0  0  0
 15 39  1  0  0  0  0
 16 17  1  0  0  0  0
 17 18  1  0  0  0  0
 17 19  1  0  0  0  0
 17 40  1  0  0  0  0
 18 41  1  0  0  0  0
 18 42  1  0  0  0  0
 18 43  1  0  0  0  0
 19 44  1  0  0  0  0
 19 45  1  0  0  0  0
 20 21  1  0  0  0  0
M  CHG  1  12   1
M  END
> <s_m_source_file>
AV-unprocessed.smi

> <i_m_source_file_index>
2061

> <i_lp_mmshare_version>
43012

> <i_f3d_flags>
0

> <s_epik_input>
W0NIM11jMVtjSF1jKG5vMSlbTkhdQyg9TylbTkhdW0NIMl1bQ0BIXShbQ0gzXSlOMltDSDJdW0NAQEhdKFtDSDNdKU9bQ0BASF0oW0NIM10pW0NIMl0y

> <s_epik_cmdline>
J2VwaWtfcHl0aG9uJywgJy1waCcsICc3LjAnLCAnLXRuJywgJzgnLCAnLW1hJywgJzIwMCcsICctbWV0YWxfYmluZGluZycsICctaW1hZScsICc8aW5maWxlLm1hZT4nLCAnLW9tYWUnLCAnPG91dGZpbGUubWFlPic=

> <r_epik_Ionization_Penalty>
0.707076

> <r_epik_Ionization_Penalty_Charging>
0.707039

> <r_epik_Ionization_Penalty_Neutral>
3.6548e-05

> <r_epik_State_Penalty>
0.730276

> <r_epik_Charging_Adjusted_Penalty>
1.43732

> <i_epik_Tot_Q>
1

> <i_epik_Tot_abs_Q>
1

> <r_epik_Metal_State_Penalty>
0.743132

> <b_epik_Metal_Only>
0

> <s_lp_Force_Field>
OPLS_2005

> <r_lp_Energy>
23.7206

> <b_lp_Chiralities_Consistent>
1

> <s_lp_Variant>
AV-unprocessed.smi:2061-12

> <Gold.Version>
5.8.1

> <Gold.Id.Protein>
6NUR|6NUR_protein|mol2

> <Gold.PLP.Fitness>
39.9780

> <Gold.PLP.PLP>
-31.7741

> <Gold.PLP.part.hbond>
-2.5164

> <Gold.PLP.part.metal>
0.0000

> <Gold.PLP.part.buried>
-3.3729

> <Gold.PLP.part.nonpolar>
-27.7551

> <Gold.PLP.part.repulsive>
0.4778

> <Gold.PLP.ligand.clash>
0.0000

> <Gold.PLP.ligand.torsion>
0.5902

> <Gold.PLP.Chemscore.Hbond>
3.1141

> <Gold.PLP.Chemscore.CHOScore>
0.0000

> <Gold.PLP.Chemscore.Metal>
0.0000

> <Gold.Chemscore.Hbonds>
donor molecule, donor type, donor heavy atom, donor atom, acceptor molecule, acceptor atom, score
      L1  H     5    26       P1  8028  0.91
      L1  H     8    27       P1  8028  0.13
      L1  H    12    46       P1 10175  1.95

> <Gold.PLP.Chemscore.Internal.Correction>
0.0420

> <Gold.Rescore>
     Score         DG    S(hbond)    S(metal)    S(lipo)     H(rot)  DE(clash)    DE(int)     intcor
     13.93     -15.56       1.92        0.00      65.96       1.58       0.15       1.49       ----

> <Gold.Chemscore.Fitness>
13.9266

> <Gold.Chemscore.DG>
-15.5641

> <Gold.Chemscore.ZeroCoef>
-5.4800

> <Gold.Chemscore.Hbond>
1.9222

> <Gold.Chemscore.Metal>
0.0000

> <Gold.Chemscore.Lipo>
65.9594

> <Gold.Chemscore.Internal_Hbond>
0.0000

> <Gold.Chemscore.DEClash>
0.1475

> <Gold.Chemscore.DEInternal>
1.4900

> <Gold.Chemscore.Rot>
1.5834

> <Gold.Chemscore.Internal.Correction>
   9.000000E+99

> <Gold.Chemscore.Hbonds>
donor molecule, donor type, donor heavy atom, donor atom, acceptor molecule, acceptor atom, score
      L1  H     5    26       P1  8028  0.89
      L1  H     8    27       P1  8028  0.14
      L1  H    12    46       P1 10175  0.27

> <Gold.Chemscore.Hbond.Weighted>
-6.4203

> <Gold.Chemscore.Metal.Weighted>
-0.0000

> <Gold.Chemscore.Lipo.Weighted>
-7.7173

> <Gold.Chemscore.Internal_Hbond.Weighted>
0.0000

> <Gold.Chemscore.DEClash.Weighted>
0.1475

> <Gold.Chemscore.DEInternal.Weighted>
1.4900

> <Gold.Chemscore.Rot.Weighted>
4.0535

> <Gold.Chemscore.Internal.Correction.Weighted>
   9.000000E+99

> <Gold.Protein.RotatedTorsions>
[ 6907 6896 6895 6894 ] final  134.69 input  -60.11 | X-H torsion
[ 7974 7965 7964 7962 ] final    1.88 input  175.53 | X-H torsion
[ 8008 7997 7996 7995 ] final  130.83 input   59.86 | X-H torsion
[ 10167 10162 10161 10158 ] final  156.05 input  -65.29 | X-H torsion
[ 10718 10713 10712 10709 ] final  -90.78 input   66.30 | X-H torsion
[ 10763 10752 10751 10750 ] final  -88.41 input  -60.55 | X-H torsion
[ 11005 11000 10999 10996 ] final  160.89 input  -57.11 | X-H torsion

> <Gold.Protein.ActiveResidues>
 VAL166  LYS551  ARG553  GLY616  TRP617  ASP618  TYR619  PRO620  LYS621  CYS622 
 ASP623  PHE694  ASN695  SER759  ASP760  ASP761  ALA762  ILE779  LEU786  VAL792 
 PHE793  MET794  SER795  GLU796  ALA797  LYS798  CYS799  TRP800  GLU811  SER814 

> <Gold.Protein.RotatedAtoms>
  152.3086  133.5729  159.5665 H   0  0  0  0  0  0  0  0  0  0  0  0  # atno 6907 bound_to 6896
  150.7312  134.0186  159.3702 H   0  0  0  0  0  0  0  0  0  0  0  0  # atno 6908 bound_to 6896
  151.8080  135.0689  160.0460 H   0  0  0  0  0  0  0  0  0  0  0  0  # atno 6909 bound_to 6896
  146.2442  140.0920  142.8351 H   0  0  0  0  0  0  0  0  0  0  0  0  # atno 7974 bound_to 7965
  156.2961  140.2586  156.2826 H   0  0  0  0  0  0  0  0  0  0  0  0  # atno 8008 bound_to 7997
  154.9587  140.0393  157.2198 H   0  0  0  0  0  0  0  0  0  0  0  0  # atno 8009 bound_to 7997
  154.7967  140.2821  155.5956 H   0  0  0  0  0  0  0  0  0  0  0  0  # atno 8010 bound_to 7997
  139.4821  144.5044  151.8120 H   0  0  0  0  0  0  0  0  0  0  0  0  # atno 10167 bound_to 10162
  155.9989  130.4923  150.5374 H   0  0  0  0  0  0  0  0  0  0  0  0  # atno 10718 bound_to 10713
  154.6443  135.5378  153.7826 H   0  0  0  0  0  0  0  0  0  0  0  0  # atno 10763 bound_to 10752
  153.0350  135.6467  154.1113 H   0  0  0  0  0  0  0  0  0  0  0  0  # atno 10764 bound_to 10752
  154.1035  135.2931  155.3226 H   0  0  0  0  0  0  0  0  0  0  0  0  # atno 10765 bound_to 10752
  140.2104  134.8272  157.3114 H   0  0  0  0  0  0  0  0  0  0  0  0  # atno 11005 bound_to 11000
  145.0642  140.9109  143.4920 LP  0  0  0  0  0  0  0  0  0  0  0  0  # atno 17320 bound_to 7965
  145.1041  139.2802  143.5671 LP  0  0  0  0  0  0  0  0  0  0  0  0  # atno 17321 bound_to 7965
  140.4540  144.1815  150.5900 LP  0  0  0  0  0  0  0  0  0  0  0  0  # atno 17342 bound_to 10162
  140.4555  143.2469  151.9291 LP  0  0  0  0  0  0  0  0  0  0  0  0  # atno 17343 bound_to 10162
  157.3315  131.0700  151.1857 LP  0  0  0  0  0  0  0  0  0  0  0  0  # atno 17370 bound_to 10713
  157.2736  130.6716  149.6031 LP  0  0  0  0  0  0  0  0  0  0  0  0  # atno 17371 bound_to 10713
  140.1957  134.4316  155.7690 LP  0  0  0  0  0  0  0  0  0  0  0  0  # atno 17394 bound_to 11000
  141.2226  133.7048  156.8101 LP  0  0  0  0  0  0  0  0  0  0  0  0  # atno 17395 bound_to 11000

$$$$
