AV-unprocessed.smi:2959|AV-procd|sdf|11309|dock2
  -GOLD-   2272016203D 1   1.00000     0.00000
 Structure written by MMmdl.
 45 47  0  0  0  0  0  0  0  0  1 V2000
  147.2589  134.7661  161.6678 C   0  0  0  0  0  0  0  0  0  0  0  0
  147.7489  136.0973  161.1065 C   0  0  0  0  0  0  0  0  0  0  0  0
  147.6127  137.1288  161.7629 O   0  0  0  0  0  0  0  0  0  0  0  0
  148.3210  136.0621  159.8952 N   0  0  0  0  0  0  0  0  0  0  0  0
  148.8466  137.2246  159.1898 C   0  0  0  0  0  0  0  0  0  0  0  0
  149.2035  136.8984  157.7269 C   0  0  0  0  0  0  0  0  0  0  0  0
  148.8294  137.9853  156.7562 C   0  0  0  0  0  0  0  0  0  0  0  0
  148.1015  137.7136  155.6714 N   0  0  0  0  0  0  0  0  0  0  0  0
  147.9938  138.9431  155.0552 C   0  0  0  0  0  0  0  0  0  0  0  0
  147.3553  139.3135  153.8502 C   0  0  0  0  0  0  0  0  0  0  0  0
  147.3764  140.6545  153.4143 C   0  0  0  0  0  0  0  0  0  0  0  0
  148.0335  141.6420  154.1766 C   0  0  0  0  0  0  0  0  0  0  0  0
  148.6740  141.2935  155.3812 C   0  0  0  0  0  0  0  0  0  0  0  0
  148.6516  139.9528  155.8115 C   0  0  0  0  0  0  0  0  0  0  0  0
  149.1653  139.2926  156.9246 N   0  0  0  0  0  0  0  0  0  0  0  0
  149.8904  139.9324  158.0156 C   0  0  0  0  0  0  0  0  0  0  0  0
  151.3773  140.1469  157.6985 C   0  0  0  0  0  0  0  0  0  0  0  0
  152.0253  140.7362  158.8163 O   0  0  0  0  0  0  0  0  0  0  0  0
  152.0448  142.1111  158.9096 C   0  0  0  0  0  0  0  0  0  0  0  0
  152.5080  142.6638  160.1217 C   0  0  0  0  0  0  0  0  0  0  0  0
  152.5753  144.0587  160.2998 C   0  0  0  0  0  0  0  0  0  0  0  0
  152.1754  144.9195  159.2614 C   0  0  0  0  0  0  0  0  0  0  0  0
  151.7080  144.3821  158.0476 C   0  0  0  0  0  0  0  0  0  0  0  0
  151.6417  142.9863  157.8696 C   0  0  0  0  0  0  0  0  0  0  0  0
  146.2306  134.8591  162.0175 H   0  0  0  0  0  0  0  0  0  0  0  0
  147.8816  134.4616  162.5091 H   0  0  0  0  0  0  0  0  0  0  0  0
  147.2929  133.9776  160.9148 H   0  0  0  0  0  0  0  0  0  0  0  0
  148.3977  135.1693  159.4291 H   0  0  0  0  0  0  0  0  0  0  0  0
  148.0934  138.0141  159.2113 H   0  0  0  0  0  0  0  0  0  0  0  0
  149.7233  137.6089  159.7126 H   0  0  0  0  0  0  0  0  0  0  0  0
  150.2756  136.7179  157.6443 H   0  0  0  0  0  0  0  0  0  0  0  0
  148.7224  135.9613  157.4556 H   0  0  0  0  0  0  0  0  0  0  0  0
  146.8486  138.5642  153.2602 H   0  0  0  0  0  0  0  0  0  0  0  0
  146.8854  140.9266  152.4914 H   0  0  0  0  0  0  0  0  0  0  0  0
  148.0445  142.6672  153.8367 H   0  0  0  0  0  0  0  0  0  0  0  0
  149.1770  142.0489  155.9663 H   0  0  0  0  0  0  0  0  0  0  0  0
  149.4241  140.9001  158.2030 H   0  0  0  0  0  0  0  0  0  0  0  0
  149.7590  139.3652  158.9365 H   0  0  0  0  0  0  0  0  0  0  0  0
  151.8408  139.1938  157.4390 H   0  0  0  0  0  0  0  0  0  0  0  0
  151.4663  140.8092  156.8359 H   0  0  0  0  0  0  0  0  0  0  0  0
  152.8201  142.0103  160.9232 H   0  0  0  0  0  0  0  0  0  0  0  0
  152.9353  144.4669  161.2327 H   0  0  0  0  0  0  0  0  0  0  0  0
  152.2271  145.9899  159.3955 H   0  0  0  0  0  0  0  0  0  0  0  0
  151.4008  145.0420  157.2496 H   0  0  0  0  0  0  0  0  0  0  0  0
  151.2824  142.6121  156.9232 H   0  0  0  0  0  0  0  0  0  0  0  0
  1  2  1  0  0  0  0
  1 25  1  0  0  0  0
  1 26  1  0  0  0  0
  1 27  1  0  0  0  0
  2  3  2  0  0  0  0
  2  4  1  0  0  0  0
  4  5  1  0  0  0  0
  4 28  1  0  0  0  0
  5  6  1  0  0  0  0
  5 29  1  0  0  0  0
  5 30  1  0  0  0  0
  6  7  1  0  0  0  0
  6 31  1  0  0  0  0
  6 32  1  0  0  0  0
  7 15  1  0  0  0  0
  7  8  2  0  0  0  0
  8  9  1  0  0  0  0
  9 14  2  0  0  0  0
  9 10  1  0  0  0  0
 10 11  2  0  0  0  0
 10 33  1  0  0  0  0
 11 12  1  0  0  0  0
 11 34  1  0  0  0  0
 12 13  2  0  0  0  0
 12 35  1  0  0  0  0
 13 14  1  0  0  0  0
 13 36  1  0  0  0  0
 14 15  1  0  0  0  0
 15 16  1  0  0  0  0
 16 17  1  0  0  0  0
 16 37  1  0  0  0  0
 16 38  1  0  0  0  0
 17 18  1  0  0  0  0
 17 39  1  0  0  0  0
 17 40  1  0  0  0  0
 18 19  1  0  0  0  0
 19 24  1  0  0  0  0
 19 20  2  0  0  0  0
 20 21  1  0  0  0  0
 20 41  1  0  0  0  0
 21 22  2  0  0  0  0
 21 42  1  0  0  0  0
 22 23  1  0  0  0  0
 22 43  1  0  0  0  0
 23 24  2  0  0  0  0
 23 44  1  0  0  0  0
 24 45  1  0  0  0  0
M  END
> <s_m_source_file>
AV-unprocessed.smi

> <i_m_source_file_index>
2959

> <i_lp_mmshare_version>
43012

> <i_f3d_flags>
0

> <s_epik_input>
W0NIM11DKD1PKVtOSF1bQ0gyXVtDSDJdYyhuMSluKGMoYzEyKVtjSF1bY0hdW2NIXVtjSF0yKVtDSDJdW0NIMl1PYzNbY0hdW2NIXVtjSF1bY0hdW2NIXTM=

> <s_epik_cmdline>
J2VwaWtfcHl0aG9uJywgJy1waCcsICc3LjAnLCAnLXRuJywgJzgnLCAnLW1hJywgJzIwMCcsICctbWV0YWxfYmluZGluZycsICctaW1hZScsICc8aW5maWxlLm1hZT4nLCAnLW9tYWUnLCAnPG91dGZpbGUubWFlPic=

> <r_lp_tautomer_probability>
1

> <r_epik_Ionization_Penalty>
0.11099

> <r_epik_Ionization_Penalty_Charging>
0

> <r_epik_Ionization_Penalty_Neutral>
0.11099

> <r_epik_State_Penalty>
0.100724

> <r_epik_Charging_Adjusted_Penalty>
0.100724

> <i_epik_Tot_Q>
0

> <i_epik_Tot_abs_Q>
0

> <r_epik_Metal_State_Penalty>
0.0847

> <b_epik_Metal_Only>
0

> <s_lp_Force_Field>
OPLS_2005

> <r_lp_Energy>
14.3457

> <b_lp_Chiralities_Consistent>
1

> <s_lp_Variant>
AV-unprocessed.smi:2959-1

> <Gold.Version>
5.8.1

> <Gold.Id.Protein>
6NUR|6NUR_protein|mol2

> <Gold.PLP.Fitness>
48.2529

> <Gold.PLP.PLP>
-45.0117

> <Gold.PLP.part.hbond>
-2.0000

> <Gold.PLP.part.metal>
0.0000

> <Gold.PLP.part.buried>
-6.4884

> <Gold.PLP.part.nonpolar>
-36.4863

> <Gold.PLP.part.repulsive>
0.2130

> <Gold.PLP.ligand.clash>
0.0000

> <Gold.PLP.ligand.torsion>
0.9880

> <Gold.PLP.Chemscore.Hbond>
1.7120

> <Gold.PLP.Chemscore.CHOScore>
0.0000

> <Gold.PLP.Chemscore.Metal>
0.0000

> <Gold.Chemscore.Hbonds>
donor molecule, donor type, donor heavy atom, donor atom, acceptor molecule, acceptor atom, score
      P1  H  6931  6943       L1     3  1.00
      P1  H  6934  6947       L1     3  0.60

> <Gold.PLP.Chemscore.Internal.Correction>
0.0812

> <Gold.Rescore>
     Score         DG    S(hbond)    S(metal)    S(lipo)     H(rot)  DE(clash)    DE(int)     intcor
     19.03     -19.98       1.66        0.00     123.22       2.14       0.02       0.93       ----

> <Gold.Chemscore.Fitness>
19.0261

> <Gold.Chemscore.DG>
-19.9781

> <Gold.Chemscore.ZeroCoef>
-5.4800

> <Gold.Chemscore.Hbond>
1.6612

> <Gold.Chemscore.Metal>
0.0000

> <Gold.Chemscore.Lipo>
123.2211

> <Gold.Chemscore.Internal_Hbond>
0.0000

> <Gold.Chemscore.DEClash>
0.0222

> <Gold.Chemscore.DEInternal>
0.9299

> <Gold.Chemscore.Rot>
2.1356

> <Gold.Chemscore.Internal.Correction>
   9.000000E+99

> <Gold.Chemscore.Hbonds>
donor molecule, donor type, donor heavy atom, donor atom, acceptor molecule, acceptor atom, score
      P1  H  6931  6943       L1     3  0.92
      P1  H  6934  6947       L1     3  0.59

> <Gold.Chemscore.Hbond.Weighted>
-5.5484

> <Gold.Chemscore.Metal.Weighted>
-0.0000

> <Gold.Chemscore.Lipo.Weighted>
-14.4169

> <Gold.Chemscore.Internal_Hbond.Weighted>
0.0000

> <Gold.Chemscore.DEClash.Weighted>
0.0222

> <Gold.Chemscore.DEInternal.Weighted>
0.9299

> <Gold.Chemscore.Rot.Weighted>
5.4671

> <Gold.Chemscore.Internal.Correction.Weighted>
   9.000000E+99

> <Gold.Protein.RotatedTorsions>
[ 6907 6896 6895 6894 ] final -173.30 input  -60.11 | X-H torsion
[ 7974 7965 7964 7962 ] final  134.25 input  175.53 | X-H torsion
[ 8008 7997 7996 7995 ] final  109.61 input   59.86 | X-H torsion
[ 10167 10162 10161 10158 ] final  -94.59 input  -65.29 | X-H torsion
[ 10718 10713 10712 10709 ] final -169.67 input   66.30 | X-H torsion
[ 10763 10752 10751 10750 ] final   99.27 input  -60.55 | X-H torsion
[ 11005 11000 10999 10996 ] final -157.60 input  -57.11 | X-H torsion

> <Gold.Protein.ActiveResidues>
 VAL166  LYS551  ARG553  GLY616  TRP617  ASP618  TYR619  PRO620  LYS621  CYS622 
 ASP623  PHE694  ASN695  SER759  ASP760  ASP761  ALA762  ILE779  LEU786  VAL792 
 PHE793  MET794  SER795  GLU796  ALA797  LYS798  CYS799  TRP800  GLU811  SER814 

> <Gold.Protein.RotatedAtoms>
  151.5539  133.3413  159.2957 H   0  0  0  0  0  0  0  0  0  0  0  0  # atno 6907 bound_to 6896
  150.8462  134.7775  159.6984 H   0  0  0  0  0  0  0  0  0  0  0  0  # atno 6908 bound_to 6896
  152.4519  134.5382  159.9883 H   0  0  0  0  0  0  0  0  0  0  0  0  # atno 6909 bound_to 6896
  144.9783  139.4531  143.5399 H   0  0  0  0  0  0  0  0  0  0  0  0  # atno 7974 bound_to 7965
  156.1992  140.3054  155.9491 H   0  0  0  0  0  0  0  0  0  0  0  0  # atno 8008 bound_to 7997
  155.2994  140.0446  157.3045 H   0  0  0  0  0  0  0  0  0  0  0  0  # atno 8009 bound_to 7997
  154.5549  140.2302  155.8436 H   0  0  0  0  0  0  0  0  0  0  0  0  # atno 8010 bound_to 7997
  140.3129  143.3094  152.0129 H   0  0  0  0  0  0  0  0  0  0  0  0  # atno 10167 bound_to 10162
  156.7149  130.9248  151.3092 H   0  0  0  0  0  0  0  0  0  0  0  0  # atno 10718 bound_to 10713
  153.2994  135.4119  155.1238 H   0  0  0  0  0  0  0  0  0  0  0  0  # atno 10763 bound_to 10752
  154.8544  135.3537  154.5873 H   0  0  0  0  0  0  0  0  0  0  0  0  # atno 10764 bound_to 10752
  153.6298  135.7061  153.5338 H   0  0  0  0  0  0  0  0  0  0  0  0  # atno 10765 bound_to 10752
  140.6629  134.4330  157.5234 H   0  0  0  0  0  0  0  0  0  0  0  0  # atno 11005 bound_to 11000
  146.3401  139.9039  142.8790 LP  0  0  0  0  0  0  0  0  0  0  0  0  # atno 17320 bound_to 7965
  145.2458  141.0026  143.3909 LP  0  0  0  0  0  0  0  0  0  0  0  0  # atno 17321 bound_to 7965
  139.4890  144.6371  151.6954 LP  0  0  0  0  0  0  0  0  0  0  0  0  # atno 17342 bound_to 10162
  140.5552  144.0359  150.6144 LP  0  0  0  0  0  0  0  0  0  0  0  0  # atno 17343 bound_to 10162
  157.6921  130.9244  150.0543 LP  0  0  0  0  0  0  0  0  0  0  0  0  # atno 17370 bound_to 10713
  156.1635  130.3644  149.9265 LP  0  0  0  0  0  0  0  0  0  0  0  0  # atno 17371 bound_to 10713
  139.9007  134.8563  156.1909 LP  0  0  0  0  0  0  0  0  0  0  0  0  # atno 17394 bound_to 11000
  141.0451  133.6917  156.1669 LP  0  0  0  0  0  0  0  0  0  0  0  0  # atno 17395 bound_to 11000

$$$$
