#       Name:                AV-unprocessed.smi:232
#       Creating user name   scv26
#       Creation time:       Thu Mar 26 20:32:46 2020


#       File generated by GOLD software.
#

@<TRIPOS>MOLECULE
AV-unprocessed.smi:232
    60    63     1
SMALL
NO_CHARGES


@<TRIPOS>ATOM
      1 ****        -3.9320  -1.1087  -4.0629 C.3            1 S1                 0.0000
      2 ****        -3.3299  -0.7470  -2.6995 C.3            1 S1                 0.0000
      3 ****        -3.4333   0.7573  -2.3700 C.3            1 S1                 0.0000
      4 ****        -4.8774   1.2705  -2.2519 C.3            1 S1                 0.0000
      5 ****        -4.8292   2.3445  -1.1585 C.3            1 S1                 0.0000
      6 ****        -3.3515   2.4238  -0.7634 C.3            1 S1                 0.0000
      7 ****        -3.1292   2.8095   0.7080 C.3            1 S1                 0.0000
      8 ****        -2.8116   1.1112  -1.0986 N.3            1 S1                 0.0000
      9 ****        -1.4626   0.9966  -1.0725 C.ar           1 S1                 0.0000
     10 ****        -0.6804   1.8717  -1.7592 N.ar           1 S1                 0.0000
     11 ****         0.6496   1.7414  -1.7324 C.ar           1 S1                 0.0000
     12 ****         1.3869   0.8255  -1.0996 N.ar           1 S1                 0.0000
     13 ****         0.6013  -0.0536  -0.4136 C.ar           1 S1                 0.0000
     14 ****        -0.8193  -0.0395  -0.3470 C.ar           1 S1                 0.0000
     15 ****        -1.2714  -1.0876   0.4448 N.2            1 S1                 0.0000
     16 ****        -0.1773  -1.6896   0.8259 C.2            1 S1                 0.0000
     17 ****         0.9921  -1.1326   0.3582 N.pl3          1 S1                 0.0000
     18 ****         2.3441  -1.5906   0.6233 C.3            1 S1                 0.0000
     19 ****         3.0667  -0.7113   1.6622 C.3            1 S1                 0.0000
     20 ****         2.3546  -0.6983   2.8858 O.3            1 S1                 0.0000
     21 ****         4.5319  -1.1344   1.8904 C.3            1 S1                 0.0000
     22 ****         5.3041  -0.3503   2.9654 C.3            1 S1                 0.0000
     23 ****         5.9082  -1.4340   3.8439 C.3            1 S1                 0.0000
     24 ****         5.8432  -2.6765   2.9636 C.3            1 S1                 0.0000
     25 ****         4.6242  -2.5056   2.2606 O.3            1 S1                 0.0000
     26 ****        -3.8060  -2.1713  -4.2712 H              1 S1                 0.0000
     27 ****        -3.4475  -0.5529  -4.8660 H              1 S1                 0.0000
     28 ****        -4.9994  -0.8901  -4.0994 H              1 S1                 0.0000
     29 ****        -3.8162  -1.3317  -1.9178 H              1 S1                 0.0000
     30 ****        -2.2837  -1.0540  -2.7011 H              1 S1                 0.0000
     31 ****        -2.9327   1.3236  -3.1579 H              1 S1                 0.0000
     32 ****        -5.2359   1.6667  -3.2026 H              1 S1                 0.0000
     33 ****        -5.5570   0.4727  -1.9491 H              1 S1                 0.0000
     34 ****        -5.2084   3.3075  -1.5018 H              1 S1                 0.0000
     35 ****        -5.4413   2.0297  -0.3121 H              1 S1                 0.0000
     36 ****        -2.8763   3.1738  -1.3980 H              1 S1                 0.0000
     37 ****        -3.5839   3.7753   0.9288 H              1 S1                 0.0000
     38 ****        -2.0673   2.8862   0.9436 H              1 S1                 0.0000
     39 ****        -3.5671   2.0721   1.3813 H              1 S1                 0.0000
     40 ****         1.2020   2.4757  -2.3001 H              1 S1                 0.0000
     41 ****        -0.1931  -2.5600   1.4658 H              1 S1                 0.0000
     42 ****         2.3006  -2.6273   0.9604 H              1 S1                 0.0000
     43 ****         2.8940  -1.5915  -0.3185 H              1 S1                 0.0000
     44 ****         3.0735   0.3173   1.2991 H              1 S1                 0.0000
     45 ****         1.4820  -0.3760   2.7199 H              1 S1                 0.0000
     46 ****         5.0710  -1.0332   0.9468 H              1 S1                 0.0000
     47 ****         6.0845   0.2536   2.5006 H              1 S1                 0.0000
     48 ****         4.6755   0.3229   3.5488 H              1 S1                 0.0000
     49 ****         6.9205  -1.2012   4.1754 H              1 S1                 0.0000
     50 ****         5.2864  -1.5790   4.7282 H              1 S1                 0.0000
     51 ****         6.6744  -2.6997   2.2571 H              1 S1                 0.0000
     52 ****         5.8512  -3.6027   3.5384 H              1 S1                 0.0000
     53 ****        -3.0416   0.4522  -0.3826 LP             1 S1                 0.0000
     54 ****        -1.1000   2.6124  -2.2840 LP             1 S1                 0.0000
     55 ****         2.3859   0.7888  -1.1253 LP             1 S1                 0.0000
     56 ****        -2.2160  -1.3258   0.6706 LP             1 S1                 0.0000
     57 ****         2.8172  -0.0993   3.5394 LP             1 S1                 0.0000
     58 ****         2.3071  -1.6249   3.2587 LP             1 S1                 0.0000
     59 ****         4.6182  -3.0811   1.4428 LP             1 S1                 0.0000
     60 ****         3.8537  -2.7531   2.8480 LP             1 S1                 0.0000
@<TRIPOS>BOND
    1    1    2 1     
    2    1   26 1     
    3    1   27 1     
    4    1   28 1     
    5    2    3 1     
    6    2   29 1     
    7    2   30 1     
    8    3    8 1     
    9    3    4 1     
   10    3   31 1     
   11    4    5 1     
   12    4   32 1     
   13    4   33 1     
   14    5    6 1     
   15    5   34 1     
   16    5   35 1     
   17    6    7 1     
   18    6    8 1     
   19    6   36 1     
   20    7   37 1     
   21    7   38 1     
   22    7   39 1     
   23    8    9 1     
   24    9   14 ar    
   25    9   10 ar    
   26   10   11 ar    
   27   11   12 ar    
   28   11   40 1     
   29   12   13 ar    
   30   13   17 1     
   31   13   14 ar    
   32   14   15 1     
   33   15   16 2     
   34   16   17 1     
   35   16   41 1     
   36   17   18 1     
   37   18   19 1     
   38   18   42 1     
   39   18   43 1     
   40   19   20 1     
   41   19   21 1     
   42   19   44 1     
   43   20   45 1     
   44   21   25 1     
   45   21   22 1     
   46   21   46 1     
   47   22   23 1     
   48   22   47 1     
   49   22   48 1     
   50   23   24 1     
   51   23   49 1     
   52   23   50 1     
   53   24   25 1     
   54   24   51 1     
   55   24   52 1     
   56    8   53 1     
   57   10   54 1     
   58   12   55 1     
   59   15   56 1     
   60   20   57 1     
   61   20   58 1     
   62   25   59 1     
   63   25   60 1     
@<TRIPOS>SUBSTRUCTURE
      1 S1             1
@<TRIPOS>SET
LONE_PAIRS      STATIC     ATOMS    <user>   **** ""
8 53 54 55 56 57 58 59 60
DONOR_HYDROGENS      STATIC     ATOMS    <user>   **** ""
1 45
ATOM$BLUE        STATIC     ATOMS    COLORGROUP SYSTEM
8 53 54 55 56 57 58 59 60
ATOM$RED        STATIC     ATOMS    COLORGROUP SYSTEM
1 45
