#       Name:                AV-unprocessed.smi:1839
#       Creating user name   scv26
#       Creation time:       Fri Mar 27 09:18:31 2020


#       File generated by GOLD software.
#

@<TRIPOS>MOLECULE
AV-unprocessed.smi:1839
    51    52     1
SMALL
NO_CHARGES


@<TRIPOS>ATOM
      1 ****        -3.8697  -3.1759   0.7467 C.3            1 S1                 0.0000
      2 ****        -2.7745  -2.6584  -0.0737 N.am           1 S1                 0.0000
      3 ****        -1.8777  -3.6947  -0.5995 C.3            1 S1                 0.0000
      4 ****        -2.4676  -1.3380  -0.0479 C.2            1 S1                 0.0000
      5 ****        -2.8421  -0.5990   0.8656 O.2            1 S1                 0.0000
      6 ****        -1.6954  -0.8831  -1.0640 N.am           1 S1                 0.0000
      7 ****        -1.9876  -1.1461  -2.4812 C.3            1 S1                 0.0000
      8 ****        -0.6805  -1.4666  -3.2282 C.3            1 S1                 0.0000
      9 ****         0.3488  -0.3368  -3.0470 C.3            1 S1                 0.0000
     10 ****         0.5406   0.0100  -1.5543 C.3            1 S1                 0.0000
     11 ****         1.4781   1.2081  -1.3604 C.2            1 S1                 0.0000
     12 ****         1.2540   2.2756  -1.9310 O.2            1 S1                 0.0000
     13 ****         2.5073   1.0272  -0.5191 N.am           1 S1                 0.0000
     14 ****         3.4617   2.0571  -0.1194 C.3            1 S1                 0.0000
     15 ****         2.8595   3.1221   0.8229 C.3            1 S1                 0.0000
     16 ****         2.0813   2.5431   1.9933 C.ar           1 S1                 0.0000
     17 ****         2.7087   2.1809   3.2048 C.ar           1 S1                 0.0000
     18 ****         1.9319   1.6261   4.2435 C.ar           1 S1                 0.0000
     19 ****         0.5470   1.4424   4.0488 C.ar           1 S1                 0.0000
     20 ****        -0.0282   1.8210   2.8187 C.ar           1 S1                 0.0000
     21 ****         0.7492   2.3518   1.8497 N.pl3          1 S1                 1.0000
     22 ****        -0.8269   0.2862  -0.8931 C.3            1 S1                 0.0000
     23 ****        -4.7329  -2.5085   0.7279 H              1 S1                 0.0000
     24 ****        -3.5487  -3.2913   1.7825 H              1 S1                 0.0000
     25 ****        -4.2080  -4.1477   0.3851 H              1 S1                 0.0000
     26 ****        -0.8396  -3.3622  -0.6434 H              1 S1                 0.0000
     27 ****        -2.1854  -3.9971  -1.6005 H              1 S1                 0.0000
     28 ****        -1.8924  -4.5841   0.0320 H              1 S1                 0.0000
     29 ****        -2.7065  -1.9537  -2.6201 H              1 S1                 0.0000
     30 ****        -2.4541  -0.2606  -2.9159 H              1 S1                 0.0000
     31 ****        -0.2643  -2.4031  -2.8561 H              1 S1                 0.0000
     32 ****        -0.8831  -1.6191  -4.2886 H              1 S1                 0.0000
     33 ****         1.2996  -0.6276  -3.4952 H              1 S1                 0.0000
     34 ****         0.0050   0.5423  -3.5946 H              1 S1                 0.0000
     35 ****         0.9858  -0.8573  -1.0626 H              1 S1                 0.0000
     36 ****         2.6205   0.1147  -0.1009 H              1 S1                 0.0000
     37 ****         4.2801   1.5503   0.3925 H              1 S1                 0.0000
     38 ****         3.8970   2.5303  -1.0008 H              1 S1                 0.0000
     39 ****         3.6548   3.7615   1.2073 H              1 S1                 0.0000
     40 ****         2.1977   3.7795   0.2570 H              1 S1                 0.0000
     41 ****         3.7721   2.3210   3.3359 H              1 S1                 0.0000
     42 ****         2.3940   1.3411   5.1775 H              1 S1                 0.0000
     43 ****        -0.0647   1.0162   4.8306 H              1 S1                 0.0000
     44 ****        -1.0767   1.7132   2.5805 H              1 S1                 0.0000
     45 ****        -1.3072   1.1627  -1.3320 H              1 S1                 0.0000
     46 ****        -0.6725   0.5115   0.1633 H              1 S1                 0.0000
     47 ****         0.3129   2.6151   0.9654 H              1 S1                 0.0000
     48 ****        -3.3889  -0.9697   1.6163 LP             1 S1                 0.0000
     49 ****        -2.5991   0.3710   0.8555 LP             1 S1                 0.0000
     50 ****         0.4556   2.3664  -2.5264 LP             1 S1                 0.0000
     51 ****         1.8703   3.0520  -1.7992 LP             1 S1                 0.0000
@<TRIPOS>BOND
    1    1    2 1     
    2    1   23 1     
    3    1   24 1     
    4    1   25 1     
    5    2    3 1     
    6    2    4 am    
    7    3   26 1     
    8    3   27 1     
    9    3   28 1     
   10    4    5 2     
   11    4    6 am    
   12    6   22 1     
   13    6    7 1     
   14    7    8 1     
   15    7   29 1     
   16    7   30 1     
   17    8    9 1     
   18    8   31 1     
   19    8   32 1     
   20    9   10 1     
   21    9   33 1     
   22    9   34 1     
   23   10   11 1     
   24   10   22 1     
   25   10   35 1     
   26   11   12 2     
   27   11   13 am    
   28   13   14 1     
   29   13   36 1     
   30   14   15 1     
   31   14   37 1     
   32   14   38 1     
   33   15   16 1     
   34   15   39 1     
   35   15   40 1     
   36   16   21 ar    
   37   16   17 ar    
   38   17   18 ar    
   39   17   41 1     
   40   18   19 ar    
   41   18   42 1     
   42   19   20 ar    
   43   19   43 1     
   44   20   21 ar    
   45   20   44 1     
   46   21   47 1     
   47   22   45 1     
   48   22   46 1     
   49    5   48 1     
   50    5   49 1     
   51   12   50 1     
   52   12   51 1     
@<TRIPOS>SUBSTRUCTURE
      1 S1             1
@<TRIPOS>SET
LONE_PAIRS      STATIC     ATOMS    <user>   **** ""
4 48 49 50 51
DONOR_HYDROGENS      STATIC     ATOMS    <user>   **** ""
2 36 47
ATOM$BLUE        STATIC     ATOMS    COLORGROUP SYSTEM
4 48 49 50 51
ATOM$RED        STATIC     ATOMS    COLORGROUP SYSTEM
2 36 47
