#       Name:                AV-unprocessed.smi:1608
#       Creating user name   scv26
#       Creation time:       Fri Mar 27 07:12:33 2020


#       File generated by GOLD software.
#

@<TRIPOS>MOLECULE
AV-unprocessed.smi:1608
    46    47     1
SMALL
NO_CHARGES


@<TRIPOS>ATOM
      1 ****        -3.7882   4.6770   0.0765 C.3            1 S1                 0.0000
      2 ****        -4.0645   3.2770  -0.2569 N.am           1 S1                 0.0000
      3 ****        -2.9970   2.3612  -0.1810 C.2            1 S1                 0.0000
      4 ****        -3.1491   1.0496  -0.4693 C.2            1 S1                 0.0000
      5 ****        -2.1370   0.0800  -0.4042 N.am           1 S1                 0.0000
      6 ****        -0.8081   0.2456  -0.2637 C.2            1 S1                 0.0000
      7 ****        -0.2180   1.3244  -0.2070 O.2            1 S1                 0.0000
      8 ****        -0.1806  -0.9383  -0.2120 N.am           1 S1                 0.0000
      9 ****         1.2633  -1.1231  -0.1019 C.3            1 S1                 0.0000
     10 ****         1.9109  -1.1428  -1.4958 C.3            1 S1                 0.0000
     11 ****         3.4177  -1.3888  -1.3633 C.3            1 S1                 0.0000
     12 ****         3.7061  -2.6832  -0.5829 C.3            1 S1                 0.0000
     13 ****         3.0160  -2.6990   0.7233 N.pl3          1 S1                 0.0000
     14 ****         3.8996  -2.3415   2.1798 S.o2           1 S1                 0.0000
     15 ****         4.0677  -0.5094   2.1690 C.3            1 S1                 0.0000
     16 ****         3.0526  -2.7168   3.3224 O.2            1 S1                 0.0000
     17 ****         5.2428  -2.9262   2.0455 O.2            1 S1                 0.0000
     18 ****         1.5651  -2.4304   0.6572 C.3            1 S1                 0.0000
     19 ****        -4.4753   0.6143  -0.8530 C.2            1 S1                 0.0000
     20 ****        -5.5025   1.4829  -0.9245 C.2            1 S1                 0.0000
     21 ****        -5.3272   2.9038  -0.6148 C.2            1 S1                 0.0000
     22 ****        -6.2574   3.7086  -0.6721 O.2            1 S1                 0.0000
     23 ****        -2.7324   4.8652   0.2744 H              1 S1                 0.0000
     24 ****        -4.3455   4.9725   0.9665 H              1 S1                 0.0000
     25 ****        -4.0830   5.3345  -0.7429 H              1 S1                 0.0000
     26 ****        -2.0689   2.8080   0.1377 H              1 S1                 0.0000
     27 ****        -2.4608  -0.8725  -0.4863 H              1 S1                 0.0000
     28 ****        -0.7415  -1.7759  -0.2671 H              1 S1                 0.0000
     29 ****         1.6821  -0.2920   0.4654 H              1 S1                 0.0000
     30 ****         1.4622  -1.9265  -2.1079 H              1 S1                 0.0000
     31 ****         1.7341  -0.1994  -2.0135 H              1 S1                 0.0000
     32 ****         3.8701  -1.4480  -2.3536 H              1 S1                 0.0000
     33 ****         3.8847  -0.5391  -0.8669 H              1 S1                 0.0000
     34 ****         3.3628  -3.5411  -1.1621 H              1 S1                 0.0000
     35 ****         4.7793  -2.8143  -0.4486 H              1 S1                 0.0000
     36 ****         4.6371  -0.1996   3.0449 H              1 S1                 0.0000
     37 ****         3.0839  -0.0452   2.2092 H              1 S1                 0.0000
     38 ****         4.5960  -0.1890   1.2729 H              1 S1                 0.0000
     39 ****         1.1442  -2.3934   1.6619 H              1 S1                 0.0000
     40 ****         1.0854  -3.2710   0.1540 H              1 S1                 0.0000
     41 ****        -4.6491  -0.4251  -1.0912 H              1 S1                 0.0000
     42 ****        -6.4789   1.1255  -1.2171 H              1 S1                 0.0000
     43 ****        -0.7328   2.1797  -0.2667 LP             1 S1                 0.0000
     44 ****         0.7762   1.3456  -0.1013 LP             1 S1                 0.0000
     45 ****        -6.0998   4.6714  -0.4524 LP             1 S1                 0.0000
     46 ****        -7.1703   3.3995  -0.9384 LP             1 S1                 0.0000
@<TRIPOS>BOND
    1    1    2 1     
    2    1   23 1     
    3    1   24 1     
    4    1   25 1     
    5    2   21 am    
    6    2    3 1     
    7    3    4 2     
    8    3   26 1     
    9    4    5 1     
   10    4   19 1     
   11    5    6 am    
   12    5   27 1     
   13    6    7 2     
   14    6    8 am    
   15    8    9 1     
   16    8   28 1     
   17    9   18 1     
   18    9   10 1     
   19    9   29 1     
   20   10   11 1     
   21   10   30 1     
   22   10   31 1     
   23   11   12 1     
   24   11   32 1     
   25   11   33 1     
   26   12   13 1     
   27   12   34 1     
   28   12   35 1     
   29   13   14 1     
   30   13   18 1     
   31   14   15 1     
   32   14   16 2     
   33   14   17 2     
   34   15   36 1     
   35   15   37 1     
   36   15   38 1     
   37   18   39 1     
   38   18   40 1     
   39   19   20 2     
   40   19   41 1     
   41   20   21 1     
   42   20   42 1     
   43   21   22 2     
   44    7   43 1     
   45    7   44 1     
   46   22   45 1     
   47   22   46 1     
@<TRIPOS>SUBSTRUCTURE
      1 S1             1
@<TRIPOS>SET
LONE_PAIRS      STATIC     ATOMS    <user>   **** ""
6 43 44 16 17 45 46
DONOR_HYDROGENS      STATIC     ATOMS    <user>   **** ""
2 27 28
ATOM$BLUE        STATIC     ATOMS    COLORGROUP SYSTEM
6 43 44 16 17 45 46
ATOM$RED        STATIC     ATOMS    COLORGROUP SYSTEM
2 27 28
