#       Name:                AV-unprocessed.smi:1867
#       Creating user name   scv26
#       Creation time:       Fri Mar 27 09:29:09 2020


#       File generated by GOLD software.
#

@<TRIPOS>MOLECULE
AV-unprocessed.smi:1867
    55    58     1
SMALL
NO_CHARGES


@<TRIPOS>ATOM
      1 ****        -0.4814   2.2527   0.7837 O.2            1 S1                 0.0000
      2 ****        -0.8387   1.1156   0.4815 C.2            1 S1                 0.0000
      3 ****         0.1035   0.1571   0.3001 N.am           1 S1                 0.0000
      4 ****         1.5126   0.2445   0.4561 C.ar           1 S1                 0.0000
      5 ****         2.3148  -0.6474  -0.2852 C.ar           1 S1                 0.0000
      6 ****         3.7172  -0.6082  -0.1464 C.ar           1 S1                 0.0000
      7 ****         4.3074   0.3191   0.7448 C.ar           1 S1                 0.0000
      8 ****         5.6990   0.4118   0.9360 N.pl3          1 S1                 0.0000
      9 ****         6.2874   1.4986   1.7031 C.3            1 S1                 0.0000
     10 ****         7.7936   1.3394   1.5034 C.3            1 S1                 0.0000
     11 ****         7.8954   0.7768   0.0853 C.3            1 S1                 0.0000
     12 ****         6.6316  -0.0775  -0.0703 C.3            1 S1                 0.0000
     13 ****         3.4964   1.1392   1.4549 N.pl3          1 S1                 1.0000
     14 ****         2.1498   1.1367   1.3501 C.ar           1 S1                 0.0000
     15 ****        -2.1600   0.8129   0.2998 N.pl3          1 S1                -1.0000
     16 ****        -2.7785  -0.4756  -0.0484 C.3            1 S1                 0.0000
     17 ****        -2.6788  -0.7995  -1.5465 C.3            1 S1                 0.0000
     18 ****        -3.9091  -1.6772  -1.8370 C.3            1 S1                 0.0000
     19 ****        -4.7129  -1.6793  -0.5932 N.4            1 S1                 1.0000
     20 ****        -6.1754  -1.8932  -0.7434 C.3            1 S1                 0.0000
     21 ****        -6.9214  -0.6176  -1.1660 C.3            1 S1                 0.0000
     22 ****        -6.5931   0.5370  -0.2147 C.3            1 S1                 0.0000
     23 ****        -5.0791   0.7744  -0.2060 C.3            1 S1                 0.0000
     24 ****        -4.2974  -0.5077   0.2139 C.3            1 S1                 0.0000
     25 ****        -0.2402  -0.7251  -0.0490 H              1 S1                 0.0000
     26 ****         1.8606  -1.3562  -0.9624 H              1 S1                 0.0000
     27 ****         4.3220  -1.2949  -0.7198 H              1 S1                 0.0000
     28 ****         5.9462   2.4548   1.3036 H              1 S1                 0.0000
     29 ****         6.0118   1.4446   2.7568 H              1 S1                 0.0000
     30 ****         8.3410   2.2733   1.6344 H              1 S1                 0.0000
     31 ****         8.1874   0.6135   2.2166 H              1 S1                 0.0000
     32 ****         7.8723   1.5977  -0.6329 H              1 S1                 0.0000
     33 ****         8.8120   0.2110  -0.0840 H              1 S1                 0.0000
     34 ****         6.8479  -1.1273   0.1308 H              1 S1                 0.0000
     35 ****         6.2305   0.0030  -1.0811 H              1 S1                 0.0000
     36 ****         1.6397   1.8379   1.9937 H              1 S1                 0.0000
     37 ****        -2.3292  -1.3018   0.5062 H              1 S1                 0.0000
     38 ****        -2.7294   0.1099  -2.1476 H              1 S1                 0.0000
     39 ****        -1.7437  -1.3033  -1.7930 H              1 S1                 0.0000
     40 ****        -4.4757  -1.2649  -2.6732 H              1 S1                 0.0000
     41 ****        -3.6301  -2.6992  -2.0971 H              1 S1                 0.0000
     42 ****        -6.3593  -2.7018  -1.4516 H              1 S1                 0.0000
     43 ****        -6.5626  -2.2304   0.2188 H              1 S1                 0.0000
     44 ****        -6.6503  -0.3441  -2.1862 H              1 S1                 0.0000
     45 ****        -7.9961  -0.8014  -1.1717 H              1 S1                 0.0000
     46 ****        -7.1132   1.4426  -0.5285 H              1 S1                 0.0000
     47 ****        -6.9420   0.3058   0.7925 H              1 S1                 0.0000
     48 ****        -4.7869   1.1186  -1.2008 H              1 S1                 0.0000
     49 ****        -4.8541   1.5965   0.4758 H              1 S1                 0.0000
     50 ****        -4.4965  -0.7129   1.2667 H              1 S1                 0.0000
     51 ****        -4.3686  -2.4766  -0.0779 H              1 S1                 0.0000
     52 ****         3.9241   1.7967   2.1070 H              1 S1                 0.0000
     53 ****         0.4911   2.4590   0.8920 LP             1 S1                 0.0000
     54 ****        -1.1633   2.9712   0.9211 LP             1 S1                 0.0000
     55 ****        -2.7956   1.5754   0.4207 LP             1 S1                 0.0000
@<TRIPOS>BOND
    1    1    2 2     
    2    2    3 am    
    3    2   15 1     
    4    3    4 1     
    5    3   25 1     
    6    4   14 ar    
    7    4    5 ar    
    8    5    6 ar    
    9    5   26 1     
   10    6    7 ar    
   11    6   27 1     
   12    7    8 1     
   13    7   13 ar    
   14    8   12 1     
   15    8    9 1     
   16    9   10 1     
   17    9   28 1     
   18    9   29 1     
   19   10   11 1     
   20   10   30 1     
   21   10   31 1     
   22   11   12 1     
   23   11   32 1     
   24   11   33 1     
   25   12   34 1     
   26   12   35 1     
   27   13   14 ar    
   28   13   52 1     
   29   14   36 1     
   30   15   16 1     
   31   16   24 1     
   32   16   17 1     
   33   16   37 1     
   34   17   18 1     
   35   17   38 1     
   36   17   39 1     
   37   18   19 1     
   38   18   40 1     
   39   18   41 1     
   40   19   24 1     
   41   19   20 1     
   42   19   51 1     
   43   20   21 1     
   44   20   42 1     
   45   20   43 1     
   46   21   22 1     
   47   21   44 1     
   48   21   45 1     
   49   22   23 1     
   50   22   46 1     
   51   22   47 1     
   52   23   24 1     
   53   23   48 1     
   54   23   49 1     
   55   24   50 1     
   56    1   53 1     
   57    1   54 1     
   58   15   55 1     
@<TRIPOS>SUBSTRUCTURE
      1 S1             1
@<TRIPOS>SET
LONE_PAIRS      STATIC     ATOMS    <user>   **** ""
3 53 54 55
DONOR_HYDROGENS      STATIC     ATOMS    <user>   **** ""
3 25 52 51
ATOM$BLUE        STATIC     ATOMS    COLORGROUP SYSTEM
3 53 54 55
ATOM$RED        STATIC     ATOMS    COLORGROUP SYSTEM
3 25 52 51
