AV-unprocessed.smi:3335|AV-procd|sdf|12852|dock7
  -GOLD-   2272019243D 1   1.00000     0.00000
 Structure written by MMmdl.
 46 47  0  0  0  0  0  0  0  0  1 V2000
  144.4380  131.6945  150.6436 C   0  0  0  0  0  0  0  0  0  0  0  0
  144.2915  133.1391  151.0255 C   0  0  0  0  0  0  0  0  0  0  0  0
  144.7641  134.2835  150.3226 C   0  0  0  0  0  0  0  0  0  0  0  0
  144.4691  135.4193  150.9326 N   0  0  0  0  0  0  0  0  0  0  0  0
  143.7963  135.0443  152.0439 N   0  0  0  0  0  0  0  0  0  0  0  0
  143.3039  136.0467  152.9810 C   0  0  1  0  0  0  0  0  0  0  0  0
  142.3661  135.3859  154.0106 C   0  0  0  0  0  0  0  0  0  0  0  0
  144.4571  136.8419  153.6514 C   0  0  1  0  0  0  0  0  0  0  0  0
  145.5901  135.9400  154.1862 C   0  0  0  0  0  0  0  0  0  0  0  0
  145.0142  137.7573  152.6525 N   0  0  0  0  0  0  0  0  0  0  0  0
  146.3297  138.3405  152.9833 C   0  0  1  0  0  0  0  0  0  0  0  0
  146.8511  139.1362  151.7768 C   0  0  0  0  0  0  0  0  0  0  0  0
  146.2928  139.2518  154.2310 C   0  0  0  0  0  0  0  0  0  0  0  0
  145.2196  139.4131  154.8153 O   0  0  0  0  0  0  0  0  0  0  0  0
  147.4286  139.8481  154.6538 N   0  0  0  0  0  0  0  0  0  0  0  0
  147.4870  140.7055  155.8368 C   0  0  0  0  0  0  0  0  0  0  0  0
  148.9709  140.9780  156.0831 C   0  0  0  0  0  0  0  0  0  0  0  0
  149.6104  140.8137  154.7119 C   0  0  0  0  0  0  0  0  0  0  0  0
  148.7443  139.7613  154.0197 C   0  0  0  0  0  0  0  0  0  0  0  0
  143.6782  133.6723  152.1235 C   0  0  0  0  0  0  0  0  0  0  0  0
  144.9157  131.5781  149.6704 H   0  0  0  0  0  0  0  0  0  0  0  0
  143.4714  131.1936  150.5885 H   0  0  0  0  0  0  0  0  0  0  0  0
  145.0434  131.1475  151.3664 H   0  0  0  0  0  0  0  0  0  0  0  0
  145.3106  134.3220  149.3918 H   0  0  0  0  0  0  0  0  0  0  0  0
  142.7066  136.7470  152.3942 H   0  0  0  0  0  0  0  0  0  0  0  0
  141.8825  136.1272  154.6467 H   0  0  0  0  0  0  0  0  0  0  0  0
  142.9069  134.6974  154.6608 H   0  0  0  0  0  0  0  0  0  0  0  0
  141.5758  134.8220  153.5139 H   0  0  0  0  0  0  0  0  0  0  0  0
  144.0325  137.3917  154.4916 H   0  0  0  0  0  0  0  0  0  0  0  0
  145.2331  135.2626  154.9616 H   0  0  0  0  0  0  0  0  0  0  0  0
  146.3969  136.5195  154.6335 H   0  0  0  0  0  0  0  0  0  0  0  0
  146.0205  135.3326  153.3894 H   0  0  0  0  0  0  0  0  0  0  0  0
  144.3413  138.4867  152.4632 H   0  0  0  0  0  0  0  0  0  0  0  0
  147.0197  137.5155  153.1477 H   0  0  0  0  0  0  0  0  0  0  0  0
  147.8392  139.5545  151.9720 H   0  0  0  0  0  0  0  0  0  0  0  0
  146.1853  139.9623  151.5228 H   0  0  0  0  0  0  0  0  0  0  0  0
  146.9367  138.4982  150.8966 H   0  0  0  0  0  0  0  0  0  0  0  0
  146.9564  141.6357  155.6279 H   0  0  0  0  0  0  0  0  0  0  0  0
  147.0215  140.2375  156.7060 H   0  0  0  0  0  0  0  0  0  0  0  0
  149.1541  141.9595  156.5213 H   0  0  0  0  0  0  0  0  0  0  0  0
  149.3728  140.2274  156.7648 H   0  0  0  0  0  0  0  0  0  0  0  0
  149.5476  141.7553  154.1649 H   0  0  0  0  0  0  0  0  0  0  0  0
  150.6611  140.5280  154.7653 H   0  0  0  0  0  0  0  0  0  0  0  0
  149.1542  138.7638  154.1847 H   0  0  0  0  0  0  0  0  0  0  0  0
  148.6996  139.9412  152.9447 H   0  0  0  0  0  0  0  0  0  0  0  0
  143.1708  133.1922  152.9472 H   0  0  0  0  0  0  0  0  0  0  0  0
  1  2  1  0  0  0  0
  1 21  1  0  0  0  0
  1 22  1  0  0  0  0
  1 23  1  0  0  0  0
  2 20  2  0  0  0  0
  2  3  1  0  0  0  0
  3  4  2  0  0  0  0
  3 24  1  0  0  0  0
  4  5  1  0  0  0  0
  5  6  1  0  0  0  0
  5 20  1  0  0  0  0
  6  7  1  0  0  0  0
  6  8  1  0  0  0  0
  6 25  1  0  0  0  0
  7 26  1  0  0  0  0
  7 27  1  0  0  0  0
  7 28  1  0  0  0  0
  8  9  1  0  0  0  0
  8 10  1  0  0  0  0
  8 29  1  0  0  0  0
  9 30  1  0  0  0  0
  9 31  1  0  0  0  0
  9 32  1  0  0  0  0
 10 11  1  0  0  0  0
 10 33  1  0  0  0  0
 11 12  1  0  0  0  0
 11 13  1  0  0  0  0
 11 34  1  0  0  0  0
 12 35  1  0  0  0  0
 12 36  1  0  0  0  0
 12 37  1  0  0  0  0
 13 14  2  0  0  0  0
 13 15  1  0  0  0  0
 15 19  1  0  0  0  0
 15 16  1  0  0  0  0
 16 17  1  0  0  0  0
 16 38  1  0  0  0  0
 16 39  1  0  0  0  0
 17 18  1  0  0  0  0
 17 40  1  0  0  0  0
 17 41  1  0  0  0  0
 18 19  1  0  0  0  0
 18 42  1  0  0  0  0
 18 43  1  0  0  0  0
 19 44  1  0  0  0  0
 19 45  1  0  0  0  0
 20 46  1  0  0  0  0
M  END
> <s_m_source_file>
AV-unprocessed.smi

> <i_m_source_file_index>
3335

> <i_lp_mmshare_version>
43012

> <i_f3d_flags>
0

> <s_epik_input>
W0NIM11jMVtjSF1ubihbY0hdMSlbQ0BIXShbQ0gzXSlbQ0BIXShbQ0gzXSlbTkhdW0NASF0oW0NIM10pQyg9TylOMltDSDJdW0NIMl1bQ0gyXVtDSDJdMg==

> <s_epik_cmdline>
J2VwaWtfcHl0aG9uJywgJy1waCcsICc3LjAnLCAnLXRuJywgJzgnLCAnLW1hJywgJzIwMCcsICctbWV0YWxfYmluZGluZycsICctaW1hZScsICc8aW5maWxlLm1hZT4nLCAnLW9tYWUnLCAnPG91dGZpbGUubWFlPic=

> <r_lp_tautomer_probability>
1

> <r_epik_Ionization_Penalty>
0.918803

> <r_epik_Ionization_Penalty_Charging>
0

> <r_epik_Ionization_Penalty_Neutral>
0.918803

> <r_epik_State_Penalty>
0.958258

> <r_epik_Charging_Adjusted_Penalty>
0.958258

> <i_epik_Tot_Q>
0

> <i_epik_Tot_abs_Q>
0

> <r_epik_Metal_State_Penalty>
0.956786

> <b_epik_Metal_Only>
0

> <s_lp_Force_Field>
OPLS_2005

> <r_lp_Energy>
36.4187

> <b_lp_Chiralities_Consistent>
1

> <s_lp_Variant>
AV-unprocessed.smi:3335-16

> <Gold.Version>
5.8.1

> <Gold.Id.Protein>
6NUR|6NUR_protein|mol2

> <Gold.PLP.Fitness>
38.6683

> <Gold.PLP.PLP>
-30.5751

> <Gold.PLP.part.hbond>
-1.8004

> <Gold.PLP.part.metal>
0.0000

> <Gold.PLP.part.buried>
-1.1271

> <Gold.PLP.part.nonpolar>
-28.7723

> <Gold.PLP.part.repulsive>
1.0522

> <Gold.PLP.ligand.clash>
0.0000

> <Gold.PLP.ligand.torsion>
0.5092

> <Gold.PLP.Chemscore.Hbond>
1.0000

> <Gold.PLP.Chemscore.CHOScore>
2.0000

> <Gold.PLP.Chemscore.Metal>
0.0000

> <Gold.Chemscore.Hbonds>
donor molecule, donor type, donor heavy atom, donor atom, acceptor molecule, acceptor atom, score
      L1  H    10    33       P1 10175  0.91
      L1  C     3    24       P1  7921  0.93
      L1  C    20    46       P1 10957  1.00

> <Gold.PLP.Chemscore.Internal.Correction>
0.1117

> <Gold.Rescore>
     Score         DG    S(hbond)    S(metal)    S(lipo)     H(rot)  DE(clash)    DE(int)     intcor
     11.41     -12.60       0.99        0.00      68.21       1.62       0.49       0.70       ----

> <Gold.Chemscore.Fitness>
11.4150

> <Gold.Chemscore.DG>
-12.6028

> <Gold.Chemscore.ZeroCoef>
-5.4800

> <Gold.Chemscore.Hbond>
0.9850

> <Gold.Chemscore.Metal>
0.0000

> <Gold.Chemscore.Lipo>
68.2129

> <Gold.Chemscore.Internal_Hbond>
0.0000

> <Gold.Chemscore.DEClash>
0.4891

> <Gold.Chemscore.DEInternal>
0.6987

> <Gold.Chemscore.Rot>
1.6204

> <Gold.Chemscore.Internal.Correction>
   9.000000E+99

> <Gold.Chemscore.Hbonds>
donor molecule, donor type, donor heavy atom, donor atom, acceptor molecule, acceptor atom, score
      L1  H    10    33       P1 10175  0.85

> <Gold.Chemscore.Hbond.Weighted>
-3.2901

> <Gold.Chemscore.Metal.Weighted>
-0.0000

> <Gold.Chemscore.Lipo.Weighted>
-7.9809

> <Gold.Chemscore.Internal_Hbond.Weighted>
0.0000

> <Gold.Chemscore.DEClash.Weighted>
0.4891

> <Gold.Chemscore.DEInternal.Weighted>
0.6987

> <Gold.Chemscore.Rot.Weighted>
4.1482

> <Gold.Chemscore.Internal.Correction.Weighted>
   9.000000E+99

> <Gold.Protein.RotatedTorsions>
[ 6907 6896 6895 6894 ] final   78.24 input  -60.11 | X-H torsion
[ 7974 7965 7964 7962 ] final   99.40 input  175.53 | X-H torsion
[ 8008 7997 7996 7995 ] final -143.20 input   59.86 | X-H torsion
[ 10167 10162 10161 10158 ] final   70.53 input  -65.29 | X-H torsion
[ 10718 10713 10712 10709 ] final  -49.00 input   66.30 | X-H torsion
[ 10763 10752 10751 10750 ] final -143.27 input  -60.55 | X-H torsion
[ 11005 11000 10999 10996 ] final  -87.46 input  -57.11 | X-H torsion

> <Gold.Protein.ActiveResidues>
 VAL166  LYS551  ARG553  GLY616  TRP617  ASP618  TYR619  PRO620  LYS621  CYS622 
 ASP623  PHE694  ASN695  SER759  ASP760  ASP761  ALA762  ILE779  LEU786  VAL792 
 PHE793  MET794  SER795  GLU796  ALA797  LYS798  CYS799  TRP800  GLU811  SER814 

> <Gold.Protein.RotatedAtoms>
  152.5151  134.3694  159.9312 H   0  0  0  0  0  0  0  0  0  0  0  0  # atno 6907 bound_to 6896
  151.3648  133.3870  159.2701 H   0  0  0  0  0  0  0  0  0  0  0  0  # atno 6908 bound_to 6896
  150.9624  134.9029  159.7797 H   0  0  0  0  0  0  0  0  0  0  0  0  # atno 6909 bound_to 6896
  145.3993  139.2350  143.3309 H   0  0  0  0  0  0  0  0  0  0  0  0  # atno 7974 bound_to 7965
  155.5068  140.0580  157.2930 H   0  0  0  0  0  0  0  0  0  0  0  0  # atno 8008 bound_to 7997
  154.4567  140.1976  156.0310 H   0  0  0  0  0  0  0  0  0  0  0  0  # atno 8009 bound_to 7997
  156.0812  140.3247  155.7700 H   0  0  0  0  0  0  0  0  0  0  0  0  # atno 8010 bound_to 7997
  140.0559  144.5273  150.7329 H   0  0  0  0  0  0  0  0  0  0  0  0  # atno 10167 bound_to 10162
  156.1935  130.4153  149.9339 H   0  0  0  0  0  0  0  0  0  0  0  0  # atno 10718 bound_to 10713
  154.8476  135.3472  154.6160 H   0  0  0  0  0  0  0  0  0  0  0  0  # atno 10763 bound_to 10752
  153.6769  135.6982  153.5134 H   0  0  0  0  0  0  0  0  0  0  0  0  # atno 10764 bound_to 10752
  153.2698  135.4296  155.0933 H   0  0  0  0  0  0  0  0  0  0  0  0  # atno 10765 bound_to 10752
  141.1616  133.7512  156.9310 H   0  0  0  0  0  0  0  0  0  0  0  0  # atno 11005 bound_to 11000
  146.2759  140.4688  142.8795 LP  0  0  0  0  0  0  0  0  0  0  0  0  # atno 17320 bound_to 7965
  144.8385  140.6820  143.6245 LP  0  0  0  0  0  0  0  0  0  0  0  0  # atno 17321 bound_to 7965
  140.7195  143.2575  151.4326 LP  0  0  0  0  0  0  0  0  0  0  0  0  # atno 17342 bound_to 10162
  139.5924  144.1471  152.2103 LP  0  0  0  0  0  0  0  0  0  0  0  0  # atno 17343 bound_to 10162
  156.7071  130.8956  151.3605 LP  0  0  0  0  0  0  0  0  0  0  0  0  # atno 17370 bound_to 10713
  157.6943  130.9266  150.0601 LP  0  0  0  0  0  0  0  0  0  0  0  0  # atno 17371 bound_to 10713
  140.1387  134.9308  157.2436 LP  0  0  0  0  0  0  0  0  0  0  0  0  # atno 17394 bound_to 11000
  140.2864  134.3291  155.7328 LP  0  0  0  0  0  0  0  0  0  0  0  0  # atno 17395 bound_to 11000

$$$$
