AV-unprocessed.smi:2142|AV-procd|sdf|8720|dock5
  -GOLD-   2272011483D 1   1.00000     0.00000
 Structure written by MMmdl.
 40 41  0  0  0  0  0  0  0  0  1 V2000
  151.8281  144.5983  159.3177 C   0  0  0  0  0  0  0  0  0  0  0  0
  152.2699  143.5245  158.5059 O   0  0  0  0  0  0  0  0  0  0  0  0
  151.5520  143.4355  157.2864 C   0  0  0  0  0  0  0  0  0  0  0  0
  150.8812  142.0618  157.1959 C   0  0  0  0  0  0  0  0  0  0  0  0
  151.0891  141.5343  155.8889 O   0  0  0  0  0  0  0  0  0  0  0  0
  150.7356  140.2235  155.6436 C   0  0  0  0  0  0  0  0  0  0  0  0
  150.7350  139.3136  156.7196 C   0  0  0  0  0  0  0  0  0  0  0  0
  150.3824  137.9721  156.4776 C   0  0  0  0  0  0  0  0  0  0  0  0
  150.0462  137.5816  155.1599 C   0  0  0  0  0  0  0  0  0  0  0  0
  149.6541  136.2672  154.7911 N   0  0  0  0  0  0  0  0  0  0  0  0
  149.8558  135.1092  155.4537 C   0  0  0  0  0  0  0  0  0  0  0  0
  150.4620  135.0199  156.5215 O   0  0  0  0  0  0  0  0  0  0  0  0
  149.3145  133.8927  154.7875 C   0  0  0  0  0  0  0  0  0  0  0  0
  148.4066  134.0064  153.8687 N   0  0  0  0  0  0  0  0  0  0  0  0
  147.8847  132.9143  153.2077 N   0  0  0  0  0  0  0  0  0  0  0  0
  147.0828  133.2682  152.0365 C   0  0  0  0  0  0  0  0  0  0  0  0
  148.0569  131.6256  153.5999 C   0  0  0  0  0  0  0  0  0  0  0  0
  147.6080  130.6532  152.9936 O   0  0  0  0  0  0  0  0  0  0  0  0
  148.8370  131.4066  154.8995 C   0  0  0  0  0  0  0  0  0  0  0  0
  149.8584  132.5294  155.1654 C   0  0  0  0  0  0  0  0  0  0  0  0
  150.0605  138.5725  154.1568 C   0  0  0  0  0  0  0  0  0  0  0  0
  150.4003  139.8590  154.3813 N   0  0  0  0  0  0  0  0  0  0  0  0
  152.4055  144.6209  160.2419 H   0  0  0  0  0  0  0  0  0  0  0  0
  150.7753  144.4874  159.5810 H   0  0  0  0  0  0  0  0  0  0  0  0
  151.9642  145.5554  158.8124 H   0  0  0  0  0  0  0  0  0  0  0  0
  150.7883  144.2144  157.2635 H   0  0  0  0  0  0  0  0  0  0  0  0
  152.2104  143.5961  156.4311 H   0  0  0  0  0  0  0  0  0  0  0  0
  151.2809  141.3954  157.9622 H   0  0  0  0  0  0  0  0  0  0  0  0
  149.8108  142.1757  157.3748 H   0  0  0  0  0  0  0  0  0  0  0  0
  150.9971  139.6395  157.7153 H   0  0  0  0  0  0  0  0  0  0  0  0
  150.3637  137.2787  157.3038 H   0  0  0  0  0  0  0  0  0  0  0  0
  149.2202  136.1826  153.8829 H   0  0  0  0  0  0  0  0  0  0  0  0
  146.6488  132.4099  151.5221 H   0  0  0  0  0  0  0  0  0  0  0  0
  147.6953  133.8068  151.3126 H   0  0  0  0  0  0  0  0  0  0  0  0
  146.2595  133.9208  152.3299 H   0  0  0  0  0  0  0  0  0  0  0  0
  148.1121  131.3705  155.7135 H   0  0  0  0  0  0  0  0  0  0  0  0
  149.3358  130.4370  154.8801 H   0  0  0  0  0  0  0  0  0  0  0  0
  150.7747  132.3404  154.6050 H   0  0  0  0  0  0  0  0  0  0  0  0
  150.1322  132.5013  156.2209 H   0  0  0  0  0  0  0  0  0  0  0  0
  149.7973  138.3255  153.1386 H   0  0  0  0  0  0  0  0  0  0  0  0
  1  2  1  0  0  0  0
  1 23  1  0  0  0  0
  1 24  1  0  0  0  0
  1 25  1  0  0  0  0
  2  3  1  0  0  0  0
  3  4  1  0  0  0  0
  3 26  1  0  0  0  0
  3 27  1  0  0  0  0
  4  5  1  0  0  0  0
  4 28  1  0  0  0  0
  4 29  1  0  0  0  0
  5  6  1  0  0  0  0
  6 22  1  0  0  0  0
  6  7  2  0  0  0  0
  7  8  1  0  0  0  0
  7 30  1  0  0  0  0
  8  9  2  0  0  0  0
  8 31  1  0  0  0  0
  9 10  1  0  0  0  0
  9 21  1  0  0  0  0
 10 11  1  0  0  0  0
 10 32  1  0  0  0  0
 11 12  2  0  0  0  0
 11 13  1  0  0  0  0
 13 20  1  0  0  0  0
 13 14  2  0  0  0  0
 14 15  1  0  0  0  0
 15 16  1  0  0  0  0
 15 17  1  0  0  0  0
 16 33  1  0  0  0  0
 16 34  1  0  0  0  0
 16 35  1  0  0  0  0
 17 18  2  0  0  0  0
 17 19  1  0  0  0  0
 19 20  1  0  0  0  0
 19 36  1  0  0  0  0
 19 37  1  0  0  0  0
 20 38  1  0  0  0  0
 20 39  1  0  0  0  0
 21 22  2  0  0  0  0
 21 40  1  0  0  0  0
M  END
> <s_m_source_file>
AV-unprocessed.smi

> <i_m_source_file_index>
2142

> <i_lp_mmshare_version>
43012

> <i_f3d_flags>
0

> <s_epik_input>
W0NIM11PW0NIMl1bQ0gyXU9jMVtjSF1bY0hdYyhbY0hdbjEpW05IXUMoPU8pQzI9Tk4oW0NIM10pQyg9TylbQ0gyXVtDSDJdMg==

> <s_epik_cmdline>
J2VwaWtfcHl0aG9uJywgJy1waCcsICc3LjAnLCAnLXRuJywgJzgnLCAnLW1hJywgJzIwMCcsICctbWV0YWxfYmluZGluZycsICctaW1hZScsICc8aW5maWxlLm1hZT4nLCAnLW9tYWUnLCAnPG91dGZpbGUubWFlPic=

> <r_lp_tautomer_probability>
1

> <r_epik_Ionization_Penalty>
2.74522e-05

> <r_epik_Ionization_Penalty_Charging>
0

> <r_epik_Ionization_Penalty_Neutral>
2.74522e-05

> <r_epik_State_Penalty>
-0

> <r_epik_Charging_Adjusted_Penalty>
0

> <i_epik_Tot_Q>
0

> <i_epik_Tot_abs_Q>
0

> <r_epik_Metal_State_Penalty>
0.0227286

> <b_epik_Metal_Only>
0

> <s_epik_Chemistry_Notes>
This compound has an imine and may undergo hydrolysis.

> <s_lp_Force_Field>
OPLS_2005

> <r_lp_Energy>
20.7246

> <b_lp_Chiralities_Consistent>
1

> <s_lp_Variant>
AV-unprocessed.smi:2142-1

> <Gold.Version>
5.8.1

> <Gold.Id.Protein>
6NUR|6NUR_protein|mol2

> <Gold.PLP.Fitness>
43.8167

> <Gold.PLP.PLP>
-35.4149

> <Gold.PLP.part.hbond>
-2.6139

> <Gold.PLP.part.metal>
0.0000

> <Gold.PLP.part.buried>
-5.5583

> <Gold.PLP.part.nonpolar>
-30.1756

> <Gold.PLP.part.repulsive>
3.4432

> <Gold.PLP.ligand.clash>
0.0000

> <Gold.PLP.ligand.torsion>
1.3149

> <Gold.PLP.Chemscore.Hbond>
1.8500

> <Gold.PLP.Chemscore.CHOScore>
1.8048

> <Gold.PLP.Chemscore.Metal>
0.0000

> <Gold.Chemscore.Hbonds>
donor molecule, donor type, donor heavy atom, donor atom, acceptor molecule, acceptor atom, score
      L1  H    10    32       P1  7948  1.00
      P1  H  7989  7998       L1    22  0.90
      L1  C    21    40       P1  7948  0.95
      L1  C    21    40       P1  7957  0.75

> <Gold.PLP.Chemscore.Internal.Correction>
0.0670

> <Gold.Rescore>
     Score         DG    S(hbond)    S(metal)    S(lipo)     H(rot)  DE(clash)    DE(int)     intcor
     10.66     -13.43       1.27        0.00      69.87       1.74       0.28       2.49       ----

> <Gold.Chemscore.Fitness>
10.6626

> <Gold.Chemscore.DG>
-13.4316

> <Gold.Chemscore.ZeroCoef>
-5.4800

> <Gold.Chemscore.Hbond>
1.2678

> <Gold.Chemscore.Metal>
0.0000

> <Gold.Chemscore.Lipo>
69.8726

> <Gold.Chemscore.Internal_Hbond>
0.0000

> <Gold.Chemscore.DEClash>
0.2816

> <Gold.Chemscore.DEInternal>
2.4873

> <Gold.Chemscore.Rot>
1.7414

> <Gold.Chemscore.Internal.Correction>
   9.000000E+99

> <Gold.Chemscore.Hbonds>
donor molecule, donor type, donor heavy atom, donor atom, acceptor molecule, acceptor atom, score
      L1  H    10    32       P1  7948  0.85
      P1  H  7989  7998       L1    22  0.18

> <Gold.Chemscore.Hbond.Weighted>
-4.2345

> <Gold.Chemscore.Metal.Weighted>
-0.0000

> <Gold.Chemscore.Lipo.Weighted>
-8.1751

> <Gold.Chemscore.Internal_Hbond.Weighted>
0.0000

> <Gold.Chemscore.DEClash.Weighted>
0.2816

> <Gold.Chemscore.DEInternal.Weighted>
2.4873

> <Gold.Chemscore.Rot.Weighted>
4.4580

> <Gold.Chemscore.Internal.Correction.Weighted>
   9.000000E+99

> <Gold.Protein.RotatedTorsions>
[ 6907 6896 6895 6894 ] final  126.66 input  -60.11 | X-H torsion
[ 7974 7965 7964 7962 ] final  129.51 input  175.53 | X-H torsion
[ 8008 7997 7996 7995 ] final  179.26 input   59.86 | X-H torsion
[ 10167 10162 10161 10158 ] final -135.63 input  -65.29 | X-H torsion
[ 10718 10713 10712 10709 ] final -113.80 input   66.30 | X-H torsion
[ 10763 10752 10751 10750 ] final  143.45 input  -60.55 | X-H torsion
[ 11005 11000 10999 10996 ] final  -87.93 input  -57.11 | X-H torsion

> <Gold.Protein.ActiveResidues>
 VAL166  LYS551  ARG553  GLY616  TRP617  ASP618  TYR619  PRO620  LYS621  CYS622 
 ASP623  PHE694  ASN695  SER759  ASP760  ASP761  ALA762  ILE779  LEU786  VAL792 
 PHE793  MET794  SER795  GLU796  ALA797  LYS798  CYS799  TRP800  GLU811  SER814 

> <Gold.Protein.RotatedAtoms>
  152.3884  133.6643  159.6216 H   0  0  0  0  0  0  0  0  0  0  0  0  # atno 6907 bound_to 6896
  150.7797  133.8997  159.3346 H   0  0  0  0  0  0  0  0  0  0  0  0  # atno 6908 bound_to 6896
  151.6788  135.0966  160.0263 H   0  0  0  0  0  0  0  0  0  0  0  0  # atno 6909 bound_to 6896
  145.0279  139.4072  143.5164 H   0  0  0  0  0  0  0  0  0  0  0  0  # atno 7974 bound_to 7965
  156.0454  140.1313  157.0110 H   0  0  0  0  0  0  0  0  0  0  0  0  # atno 8008 bound_to 7997
  154.4410  140.1022  156.6368 H   0  0  0  0  0  0  0  0  0  0  0  0  # atno 8009 bound_to 7997
  155.5604  140.3464  155.4492 H   0  0  0  0  0  0  0  0  0  0  0  0  # atno 8010 bound_to 7997
  139.8759  143.6899  152.2634 H   0  0  0  0  0  0  0  0  0  0  0  0  # atno 10167 bound_to 10162
  156.0790  130.5993  150.8691 H   0  0  0  0  0  0  0  0  0  0  0  0  # atno 10718 bound_to 10713
  153.9725  135.2949  155.3426 H   0  0  0  0  0  0  0  0  0  0  0  0  # atno 10763 bound_to 10752
  154.7314  135.5066  153.8973 H   0  0  0  0  0  0  0  0  0  0  0  0  # atno 10764 bound_to 10752
  153.0893  135.6703  153.9998 H   0  0  0  0  0  0  0  0  0  0  0  0  # atno 10765 bound_to 10752
  141.1609  133.7540  156.9378 H   0  0  0  0  0  0  0  0  0  0  0  0  # atno 11005 bound_to 11000
  146.3494  139.9813  142.8695 LP  0  0  0  0  0  0  0  0  0  0  0  0  # atno 17320 bound_to 7965
  145.1809  140.9766  143.4267 LP  0  0  0  0  0  0  0  0  0  0  0  0  # atno 17321 bound_to 7965
  139.7240  144.7596  151.0908 LP  0  0  0  0  0  0  0  0  0  0  0  0  # atno 17342 bound_to 10162
  140.7753  143.5171  150.9581 LP  0  0  0  0  0  0  0  0  0  0  0  0  # atno 17343 bound_to 10162
  157.5898  131.0945  150.9137 LP  0  0  0  0  0  0  0  0  0  0  0  0  # atno 17370 bound_to 10713
  156.9316  130.5351  149.5279 LP  0  0  0  0  0  0  0  0  0  0  0  0  # atno 17371 bound_to 10713
  140.1342  134.9336  157.2379 LP  0  0  0  0  0  0  0  0  0  0  0  0  # atno 17394 bound_to 11000
  140.2915  134.3235  155.7314 LP  0  0  0  0  0  0  0  0  0  0  0  0  # atno 17395 bound_to 11000

$$$$
