AV-unprocessed.smi:2126|AV-procd|sdf|8677|dock1
  -GOLD-   2272011433D 1   1.00000     0.00000
 Structure written by MMmdl.
 41 43  0  0  0  0  0  0  0  0  2 V2000
  145.2065  142.7229  155.1919 C   0  0  0  0  0  0  0  0  0  0  0  0
  145.6512  141.4777  155.7096 O   0  0  0  0  0  0  0  0  0  0  0  0
  146.8958  141.0244  155.3285 C   0  0  0  0  0  0  0  0  0  0  0  0
  147.7753  141.7327  154.4734 C   0  0  0  0  0  0  0  0  0  0  0  0
  149.0308  141.1910  154.1369 C   0  0  0  0  0  0  0  0  0  0  0  0
  149.4399  139.9404  154.6402 C   0  0  0  0  0  0  0  0  0  0  0  0
  150.6848  139.4877  154.2594 O   0  0  0  0  0  0  0  0  0  0  0  0
  151.3860  138.6220  155.1425 C   0  0  0  0  0  0  0  0  0  0  0  0
  152.2843  139.4653  156.0596 C   0  0  2  0  0  0  0  0  0  0  0  0
  153.4414  138.7135  156.3675 O   0  0  0  0  0  0  0  0  0  0  0  0
  151.5678  139.8900  157.3573 C   0  0  0  0  0  0  0  0  0  0  0  0
  151.3066  141.3353  157.4161 N   0  0  0  0  0  0  0  0  0  0  0  0
  150.5582  142.1146  156.5892 C   0  0  0  0  0  0  0  0  0  0  0  0
  150.6214  143.3918  157.0572 N   0  3  0  0  0  0  0  0  0  0  0  0
  151.4221  143.4303  158.2006 C   0  0  0  0  0  0  0  0  0  0  0  0
  151.7821  144.4923  159.0246 C   0  0  0  0  0  0  0  0  0  0  0  0
  152.6203  144.1899  160.1177 C   0  0  0  0  0  0  0  0  0  0  0  0
  153.0706  142.8752  160.3559 C   0  0  0  0  0  0  0  0  0  0  0  0
  152.7007  141.8064  159.5130 C   0  0  0  0  0  0  0  0  0  0  0  0
  151.8678  142.1123  158.4368 C   0  0  0  0  0  0  0  0  0  0  0  0
  148.5599  139.2320  155.4946 C   0  0  0  0  0  0  0  0  0  0  0  0
  147.3041  139.7732  155.8305 C   0  0  0  0  0  0  0  0  0  0  0  0
  144.2123  142.9393  155.5823 H   0  0  0  0  0  0  0  0  0  0  0  0
  145.1353  142.7000  154.1036 H   0  0  0  0  0  0  0  0  0  0  0  0
  145.8645  143.5384  155.4944 H   0  0  0  0  0  0  0  0  0  0  0  0
  147.5107  142.6947  154.0616 H   0  0  0  0  0  0  0  0  0  0  0  0
  149.6888  141.7446  153.4832 H   0  0  0  0  0  0  0  0  0  0  0  0
  150.6900  138.0307  155.7402 H   0  0  0  0  0  0  0  0  0  0  0  0
  152.0012  137.9344  154.5594 H   0  0  0  0  0  0  0  0  0  0  0  0
  152.6088  140.3543  155.5170 H   0  0  0  0  0  0  0  0  0  0  0  0
  153.1719  137.8703  156.6991 H   0  0  0  0  0  0  0  0  0  0  0  0
  150.6010  139.3902  157.4284 H   0  0  0  0  0  0  0  0  0  0  0  0
  152.1308  139.5869  158.2403 H   0  0  0  0  0  0  0  0  0  0  0  0
  150.0123  141.7797  155.7188 H   0  0  0  0  0  0  0  0  0  0  0  0
  151.4411  145.5010  158.8424 H   0  0  0  0  0  0  0  0  0  0  0  0
  152.9256  144.9825  160.7857 H   0  0  0  0  0  0  0  0  0  0  0  0
  153.7147  142.6821  161.2017 H   0  0  0  0  0  0  0  0  0  0  0  0
  153.0575  140.8047  159.7014 H   0  0  0  0  0  0  0  0  0  0  0  0
  148.8231  138.2698  155.9066 H   0  0  0  0  0  0  0  0  0  0  0  0
  146.6452  139.2193  156.4831 H   0  0  0  0  0  0  0  0  0  0  0  0
  150.1509  144.1772  156.6259 H   0  0  0  0  0  0  0  0  0  0  0  0
  1  2  1  0  0  0  0
  1 23  1  0  0  0  0
  1 24  1  0  0  0  0
  1 25  1  0  0  0  0
  2  3  1  0  0  0  0
  3 22  1  0  0  0  0
  3  4  2  0  0  0  0
  4  5  1  0  0  0  0
  4 26  1  0  0  0  0
  5  6  2  0  0  0  0
  5 27  1  0  0  0  0
  6  7  1  0  0  0  0
  6 21  1  0  0  0  0
  7  8  1  0  0  0  0
  8  9  1  0  0  0  0
  8 28  1  0  0  0  0
  8 29  1  0  0  0  0
  9 10  1  0  0  0  0
  9 11  1  0  0  0  0
  9 30  1  0  0  0  0
 10 31  1  0  0  0  0
 11 12  1  0  0  0  0
 11 32  1  0  0  0  0
 11 33  1  0  0  0  0
 12 20  1  0  0  0  0
 12 13  1  0  0  0  0
 13 14  2  0  0  0  0
 13 34  1  0  0  0  0
 14 15  1  0  0  0  0
 14 41  1  0  0  0  0
 15 20  2  0  0  0  0
 15 16  1  0  0  0  0
 16 17  2  0  0  0  0
 16 35  1  0  0  0  0
 17 18  1  0  0  0  0
 17 36  1  0  0  0  0
 18 19  2  0  0  0  0
 18 37  1  0  0  0  0
 19 20  1  0  0  0  0
 19 38  1  0  0  0  0
 21 22  2  0  0  0  0
 21 39  1  0  0  0  0
 22 40  1  0  0  0  0
M  CHG  1  14   1
M  END
> <s_m_source_file>
AV-unprocessed.smi

> <i_m_source_file_index>
2126

> <i_lp_mmshare_version>
43012

> <i_f3d_flags>
0

> <s_epik_input>
W0NIM11PYzFbY0hdW2NIXWMoW2NIXVtjSF0xKU9bQ0gyXVtDQEhdKFtPSF0pW0NIMl1uKFtjSF1uMiljKGMyMylbY0hdW2NIXVtjSF1bY0hdMw==

> <s_epik_cmdline>
J2VwaWtfcHl0aG9uJywgJy1waCcsICc3LjAnLCAnLXRuJywgJzgnLCAnLW1hJywgJzIwMCcsICctbWV0YWxfYmluZGluZycsICctaW1hZScsICc8aW5maWxlLm1hZT4nLCAnLW9tYWUnLCAnPG91dGZpbGUubWFlPic=

> <r_lp_tautomer_probability>
1

> <r_epik_Ionization_Penalty>
1.37822

> <r_epik_Ionization_Penalty_Charging>
1.37822

> <r_epik_Ionization_Penalty_Neutral>
2.3993e-06

> <r_epik_State_Penalty>
1.45852

> <r_epik_Charging_Adjusted_Penalty>
2.83674

> <i_epik_Tot_Q>
1

> <i_epik_Tot_abs_Q>
1

> <r_epik_Metal_State_Penalty>
5.4985

> <b_epik_Metal_Only>
0

> <s_lp_Force_Field>
OPLS_2005

> <r_lp_Energy>
23.2038

> <b_lp_Chiralities_Consistent>
1

> <s_lp_Variant>
AV-unprocessed.smi:2126-3

> <Gold.Version>
5.8.1

> <Gold.Id.Protein>
6NUR|6NUR_protein|mol2

> <Gold.PLP.Fitness>
52.8440

> <Gold.PLP.PLP>
-44.7882

> <Gold.PLP.part.hbond>
-2.9992

> <Gold.PLP.part.metal>
0.0000

> <Gold.PLP.part.buried>
-4.0107

> <Gold.PLP.part.nonpolar>
-38.6082

> <Gold.PLP.part.repulsive>
0.2672

> <Gold.PLP.ligand.clash>
0.0000

> <Gold.PLP.ligand.torsion>
1.6974

> <Gold.PLP.Chemscore.Hbond>
3.7360

> <Gold.PLP.Chemscore.CHOScore>
0.0000

> <Gold.PLP.Chemscore.Metal>
0.0000

> <Gold.Chemscore.Hbonds>
donor molecule, donor type, donor heavy atom, donor atom, acceptor molecule, acceptor atom, score
      L1  H    14    41       P1  8028  1.98
      P1  H  7989  7998       L1     7  1.00
      P1  H  7997  8009       L1    10  0.65

> <Gold.PLP.Chemscore.Internal.Correction>
0.2426

> <Gold.Rescore>
     Score         DG    S(hbond)    S(metal)    S(lipo)     H(rot)  DE(clash)    DE(int)     intcor
     17.45     -19.31       2.00        0.00     117.96       2.60       0.12       1.73       ----

> <Gold.Chemscore.Fitness>
17.4522

> <Gold.Chemscore.DG>
-19.3091

> <Gold.Chemscore.ZeroCoef>
-5.4800

> <Gold.Chemscore.Hbond>
2.0045

> <Gold.Chemscore.Metal>
0.0000

> <Gold.Chemscore.Lipo>
117.9586

> <Gold.Chemscore.Internal_Hbond>
0.0000

> <Gold.Chemscore.DEClash>
0.1238

> <Gold.Chemscore.DEInternal>
1.7330

> <Gold.Chemscore.Rot>
2.6043

> <Gold.Chemscore.Internal.Correction>
   9.000000E+99

> <Gold.Chemscore.Hbonds>
donor molecule, donor type, donor heavy atom, donor atom, acceptor molecule, acceptor atom, score
      L1  H    14    41       P1  8028  0.93
      P1  H  7989  7998       L1     7  0.71
      P1  H  7997  8009       L1    10  0.15

> <Gold.Chemscore.Hbond.Weighted>
-6.6949

> <Gold.Chemscore.Metal.Weighted>
-0.0000

> <Gold.Chemscore.Lipo.Weighted>
-13.8012

> <Gold.Chemscore.Internal_Hbond.Weighted>
0.0000

> <Gold.Chemscore.DEClash.Weighted>
0.1238

> <Gold.Chemscore.DEInternal.Weighted>
1.7330

> <Gold.Chemscore.Rot.Weighted>
6.6670

> <Gold.Chemscore.Internal.Correction.Weighted>
   9.000000E+99

> <Gold.Protein.RotatedTorsions>
[ 6907 6896 6895 6894 ] final  145.26 input  -60.11 | X-H torsion
[ 7974 7965 7964 7962 ] final -105.91 input  175.53 | X-H torsion
[ 8008 7997 7996 7995 ] final  165.29 input   59.86 | X-H torsion
[ 10167 10162 10161 10158 ] final   98.70 input  -65.29 | X-H torsion
[ 10718 10713 10712 10709 ] final  119.39 input   66.30 | X-H torsion
[ 10763 10752 10751 10750 ] final -153.40 input  -60.55 | X-H torsion
[ 11005 11000 10999 10996 ] final  -67.43 input  -57.11 | X-H torsion

> <Gold.Protein.ActiveResidues>
 VAL166  LYS551  ARG553  GLY616  TRP617  ASP618  TYR619  PRO620  LYS621  CYS622 
 ASP623  PHE694  ASN695  SER759  ASP760  ASP761  ALA762  ILE779  LEU786  VAL792 
 PHE793  MET794  SER795  GLU796  ALA797  LYS798  CYS799  TRP800  GLU811  SER814 

> <Gold.Protein.RotatedAtoms>
  152.1832  133.4721  159.4968 H   0  0  0  0  0  0  0  0  0  0  0  0  # atno 6907 bound_to 6896
  150.6938  134.1807  159.4256 H   0  0  0  0  0  0  0  0  0  0  0  0  # atno 6908 bound_to 6896
  151.9719  135.0072  160.0604 H   0  0  0  0  0  0  0  0  0  0  0  0  # atno 6909 bound_to 6896
  145.2245  140.9147  143.3240 H   0  0  0  0  0  0  0  0  0  0  0  0  # atno 7974 bound_to 7965
  156.1812  140.1674  156.8270 H   0  0  0  0  0  0  0  0  0  0  0  0  # atno 8008 bound_to 7997
  154.5362  140.0746  156.8465 H   0  0  0  0  0  0  0  0  0  0  0  0  # atno 8009 bound_to 7997
  155.3306  140.3379  155.4242 H   0  0  0  0  0  0  0  0  0  0  0  0  # atno 8010 bound_to 7997
  139.7684  144.6931  151.0191 H   0  0  0  0  0  0  0  0  0  0  0  0  # atno 10167 bound_to 10162
  157.5965  131.1057  150.7889 H   0  0  0  0  0  0  0  0  0  0  0  0  # atno 10718 bound_to 10713
  154.7930  135.3213  154.7733 H   0  0  0  0  0  0  0  0  0  0  0  0  # atno 10763 bound_to 10752
  153.8418  135.6870  153.4806 H   0  0  0  0  0  0  0  0  0  0  0  0  # atno 10764 bound_to 10752
  153.1608  135.4661  154.9710 H   0  0  0  0  0  0  0  0  0  0  0  0  # atno 10765 bound_to 10752
  141.1508  133.6719  156.6291 H   0  0  0  0  0  0  0  0  0  0  0  0  # atno 11005 bound_to 11000
  144.9735  139.3856  143.6297 LP  0  0  0  0  0  0  0  0  0  0  0  0  # atno 17320 bound_to 7965
  146.3368  139.8843  142.8819 LP  0  0  0  0  0  0  0  0  0  0  0  0  # atno 17321 bound_to 7965
  140.7812  143.4616  151.0270 LP  0  0  0  0  0  0  0  0  0  0  0  0  # atno 17342 bound_to 10162
  139.8300  143.7703  152.3179 LP  0  0  0  0  0  0  0  0  0  0  0  0  # atno 17343 bound_to 10162
  156.8298  130.5012  149.5333 LP  0  0  0  0  0  0  0  0  0  0  0  0  # atno 17370 bound_to 10713
  156.1029  130.5982  150.9923 LP  0  0  0  0  0  0  0  0  0  0  0  0  # atno 17371 bound_to 10713
  140.3480  134.7792  157.4446 LP  0  0  0  0  0  0  0  0  0  0  0  0  # atno 17394 bound_to 11000
  140.0883  134.5635  155.8469 LP  0  0  0  0  0  0  0  0  0  0  0  0  # atno 17395 bound_to 11000

$$$$
