AV-unprocessed.smi:2439|AV-procd|sdf|9608|dock6
  -GOLD-   2272013243D 1   1.00000     0.00000
 Structure written by MMmdl.
 41 43  0  0  0  0  0  0  0  0  2 V2000
  148.1658  137.1988  160.4329 N   0  0  0  0  0  0  0  0  0  0  0  0
  148.8457  137.0377  159.5108 C   0  0  0  0  0  0  0  0  0  0  0  0
  149.7035  136.8350  158.3496 C   0  0  0  0  0  0  0  0  0  0  0  0
  149.2135  136.0802  157.2631 C   0  0  0  0  0  0  0  0  0  0  0  0
  150.0374  135.8794  156.1406 C   0  0  0  0  0  0  0  0  0  0  0  0
  151.3248  136.4456  156.1497 C   0  0  0  0  0  0  0  0  0  0  0  0
  151.8058  137.1690  157.1822 N   0  0  0  0  0  0  0  0  0  0  0  0
  151.0186  137.3673  158.2683 C   0  0  0  0  0  0  0  0  0  0  0  0
  151.5462  138.1277  159.3288 N   0  0  0  0  0  0  0  0  0  0  0  0
  152.6830  139.0235  159.1502 C   0  0  0  0  0  0  0  0  0  0  0  0
  152.2938  140.5051  159.2929 C   0  0  1  0  0  0  0  0  0  0  0  0
  153.4353  141.3283  159.9294 C   0  0  0  0  0  0  0  0  0  0  0  0
  153.1152  142.7762  159.9566 N   0  3  2  0  0  0  0  0  0  0  0  0
  152.1599  143.1518  161.0347 C   0  0  0  0  0  0  0  0  0  0  0  0
  151.9198  144.6682  161.0635 C   0  0  0  0  0  0  0  0  0  0  0  0
  151.4116  145.1607  159.7041 C   0  0  0  0  0  0  0  0  0  0  0  0
  152.4053  144.7673  158.6025 C   0  0  0  0  0  0  0  0  0  0  0  0
  152.7236  143.2567  158.6024 C   0  0  2  0  0  0  0  0  0  0  0  0
  151.5971  142.3793  158.0173 C   0  0  0  0  0  0  0  0  0  0  0  0
  152.0259  141.0224  157.9925 O   0  0  0  0  0  0  0  0  0  0  0  0
  148.2190  135.6581  157.2845 H   0  0  0  0  0  0  0  0  0  0  0  0
  149.6900  135.3066  155.2935 H   0  0  0  0  0  0  0  0  0  0  0  0
  151.9867  136.3140  155.3066 H   0  0  0  0  0  0  0  0  0  0  0  0
  151.1879  137.9884  160.2631 H   0  0  0  0  0  0  0  0  0  0  0  0
  153.4623  138.7647  159.8680 H   0  0  0  0  0  0  0  0  0  0  0  0
  153.1119  138.8454  158.1637 H   0  0  0  0  0  0  0  0  0  0  0  0
  151.3965  140.5849  159.9074 H   0  0  0  0  0  0  0  0  0  0  0  0
  153.6534  140.9733  160.9375 H   0  0  0  0  0  0  0  0  0  0  0  0
  154.3496  141.1923  159.3502 H   0  0  0  0  0  0  0  0  0  0  0  0
  151.2089  142.6358  160.9038 H   0  0  0  0  0  0  0  0  0  0  0  0
  152.5593  142.8306  161.9973 H   0  0  0  0  0  0  0  0  0  0  0  0
  151.1989  144.9168  161.8432 H   0  0  0  0  0  0  0  0  0  0  0  0
  152.8456  145.1839  161.3216 H   0  0  0  0  0  0  0  0  0  0  0  0
  150.4301  144.7335  159.4959 H   0  0  0  0  0  0  0  0  0  0  0  0
  151.2818  146.2433  159.7220 H   0  0  0  0  0  0  0  0  0  0  0  0
  152.0257  145.0742  157.6273 H   0  0  0  0  0  0  0  0  0  0  0  0
  153.3317  145.3234  158.7534 H   0  0  0  0  0  0  0  0  0  0  0  0
  153.5934  143.1193  157.9579 H   0  0  0  0  0  0  0  0  0  0  0  0
  150.6698  142.4713  158.5841 H   0  0  0  0  0  0  0  0  0  0  0  0
  151.3731  142.6886  156.9961 H   0  0  0  0  0  0  0  0  0  0  0  0
  153.9756  143.2525  160.1873 H   0  0  0  0  0  0  0  0  0  0  0  0
  1  2  3  0  0  0  0
  2  3  1  0  0  0  0
  3  8  1  0  0  0  0
  3  4  2  0  0  0  0
  4  5  1  0  0  0  0
  4 21  1  0  0  0  0
  5  6  2  0  0  0  0
  5 22  1  0  0  0  0
  6  7  1  0  0  0  0
  6 23  1  0  0  0  0
  7  8  2  0  0  0  0
  8  9  1  0  0  0  0
  9 10  1  0  0  0  0
  9 24  1  0  0  0  0
 10 11  1  0  0  0  0
 10 25  1  0  0  0  0
 10 26  1  0  0  0  0
 11 20  1  0  0  0  0
 11 12  1  0  0  0  0
 11 27  1  0  0  0  0
 12 13  1  0  0  0  0
 12 28  1  0  0  0  0
 12 29  1  0  0  0  0
 13 18  1  0  0  0  0
 13 14  1  0  0  0  0
 13 41  1  0  0  0  0
 14 15  1  0  0  0  0
 14 30  1  0  0  0  0
 14 31  1  0  0  0  0
 15 16  1  0  0  0  0
 15 32  1  0  0  0  0
 15 33  1  0  0  0  0
 16 17  1  0  0  0  0
 16 34  1  0  0  0  0
 16 35  1  0  0  0  0
 17 18  1  0  0  0  0
 17 36  1  0  0  0  0
 17 37  1  0  0  0  0
 18 19  1  0  0  0  0
 18 38  1  0  0  0  0
 19 20  1  0  0  0  0
 19 39  1  0  0  0  0
 19 40  1  0  0  0  0
M  CHG  1  13   1
M  END
> <s_m_source_file>
AV-unprocessed.smi

> <i_m_source_file_index>
2439

> <i_lp_mmshare_version>
43012

> <i_f3d_flags>
0

> <s_epik_input>
TiNDYzFbY0hdW2NIXVtjSF1uYzFbTkhdW0NIMl1bQ0BIXShbQ0gyXTIpT1tDSDJdW0NAQEhdKE4yMylbQ0gyXVtDSDJdW0NIMl1bQ0gyXTM=

> <s_epik_cmdline>
J2VwaWtfcHl0aG9uJywgJy1waCcsICc3LjAnLCAnLXRuJywgJzgnLCAnLW1hJywgJzIwMCcsICctbWV0YWxfYmluZGluZycsICctaW1hZScsICc8aW5maWxlLm1hZT4nLCAnLW9tYWUnLCAnPG91dGZpbGUubWFlPic=

> <r_epik_Ionization_Penalty>
0.0803594

> <r_epik_Ionization_Penalty_Charging>
0.0803403

> <r_epik_Ionization_Penalty_Neutral>
1.90988e-05

> <r_epik_State_Penalty>
0.0711481

> <r_epik_Charging_Adjusted_Penalty>
0.151488

> <i_epik_Tot_Q>
1

> <i_epik_Tot_abs_Q>
1

> <r_epik_Metal_State_Penalty>
0.0711482

> <b_epik_Metal_Only>
0

> <s_lp_Force_Field>
OPLS_2005

> <r_lp_Energy>
31.3602

> <b_lp_Chiralities_Consistent>
1

> <s_lp_Variant>
AV-unprocessed.smi:2439-6

> <Gold.Version>
5.8.1

> <Gold.Id.Protein>
6NUR|6NUR_protein|mol2

> <Gold.PLP.Fitness>
41.2239

> <Gold.PLP.PLP>
-38.5421

> <Gold.PLP.part.hbond>
-2.0000

> <Gold.PLP.part.metal>
0.0000

> <Gold.PLP.part.buried>
-5.7701

> <Gold.PLP.part.nonpolar>
-31.2720

> <Gold.PLP.part.repulsive>
0.1861

> <Gold.PLP.ligand.clash>
0.0000

> <Gold.PLP.ligand.torsion>
0.5687

> <Gold.PLP.Chemscore.Hbond>
1.2726

> <Gold.PLP.Chemscore.CHOScore>
0.0000

> <Gold.PLP.Chemscore.Metal>
0.0000

> <Gold.Chemscore.Hbonds>
donor molecule, donor type, donor heavy atom, donor atom, acceptor molecule, acceptor atom, score
      P1  H  6931  6943       L1     1  0.74
      P1  H  6934  6947       L1     1  0.54

> <Gold.PLP.Chemscore.Internal.Correction>
0.0012

> <Gold.Rescore>
     Score         DG    S(hbond)    S(metal)    S(lipo)     H(rot)  DE(clash)    DE(int)     intcor
     17.84     -18.57       1.22        0.00     104.74       1.27       0.08       0.65       ----

> <Gold.Chemscore.Fitness>
17.8418

> <Gold.Chemscore.DG>
-18.5713

> <Gold.Chemscore.ZeroCoef>
-5.4800

> <Gold.Chemscore.Hbond>
1.2209

> <Gold.Chemscore.Metal>
0.0000

> <Gold.Chemscore.Lipo>
104.7375

> <Gold.Chemscore.Internal_Hbond>
0.0000

> <Gold.Chemscore.DEClash>
0.0843

> <Gold.Chemscore.DEInternal>
0.6453

> <Gold.Chemscore.Rot>
1.2659

> <Gold.Chemscore.Internal.Correction>
   9.000000E+99

> <Gold.Chemscore.Hbonds>
donor molecule, donor type, donor heavy atom, donor atom, acceptor molecule, acceptor atom, score
      P1  H  6931  6943       L1     1  0.59
      P1  H  6934  6947       L1     1  0.52

> <Gold.Chemscore.Hbond.Weighted>
-4.0778

> <Gold.Chemscore.Metal.Weighted>
-0.0000

> <Gold.Chemscore.Lipo.Weighted>
-12.2543

> <Gold.Chemscore.Internal_Hbond.Weighted>
0.0000

> <Gold.Chemscore.DEClash.Weighted>
0.0843

> <Gold.Chemscore.DEInternal.Weighted>
0.6453

> <Gold.Chemscore.Rot.Weighted>
3.2408

> <Gold.Chemscore.Internal.Correction.Weighted>
   9.000000E+99

> <Gold.Protein.RotatedTorsions>
[ 6907 6896 6895 6894 ] final   -9.92 input  -60.11 | X-H torsion
[ 7974 7965 7964 7962 ] final  157.43 input  175.53 | X-H torsion
[ 8008 7997 7996 7995 ] final   81.37 input   59.86 | X-H torsion
[ 10167 10162 10161 10158 ] final   43.73 input  -65.29 | X-H torsion
[ 10718 10713 10712 10709 ] final   29.85 input   66.30 | X-H torsion
[ 10763 10752 10751 10750 ] final -116.52 input  -60.55 | X-H torsion
[ 11005 11000 10999 10996 ] final  165.37 input  -57.11 | X-H torsion

> <Gold.Protein.ActiveResidues>
 VAL166  LYS551  ARG553  GLY616  TRP617  ASP618  TYR619  PRO620  LYS621  CYS622 
 ASP623  PHE694  ASN695  SER759  ASP760  ASP761  ALA762  ILE779  LEU786  VAL792 
 PHE793  MET794  SER795  GLU796  ALA797  LYS798  CYS799  TRP800  GLU811  SER814 

> <Gold.Protein.RotatedAtoms>
  151.4101  135.0984  159.9582 H   0  0  0  0  0  0  0  0  0  0  0  0  # atno 6907 bound_to 6896
  152.5022  133.8805  159.7354 H   0  0  0  0  0  0  0  0  0  0  0  0  # atno 6908 bound_to 6896
  150.9298  133.6723  159.2841 H   0  0  0  0  0  0  0  0  0  0  0  0  # atno 6909 bound_to 6896
  144.7904  139.7339  143.6224 H   0  0  0  0  0  0  0  0  0  0  0  0  # atno 7974 bound_to 7965
  155.8963  140.3436  155.5993 H   0  0  0  0  0  0  0  0  0  0  0  0  # atno 8008 bound_to 7997
  155.7553  140.0825  157.2201 H   0  0  0  0  0  0  0  0  0  0  0  0  # atno 8009 bound_to 7997
  154.4038  140.1546  156.2757 H   0  0  0  0  0  0  0  0  0  0  0  0  # atno 8010 bound_to 7997
  140.3415  144.2464  150.6155 H   0  0  0  0  0  0  0  0  0  0  0  0  # atno 10167 bound_to 10162
  157.2519  130.7119  149.6409 H   0  0  0  0  0  0  0  0  0  0  0  0  # atno 10718 bound_to 10713
  154.8522  135.4343  154.1834 H   0  0  0  0  0  0  0  0  0  0  0  0  # atno 10763 bound_to 10752
  153.2919  135.6962  153.7291 H   0  0  0  0  0  0  0  0  0  0  0  0  # atno 10764 bound_to 10752
  153.6455  135.3460  155.3059 H   0  0  0  0  0  0  0  0  0  0  0  0  # atno 10765 bound_to 10752
  140.2554  134.7944  157.3541 H   0  0  0  0  0  0  0  0  0  0  0  0  # atno 11005 bound_to 11000
  146.2153  139.5539  142.9654 LP  0  0  0  0  0  0  0  0  0  0  0  0  # atno 17320 bound_to 7965
  145.5810  141.0382  143.2122 LP  0  0  0  0  0  0  0  0  0  0  0  0  # atno 17321 bound_to 7965
  140.5305  143.2244  151.8247 LP  0  0  0  0  0  0  0  0  0  0  0  0  # atno 17342 bound_to 10162
  139.4840  144.4727  151.9406 LP  0  0  0  0  0  0  0  0  0  0  0  0  # atno 17343 bound_to 10162
  155.9666  130.4425  150.5383 LP  0  0  0  0  0  0  0  0  0  0  0  0  # atno 17370 bound_to 10713
  157.3269  131.0692  151.1890 LP  0  0  0  0  0  0  0  0  0  0  0  0  # atno 17371 bound_to 10713
  140.1517  134.4841  155.7957 LP  0  0  0  0  0  0  0  0  0  0  0  0  # atno 17394 bound_to 11000
  141.2196  133.6865  156.7389 LP  0  0  0  0  0  0  0  0  0  0  0  0  # atno 17395 bound_to 11000

$$$$
