AV-unprocessed.smi:2031|AV-procd|sdf|8229|dock3
  -GOLD-   2272010503D 1   1.00000     0.00000
 Structure written by MMmdl.
 41 42  0  0  0  0  0  0  0  0  3 V2000
  151.7154  141.2132  158.0633 C   0  0  0  0  0  0  0  0  0  0  0  0
  151.2646  140.5955  156.7836 C   0  0  0  0  0  0  0  0  0  0  0  0
  150.0278  140.3246  156.2705 C   0  0  0  0  0  0  0  0  0  0  0  0
  150.3208  139.7363  155.0100 C   0  0  0  0  0  0  0  0  0  0  0  0
  149.4195  139.2819  154.1257 N   0  5  0  0  0  0  0  0  0  0  0  0
  148.2080  138.8537  154.5468 C   0  0  0  0  0  0  0  0  0  0  0  0
  147.5187  139.3618  155.4343 O   0  0  0  0  0  0  0  0  0  0  0  0
  147.7688  137.7624  153.9034 N   0  0  0  0  0  0  0  0  0  0  0  0
  146.5070  137.0762  154.1534 C   0  0  0  0  0  0  0  0  0  0  0  0
  145.7140  136.8631  152.8486 C   0  0  0  0  0  0  0  0  0  0  0  0
  146.2140  135.7121  152.0501 N   0  3  0  0  0  0  0  0  0  0  0  0
  145.6703  135.7064  150.6630 C   0  0  0  0  0  0  0  0  0  0  0  0
  144.2994  135.0191  150.5148 C   0  0  0  0  0  0  0  0  0  0  0  0
  144.4211  133.5229  150.1858 C   0  0  0  0  0  0  0  0  0  0  0  0
  144.9454  132.6665  151.3458 C   0  0  0  0  0  0  0  0  0  0  0  0
  146.2829  133.1485  151.9329 C   0  0  0  0  0  0  0  0  0  0  0  0
  146.1379  134.4202  152.7918 C   0  0  0  0  0  0  0  0  0  0  0  0
  151.6208  139.6440  154.7846 N   0  0  0  0  0  0  0  0  0  0  0  0
  152.2331  140.2000  155.9142 O   0  0  0  0  0  0  0  0  0  0  0  0
  151.3153  140.6658  158.9168 H   0  0  0  0  0  0  0  0  0  0  0  0
  151.3743  142.2460  158.1336 H   0  0  0  0  0  0  0  0  0  0  0  0
  152.8030  141.2107  158.1410 H   0  0  0  0  0  0  0  0  0  0  0  0
  149.0668  140.5175  156.7231 H   0  0  0  0  0  0  0  0  0  0  0  0
  148.3629  137.3815  153.1814 H   0  0  0  0  0  0  0  0  0  0  0  0
  146.6923  136.1239  154.6529 H   0  0  0  0  0  0  0  0  0  0  0  0
  145.9441  137.6928  154.8536 H   0  0  0  0  0  0  0  0  0  0  0  0
  144.6532  136.7286  153.0650 H   0  0  0  0  0  0  0  0  0  0  0  0
  145.7921  137.7718  152.2508 H   0  0  0  0  0  0  0  0  0  0  0  0
  145.5994  136.7317  150.2980 H   0  0  0  0  0  0  0  0  0  0  0  0
  146.3976  135.2346  150.0018 H   0  0  0  0  0  0  0  0  0  0  0  0
  143.6715  135.1826  151.3917 H   0  0  0  0  0  0  0  0  0  0  0  0
  143.7745  135.4933  149.6848 H   0  0  0  0  0  0  0  0  0  0  0  0
  143.4418  133.1441  149.8906 H   0  0  0  0  0  0  0  0  0  0  0  0
  145.0638  133.3910  149.3146 H   0  0  0  0  0  0  0  0  0  0  0  0
  144.1939  132.6175  152.1348 H   0  0  0  0  0  0  0  0  0  0  0  0
  145.0648  131.6427  150.9893 H   0  0  0  0  0  0  0  0  0  0  0  0
  146.6517  132.3543  152.5830 H   0  0  0  0  0  0  0  0  0  0  0  0
  147.0433  133.2666  151.1601 H   0  0  0  0  0  0  0  0  0  0  0  0
  146.9429  134.4229  153.5270 H   0  0  0  0  0  0  0  0  0  0  0  0
  145.2099  134.3703  153.3635 H   0  0  0  0  0  0  0  0  0  0  0  0
  147.1994  135.8944  151.9240 H   0  0  0  0  0  0  0  0  0  0  0  0
  1  2  1  0  0  0  0
  1 20  1  0  0  0  0
  1 21  1  0  0  0  0
  1 22  1  0  0  0  0
  2 19  1  0  0  0  0
  2  3  2  0  0  0  0
  3  4  1  0  0  0  0
  3 23  1  0  0  0  0
  4  5  1  0  0  0  0
  4 18  2  0  0  0  0
  5  6  1  0  0  0  0
  6  7  2  0  0  0  0
  6  8  1  0  0  0  0
  8  9  1  0  0  0  0
  8 24  1  0  0  0  0
  9 10  1  0  0  0  0
  9 25  1  0  0  0  0
  9 26  1  0  0  0  0
 10 11  1  0  0  0  0
 10 27  1  0  0  0  0
 10 28  1  0  0  0  0
 11 17  1  0  0  0  0
 11 12  1  0  0  0  0
 11 41  1  0  0  0  0
 12 13  1  0  0  0  0
 12 29  1  0  0  0  0
 12 30  1  0  0  0  0
 13 14  1  0  0  0  0
 13 31  1  0  0  0  0
 13 32  1  0  0  0  0
 14 15  1  0  0  0  0
 14 33  1  0  0  0  0
 14 34  1  0  0  0  0
 15 16  1  0  0  0  0
 15 35  1  0  0  0  0
 15 36  1  0  0  0  0
 16 17  1  0  0  0  0
 16 37  1  0  0  0  0
 16 38  1  0  0  0  0
 17 39  1  0  0  0  0
 17 40  1  0  0  0  0
 18 19  1  0  0  0  0
M  CHG  1   5  -1
M  CHG  1  11   1
M  END
> <s_m_source_file>
AV-unprocessed.smi

> <i_m_source_file_index>
2031

> <i_lp_mmshare_version>
43012

> <i_f3d_flags>
0

> <s_epik_input>
W0NIM11jMVtjSF1jKG5vMSlbTkhdQyg9TylbTkhdW0NIMl1bQ0gyXU4yW0NIMl1bQ0gyXVtDSDJdW0NIMl1bQ0gyXVtDSDJdMg==

> <s_epik_cmdline>
J2VwaWtfcHl0aG9uJywgJy1waCcsICc3LjAnLCAnLXRuJywgJzgnLCAnLW1hJywgJzIwMCcsICctbWV0YWxfYmluZGluZycsICctaW1hZScsICc8aW5maWxlLm1hZT4nLCAnLW9tYWUnLCAnPG91dGZpbGUubWFlPic=

> <r_epik_Ionization_Penalty>
6.22371

> <r_epik_Ionization_Penalty_Charging>
6.22362

> <r_epik_Ionization_Penalty_Neutral>
9.36972e-05

> <r_epik_State_Penalty>
6.22363

> <r_epik_Charging_Adjusted_Penalty>
12.4472

> <i_epik_Tot_Q>
0

> <i_epik_Tot_abs_Q>
2

> <r_epik_Metal_State_Penalty>
2.16675

> <b_epik_Metal_Only>
1

> <s_lp_Force_Field>
OPLS_2005

> <r_lp_Energy>
10.3007

> <b_lp_Chiralities_Consistent>
1

> <s_lp_Variant>
AV-unprocessed.smi:2031-2

> <Gold.Version>
5.8.1

> <Gold.Id.Protein>
6NUR|6NUR_protein|mol2

> <Gold.PLP.Fitness>
42.4773

> <Gold.PLP.PLP>
-28.6344

> <Gold.PLP.part.hbond>
-4.0000

> <Gold.PLP.part.metal>
0.0000

> <Gold.PLP.part.buried>
-4.5158

> <Gold.PLP.part.nonpolar>
-20.0931

> <Gold.PLP.part.repulsive>
0.2894

> <Gold.PLP.ligand.clash>
0.0000

> <Gold.PLP.ligand.torsion>
0.6319

> <Gold.PLP.Chemscore.Hbond>
5.0000

> <Gold.PLP.Chemscore.CHOScore>
0.0000

> <Gold.PLP.Chemscore.Metal>
0.0000

> <Gold.Chemscore.Hbonds>
donor molecule, donor type, donor heavy atom, donor atom, acceptor molecule, acceptor atom, score
      L1  H     8    24       P1  7948  1.00
      L1  H    11    41       P1  7948  2.00
      P1  H  7989  7998       L1    18  0.80
      P1  H  7997  8010       L1    19  0.71

> <Gold.PLP.Chemscore.Internal.Correction>
0.1067

> <Gold.Rescore>
     Score         DG    S(hbond)    S(metal)    S(lipo)     H(rot)  DE(clash)    DE(int)     intcor
     16.79     -18.89       2.97        0.00      63.43       1.54       0.01       2.08       ----

> <Gold.Chemscore.Fitness>
16.7946

> <Gold.Chemscore.DG>
-18.8857

> <Gold.Chemscore.ZeroCoef>
-5.4800

> <Gold.Chemscore.Hbond>
2.9729

> <Gold.Chemscore.Metal>
0.0000

> <Gold.Chemscore.Lipo>
63.4268

> <Gold.Chemscore.Internal_Hbond>
0.0000

> <Gold.Chemscore.DEClash>
0.0121

> <Gold.Chemscore.DEInternal>
2.0791

> <Gold.Chemscore.Rot>
1.5409

> <Gold.Chemscore.Internal.Correction>
   9.000000E+99

> <Gold.Chemscore.Hbonds>
donor molecule, donor type, donor heavy atom, donor atom, acceptor molecule, acceptor atom, score
      L1  H     8    24       P1  7948  1.00
      L1  H    11    41       P1  7948  1.00
      P1  H  7989  7998       L1    18  0.08
      P1  H  7997  8010       L1    19  0.68

> <Gold.Chemscore.Hbond.Weighted>
-9.9294

> <Gold.Chemscore.Metal.Weighted>
-0.0000

> <Gold.Chemscore.Lipo.Weighted>
-7.4209

> <Gold.Chemscore.Internal_Hbond.Weighted>
0.0000

> <Gold.Chemscore.DEClash.Weighted>
0.0121

> <Gold.Chemscore.DEInternal.Weighted>
2.0791

> <Gold.Chemscore.Rot.Weighted>
3.9446

> <Gold.Chemscore.Internal.Correction.Weighted>
   9.000000E+99

> <Gold.Protein.RotatedTorsions>
[ 6907 6896 6895 6894 ] final  -83.18 input  -60.11 | X-H torsion
[ 7974 7965 7964 7962 ] final -166.43 input  175.53 | X-H torsion
[ 8008 7997 7996 7995 ] final   93.21 input   59.86 | X-H torsion
[ 10167 10162 10161 10158 ] final -156.20 input  -65.29 | X-H torsion
[ 10718 10713 10712 10709 ] final  -31.32 input   66.30 | X-H torsion
[ 10763 10752 10751 10750 ] final  111.79 input  -60.55 | X-H torsion
[ 11005 11000 10999 10996 ] final  118.31 input  -57.11 | X-H torsion

> <Gold.Protein.ActiveResidues>
 VAL166  LYS551  ARG553  GLY616  TRP617  ASP618  TYR619  PRO620  LYS621  CYS622 
 ASP623  PHE694  ASN695  SER759  ASP760  ASP761  ALA762  ILE779  LEU786  VAL792 
 PHE793  MET794  SER795  GLU796  ALA797  LYS798  CYS799  TRP800  GLU811  SER814 

> <Gold.Protein.RotatedAtoms>
  150.6888  134.3551  159.4925 H   0  0  0  0  0  0  0  0  0  0  0  0  # atno 6907 bound_to 6896
  152.1387  134.9076  160.0564 H   0  0  0  0  0  0  0  0  0  0  0  0  # atno 6908 bound_to 6896
  152.0218  133.3867  159.4298 H   0  0  0  0  0  0  0  0  0  0  0  0  # atno 6909 bound_to 6896
  144.7246  140.2668  143.6256 H   0  0  0  0  0  0  0  0  0  0  0  0  # atno 7974 bound_to 7965
  156.0441  140.3316  155.7277 H   0  0  0  0  0  0  0  0  0  0  0  0  # atno 8008 bound_to 7997
  155.5699  140.0627  157.2826 H   0  0  0  0  0  0  0  0  0  0  0  0  # atno 8009 bound_to 7997
  154.4406  140.1862  156.0857 H   0  0  0  0  0  0  0  0  0  0  0  0  # atno 8010 bound_to 7997
  139.6869  143.9485  152.2366 H   0  0  0  0  0  0  0  0  0  0  0  0  # atno 10167 bound_to 10162
  156.3887  130.4369  149.7411 H   0  0  0  0  0  0  0  0  0  0  0  0  # atno 10718 bound_to 10713
  153.4684  135.3706  155.2377 H   0  0  0  0  0  0  0  0  0  0  0  0  # atno 10763 bound_to 10752
  154.8757  135.3925  154.3842 H   0  0  0  0  0  0  0  0  0  0  0  0  # atno 10764 bound_to 10752
  153.4426  135.7084  153.6224 H   0  0  0  0  0  0  0  0  0  0  0  0  # atno 10765 bound_to 10752
  139.9105  134.9619  156.7483 H   0  0  0  0  0  0  0  0  0  0  0  0  # atno 11005 bound_to 11000
  145.8082  139.1992  143.2008 LP  0  0  0  0  0  0  0  0  0  0  0  0  # atno 17320 bound_to 7965
  146.0619  140.7962  142.9730 LP  0  0  0  0  0  0  0  0  0  0  0  0  # atno 17321 bound_to 7965
  139.9291  144.6752  150.8382 LP  0  0  0  0  0  0  0  0  0  0  0  0  # atno 17342 bound_to 10162
  140.7670  143.3321  151.2387 LP  0  0  0  0  0  0  0  0  0  0  0  0  # atno 17343 bound_to 10162
  156.4473  130.7890  151.2911 LP  0  0  0  0  0  0  0  0  0  0  0  0  # atno 17370 bound_to 10713
  157.7497  131.0106  150.3313 LP  0  0  0  0  0  0  0  0  0  0  0  0  # atno 17371 bound_to 10713
  140.6794  133.9488  155.7901 LP  0  0  0  0  0  0  0  0  0  0  0  0  # atno 17394 bound_to 11000
  141.0521  134.0469  157.3770 LP  0  0  0  0  0  0  0  0  0  0  0  0  # atno 17395 bound_to 11000

$$$$
