#       Name:                AV-unprocessed.smi:781
#       Creating user name   scv26
#       Creation time:       Fri Mar 27 01:13:41 2020


#       File generated by GOLD software.
#

@<TRIPOS>MOLECULE
AV-unprocessed.smi:781
    45    47     1
SMALL
NO_CHARGES


@<TRIPOS>ATOM
      1 ****        -6.4193   2.8025  -0.0792 C.3            1 S1                 0.0000
      2 ****        -4.9634   2.4843  -0.0946 C.2            1 S1                 0.0000
      3 ****        -4.2685   1.3133  -0.2103 C.2            1 S1                 0.0000
      4 ****        -2.9145   1.7381  -0.1495 C.2            1 S1                 0.0000
      5 ****        -1.8539   0.8012  -0.2366 N.am           1 S1                 0.0000
      6 ****        -0.5344   1.0508  -0.1876 C.2            1 S1                 0.0000
      7 ****        -0.0265   2.1635  -0.0446 O.2            1 S1                 0.0000
      8 ****         0.1782  -0.0775  -0.3106 N.am           1 S1                 0.0000
      9 ****         1.6374  -0.1475  -0.3002 C.3            1 S1                 0.0000
     10 ****         2.2540  -0.0035   1.1145 C.3            1 S1                 0.0000
     11 ****         1.5989  -0.9761   2.1186 C.3            1 S1                 0.0000
     12 ****         2.1114  -2.3476   1.6410 C.3            1 S1                 0.0000
     13 ****         3.0163  -1.9777   0.4492 C.3            1 S1                 0.0000
     14 ****         3.6158  -0.6581   0.9214 C.3            1 S1                 0.0000
     15 ****         2.1388  -1.5460  -0.7486 C.3            1 S1                 0.0000
     16 ****         2.9152  -1.5203  -2.0794 C.3            1 S1                 0.0000
     17 ****         2.0364  -1.2439  -3.1494 O.3            1 S1                 0.0000
     18 ****        -2.7936   3.0496  -0.0106 N.2            1 S1                 0.0000
     19 ****        -4.1063   3.5345   0.0246 O.3            1 S1                 0.0000
     20 ****        -7.0082   1.9203   0.1724 H              1 S1                 0.0000
     21 ****        -6.7458   3.1603  -1.0555 H              1 S1                 0.0000
     22 ****        -6.6400   3.5765   0.6564 H              1 S1                 0.0000
     23 ****        -4.6675   0.3158  -0.3204 H              1 S1                 0.0000
     24 ****        -2.1293  -0.1626  -0.3519 H              1 S1                 0.0000
     25 ****        -0.3182  -0.9487  -0.4260 H              1 S1                 0.0000
     26 ****         2.0429   0.6271  -0.9543 H              1 S1                 0.0000
     27 ****         2.2912   1.0268   1.4698 H              1 S1                 0.0000
     28 ****         1.9514  -0.7727   3.1307 H              1 S1                 0.0000
     29 ****         0.5107  -0.9165   2.1383 H              1 S1                 0.0000
     30 ****         2.6862  -2.8360   2.4289 H              1 S1                 0.0000
     31 ****         1.3006  -3.0189   1.3561 H              1 S1                 0.0000
     32 ****         3.7434  -2.7534   0.2064 H              1 S1                 0.0000
     33 ****         4.2326  -0.1614   0.1709 H              1 S1                 0.0000
     34 ****         4.1885  -0.7491   1.8462 H              1 S1                 0.0000
     35 ****         1.3118  -2.2510  -0.8542 H              1 S1                 0.0000
     36 ****         3.7107  -0.7749  -2.0655 H              1 S1                 0.0000
     37 ****         3.3839  -2.4874  -2.2629 H              1 S1                 0.0000
     38 ****         2.5345  -1.2332  -3.9525 H              1 S1                 0.0000
     39 ****        -0.6092   2.9712   0.0458 LP             1 S1                 0.0000
     40 ****         0.9685   2.2594  -0.0190 LP             1 S1                 0.0000
     41 ****         1.6039  -0.3532  -3.0090 LP             1 S1                 0.0000
     42 ****         1.3322  -1.9522  -3.1989 LP             1 S1                 0.0000
     43 ****        -1.9477   3.5789   0.0549 LP             1 S1                 0.0000
     44 ****        -4.2683   4.0040   0.8925 LP             1 S1                 0.0000
     45 ****        -4.2495   4.1730  -0.7316 LP             1 S1                 0.0000
@<TRIPOS>BOND
    1    1    2 1     
    2    1   20 1     
    3    1   21 1     
    4    1   22 1     
    5    2   19 1     
    6    2    3 2     
    7    3    4 1     
    8    3   23 1     
    9    4    5 1     
   10    4   18 2     
   11    5    6 am    
   12    5   24 1     
   13    6    7 2     
   14    6    8 am    
   15    8    9 1     
   16    8   25 1     
   17    9   15 1     
   18    9   10 1     
   19    9   26 1     
   20   10   14 1     
   21   10   11 1     
   22   10   27 1     
   23   11   12 1     
   24   11   28 1     
   25   11   29 1     
   26   12   13 1     
   27   12   30 1     
   28   12   31 1     
   29   13   14 1     
   30   13   15 1     
   31   13   32 1     
   32   14   33 1     
   33   14   34 1     
   34   15   16 1     
   35   15   35 1     
   36   16   17 1     
   37   16   36 1     
   38   16   37 1     
   39   17   38 1     
   40   18   19 1     
   41    7   39 1     
   42    7   40 1     
   43   17   41 1     
   44   17   42 1     
   45   18   43 1     
   46   19   44 1     
   47   19   45 1     
@<TRIPOS>SUBSTRUCTURE
      1 S1             1
@<TRIPOS>SET
LONE_PAIRS      STATIC     ATOMS    <user>   **** ""
7 39 40 41 42 43 44 45
DONOR_HYDROGENS      STATIC     ATOMS    <user>   **** ""
3 24 25 38
ATOM$BLUE        STATIC     ATOMS    COLORGROUP SYSTEM
7 39 40 41 42 43 44 45
ATOM$RED        STATIC     ATOMS    COLORGROUP SYSTEM
3 24 25 38
