AV-unprocessed.smi:21|AV-procd|sdf|133|dock8
  -GOLD-   2262015323D 1   1.00000     0.00000
 Structure written by MMmdl.
 62 65  0  0  0  0  0  0  0  0  2 V2000
  146.5471  130.7713  152.2275 C   0  0  0  0  0  0  0  0  0  0  0  0
  147.8284  131.1772  152.6804 O   0  0  0  0  0  0  0  0  0  0  0  0
  147.7828  132.2396  153.6208 C   0  0  1  0  0  0  0  0  0  0  0  0
  149.1853  132.5982  154.0923 C   0  0  0  0  0  0  0  0  0  0  0  0
  149.0115  134.0283  154.6085 C   0  0  1  0  0  0  0  0  0  0  0  0
  150.3298  134.8332  154.6524 C   0  0  0  0  0  0  0  0  0  0  0  0
  150.9409  134.8891  155.9800 N   0  0  0  0  0  0  0  0  0  0  0  0
  151.8674  133.8209  156.3249 C   0  0  0  0  0  0  0  0  0  0  0  0
  151.3495  136.0931  156.4447 C   0  0  0  0  0  0  0  0  0  0  0  0
  152.6808  136.2535  156.6479 N   0  0  0  0  0  0  0  0  0  0  0  0
  153.1507  137.4020  157.1433 C   0  0  0  0  0  0  0  0  0  0  0  0
  152.4738  138.4956  157.4999 N   0  0  0  0  0  0  0  0  0  0  0  0
  151.1366  138.3447  157.2802 C   0  0  0  0  0  0  0  0  0  0  0  0
  150.4932  137.1899  156.7523 C   0  0  0  0  0  0  0  0  0  0  0  0
  149.1225  137.4108  156.6701 N   0  0  0  0  0  0  0  0  0  0  0  0
  148.9632  138.6191  157.1361 C   0  0  0  0  0  0  0  0  0  0  0  0
  150.1190  139.2446  157.5431 N   0  0  0  0  0  0  0  0  0  0  0  0
  150.2246  140.5699  158.1260 C   0  0  0  0  0  0  0  0  0  0  0  0
  150.9932  141.5836  157.2361 C   0  0  1  0  0  0  0  0  0  0  0  0
  150.3880  141.7053  155.8130 C   0  0  0  0  0  0  0  0  0  0  0  0
  149.0678  142.2097  155.8384 O   0  0  0  0  0  0  0  0  0  0  0  0
  151.0597  142.9691  157.9305 C   0  0  1  0  0  0  0  0  0  0  0  0
  151.9012  143.0131  159.1956 C   0  0  0  0  0  0  0  0  0  0  0  0
  152.1630  144.5047  159.3554 C   0  0  0  0  0  0  0  0  0  0  0  0
  152.2992  144.9997  158.0304 O   0  0  0  0  0  0  0  0  0  0  0  0
  151.7346  144.0747  157.1049 C   0  0  0  0  0  0  0  0  0  0  0  0
  148.0217  134.6479  153.6973 N   0  3  2  0  0  0  0  0  0  0  0  0
  147.1549  135.6569  154.3452 C   0  0  0  0  0  0  0  0  0  0  0  0
  147.2745  133.5590  153.0235 C   0  0  0  0  0  0  0  0  0  0  0  0
  147.1828  131.9643  154.4909 H   0  0  0  0  0  0  0  0  0  0  0  0
  148.5550  133.9716  155.5979 H   0  0  0  0  0  0  0  0  0  0  0  0
  146.6548  129.9489  151.5204 H   0  0  0  0  0  0  0  0  0  0  0  0
  146.0249  131.5828  151.7193 H   0  0  0  0  0  0  0  0  0  0  0  0
  145.9289  130.4215  153.0554 H   0  0  0  0  0  0  0  0  0  0  0  0
  149.5632  131.9147  154.8533 H   0  0  0  0  0  0  0  0  0  0  0  0
  149.8787  132.5813  153.2497 H   0  0  0  0  0  0  0  0  0  0  0  0
  151.0457  134.3825  153.9640 H   0  0  0  0  0  0  0  0  0  0  0  0
  150.1714  135.8480  154.2884 H   0  0  0  0  0  0  0  0  0  0  0  0
  152.0487  133.7891  157.4001 H   0  0  0  0  0  0  0  0  0  0  0  0
  152.8230  133.9628  155.8185 H   0  0  0  0  0  0  0  0  0  0  0  0
  151.4642  132.8525  156.0272 H   0  0  0  0  0  0  0  0  0  0  0  0
  154.2211  137.4485  157.2808 H   0  0  0  0  0  0  0  0  0  0  0  0
  147.9914  139.0854  157.2118 H   0  0  0  0  0  0  0  0  0  0  0  0
  149.2203  140.9407  158.3343 H   0  0  0  0  0  0  0  0  0  0  0  0
  150.7153  140.4556  159.0923 H   0  0  0  0  0  0  0  0  0  0  0  0
  152.0199  141.2285  157.1320 H   0  0  0  0  0  0  0  0  0  0  0  0
  151.0099  142.3393  155.1803 H   0  0  0  0  0  0  0  0  0  0  0  0
  150.3322  140.7346  155.3223 H   0  0  0  0  0  0  0  0  0  0  0  0
  149.0870  143.1017  155.5271 H   0  0  0  0  0  0  0  0  0  0  0  0
  150.0491  143.2948  158.1834 H   0  0  0  0  0  0  0  0  0  0  0  0
  151.3978  142.5883  160.0644 H   0  0  0  0  0  0  0  0  0  0  0  0
  152.8429  142.4815  159.0489 H   0  0  0  0  0  0  0  0  0  0  0  0
  151.3089  144.9927  159.8266 H   0  0  0  0  0  0  0  0  0  0  0  0
  153.0489  144.7146  159.9553 H   0  0  0  0  0  0  0  0  0  0  0  0
  152.5435  143.6694  156.4955 H   0  0  0  0  0  0  0  0  0  0  0  0
  151.0338  144.5793  156.4392 H   0  0  0  0  0  0  0  0  0  0  0  0
  146.5428  135.2066  155.1280 H   0  0  0  0  0  0  0  0  0  0  0  0
  146.4907  136.1150  153.6120 H   0  0  0  0  0  0  0  0  0  0  0  0
  147.7552  136.4486  154.7939 H   0  0  0  0  0  0  0  0  0  0  0  0
  147.5066  133.6094  151.9591 H   0  0  0  0  0  0  0  0  0  0  0  0
  146.1927  133.6559  153.1279 H   0  0  0  0  0  0  0  0  0  0  0  0
  148.5452  135.1200  152.9737 H   0  0  0  0  0  0  0  0  0  0  0  0
  1  2  1  0  0  0  0
  1 32  1  0  0  0  0
  1 33  1  0  0  0  0
  1 34  1  0  0  0  0
  2  3  1  0  0  0  0
  3 30  1  0  0  0  0
  3 29  1  0  0  0  0
  3  4  1  0  0  0  0
  4  5  1  0  0  0  0
  4 35  1  0  0  0  0
  4 36  1  0  0  0  0
  5 31  1  0  0  0  0
  5  6  1  0  0  0  0
  5 27  1  0  0  0  0
  6  7  1  0  0  0  0
  6 37  1  0  0  0  0
  6 38  1  0  0  0  0
  7  8  1  0  0  0  0
  7  9  1  0  0  0  0
  8 39  1  0  0  0  0
  8 40  1  0  0  0  0
  8 41  1  0  0  0  0
  9 14  1  0  0  0  0
  9 10  2  0  0  0  0
 10 11  1  0  0  0  0
 11 12  2  0  0  0  0
 11 42  1  0  0  0  0
 12 13  1  0  0  0  0
 13 17  1  0  0  0  0
 13 14  2  0  0  0  0
 14 15  1  0  0  0  0
 15 16  2  0  0  0  0
 16 17  1  0  0  0  0
 16 43  1  0  0  0  0
 17 18  1  0  0  0  0
 18 19  1  0  0  0  0
 18 44  1  0  0  0  0
 18 45  1  0  0  0  0
 19 20  1  0  0  0  0
 19 22  1  0  0  0  0
 19 46  1  0  0  0  0
 20 21  1  0  0  0  0
 20 47  1  0  0  0  0
 20 48  1  0  0  0  0
 21 49  1  0  0  0  0
 22 26  1  0  0  0  0
 22 23  1  0  0  0  0
 22 50  1  0  0  0  0
 23 24  1  0  0  0  0
 23 51  1  0  0  0  0
 23 52  1  0  0  0  0
 24 25  1  0  0  0  0
 24 53  1  0  0  0  0
 24 54  1  0  0  0  0
 25 26  1  0  0  0  0
 26 55  1  0  0  0  0
 26 56  1  0  0  0  0
 27 28  1  0  0  0  0
 27 29  1  0  0  0  0
 27 62  1  0  0  0  0
 28 57  1  0  0  0  0
 28 58  1  0  0  0  0
 28 59  1  0  0  0  0
 29 60  1  0  0  0  0
 29 61  1  0  0  0  0
M  CHG  1  27   1
M  END
> <s_m_source_file>
AV-unprocessed.smi

> <i_m_source_file_index>
21

> <i_lp_mmshare_version>
43012

> <i_f3d_flags>
0

> <s_epik_input>
W0NIM11PW0NASF0xW0NIMl1bQ0BIXShOKFtDSDNdKVtDSDJdMSlbQ0gyXU4oW0NIM10pYyhuW2NIXW4yKWMoYzIzKW5bY0hdbjNbQ0gyXVtDQEhdKFtDSDJdW09IXSlbQ0BASF00W0NIMl1bQ0gyXU9bQ0gyXTQ=

> <s_epik_cmdline>
J2VwaWtfcHl0aG9uJywgJy1waCcsICc3LjAnLCAnLXRuJywgJzgnLCAnLW1hJywgJzIwMCcsICctbWV0YWxfYmluZGluZycsICctaW1hZScsICc8aW5maWxlLm1hZT4nLCAnLW9tYWUnLCAnPG91dGZpbGUubWFlPic=

> <r_lp_tautomer_probability>
1

> <r_epik_Ionization_Penalty>
0.0157465

> <r_epik_Ionization_Penalty_Charging>
0.015354

> <r_epik_Ionization_Penalty_Neutral>
0.000392529

> <r_epik_State_Penalty>
0.0120612

> <r_epik_Charging_Adjusted_Penalty>
0.0274152

> <i_epik_Tot_Q>
1

> <i_epik_Tot_abs_Q>
1

> <r_epik_Metal_State_Penalty>
0.0121253

> <b_epik_Metal_Only>
0

> <s_lp_Force_Field>
OPLS_2005

> <r_lp_Energy>
58.1484

> <b_lp_Chiralities_Consistent>
1

> <s_lp_Variant>
AV-unprocessed.smi:21-13

> <Gold.Version>
5.8.1

> <Gold.Id.Protein>
6NUR|6NUR_protein|mol2

> <Gold.PLP.Fitness>
49.7809

> <Gold.PLP.PLP>
-40.2056

> <Gold.PLP.part.hbond>
-2.8685

> <Gold.PLP.part.metal>
0.0000

> <Gold.PLP.part.buried>
-7.4784

> <Gold.PLP.part.nonpolar>
-30.6210

> <Gold.PLP.part.repulsive>
1.4378

> <Gold.PLP.ligand.clash>
0.0000

> <Gold.PLP.ligand.torsion>
1.5604

> <Gold.PLP.Chemscore.Hbond>
4.0000

> <Gold.PLP.Chemscore.CHOScore>
0.0000

> <Gold.PLP.Chemscore.Metal>
0.0000

> <Gold.Chemscore.Hbonds>
donor molecule, donor type, donor heavy atom, donor atom, acceptor molecule, acceptor atom, score
      L1  H    21    49       P1  8028  1.00
      L1  H    27    62       P1  7948  2.00
      P1  H 10752 10764       L1    10  1.00

> <Gold.PLP.Chemscore.Internal.Correction>
0.6962

> <Gold.Rescore>
     Score         DG    S(hbond)    S(metal)    S(lipo)     H(rot)  DE(clash)    DE(int)     intcor
     12.79     -17.06       2.30        0.00     106.42       3.35       1.59       2.69       ----

> <Gold.Chemscore.Fitness>
12.7887

> <Gold.Chemscore.DG>
-17.0638

> <Gold.Chemscore.ZeroCoef>
-5.4800

> <Gold.Chemscore.Hbond>
2.3044

> <Gold.Chemscore.Metal>
0.0000

> <Gold.Chemscore.Lipo>
106.4169

> <Gold.Chemscore.Internal_Hbond>
0.0000

> <Gold.Chemscore.DEClash>
1.5889

> <Gold.Chemscore.DEInternal>
2.6862

> <Gold.Chemscore.Rot>
3.3452

> <Gold.Chemscore.Internal.Correction>
   9.000000E+99

> <Gold.Chemscore.Hbonds>
donor molecule, donor type, donor heavy atom, donor atom, acceptor molecule, acceptor atom, score
      L1  H    21    49       P1  8028  0.97
      L1  H    27    62       P1  7948  0.69
      P1  H 10752 10764       L1    10  0.59

> <Gold.Chemscore.Hbond.Weighted>
-7.6966

> <Gold.Chemscore.Metal.Weighted>
-0.0000

> <Gold.Chemscore.Lipo.Weighted>
-12.4508

> <Gold.Chemscore.Internal_Hbond.Weighted>
0.0000

> <Gold.Chemscore.DEClash.Weighted>
1.5889

> <Gold.Chemscore.DEInternal.Weighted>
2.6862

> <Gold.Chemscore.Rot.Weighted>
8.5636

> <Gold.Chemscore.Internal.Correction.Weighted>
   9.000000E+99

> <Gold.Protein.RotatedTorsions>
[ 6907 6896 6895 6894 ] final   91.69 input  -60.11 | X-H torsion
[ 7974 7965 7964 7962 ] final -151.45 input  175.53 | X-H torsion
[ 8008 7997 7996 7995 ] final  -91.97 input   59.86 | X-H torsion
[ 10167 10162 10161 10158 ] final   86.68 input  -65.29 | X-H torsion
[ 10718 10713 10712 10709 ] final  -74.48 input   66.30 | X-H torsion
[ 10763 10752 10751 10750 ] final   -2.92 input  -60.55 | X-H torsion
[ 11005 11000 10999 10996 ] final   72.64 input  -57.11 | X-H torsion

> <Gold.Protein.ActiveResidues>
 VAL166  LYS551  ARG553  GLY616  TRP617  ASP618  TYR619  PRO620  LYS621  CYS622 
 ASP623  PHE694  ASN695  SER759  ASP760  ASP761  ALA762  ILE779  LEU786  VAL792 
 PHE793  MET794  SER795  GLU796  ALA797  LYS798  CYS799  TRP800  GLU811  SER814 

> <Gold.Protein.RotatedAtoms>
  152.5451  134.1618  159.8560 H   0  0  0  0  0  0  0  0  0  0  0  0  # atno 6907 bound_to 6896
  151.1636  133.4822  159.2601 H   0  0  0  0  0  0  0  0  0  0  0  0  # atno 6908 bound_to 6896
  151.1348  135.0160  159.8654 H   0  0  0  0  0  0  0  0  0  0  0  0  # atno 6909 bound_to 6896
  144.7849  140.4796  143.5813 H   0  0  0  0  0  0  0  0  0  0  0  0  # atno 7974 bound_to 7965
  154.7174  140.0514  157.0607 H   0  0  0  0  0  0  0  0  0  0  0  0  # atno 8008 bound_to 7997
  155.0473  140.3175  155.4685 H   0  0  0  0  0  0  0  0  0  0  0  0  # atno 8009 bound_to 7997
  156.2807  140.2122  156.5598 H   0  0  0  0  0  0  0  0  0  0  0  0  # atno 8010 bound_to 7997
  139.8851  144.6418  150.8800 H   0  0  0  0  0  0  0  0  0  0  0  0  # atno 10167 bound_to 10162
  156.0241  130.4418  150.2898 H   0  0  0  0  0  0  0  0  0  0  0  0  # atno 10718 bound_to 10713
  153.3645  135.6992  153.6686 H   0  0  0  0  0  0  0  0  0  0  0  0  # atno 10763 bound_to 10752
  153.5361  135.3582  155.2698 H   0  0  0  0  0  0  0  0  0  0  0  0  # atno 10764 bound_to 10752
  154.8673  135.4192  154.2910 H   0  0  0  0  0  0  0  0  0  0  0  0  # atno 10765 bound_to 10752
  139.9481  134.7277  156.0930 H   0  0  0  0  0  0  0  0  0  0  0  0  # atno 11005 bound_to 11000
  145.5948  139.1498  143.3162 LP  0  0  0  0  0  0  0  0  0  0  0  0  # atno 17320 bound_to 7965
  146.2076  140.6072  142.9074 LP  0  0  0  0  0  0  0  0  0  0  0  0  # atno 17321 bound_to 7965
  140.7737  143.3554  151.1931 LP  0  0  0  0  0  0  0  0  0  0  0  0  # atno 17342 bound_to 10162
  139.7160  143.9299  152.2967 LP  0  0  0  0  0  0  0  0  0  0  0  0  # atno 17343 bound_to 10162
  157.1001  131.0193  151.3088 LP  0  0  0  0  0  0  0  0  0  0  0  0  # atno 17370 bound_to 10713
  157.4786  130.7751  149.7392 LP  0  0  0  0  0  0  0  0  0  0  0  0  # atno 17371 bound_to 10713
  141.1136  133.6635  156.3040 LP  0  0  0  0  0  0  0  0  0  0  0  0  # atno 17394 bound_to 11000
  140.5786  134.5768  157.5474 LP  0  0  0  0  0  0  0  0  0  0  0  0  # atno 17395 bound_to 11000

$$$$
