#       Name:                AV-unprocessed.smi:2556
#       Creating user name   scv26
#       Creation time:       Fri Mar 27 14:06:51 2020


#       File generated by GOLD software.
#

@<TRIPOS>MOLECULE
AV-unprocessed.smi:2556
    42    44     1
SMALL
NO_CHARGES


@<TRIPOS>ATOM
      1 ****        -2.4299   4.9275  -0.1562 C.3            1 S1                 0.0000
      2 ****        -2.0409   3.6559  -0.7692 N.am           1 S1                 0.0000
      3 ****        -2.1156   3.4497  -2.1250 C.2            1 S1                 0.0000
      4 ****        -2.5060   4.3150  -2.9082 O.2            1 S1                 0.0000
      5 ****        -1.7362   2.2249  -2.6041 N.am           1 S1                 0.0000
      6 ****        -1.2860   1.1631  -1.8918 C.2            1 S1                 0.0000
      7 ****        -0.9642   0.0910  -2.3994 O.2            1 S1                 0.0000
      8 ****        -1.2220   1.4282  -0.4502 C.2            1 S1                 0.0000
      9 ****        -1.5811   2.6213   0.0920 C.2            1 S1                 0.0000
     10 ****        -1.4227   2.6145   1.4732 N.2            1 S1                 0.0000
     11 ****        -0.9622   1.3818   1.6944 C.2            1 S1                 0.0000
     12 ****        -0.8137   0.6081   0.5993 N.pl3          1 S1                 0.0000
     13 ****        -0.3322  -0.7645   0.5757 C.3            1 S1                 0.0000
     14 ****         1.2070  -0.8557   0.5537 C.3            1 S1                 0.0000
     15 ****         1.7233  -0.1797  -0.5764 O.3            1 S1                 0.0000
     16 ****         1.6734  -2.3013   0.6165 C.ar           1 S1                 0.0000
     17 ****         2.2070  -2.8207   1.8156 C.ar           1 S1                 0.0000
     18 ****         2.6317  -4.1622   1.8807 C.ar           1 S1                 0.0000
     19 ****         2.5229  -4.9922   0.7485 C.ar           1 S1                 0.0000
     20 ****         1.9880  -4.4806  -0.4492 C.ar           1 S1                 0.0000
     21 ****         1.5642  -3.1390  -0.5153 C.ar           1 S1                 0.0000
     22 ****        -1.7987   2.0980  -3.6036 H              1 S1                 0.0000
     23 ****        -2.7145   5.6982  -0.8732 H              1 S1                 0.0000
     24 ****        -1.6040   5.3247   0.4348 H              1 S1                 0.0000
     25 ****        -3.2766   4.7728   0.5131 H              1 S1                 0.0000
     26 ****        -0.7242   1.0289   2.6873 H              1 S1                 0.0000
     27 ****        -0.7153  -1.2670   1.4649 H              1 S1                 0.0000
     28 ****        -0.7698  -1.2879  -0.2739 H              1 S1                 0.0000
     29 ****         1.5975  -0.3333   1.4281 H              1 S1                 0.0000
     30 ****         2.6665  -0.1778  -0.5187 H              1 S1                 0.0000
     31 ****         2.2925  -2.1935   2.6911 H              1 S1                 0.0000
     32 ****         3.0399  -4.5552   2.8002 H              1 S1                 0.0000
     33 ****         2.8477  -6.0209   0.7993 H              1 S1                 0.0000
     34 ****         1.9011  -5.1175  -1.3171 H              1 S1                 0.0000
     35 ****         1.1515  -2.7552  -1.4371 H              1 S1                 0.0000
     36 ****        -2.7848   5.2116  -2.5642 LP             1 S1                 0.0000
     37 ****        -2.5443   4.1215  -3.8885 LP             1 S1                 0.0000
     38 ****        -1.0279  -0.0325  -3.3897 LP             1 S1                 0.0000
     39 ****        -0.6386  -0.6578  -1.8221 LP             1 S1                 0.0000
     40 ****        -1.6064   3.3449   2.1311 LP             1 S1                 0.0000
     41 ****         1.3842   0.7609  -0.5911 LP             1 S1                 0.0000
     42 ****         1.4372  -0.6503  -1.4111 LP             1 S1                 0.0000
@<TRIPOS>BOND
    1    1    2 1     
    2    1   23 1     
    3    1   24 1     
    4    1   25 1     
    5    2    9 1     
    6    2    3 1     
    7    3    4 2     
    8    3    5 1     
    9    5   22 1     
   10    5    6 1     
   11    6    7 2     
   12    6    8 1     
   13    8   12 1     
   14    8    9 2     
   15    9   10 1     
   16   10   11 2     
   17   11   12 1     
   18   11   26 1     
   19   12   13 1     
   20   13   14 1     
   21   13   27 1     
   22   13   28 1     
   23   14   15 1     
   24   14   16 1     
   25   14   29 1     
   26   15   30 1     
   27   16   21 ar    
   28   16   17 ar    
   29   17   18 ar    
   30   17   31 1     
   31   18   19 ar    
   32   18   32 1     
   33   19   20 ar    
   34   19   33 1     
   35   20   21 ar    
   36   20   34 1     
   37   21   35 1     
   38    4   36 1     
   39    4   37 1     
   40    7   38 1     
   41    7   39 1     
   42   10   40 1     
   43   15   41 1     
   44   15   42 1     
@<TRIPOS>SUBSTRUCTURE
      1 S1             1
@<TRIPOS>SET
LONE_PAIRS      STATIC     ATOMS    <user>   **** ""
7 36 37 38 39 40 41 42
DONOR_HYDROGENS      STATIC     ATOMS    <user>   **** ""
2 22 30
ATOM$BLUE        STATIC     ATOMS    COLORGROUP SYSTEM
7 36 37 38 39 40 41 42
ATOM$RED        STATIC     ATOMS    COLORGROUP SYSTEM
2 22 30
