AV-unprocessed.smi:3294|AV-procd|sdf|12633|dock1
  -GOLD-   2272018573D 1   1.00000     0.00000
 Structure written by MMmdl.
 37 39  0  0  0  0  0  0  0  0  1 V2000
  144.8900  141.3695  155.8248 C   0  0  0  0  0  0  0  0  0  0  0  0
  146.3232  141.3854  155.3350 C   0  0  0  0  0  0  0  0  0  0  0  0
  147.3834  141.7022  156.2107 C   0  0  0  0  0  0  0  0  0  0  0  0
  148.7047  141.7036  155.7023 C   0  0  0  0  0  0  0  0  0  0  0  0
  149.8577  141.9860  156.4841 N   0  0  0  0  0  0  0  0  0  0  0  0
  149.9416  142.1845  157.8111 C   0  0  0  0  0  0  0  0  0  0  0  0
  148.9883  142.1903  158.5898 O   0  0  0  0  0  0  0  0  0  0  0  0
  151.2121  142.4003  158.1877 N   0  0  0  0  0  0  0  0  0  0  0  0
  151.6894  142.6616  159.5449 C   0  0  0  0  0  0  0  0  0  0  0  0
  152.2982  144.0446  159.7274 C   0  0  0  0  0  0  0  0  0  0  0  0
  151.4678  145.2953  159.5636 C   0  0  0  0  0  0  0  0  0  0  0  0
  152.5343  144.9550  158.5469 C   0  0  0  0  0  0  0  0  0  0  0  0
  152.6163  141.5837  160.0872 C   0  0  0  0  0  0  0  0  0  0  0  0
  153.4822  141.8353  161.2984 C   0  0  0  0  0  0  0  0  0  0  0  0
  154.1151  141.6886  159.9330 C   0  0  0  0  0  0  0  0  0  0  0  0
  148.8957  141.3606  154.3480 C   0  0  0  0  0  0  0  0  0  0  0  0
  147.7680  141.0606  153.5580 C   0  0  0  0  0  0  0  0  0  0  0  0
  146.5052  141.0733  154.0334 N   0  0  0  0  0  0  0  0  0  0  0  0
  144.8205  141.7138  156.8571 H   0  0  0  0  0  0  0  0  0  0  0  0
  144.4841  140.3588  155.7746 H   0  0  0  0  0  0  0  0  0  0  0  0
  144.2696  142.0206  155.2082 H   0  0  0  0  0  0  0  0  0  0  0  0
  147.1705  141.9226  157.2455 H   0  0  0  0  0  0  0  0  0  0  0  0
  150.7143  142.1024  155.9633 H   0  0  0  0  0  0  0  0  0  0  0  0
  151.9190  142.3805  157.4674 H   0  0  0  0  0  0  0  0  0  0  0  0
  150.7871  142.6351  160.1576 H   0  0  0  0  0  0  0  0  0  0  0  0
  153.0493  144.0909  160.5136 H   0  0  0  0  0  0  0  0  0  0  0  0
  150.4307  145.1837  159.2546 H   0  0  0  0  0  0  0  0  0  0  0  0
  151.6653  146.1203  160.2449 H   0  0  0  0  0  0  0  0  0  0  0  0
  153.4433  145.5527  158.5497 H   0  0  0  0  0  0  0  0  0  0  0  0
  152.2034  144.6128  157.5683 H   0  0  0  0  0  0  0  0  0  0  0  0
  152.2142  140.5763  159.9970 H   0  0  0  0  0  0  0  0  0  0  0  0
  153.4657  142.8308  161.7377 H   0  0  0  0  0  0  0  0  0  0  0  0
  153.6083  141.0162  162.0036 H   0  0  0  0  0  0  0  0  0  0  0  0
  154.6633  140.7714  159.7271 H   0  0  0  0  0  0  0  0  0  0  0  0
  154.5199  142.5869  159.4712 H   0  0  0  0  0  0  0  0  0  0  0  0
  149.8853  141.3327  153.9158 H   0  0  0  0  0  0  0  0  0  0  0  0
  147.8847  140.8016  152.5162 H   0  0  0  0  0  0  0  0  0  0  0  0
  1  2  1  0  0  0  0
  1 19  1  0  0  0  0
  1 20  1  0  0  0  0
  1 21  1  0  0  0  0
  2 18  1  0  0  0  0
  2  3  2  0  0  0  0
  3  4  1  0  0  0  0
  3 22  1  0  0  0  0
  4  5  1  0  0  0  0
  4 16  2  0  0  0  0
  5  6  1  0  0  0  0
  5 23  1  0  0  0  0
  6  7  2  0  0  0  0
  6  8  1  0  0  0  0
  8  9  1  0  0  0  0
  8 24  1  0  0  0  0
  9 10  1  0  0  0  0
  9 13  1  0  0  0  0
  9 25  1  0  0  0  0
 10 12  1  0  0  0  0
 10 11  1  0  0  0  0
 10 26  1  0  0  0  0
 11 12  1  0  0  0  0
 11 27  1  0  0  0  0
 11 28  1  0  0  0  0
 12 29  1  0  0  0  0
 12 30  1  0  0  0  0
 13 15  1  0  0  0  0
 13 14  1  0  0  0  0
 13 31  1  0  0  0  0
 14 15  1  0  0  0  0
 14 32  1  0  0  0  0
 14 33  1  0  0  0  0
 15 34  1  0  0  0  0
 15 35  1  0  0  0  0
 16 17  1  0  0  0  0
 16 36  1  0  0  0  0
 17 18  2  0  0  0  0
 17 37  1  0  0  0  0
M  END
> <s_m_source_file>
AV-unprocessed.smi

> <i_m_source_file_index>
3294

> <i_lp_mmshare_version>
43012

> <i_f3d_flags>
0

> <s_epik_input>
W0NIM11jMVtjSF1jKFtjSF1bY0hdbjEpW05IXUMoPU8pW05IXVtDSF0oW0NIXTJbQ0gyXVtDSDJdMilbQ0hdM1tDSDJdW0NIMl0z

> <s_epik_cmdline>
J2VwaWtfcHl0aG9uJywgJy1waCcsICc3LjAnLCAnLXRuJywgJzgnLCAnLW1hJywgJzIwMCcsICctbWV0YWxfYmluZGluZycsICctaW1hZScsICc8aW5maWxlLm1hZT4nLCAnLW9tYWUnLCAnPG91dGZpbGUubWFlPic=

> <r_epik_Ionization_Penalty>
0.389791

> <r_epik_Ionization_Penalty_Charging>
0

> <r_epik_Ionization_Penalty_Neutral>
0.389791

> <r_epik_State_Penalty>
0.388374

> <r_epik_Charging_Adjusted_Penalty>
0.388374

> <i_epik_Tot_Q>
0

> <i_epik_Tot_abs_Q>
0

> <r_epik_Metal_State_Penalty>
0.232337

> <b_epik_Metal_Only>
0

> <s_lp_Force_Field>
OPLS_2005

> <r_lp_Energy>
28.7122

> <b_lp_Chiralities_Consistent>
1

> <s_lp_Variant>
AV-unprocessed.smi:3294-1

> <Gold.Version>
5.8.1

> <Gold.Id.Protein>
6NUR|6NUR_protein|mol2

> <Gold.PLP.Fitness>
41.8033

> <Gold.PLP.PLP>
-39.3344

> <Gold.PLP.part.hbond>
-1.4912

> <Gold.PLP.part.metal>
0.0000

> <Gold.PLP.part.buried>
-3.2542

> <Gold.PLP.part.nonpolar>
-34.6446

> <Gold.PLP.part.repulsive>
0.3724

> <Gold.PLP.ligand.clash>
0.0000

> <Gold.PLP.ligand.torsion>
1.3498

> <Gold.PLP.Chemscore.Hbond>
0.0000

> <Gold.PLP.Chemscore.CHOScore>
1.0000

> <Gold.PLP.Chemscore.Metal>
0.0000

> <Gold.Chemscore.Hbonds>
donor molecule, donor type, donor heavy atom, donor atom, acceptor molecule, acceptor atom, score
      L1  C    17    37       P1  7957  1.00

> <Gold.PLP.Chemscore.Internal.Correction>
2.1684

> <Gold.Rescore>
     Score         DG    S(hbond)    S(metal)    S(lipo)     H(rot)  DE(clash)    DE(int)     intcor
     12.71     -15.42       0.00        0.00     113.03       1.28       0.02       2.68       ----

> <Gold.Chemscore.Fitness>
12.7099

> <Gold.Chemscore.DG>
-15.4182

> <Gold.Chemscore.ZeroCoef>
-5.4800

> <Gold.Chemscore.Hbond>
0.0000

> <Gold.Chemscore.Metal>
0.0000

> <Gold.Chemscore.Lipo>
113.0304

> <Gold.Chemscore.Internal_Hbond>
0.0000

> <Gold.Chemscore.DEClash>
0.0244

> <Gold.Chemscore.DEInternal>
2.6838

> <Gold.Chemscore.Rot>
1.2837

> <Gold.Chemscore.Internal.Correction>
   9.000000E+99

> <Gold.Chemscore.Hbond.Weighted>
-0.0000

> <Gold.Chemscore.Metal.Weighted>
-0.0000

> <Gold.Chemscore.Lipo.Weighted>
-13.2246

> <Gold.Chemscore.Internal_Hbond.Weighted>
0.0000

> <Gold.Chemscore.DEClash.Weighted>
0.0244

> <Gold.Chemscore.DEInternal.Weighted>
2.6838

> <Gold.Chemscore.Rot.Weighted>
3.2863

> <Gold.Chemscore.Internal.Correction.Weighted>
   9.000000E+99

> <Gold.Protein.RotatedTorsions>
[ 6907 6896 6895 6894 ] final  -39.61 input  -60.11 | X-H torsion
[ 7974 7965 7964 7962 ] final -116.07 input  175.53 | X-H torsion
[ 8008 7997 7996 7995 ] final  176.10 input   59.86 | X-H torsion
[ 10167 10162 10161 10158 ] final   42.72 input  -65.29 | X-H torsion
[ 10718 10713 10712 10709 ] final -153.61 input   66.30 | X-H torsion
[ 10763 10752 10751 10750 ] final   43.45 input  -60.55 | X-H torsion
[ 11005 11000 10999 10996 ] final   -0.61 input  -57.11 | X-H torsion

> <Gold.Protein.ActiveResidues>
 VAL166  LYS551  ARG553  GLY616  TRP617  ASP618  TYR619  PRO620  LYS621  CYS622 
 ASP623  PHE694  ASN695  SER759  ASP760  ASP761  ALA762  ILE779  LEU786  VAL792 
 PHE793  MET794  SER795  GLU796  ALA797  LYS798  CYS799  TRP800  GLU811  SER814 

> <Gold.Protein.RotatedAtoms>
  150.9882  134.9223  159.7884 H   0  0  0  0  0  0  0  0  0  0  0  0  # atno 6907 bound_to 6896
  152.5243  134.3317  159.9195 H   0  0  0  0  0  0  0  0  0  0  0  0  # atno 6908 bound_to 6896
  151.3323  133.3954  159.2698 H   0  0  0  0  0  0  0  0  0  0  0  0  # atno 6909 bound_to 6896
  145.1011  140.8552  143.3926 H   0  0  0  0  0  0  0  0  0  0  0  0  # atno 7974 bound_to 7965
  156.0800  140.1392  156.9724 H   0  0  0  0  0  0  0  0  0  0  0  0  # atno 8008 bound_to 7997
  154.4580  140.0954  156.6861 H   0  0  0  0  0  0  0  0  0  0  0  0  # atno 8009 bound_to 7997
  155.5091  140.3453  155.4387 H   0  0  0  0  0  0  0  0  0  0  0  0  # atno 8010 bound_to 7997
  140.3515  144.2343  150.6145 H   0  0  0  0  0  0  0  0  0  0  0  0  # atno 10167 bound_to 10162
  156.4881  130.8334  151.2559 H   0  0  0  0  0  0  0  0  0  0  0  0  # atno 10718 bound_to 10713
  152.9860  135.6101  154.3113 H   0  0  0  0  0  0  0  0  0  0  0  0  # atno 10763 bound_to 10752
  154.2828  135.2776  155.2691 H   0  0  0  0  0  0  0  0  0  0  0  0  # atno 10764 bound_to 10752
  154.5022  135.5863  153.6596 H   0  0  0  0  0  0  0  0  0  0  0  0  # atno 10765 bound_to 10752
  140.6382  133.9513  155.8311 H   0  0  0  0  0  0  0  0  0  0  0  0  # atno 11005 bound_to 11000
  145.0955  139.2859  143.5713 LP  0  0  0  0  0  0  0  0  0  0  0  0  # atno 17320 bound_to 7965
  146.3529  140.0505  142.8636 LP  0  0  0  0  0  0  0  0  0  0  0  0  # atno 17321 bound_to 7965
  140.5214  143.2265  151.8383 LP  0  0  0  0  0  0  0  0  0  0  0  0  # atno 17342 bound_to 10162
  139.4826  144.4832  151.9280 LP  0  0  0  0  0  0  0  0  0  0  0  0  # atno 17343 bound_to 10162
  157.7476  131.0022  150.2993 LP  0  0  0  0  0  0  0  0  0  0  0  0  # atno 17370 bound_to 10713
  156.3454  130.3822  149.7374 LP  0  0  0  0  0  0  0  0  0  0  0  0  # atno 17371 bound_to 10713
  141.0626  134.0324  157.3638 LP  0  0  0  0  0  0  0  0  0  0  0  0  # atno 17394 bound_to 11000
  139.9090  135.0186  156.7611 LP  0  0  0  0  0  0  0  0  0  0  0  0  # atno 17395 bound_to 11000

$$$$
