AV-unprocessed.smi:3187|AV-procd|sdf|12178|dock2
  -GOLD-   2272018 13D 1   1.00000     0.00000
 Structure written by MMmdl.
 41 42  0  0  0  0  0  0  0  0  2 V2000
  153.0989  140.3827  159.6207 C   0  0  0  0  0  0  0  0  0  0  0  0
  152.7277  141.8277  159.9151 C   0  0  0  0  0  0  0  0  0  0  0  0
  152.7666  142.3061  161.1744 C   0  0  0  0  0  0  0  0  0  0  0  0
  152.4801  143.7455  161.5647 C   0  0  0  0  0  0  0  0  0  0  0  0
  151.9597  144.5984  160.3957 C   0  0  0  0  0  0  0  0  0  0  0  0
  152.6366  144.2124  159.0687 C   0  0  2  0  0  0  0  0  0  0  0  0
  152.2973  145.1995  157.9386 C   0  0  0  0  0  0  0  0  0  0  0  0
  152.3692  142.7211  158.7196 C   0  0  2  0  0  0  0  0  0  0  0  0
  150.9267  142.4734  158.2045 C   0  0  0  0  0  0  0  0  0  0  0  0
  150.7764  142.7440  156.7621 N   0  3  0  0  0  0  0  0  0  0  0  0
  150.7192  141.5340  155.9175 C   0  0  0  0  0  0  0  0  0  0  0  0
  151.7132  140.4652  156.3976 C   0  0  0  0  0  0  0  0  0  0  0  0
  151.6698  139.2690  155.5782 N   0  0  0  0  0  0  0  0  0  0  0  0
  150.5450  138.5327  155.2296 C   0  0  0  0  0  0  0  0  0  0  0  0
  150.9850  137.4921  154.4428 C   0  0  0  0  0  0  0  0  0  0  0  0
  152.3681  137.5682  154.2965 N   0  0  0  0  0  0  0  0  0  0  0  0
  152.7033  138.6410  155.0004 C   0  0  0  0  0  0  0  0  0  0  0  0
  153.8064  140.3297  158.7930 H   0  0  0  0  0  0  0  0  0  0  0  0
  152.2241  139.7849  159.3712 H   0  0  0  0  0  0  0  0  0  0  0  0
  153.5699  139.9170  160.4873 H   0  0  0  0  0  0  0  0  0  0  0  0
  153.0512  141.6516  161.9856 H   0  0  0  0  0  0  0  0  0  0  0  0
  151.7689  143.7642  162.3908 H   0  0  0  0  0  0  0  0  0  0  0  0
  153.4103  144.1710  161.9419 H   0  0  0  0  0  0  0  0  0  0  0  0
  150.8798  144.4795  160.3079 H   0  0  0  0  0  0  0  0  0  0  0  0
  152.1272  145.6530  160.6178 H   0  0  0  0  0  0  0  0  0  0  0  0
  153.7127  144.3063  159.2268 H   0  0  0  0  0  0  0  0  0  0  0  0
  151.2218  145.3005  157.7929 H   0  0  0  0  0  0  0  0  0  0  0  0
  152.7408  144.8855  156.9933 H   0  0  0  0  0  0  0  0  0  0  0  0
  152.6841  146.1932  158.1661 H   0  0  0  0  0  0  0  0  0  0  0  0
  153.0571  142.4640  157.9128 H   0  0  0  0  0  0  0  0  0  0  0  0
  150.6230  141.4451  158.4019 H   0  0  0  0  0  0  0  0  0  0  0  0
  150.2202  143.1203  158.7233 H   0  0  0  0  0  0  0  0  0  0  0  0
  149.9267  143.2718  156.6211 H   0  0  0  0  0  0  0  0  0  0  0  0
  149.7077  141.1270  155.9467 H   0  0  0  0  0  0  0  0  0  0  0  0
  150.9252  141.8043  154.8808 H   0  0  0  0  0  0  0  0  0  0  0  0
  152.7302  140.8599  156.3971 H   0  0  0  0  0  0  0  0  0  0  0  0
  151.4875  140.1809  157.4261 H   0  0  0  0  0  0  0  0  0  0  0  0
  149.5522  138.8018  155.5596 H   0  0  0  0  0  0  0  0  0  0  0  0
  150.4173  136.7012  153.9749 H   0  0  0  0  0  0  0  0  0  0  0  0
  153.7244  138.9821  155.0917 H   0  0  0  0  0  0  0  0  0  0  0  0
  151.5595  143.3076  156.4637 H   0  0  0  0  0  0  0  0  0  0  0  0
  1  2  1  0  0  0  0
  1 18  1  0  0  0  0
  1 19  1  0  0  0  0
  1 20  1  0  0  0  0
  2  8  1  0  0  0  0
  2  3  2  0  0  0  0
  3  4  1  0  0  0  0
  3 21  1  0  0  0  0
  4  5  1  0  0  0  0
  4 22  1  0  0  0  0
  4 23  1  0  0  0  0
  5  6  1  0  0  0  0
  5 24  1  0  0  0  0
  5 25  1  0  0  0  0
  6  7  1  0  0  0  0
  6  8  1  0  0  0  0
  6 26  1  0  0  0  0
  7 27  1  0  0  0  0
  7 28  1  0  0  0  0
  7 29  1  0  0  0  0
  8  9  1  0  0  0  0
  8 30  1  0  0  0  0
  9 10  1  0  0  0  0
  9 31  1  0  0  0  0
  9 32  1  0  0  0  0
 10 11  1  0  0  0  0
 10 33  1  0  0  0  0
 10 41  1  0  0  0  0
 11 12  1  0  0  0  0
 11 34  1  0  0  0  0
 11 35  1  0  0  0  0
 12 13  1  0  0  0  0
 12 36  1  0  0  0  0
 12 37  1  0  0  0  0
 13 17  1  0  0  0  0
 13 14  1  0  0  0  0
 14 15  2  0  0  0  0
 14 38  1  0  0  0  0
 15 16  1  0  0  0  0
 15 39  1  0  0  0  0
 16 17  2  0  0  0  0
 17 40  1  0  0  0  0
M  CHG  1  10   1
M  END
> <s_m_source_file>
AV-unprocessed.smi

> <i_m_source_file_index>
3187

> <i_lp_mmshare_version>
43012

> <i_f3d_flags>
0

> <s_epik_input>
W0NIM11DMT1bQ0hdW0NIMl1bQ0gyXVtDQEBIXShbQ0gzXSlbQ0BIXTFbQ0gyXVtOSF1bQ0gyXVtDSDJdbjJbY0hdW2NIXW5bY0hdMg==

> <s_epik_cmdline>
J2VwaWtfcHl0aG9uJywgJy1waCcsICc3LjAnLCAnLXRuJywgJzgnLCAnLW1hJywgJzIwMCcsICctbWV0YWxfYmluZGluZycsICctaW1hZScsICc8aW5maWxlLm1hZT4nLCAnLW9tYWUnLCAnPG91dGZpbGUubWFlPic=

> <r_lp_tautomer_probability>
1

> <r_epik_Ionization_Penalty>
0.0501625

> <r_epik_Ionization_Penalty_Charging>
0.0501625

> <r_epik_Ionization_Penalty_Neutral>
0

> <r_epik_State_Penalty>
0.0972392

> <r_epik_Charging_Adjusted_Penalty>
0.147402

> <i_epik_Tot_Q>
1

> <i_epik_Tot_abs_Q>
1

> <r_epik_Metal_State_Penalty>
0.000104376

> <b_epik_Metal_Only>
0

> <s_lp_Force_Field>
OPLS_2005

> <r_lp_Energy>
17.7506

> <b_lp_Chiralities_Consistent>
1

> <s_lp_Variant>
AV-unprocessed.smi:3187-4

> <Gold.Version>
5.8.1

> <Gold.Id.Protein>
6NUR|6NUR_protein|mol2

> <Gold.PLP.Fitness>
58.2704

> <Gold.PLP.PLP>
-48.6785

> <Gold.PLP.part.hbond>
-2.0000

> <Gold.PLP.part.metal>
0.0000

> <Gold.PLP.part.buried>
-6.9769

> <Gold.PLP.part.nonpolar>
-39.5615

> <Gold.PLP.part.repulsive>
0.1771

> <Gold.PLP.ligand.clash>
0.0000

> <Gold.PLP.ligand.torsion>
0.7815

> <Gold.PLP.Chemscore.Hbond>
2.7360

> <Gold.PLP.Chemscore.CHOScore>
0.9485

> <Gold.PLP.Chemscore.Metal>
0.0000

> <Gold.Chemscore.Hbonds>
donor molecule, donor type, donor heavy atom, donor atom, acceptor molecule, acceptor atom, score
      L1  H    10    33       P1  8028  2.00
      P1  H 10752 10765       L1    16  0.70
      L1  C    15    39       P1  7948  0.65
      L1  C    15    39       P1  7949  0.20

> <Gold.PLP.Chemscore.Internal.Correction>
0.1014

> <Gold.Rescore>
     Score         DG    S(hbond)    S(metal)    S(lipo)     H(rot)  DE(clash)    DE(int)     intcor
     19.71     -22.06       1.89        0.00     128.89       1.89       1.41       0.94       ----

> <Gold.Chemscore.Fitness>
19.7113

> <Gold.Chemscore.DG>
-22.0584

> <Gold.Chemscore.ZeroCoef>
-5.4800

> <Gold.Chemscore.Hbond>
1.8937

> <Gold.Chemscore.Metal>
0.0000

> <Gold.Chemscore.Lipo>
128.8875

> <Gold.Chemscore.Internal_Hbond>
0.0000

> <Gold.Chemscore.DEClash>
1.4083

> <Gold.Chemscore.DEInternal>
0.9388

> <Gold.Chemscore.Rot>
1.8853

> <Gold.Chemscore.Internal.Correction>
   9.000000E+99

> <Gold.Chemscore.Hbonds>
donor molecule, donor type, donor heavy atom, donor atom, acceptor molecule, acceptor atom, score
      L1  H    10    33       P1  8028  0.90
      P1  H 10752 10765       L1    16  0.39

> <Gold.Chemscore.Hbond.Weighted>
-6.3248

> <Gold.Chemscore.Metal.Weighted>
-0.0000

> <Gold.Chemscore.Lipo.Weighted>
-15.0798

> <Gold.Chemscore.Internal_Hbond.Weighted>
0.0000

> <Gold.Chemscore.DEClash.Weighted>
1.4083

> <Gold.Chemscore.DEInternal.Weighted>
0.9388

> <Gold.Chemscore.Rot.Weighted>
4.8263

> <Gold.Chemscore.Internal.Correction.Weighted>
   9.000000E+99

> <Gold.Protein.RotatedTorsions>
[ 6907 6896 6895 6894 ] final  -51.28 input  -60.11 | X-H torsion
[ 7974 7965 7964 7962 ] final  158.68 input  175.53 | X-H torsion
[ 8008 7997 7996 7995 ] final -108.03 input   59.86 | X-H torsion
[ 10167 10162 10161 10158 ] final   47.29 input  -65.29 | X-H torsion
[ 10718 10713 10712 10709 ] final -101.00 input   66.30 | X-H torsion
[ 10763 10752 10751 10750 ] final  152.19 input  -60.55 | X-H torsion
[ 11005 11000 10999 10996 ] final  -86.25 input  -57.11 | X-H torsion

> <Gold.Protein.ActiveResidues>
 VAL166  LYS551  ARG553  GLY616  TRP617  ASP618  TYR619  PRO620  LYS621  CYS622 
 ASP623  PHE694  ASN695  SER759  ASP760  ASP761  ALA762  ILE779  LEU786  VAL792 
 PHE793  MET794  SER795  GLU796  ALA797  LYS798  CYS799  TRP800  GLU811  SER814 

> <Gold.Protein.RotatedAtoms>
  150.8626  134.7982  159.7094 H   0  0  0  0  0  0  0  0  0  0  0  0  # atno 6907 bound_to 6896
  152.4658  134.5075  159.9753 H   0  0  0  0  0  0  0  0  0  0  0  0  # atno 6908 bound_to 6896
  151.5176  133.3434  159.2931 H   0  0  0  0  0  0  0  0  0  0  0  0  # atno 6909 bound_to 6896
  144.7832  139.7511  143.6251 H   0  0  0  0  0  0  0  0  0  0  0  0  # atno 7974 bound_to 7965
  154.9382  140.0403  157.2083 H   0  0  0  0  0  0  0  0  0  0  0  0  # atno 8008 bound_to 7997
  154.8094  140.2865  155.5842 H   0  0  0  0  0  0  0  0  0  0  0  0  # atno 8009 bound_to 7997
  156.2970  140.2540  156.2979 H   0  0  0  0  0  0  0  0  0  0  0  0  # atno 8010 bound_to 7997
  140.3051  144.2887  150.6211 H   0  0  0  0  0  0  0  0  0  0  0  0  # atno 10167 bound_to 10162
  156.0180  130.5353  150.6899 H   0  0  0  0  0  0  0  0  0  0  0  0  # atno 10718 bound_to 10713
  154.1160  135.2836  155.3219 H   0  0  0  0  0  0  0  0  0  0  0  0  # atno 10763 bound_to 10752
  154.6457  135.5387  153.7844 H   0  0  0  0  0  0  0  0  0  0  0  0  # atno 10764 bound_to 10752
  153.0329  135.6497  154.1316 H   0  0  0  0  0  0  0  0  0  0  0  0  # atno 10765 bound_to 10752
  141.1632  133.7444  156.9134 H   0  0  0  0  0  0  0  0  0  0  0  0  # atno 11005 bound_to 11000
  146.2051  139.5371  142.9717 LP  0  0  0  0  0  0  0  0  0  0  0  0  # atno 17320 bound_to 7965
  145.5992  141.0358  143.2027 LP  0  0  0  0  0  0  0  0  0  0  0  0  # atno 17321 bound_to 7965
  140.5617  143.2191  151.7754 LP  0  0  0  0  0  0  0  0  0  0  0  0  # atno 17342 bound_to 10162
  139.4906  144.4340  151.9840 LP  0  0  0  0  0  0  0  0  0  0  0  0  # atno 17343 bound_to 10162
  157.4583  131.0880  151.0773 LP  0  0  0  0  0  0  0  0  0  0  0  0  # atno 17370 bound_to 10713
  157.1269  130.6085  149.5519 LP  0  0  0  0  0  0  0  0  0  0  0  0  # atno 17371 bound_to 10713
  140.1501  134.9236  157.2581 LP  0  0  0  0  0  0  0  0  0  0  0  0  # atno 17394 bound_to 11000
  140.2733  134.3435  155.7366 LP  0  0  0  0  0  0  0  0  0  0  0  0  # atno 17395 bound_to 11000

$$$$
