AV-unprocessed.smi:1893|AV-procd|sdf|7675|dock7
  -GOLD-   22720 9413D 1   1.00000     0.00000
 Structure written by MMmdl.
 43 44  0  0  0  0  0  0  0  0  2 V2000
  148.5802  132.9249  153.3811 C   0  0  0  0  0  0  0  0  0  0  0  0
  147.1353  133.3189  153.0075 C   0  0  2  0  0  0  0  0  0  0  0  0
  146.8757  132.8867  151.5464 C   0  0  0  0  0  0  0  0  0  0  0  0
  145.4614  133.2392  151.0809 C   0  0  0  0  0  0  0  0  0  0  0  0
  145.2262  134.7363  151.2758 C   0  0  0  0  0  0  0  0  0  0  0  0
  145.4729  135.1312  152.7380 C   0  0  0  0  0  0  0  0  0  0  0  0
  146.8513  134.7815  153.1899 N   0  3  1  0  0  0  0  0  0  0  0  0
  147.1171  135.2891  154.5668 C   0  0  0  0  0  0  0  0  0  0  0  0
  146.6910  136.7600  154.7624 C   0  0  0  0  0  0  0  0  0  0  0  0
  147.7224  137.6779  154.2950 N   0  0  0  0  0  0  0  0  0  0  0  0
  147.9459  138.9050  154.7919 C   0  0  0  0  0  0  0  0  0  0  0  0
  147.2698  139.3933  155.6982 O   0  0  0  0  0  0  0  0  0  0  0  0
  149.1184  139.6830  154.1737 C   0  0  1  0  0  0  0  0  0  0  0  0
  149.1709  141.1544  154.6251 C   0  0  0  0  0  0  0  0  0  0  0  0
  150.3760  139.0058  154.4590 N   0  0  0  0  0  0  0  0  0  0  0  0
  150.7219  137.7194  154.3565 C   0  0  0  0  0  0  0  0  0  0  0  0
  151.9786  137.4726  154.6986 N   0  0  0  0  0  0  0  0  0  0  0  0
  152.3771  138.7363  155.0308 C   0  0  0  0  0  0  0  0  0  0  0  0
  151.4568  139.6920  154.9014 N   0  0  0  0  0  0  0  0  0  0  0  0
  148.7993  131.9052  153.0624 H   0  0  0  0  0  0  0  0  0  0  0  0
  148.7552  132.9421  154.4560 H   0  0  0  0  0  0  0  0  0  0  0  0
  149.3093  133.5794  152.9025 H   0  0  0  0  0  0  0  0  0  0  0  0
  146.4544  132.7618  153.6535 H   0  0  0  0  0  0  0  0  0  0  0  0
  147.6017  133.3646  150.8866 H   0  0  0  0  0  0  0  0  0  0  0  0
  147.0280  131.8117  151.4406 H   0  0  0  0  0  0  0  0  0  0  0  0
  145.3289  132.9685  150.0330 H   0  0  0  0  0  0  0  0  0  0  0  0
  144.7268  132.6677  151.6498 H   0  0  0  0  0  0  0  0  0  0  0  0
  145.8879  135.3060  150.6217 H   0  0  0  0  0  0  0  0  0  0  0  0
  144.2065  134.9932  150.9864 H   0  0  0  0  0  0  0  0  0  0  0  0
  145.2937  136.2008  152.8272 H   0  0  0  0  0  0  0  0  0  0  0  0
  144.7441  134.6383  153.3836 H   0  0  0  0  0  0  0  0  0  0  0  0
  146.6252  134.6378  155.2907 H   0  0  0  0  0  0  0  0  0  0  0  0
  148.1783  135.2513  154.7997 H   0  0  0  0  0  0  0  0  0  0  0  0
  145.7796  136.9605  154.1982 H   0  0  0  0  0  0  0  0  0  0  0  0
  146.4704  136.9916  155.8038 H   0  0  0  0  0  0  0  0  0  0  0  0
  148.3221  137.3532  153.5497 H   0  0  0  0  0  0  0  0  0  0  0  0
  148.9696  139.6778  153.0922 H   0  0  0  0  0  0  0  0  0  0  0  0
  148.2459  141.6768  154.3788 H   0  0  0  0  0  0  0  0  0  0  0  0
  149.9854  141.6830  154.1292 H   0  0  0  0  0  0  0  0  0  0  0  0
  149.3284  141.2433  155.7007 H   0  0  0  0  0  0  0  0  0  0  0  0
  150.0424  136.9494  154.0213 H   0  0  0  0  0  0  0  0  0  0  0  0
  153.3764  138.9596  155.3747 H   0  0  0  0  0  0  0  0  0  0  0  0
  147.4920  135.2671  152.5786 H   0  0  0  0  0  0  0  0  0  0  0  0
  1  2  1  0  0  0  0
  1 20  1  0  0  0  0
  1 21  1  0  0  0  0
  1 22  1  0  0  0  0
  2  7  1  0  0  0  0
  2  3  1  0  0  0  0
  2 23  1  0  0  0  0
  3  4  1  0  0  0  0
  3 24  1  0  0  0  0
  3 25  1  0  0  0  0
  4  5  1  0  0  0  0
  4 26  1  0  0  0  0
  4 27  1  0  0  0  0
  5  6  1  0  0  0  0
  5 28  1  0  0  0  0
  5 29  1  0  0  0  0
  6  7  1  0  0  0  0
  6 30  1  0  0  0  0
  6 31  1  0  0  0  0
  7  8  1  0  0  0  0
  7 43  1  0  0  0  0
  8  9  1  0  0  0  0
  8 32  1  0  0  0  0
  8 33  1  0  0  0  0
  9 10  1  0  0  0  0
  9 34  1  0  0  0  0
  9 35  1  0  0  0  0
 10 11  1  0  0  0  0
 10 36  1  0  0  0  0
 11 12  2  0  0  0  0
 11 13  1  0  0  0  0
 13 14  1  0  0  0  0
 13 15  1  0  0  0  0
 13 37  1  0  0  0  0
 14 38  1  0  0  0  0
 14 39  1  0  0  0  0
 14 40  1  0  0  0  0
 15 19  1  0  0  0  0
 15 16  1  0  0  0  0
 16 17  2  0  0  0  0
 16 41  1  0  0  0  0
 17 18  1  0  0  0  0
 18 19  2  0  0  0  0
 18 42  1  0  0  0  0
M  CHG  1   7   1
M  END
> <s_m_source_file>
AV-unprocessed.smi

> <i_m_source_file_index>
1893

> <i_lp_mmshare_version>
43012

> <i_f3d_flags>
0

> <s_epik_input>
W0NIM11bQ0BASF0xW0NIMl1bQ0gyXVtDSDJdW0NIMl1OMVtDSDJdW0NIMl1bTkhdQyg9TylbQ0BIXShbQ0gzXSluMltjSF1uW2NIXW4y

> <s_epik_cmdline>
J2VwaWtfcHl0aG9uJywgJy1waCcsICc3LjAnLCAnLXRuJywgJzgnLCAnLW1hJywgJzIwMCcsICctbWV0YWxfYmluZGluZycsICctaW1hZScsICc8aW5maWxlLm1hZT4nLCAnLW9tYWUnLCAnPG91dGZpbGUubWFlPic=

> <r_lp_tautomer_probability>
1

> <r_epik_Ionization_Penalty>
0.00266409

> <r_epik_Ionization_Penalty_Charging>
0.00265606

> <r_epik_Ionization_Penalty_Neutral>
8.02794e-06

> <r_epik_State_Penalty>
0.00184955

> <r_epik_Charging_Adjusted_Penalty>
0.00450561

> <i_epik_Tot_Q>
1

> <i_epik_Tot_abs_Q>
1

> <r_epik_Metal_State_Penalty>
-0

> <b_epik_Metal_Only>
0

> <s_lp_Force_Field>
OPLS_2005

> <r_lp_Energy>
24.8268

> <b_lp_Chiralities_Consistent>
1

> <s_lp_Variant>
AV-unprocessed.smi:1893-5

> <Gold.Version>
5.8.1

> <Gold.Id.Protein>
6NUR|6NUR_protein|mol2

> <Gold.PLP.Fitness>
48.6775

> <Gold.PLP.PLP>
-33.0126

> <Gold.PLP.part.hbond>
-4.0000

> <Gold.PLP.part.metal>
0.0000

> <Gold.PLP.part.buried>
-1.3858

> <Gold.PLP.part.nonpolar>
-28.7542

> <Gold.PLP.part.repulsive>
0.1684

> <Gold.PLP.ligand.clash>
0.0000

> <Gold.PLP.ligand.torsion>
0.6895

> <Gold.PLP.Chemscore.Hbond>
4.6113

> <Gold.PLP.Chemscore.CHOScore>
1.0426

> <Gold.PLP.Chemscore.Metal>
0.0000

> <Gold.Chemscore.Hbonds>
donor molecule, donor type, donor heavy atom, donor atom, acceptor molecule, acceptor atom, score
      L1  H     7    43       P1  7948  2.00
      L1  H    10    36       P1  7948  0.78
      P1  H  7989  7998       L1    19  0.95
      P1  H 10752 10763       L1    17  0.68
      L1  C    16    41       P1  7948  1.00

> <Gold.PLP.Chemscore.Internal.Correction>
0.0824

> <Gold.Rescore>
     Score         DG    S(hbond)    S(metal)    S(lipo)     H(rot)  DE(clash)    DE(int)     intcor
     13.35     -14.25       2.76        0.00      51.79       2.54       0.33       0.57       ----

> <Gold.Chemscore.Fitness>
13.3513

> <Gold.Chemscore.DG>
-14.2533

> <Gold.Chemscore.ZeroCoef>
-5.4800

> <Gold.Chemscore.Hbond>
2.7575

> <Gold.Chemscore.Metal>
0.0000

> <Gold.Chemscore.Lipo>
51.7933

> <Gold.Chemscore.Internal_Hbond>
0.0000

> <Gold.Chemscore.DEClash>
0.3313

> <Gold.Chemscore.DEInternal>
0.5707

> <Gold.Chemscore.Rot>
2.5377

> <Gold.Chemscore.Internal.Correction>
   9.000000E+99

> <Gold.Chemscore.Hbonds>
donor molecule, donor type, donor heavy atom, donor atom, acceptor molecule, acceptor atom, score
      L1  H     7    43       P1  7948  1.00
      L1  H    10    36       P1  7948  0.76
      P1  H  7989  7998       L1    19  0.20
      P1  H 10752 10763       L1    17  0.65

> <Gold.Chemscore.Hbond.Weighted>
-9.2101

> <Gold.Chemscore.Metal.Weighted>
-0.0000

> <Gold.Chemscore.Lipo.Weighted>
-6.0598

> <Gold.Chemscore.Internal_Hbond.Weighted>
0.0000

> <Gold.Chemscore.DEClash.Weighted>
0.3313

> <Gold.Chemscore.DEInternal.Weighted>
0.5707

> <Gold.Chemscore.Rot.Weighted>
6.4966

> <Gold.Chemscore.Internal.Correction.Weighted>
   9.000000E+99

> <Gold.Protein.RotatedTorsions>
[ 6907 6896 6895 6894 ] final -153.84 input  -60.11 | X-H torsion
[ 7974 7965 7964 7962 ] final  -96.39 input  175.53 | X-H torsion
[ 8008 7997 7996 7995 ] final  153.69 input   59.86 | X-H torsion
[ 10167 10162 10161 10158 ] final -149.19 input  -65.29 | X-H torsion
[ 10718 10713 10712 10709 ] final  129.48 input   66.30 | X-H torsion
[ 10763 10752 10751 10750 ] final   35.92 input  -60.55 | X-H torsion
[ 11005 11000 10999 10996 ] final  121.68 input  -57.11 | X-H torsion

> <Gold.Protein.ActiveResidues>
 VAL166  LYS551  ARG553  GLY616  TRP617  ASP618  TYR619  PRO620  LYS621  CYS622 
 ASP623  PHE694  ASN695  SER759  ASP760  ASP761  ALA762  ILE779  LEU786  VAL792 
 PHE793  MET794  SER795  GLU796  ALA797  LYS798  CYS799  TRP800  GLU811  SER814 

> <Gold.Protein.RotatedAtoms>
  151.2486  133.4362  159.2610 H   0  0  0  0  0  0  0  0  0  0  0  0  # atno 6907 bound_to 6896
  151.0638  134.9754  159.8284 H   0  0  0  0  0  0  0  0  0  0  0  0  # atno 6908 bound_to 6896
  152.5402  134.2435  159.8924 H   0  0  0  0  0  0  0  0  0  0  0  0  # atno 6909 bound_to 6896
  145.3474  140.9471  143.2573 H   0  0  0  0  0  0  0  0  0  0  0  0  # atno 7974 bound_to 7965
  156.2569  140.1987  156.6529 H   0  0  0  0  0  0  0  0  0  0  0  0  # atno 8008 bound_to 7997
  154.6523  140.0570  156.9994 H   0  0  0  0  0  0  0  0  0  0  0  0  # atno 8009 bound_to 7997
  155.1400  140.3241  155.4457 H   0  0  0  0  0  0  0  0  0  0  0  0  # atno 8010 bound_to 7997
  139.7464  143.8584  152.2576 H   0  0  0  0  0  0  0  0  0  0  0  0  # atno 10167 bound_to 10162
  157.5150  131.1097  150.9238 H   0  0  0  0  0  0  0  0  0  0  0  0  # atno 10718 bound_to 10713
  153.0099  135.6320  154.1902 H   0  0  0  0  0  0  0  0  0  0  0  0  # atno 10763 bound_to 10752
  154.1645  135.2821  155.3101 H   0  0  0  0  0  0  0  0  0  0  0  0  # atno 10764 bound_to 10752
  154.5956  135.5604  153.7382 H   0  0  0  0  0  0  0  0  0  0  0  0  # atno 10765 bound_to 10752
  139.9236  134.9639  156.7995 H   0  0  0  0  0  0  0  0  0  0  0  0  # atno 11005 bound_to 11000
  144.8743  139.4993  143.6753 LP  0  0  0  0  0  0  0  0  0  0  0  0  # atno 17320 bound_to 7965
  146.2982  139.7343  142.9111 LP  0  0  0  0  0  0  0  0  0  0  0  0  # atno 17321 bound_to 7965
  139.8549  144.7146  150.9169 LP  0  0  0  0  0  0  0  0  0  0  0  0  # atno 17342 bound_to 10162
  140.7792  143.3867  151.1382 LP  0  0  0  0  0  0  0  0  0  0  0  0  # atno 17343 bound_to 10162
  156.9866  130.5547  149.5300 LP  0  0  0  0  0  0  0  0  0  0  0  0  # atno 17370 bound_to 10713
  156.0314  130.5405  150.8544 LP  0  0  0  0  0  0  0  0  0  0  0  0  # atno 17371 bound_to 10713
  140.6401  133.9826  155.7703 LP  0  0  0  0  0  0  0  0  0  0  0  0  # atno 17394 bound_to 11000
  141.0777  134.0110  157.3433 LP  0  0  0  0  0  0  0  0  0  0  0  0  # atno 17395 bound_to 11000

$$$$
