AV-unprocessed.smi:1898|AV-procd|sdf|7703|dock10
  -GOLD-   22720 9443D 1   1.00000     0.00000
 Structure written by MMmdl.
 46 47  0  0  0  0  0  0  0  0  3 V2000
  144.6080  135.4973  152.2703 C   0  0  0  0  0  0  0  0  0  0  0  0
  145.2133  136.7942  151.9916 N   0  5  0  0  0  0  0  0  0  0  0  0
  145.6934  137.6208  152.9589 C   0  0  0  0  0  0  0  0  0  0  0  0
  145.5669  137.5829  154.1874 O   0  0  0  0  0  0  0  0  0  0  0  0
  146.5412  138.7460  152.3548 C   0  0  0  0  0  0  0  0  0  0  0  0
  147.2266  139.4989  153.4342 N   0  3  2  0  0  0  0  0  0  0  0  0
  147.2915  140.9557  153.1558 C   0  0  0  0  0  0  0  0  0  0  0  0
  147.8632  141.7248  154.3584 C   0  0  0  0  0  0  0  0  0  0  0  0
  149.2491  141.1910  154.7548 C   0  0  1  0  0  0  0  0  0  0  0  0
  149.7166  141.8735  155.9577 N   0  0  0  0  0  0  0  0  0  0  0  0
  150.6761  141.4238  156.7789 C   0  0  0  0  0  0  0  0  0  0  0  0
  151.2932  140.3766  156.5880 O   0  0  0  0  0  0  0  0  0  0  0  0
  150.8641  142.2681  157.8076 N   0  0  0  0  0  0  0  0  0  0  0  0
  151.7612  142.1678  158.9087 C   0  0  0  0  0  0  0  0  0  0  0  0
  152.4387  140.9800  159.2792 C   0  0  0  0  0  0  0  0  0  0  0  0
  153.2903  140.9995  160.3991 C   0  0  0  0  0  0  0  0  0  0  0  0
  153.4317  142.2029  161.1134 C   0  0  0  0  0  0  0  0  0  0  0  0
  152.7863  143.3389  160.7801 N   0  0  0  0  0  0  0  0  0  0  0  0
  151.9639  143.3226  159.7012 C   0  0  0  0  0  0  0  0  0  0  0  0
  151.2982  144.4866  159.3662 O   0  0  0  0  0  0  0  0  0  0  0  0
  151.4989  145.6414  160.1740 C   0  0  0  0  0  0  0  0  0  0  0  0
  149.1696  139.6714  154.9895 C   0  0  0  0  0  0  0  0  0  0  0  0
  148.5664  138.9488  153.7741 C   0  0  0  0  0  0  0  0  0  0  0  0
  144.2584  135.0090  151.3611 H   0  0  0  0  0  0  0  0  0  0  0  0
  143.7447  135.5734  152.9318 H   0  0  0  0  0  0  0  0  0  0  0  0
  145.3073  134.8063  152.7421 H   0  0  0  0  0  0  0  0  0  0  0  0
  147.2630  138.3881  151.6169 H   0  0  0  0  0  0  0  0  0  0  0  0
  145.8550  139.4029  151.8184 H   0  0  0  0  0  0  0  0  0  0  0  0
  147.9022  141.1305  152.2685 H   0  0  0  0  0  0  0  0  0  0  0  0
  146.2927  141.3338  152.9340 H   0  0  0  0  0  0  0  0  0  0  0  0
  147.9256  142.7872  154.1194 H   0  0  0  0  0  0  0  0  0  0  0  0
  147.1757  141.6371  155.2014 H   0  0  0  0  0  0  0  0  0  0  0  0
  149.9405  141.3905  153.9334 H   0  0  0  0  0  0  0  0  0  0  0  0
  149.2675  142.7476  156.1890 H   0  0  0  0  0  0  0  0  0  0  0  0
  150.3151  143.1151  157.7867 H   0  0  0  0  0  0  0  0  0  0  0  0
  152.3190  140.0526  158.7428 H   0  0  0  0  0  0  0  0  0  0  0  0
  153.8203  140.1098  160.7053 H   0  0  0  0  0  0  0  0  0  0  0  0
  154.0765  142.2538  161.9785 H   0  0  0  0  0  0  0  0  0  0  0  0
  150.9041  146.4648  159.7793 H   0  0  0  0  0  0  0  0  0  0  0  0
  152.5434  145.9565  160.1691 H   0  0  0  0  0  0  0  0  0  0  0  0
  151.1812  145.4685  161.2033 H   0  0  0  0  0  0  0  0  0  0  0  0
  150.1620  139.2694  155.1978 H   0  0  0  0  0  0  0  0  0  0  0  0
  148.5608  139.4630  155.8707 H   0  0  0  0  0  0  0  0  0  0  0  0
  148.4936  137.8842  153.9975 H   0  0  0  0  0  0  0  0  0  0  0  0
  149.2295  139.0441  152.9129 H   0  0  0  0  0  0  0  0  0  0  0  0
  146.6462  139.3901  154.2537 H   0  0  0  0  0  0  0  0  0  0  0  0
  1  2  1  0  0  0  0
  1 24  1  0  0  0  0
  1 25  1  0  0  0  0
  1 26  1  0  0  0  0
  2  3  1  0  0  0  0
  3  4  2  0  0  0  0
  3  5  1  0  0  0  0
  5  6  1  0  0  0  0
  5 27  1  0  0  0  0
  5 28  1  0  0  0  0
  6 23  1  0  0  0  0
  6  7  1  0  0  0  0
  6 46  1  0  0  0  0
  7  8  1  0  0  0  0
  7 29  1  0  0  0  0
  7 30  1  0  0  0  0
  8  9  1  0  0  0  0
  8 31  1  0  0  0  0
  8 32  1  0  0  0  0
  9 10  1  0  0  0  0
  9 22  1  0  0  0  0
  9 33  1  0  0  0  0
 10 11  1  0  0  0  0
 10 34  1  0  0  0  0
 11 12  2  0  0  0  0
 11 13  1  0  0  0  0
 13 14  1  0  0  0  0
 13 35  1  0  0  0  0
 14 19  1  0  0  0  0
 14 15  2  0  0  0  0
 15 16  1  0  0  0  0
 15 36  1  0  0  0  0
 16 17  2  0  0  0  0
 16 37  1  0  0  0  0
 17 18  1  0  0  0  0
 17 38  1  0  0  0  0
 18 19  2  0  0  0  0
 19 20  1  0  0  0  0
 20 21  1  0  0  0  0
 21 39  1  0  0  0  0
 21 40  1  0  0  0  0
 21 41  1  0  0  0  0
 22 23  1  0  0  0  0
 22 42  1  0  0  0  0
 22 43  1  0  0  0  0
 23 44  1  0  0  0  0
 23 45  1  0  0  0  0
M  CHG  1   2  -1
M  CHG  1   6   1
M  END
> <s_m_source_file>
AV-unprocessed.smi

> <i_m_source_file_index>
1898

> <i_lp_mmshare_version>
43012

> <i_f3d_flags>
0

> <s_epik_input>
W0NIM11bTkhdQyg9TylbQ0gyXU4xW0NIMl1bQ0gyXVtDSF0oW0NIMl1bQ0gyXTEpW05IXUMoPU8pW05IXWMyW2NIXVtjSF1bY0hdbmMyT1tDSDNd

> <s_epik_cmdline>
J2VwaWtfcHl0aG9uJywgJy1waCcsICc3LjAnLCAnLXRuJywgJzgnLCAnLW1hJywgJzIwMCcsICctbWV0YWxfYmluZGluZycsICctaW1hZScsICc8aW5maWxlLm1hZT4nLCAnLW9tYWUnLCAnPG91dGZpbGUubWFlPic=

> <r_lp_tautomer_probability>
1

> <r_epik_Ionization_Penalty>
6.13954

> <r_epik_Ionization_Penalty_Charging>
6.13946

> <r_epik_Ionization_Penalty_Neutral>
7.84403e-05

> <r_epik_State_Penalty>
6.9595

> <r_epik_Charging_Adjusted_Penalty>
13.099

> <i_epik_Tot_Q>
0

> <i_epik_Tot_abs_Q>
2

> <r_epik_Metal_State_Penalty>
2.89145

> <b_epik_Metal_Only>
1

> <s_lp_Force_Field>
OPLS_2005

> <r_lp_Energy>
12.3689

> <b_lp_Chiralities_Consistent>
1

> <s_lp_Variant>
AV-unprocessed.smi:1898-4

> <Gold.Version>
5.8.1

> <Gold.Id.Protein>
6NUR|6NUR_protein|mol2

> <Gold.PLP.Fitness>
42.5683

> <Gold.PLP.PLP>
-41.2859

> <Gold.PLP.part.hbond>
-1.0756

> <Gold.PLP.part.metal>
0.0000

> <Gold.PLP.part.buried>
-6.1412

> <Gold.PLP.part.nonpolar>
-36.7783

> <Gold.PLP.part.repulsive>
1.0460

> <Gold.PLP.ligand.clash>
0.0043

> <Gold.PLP.ligand.torsion>
0.8802

> <Gold.PLP.Chemscore.Hbond>
0.9920

> <Gold.PLP.Chemscore.CHOScore>
0.0000

> <Gold.PLP.Chemscore.Metal>
0.0000

> <Gold.Chemscore.Hbonds>
donor molecule, donor type, donor heavy atom, donor atom, acceptor molecule, acceptor atom, score
      L1  H    10    34       P1  8028  0.84

> <Gold.PLP.Chemscore.Internal.Correction>
0.0711

> <Gold.Rescore>
     Score         DG    S(hbond)    S(metal)    S(lipo)     H(rot)  DE(clash)    DE(int)     intcor
     11.41     -15.04       0.98        0.00      96.04       1.93       0.34       3.28       ----

> <Gold.Chemscore.Fitness>
11.4120

> <Gold.Chemscore.DG>
-15.0365

> <Gold.Chemscore.ZeroCoef>
-5.4800

> <Gold.Chemscore.Hbond>
0.9751

> <Gold.Chemscore.Metal>
0.0000

> <Gold.Chemscore.Lipo>
96.0366

> <Gold.Chemscore.Internal_Hbond>
0.0000

> <Gold.Chemscore.DEClash>
0.3434

> <Gold.Chemscore.DEInternal>
3.2812

> <Gold.Chemscore.Rot>
1.9283

> <Gold.Chemscore.Internal.Correction>
   9.000000E+99

> <Gold.Chemscore.Hbonds>
donor molecule, donor type, donor heavy atom, donor atom, acceptor molecule, acceptor atom, score
      L1  H    10    34       P1  8028  0.79

> <Gold.Chemscore.Hbond.Weighted>
-3.2568

> <Gold.Chemscore.Metal.Weighted>
-0.0000

> <Gold.Chemscore.Lipo.Weighted>
-11.2363

> <Gold.Chemscore.Internal_Hbond.Weighted>
0.0000

> <Gold.Chemscore.DEClash.Weighted>
0.3434

> <Gold.Chemscore.DEInternal.Weighted>
3.2812

> <Gold.Chemscore.Rot.Weighted>
4.9365

> <Gold.Chemscore.Internal.Correction.Weighted>
   9.000000E+99

> <Gold.Protein.RotatedTorsions>
[ 6907 6896 6895 6894 ] final   -5.48 input  -60.11 | X-H torsion
[ 7974 7965 7964 7962 ] final   36.33 input  175.53 | X-H torsion
[ 8008 7997 7996 7995 ] final  178.01 input   59.86 | X-H torsion
[ 10167 10162 10161 10158 ] final   86.92 input  -65.29 | X-H torsion
[ 10718 10713 10712 10709 ] final   41.35 input   66.30 | X-H torsion
[ 10763 10752 10751 10750 ] final -100.10 input  -60.55 | X-H torsion
[ 11005 11000 10999 10996 ] final -117.68 input  -57.11 | X-H torsion

> <Gold.Protein.ActiveResidues>
 VAL166  LYS551  ARG553  GLY616  TRP617  ASP618  TYR619  PRO620  LYS621  CYS622 
 ASP623  PHE694  ASN695  SER759  ASP760  ASP761  ALA762  ILE779  LEU786  VAL792 
 PHE793  MET794  SER795  GLU796  ALA797  LYS798  CYS799  TRP800  GLU811  SER814 

> <Gold.Protein.RotatedAtoms>
  151.4809  135.1052  159.9777 H   0  0  0  0  0  0  0  0  0  0  0  0  # atno 6907 bound_to 6896
  152.4779  133.8180  159.7049 H   0  0  0  0  0  0  0  0  0  0  0  0  # atno 6908 bound_to 6896
  150.8830  133.7284  159.2953 H   0  0  0  0  0  0  0  0  0  0  0  0  # atno 6909 bound_to 6896
  146.1219  139.6031  142.9284 H   0  0  0  0  0  0  0  0  0  0  0  0  # atno 7974 bound_to 7965
  156.0593  140.1344  156.9959 H   0  0  0  0  0  0  0  0  0  0  0  0  # atno 8008 bound_to 7997
  154.4474  140.0994  156.6564 H   0  0  0  0  0  0  0  0  0  0  0  0  # atno 8009 bound_to 7997
  155.5402  140.3460  155.4447 H   0  0  0  0  0  0  0  0  0  0  0  0  # atno 8010 bound_to 7997
  139.8826  144.6431  150.8826 H   0  0  0  0  0  0  0  0  0  0  0  0  # atno 10167 bound_to 10162
  157.3926  130.7815  149.7282 H   0  0  0  0  0  0  0  0  0  0  0  0  # atno 10718 bound_to 10713
  154.7552  135.4947  153.9361 H   0  0  0  0  0  0  0  0  0  0  0  0  # atno 10763 bound_to 10752
  153.1187  135.6727  153.9380 H   0  0  0  0  0  0  0  0  0  0  0  0  # atno 10764 bound_to 10752
  153.9118  135.3098  155.3427 H   0  0  0  0  0  0  0  0  0  0  0  0  # atno 10765 bound_to 10752
  141.0338  133.9940  157.3102 H   0  0  0  0  0  0  0  0  0  0  0  0  # atno 11005 bound_to 11000
  145.5447  141.0418  143.2311 LP  0  0  0  0  0  0  0  0  0  0  0  0  # atno 17320 bound_to 7965
  144.7605  139.6968  143.7236 LP  0  0  0  0  0  0  0  0  0  0  0  0  # atno 17321 bound_to 7965
  140.7741  143.3573  151.1896 LP  0  0  0  0  0  0  0  0  0  0  0  0  # atno 17342 bound_to 10162
  139.7182  143.9267  152.2975 LP  0  0  0  0  0  0  0  0  0  0  0  0  # atno 17343 bound_to 10162
  155.9802  130.4032  150.3542 LP  0  0  0  0  0  0  0  0  0  0  0  0  # atno 17370 bound_to 10713
  157.1660  131.0357  151.2818 LP  0  0  0  0  0  0  0  0  0  0  0  0  # atno 17371 bound_to 10713
  139.9226  135.0201  156.8121 LP  0  0  0  0  0  0  0  0  0  0  0  0  # atno 17394 bound_to 11000
  140.6358  133.9863  155.7684 LP  0  0  0  0  0  0  0  0  0  0  0  0  # atno 17395 bound_to 11000

$$$$
