AV-unprocessed.smi:630|AV-procd|sdf|3121|dock1
  -GOLD-   22720 0 43D 1   1.00000     0.00000
 Structure written by MMmdl.
 36 37  0  0  0  0  0  0  0  0  2 V2000
  150.7525  137.3219  154.0201 N   0  0  0  0  0  0  0  0  0  0  0  0
  151.0784  137.4019  155.3130 C   0  0  0  0  0  0  0  0  0  0  0  0
  151.7048  136.5107  155.8840 O   0  0  0  0  0  0  0  0  0  0  0  0
  150.6420  138.6690  156.0744 C   0  0  2  0  0  0  0  0  0  0  0  0
  151.0640  139.9189  155.2632 C   0  0  0  0  0  0  0  0  0  0  0  0
  150.3043  141.1924  155.6695 C   0  0  0  0  0  0  0  0  0  0  0  0
  150.9433  141.9943  156.8149 C   0  0  0  0  0  0  0  0  0  0  0  0
  151.5963  141.1690  157.9361 C   0  0  0  0  0  0  0  0  0  0  0  0
  150.8208  139.9125  158.3630 C   0  0  0  0  0  0  0  0  0  0  0  0
  151.1711  138.6540  157.5375 C   0  0  1  0  0  0  0  0  0  0  0  0
  150.6308  137.4887  158.2466 N   0  0  0  0  0  0  0  0  0  0  0  0
  149.3954  137.3492  158.7507 C   0  0  0  0  0  0  0  0  0  0  0  0
  148.5689  138.2560  158.6298 O   0  0  0  0  0  0  0  0  0  0  0  0
  149.1968  136.1636  159.3708 N   0  5  0  0  0  0  0  0  0  0  0  0
  148.2477  136.0515  160.3143 C   0  0  0  0  0  0  0  0  0  0  0  0
  147.7470  137.1008  160.9769 N   0  0  0  0  0  0  0  0  0  0  0  0
  146.7689  136.7523  161.9102 C   0  0  0  0  0  0  0  0  0  0  0  0
  146.5110  135.4077  161.9513 C   0  0  0  0  0  0  0  0  0  0  0  0
  147.4959  134.5335  160.8132 S   0  0  0  0  0  0  0  0  0  0  0  0
  150.9929  136.4946  153.4941 H   0  0  0  0  0  0  0  0  0  0  0  0
  150.2409  138.0739  153.5821 H   0  0  0  0  0  0  0  0  0  0  0  0
  149.5511  138.6564  156.1136 H   0  0  0  0  0  0  0  0  0  0  0  0
  152.1419  140.0795  155.3169 H   0  0  0  0  0  0  0  0  0  0  0  0
  150.8484  139.7402  154.2081 H   0  0  0  0  0  0  0  0  0  0  0  0
  150.2260  141.8510  154.8039 H   0  0  0  0  0  0  0  0  0  0  0  0
  149.2756  140.9384  155.9279 H   0  0  0  0  0  0  0  0  0  0  0  0
  151.6997  142.6641  156.4041 H   0  0  0  0  0  0  0  0  0  0  0  0
  150.1794  142.6436  157.2442 H   0  0  0  0  0  0  0  0  0  0  0  0
  152.6105  140.8905  157.6476 H   0  0  0  0  0  0  0  0  0  0  0  0
  151.7163  141.8208  158.8023 H   0  0  0  0  0  0  0  0  0  0  0  0
  151.0805  139.7143  159.4042 H   0  0  0  0  0  0  0  0  0  0  0  0
  149.7460  140.0984  158.3586 H   0  0  0  0  0  0  0  0  0  0  0  0
  152.2593  138.5802  157.4960 H   0  0  0  0  0  0  0  0  0  0  0  0
  151.2608  136.7103  158.3728 H   0  0  0  0  0  0  0  0  0  0  0  0
  146.3071  137.5277  162.5031 H   0  0  0  0  0  0  0  0  0  0  0  0
  145.8065  134.8809  162.5768 H   0  0  0  0  0  0  0  0  0  0  0  0
  1  2  1  0  0  0  0
  1 20  1  0  0  0  0
  1 21  1  0  0  0  0
  2  3  2  0  0  0  0
  2  4  1  0  0  0  0
  4 10  1  0  0  0  0
  4  5  1  0  0  0  0
  4 22  1  0  0  0  0
  5  6  1  0  0  0  0
  5 23  1  0  0  0  0
  5 24  1  0  0  0  0
  6  7  1  0  0  0  0
  6 25  1  0  0  0  0
  6 26  1  0  0  0  0
  7  8  1  0  0  0  0
  7 27  1  0  0  0  0
  7 28  1  0  0  0  0
  8  9  1  0  0  0  0
  8 29  1  0  0  0  0
  8 30  1  0  0  0  0
  9 10  1  0  0  0  0
  9 31  1  0  0  0  0
  9 32  1  0  0  0  0
 10 11  1  0  0  0  0
 10 33  1  0  0  0  0
 11 12  1  0  0  0  0
 11 34  1  0  0  0  0
 12 13  2  0  0  0  0
 12 14  1  0  0  0  0
 14 15  1  0  0  0  0
 15 19  1  0  0  0  0
 15 16  2  0  0  0  0
 16 17  1  0  0  0  0
 17 18  2  0  0  0  0
 17 35  1  0  0  0  0
 18 19  1  0  0  0  0
 18 36  1  0  0  0  0
M  CHG  1  14  -1
M  END
> <s_m_source_file>
AV-unprocessed.smi

> <i_m_source_file_index>
630

> <i_lp_mmshare_version>
43012

> <i_f3d_flags>
0

> <s_epik_input>
W05IMl1DKD1PKVtDQEBIXTFbQ0gyXVtDSDJdW0NIMl1bQ0gyXVtDSDJdW0NASF0xW05IXUMoPU8pW05IXWMybltjSF1bY0hdczI=

> <s_epik_cmdline>
J2VwaWtfcHl0aG9uJywgJy1waCcsICc3LjAnLCAnLXRuJywgJzgnLCAnLW1hJywgJzIwMCcsICctbWV0YWxfYmluZGluZycsICctaW1hZScsICc8aW5maWxlLm1hZT4nLCAnLW9tYWUnLCAnPG91dGZpbGUubWFlPic=

> <r_lp_tautomer_probability>
0.999

> <r_epik_Ionization_Penalty>
8.29606

> <r_epik_Ionization_Penalty_Charging>
6.67551

> <r_epik_Ionization_Penalty_Neutral>
1.62055

> <r_epik_State_Penalty>
6.67568

> <r_epik_Charging_Adjusted_Penalty>
13.3512

> <i_epik_Tot_Q>
-1

> <i_epik_Tot_abs_Q>
1

> <r_epik_Metal_State_Penalty>
2.59802

> <b_epik_Metal_Only>
1

> <s_lp_Force_Field>
OPLS_2005

> <r_lp_Energy>
8.76486

> <b_lp_Chiralities_Consistent>
1

> <s_lp_Variant>
AV-unprocessed.smi:630-5

> <Gold.Version>
5.8.1

> <Gold.Id.Protein>
6NUR|6NUR_protein|mol2

> <Gold.PLP.Fitness>
48.1292

> <Gold.PLP.PLP>
-34.0520

> <Gold.PLP.part.hbond>
-6.8737

> <Gold.PLP.part.metal>
0.0000

> <Gold.PLP.part.buried>
-3.9219

> <Gold.PLP.part.nonpolar>
-23.8982

> <Gold.PLP.part.repulsive>
0.2145

> <Gold.PLP.ligand.clash>
0.0000

> <Gold.PLP.ligand.torsion>
0.5211

> <Gold.PLP.Chemscore.Hbond>
5.0112

> <Gold.PLP.Chemscore.CHOScore>
0.0000

> <Gold.PLP.Chemscore.Metal>
0.0000

> <Gold.Chemscore.Hbonds>
donor molecule, donor type, donor heavy atom, donor atom, acceptor molecule, acceptor atom, score
      L1  H     1    20       P1  7949  0.66
      P1  H  6896  6909       L1    14  1.59
      P1  H  6931  6943       L1    16  0.93
      P1  H  6934  6947       L1    16  0.62
      P1  H 10752 10764       L1     3  1.00

> <Gold.PLP.Chemscore.Internal.Correction>
0.0857

> <Gold.Rescore>
     Score         DG    S(hbond)    S(metal)    S(lipo)     H(rot)  DE(clash)    DE(int)     intcor
     14.90     -18.19       2.78        0.00      62.08       1.50       0.02       3.27       ----

> <Gold.Chemscore.Fitness>
14.9014

> <Gold.Chemscore.DG>
-18.1911

> <Gold.Chemscore.ZeroCoef>
-5.4800

> <Gold.Chemscore.Hbond>
2.7843

> <Gold.Chemscore.Metal>
0.0000

> <Gold.Chemscore.Lipo>
62.0753

> <Gold.Chemscore.Internal_Hbond>
0.0000

> <Gold.Chemscore.DEClash>
0.0234

> <Gold.Chemscore.DEInternal>
3.2663

> <Gold.Chemscore.Rot>
1.5044

> <Gold.Chemscore.Internal.Correction>
   9.000000E+99

> <Gold.Chemscore.Hbonds>
donor molecule, donor type, donor heavy atom, donor atom, acceptor molecule, acceptor atom, score
      L1  H     1    20       P1  7949  0.16
      P1  H  6896  6909       L1    14  0.63
      P1  H  6931  6943       L1    16  0.51
      P1  H  6934  6947       L1    16  0.06
      P1  H 10752 10764       L1     3  0.96

> <Gold.Chemscore.Hbond.Weighted>
-9.2995

> <Gold.Chemscore.Metal.Weighted>
-0.0000

> <Gold.Chemscore.Lipo.Weighted>
-7.2628

> <Gold.Chemscore.Internal_Hbond.Weighted>
0.0000

> <Gold.Chemscore.DEClash.Weighted>
0.0234

> <Gold.Chemscore.DEInternal.Weighted>
3.2663

> <Gold.Chemscore.Rot.Weighted>
3.8512

> <Gold.Chemscore.Internal.Correction.Weighted>
   9.000000E+99

> <Gold.Protein.RotatedTorsions>
[ 6907 6896 6895 6894 ] final   71.47 input  -60.11 | X-H torsion
[ 7974 7965 7964 7962 ] final   31.74 input  175.53 | X-H torsion
[ 8008 7997 7996 7995 ] final  -34.64 input   59.86 | X-H torsion
[ 10167 10162 10161 10158 ] final   87.12 input  -65.29 | X-H torsion
[ 10718 10713 10712 10709 ] final  126.28 input   66.30 | X-H torsion
[ 10763 10752 10751 10750 ] final  -41.78 input  -60.55 | X-H torsion
[ 11005 11000 10999 10996 ] final  -17.43 input  -57.11 | X-H torsion

> <Gold.Protein.ActiveResidues>
 VAL166  LYS551  ARG553  GLY616  TRP617  ASP618  TYR619  PRO620  LYS621  CYS622 
 ASP623  PHE694  ASN695  SER759  ASP760  ASP761  ALA762  ILE779  LEU786  VAL792 
 PHE793  MET794  SER795  GLU796  ALA797  LYS798  CYS799  TRP800  GLU811  SER814 

> <Gold.Protein.RotatedAtoms>
  152.4811  134.4716  159.9636 H   0  0  0  0  0  0  0  0  0  0  0  0  # atno 6907 bound_to 6896
  151.4721  133.3560  159.2833 H   0  0  0  0  0  0  0  0  0  0  0  0  # atno 6908 bound_to 6896
  150.8885  134.8312  159.7337 H   0  0  0  0  0  0  0  0  0  0  0  0  # atno 6909 bound_to 6896
  146.1531  139.6618  142.9085 H   0  0  0  0  0  0  0  0  0  0  0  0  # atno 7974 bound_to 7965
  154.4115  140.1678  156.2082 H   0  0  0  0  0  0  0  0  0  0  0  0  # atno 8008 bound_to 7997
  155.9466  140.3404  155.6349 H   0  0  0  0  0  0  0  0  0  0  0  0  # atno 8009 bound_to 7997
  155.6922  140.0735  157.2434 H   0  0  0  0  0  0  0  0  0  0  0  0  # atno 8010 bound_to 7997
  139.8806  144.6442  150.8848 H   0  0  0  0  0  0  0  0  0  0  0  0  # atno 10167 bound_to 10162
  157.5432  131.1096  150.8824 H   0  0  0  0  0  0  0  0  0  0  0  0  # atno 10718 bound_to 10713
  153.9682  135.6731  153.4746 H   0  0  0  0  0  0  0  0  0  0  0  0  # atno 10763 bound_to 10752
  153.0805  135.4925  154.8491 H   0  0  0  0  0  0  0  0  0  0  0  0  # atno 10764 bound_to 10752
  154.7234  135.3122  154.8971 H   0  0  0  0  0  0  0  0  0  0  0  0  # atno 10765 bound_to 10752
  140.8167  133.8099  155.9618 H   0  0  0  0  0  0  0  0  0  0  0  0  # atno 11005 bound_to 11000
  145.4774  141.0437  143.2665 LP  0  0  0  0  0  0  0  0  0  0  0  0  # atno 17320 bound_to 7965
  144.7929  139.6292  143.7105 LP  0  0  0  0  0  0  0  0  0  0  0  0  # atno 17321 bound_to 7965
  140.7745  143.3589  151.1867 LP  0  0  0  0  0  0  0  0  0  0  0  0  # atno 17342 bound_to 10162
  139.7200  143.9239  152.2981 LP  0  0  0  0  0  0  0  0  0  0  0  0  # atno 17343 bound_to 10162
  156.9371  130.5371  149.5279 LP  0  0  0  0  0  0  0  0  0  0  0  0  # atno 17370 bound_to 10713
  156.0514  130.5583  150.8997 LP  0  0  0  0  0  0  0  0  0  0  0  0  # atno 17371 bound_to 10713
  140.9141  134.2223  157.4967 LP  0  0  0  0  0  0  0  0  0  0  0  0  # atno 17394 bound_to 11000
  139.8710  134.9763  156.4917 LP  0  0  0  0  0  0  0  0  0  0  0  0  # atno 17395 bound_to 11000

$$$$
