AV-unprocessed.smi:705|AV-procd|sdf|3449|dock1
  -GOLD-   22720 0433D 1   1.00000     0.00000
 Structure written by MMmdl.
 29 30  0  0  0  0  0  0  0  0  2 V2000
  153.1982  138.1306  157.6733 N   0  0  0  0  0  0  0  0  0  0  0  0
  152.7829  137.1392  156.8802 C   0  0  0  0  0  0  0  0  0  0  0  0
  153.1848  135.9825  156.9942 O   0  0  0  0  0  0  0  0  0  0  0  0
  151.7879  137.5270  155.8261 C   0  0  0  0  0  0  0  0  0  0  0  0
  151.2071  138.8310  155.8183 C   0  0  0  0  0  0  0  0  0  0  0  0
  150.3666  138.8224  154.7398 C   0  0  0  0  0  0  0  0  0  0  0  0
  149.4693  139.8800  154.1781 C   0  0  1  0  0  0  0  0  0  0  0  0
  148.0050  139.4071  154.0904 C   0  0  0  0  0  0  0  0  0  0  0  0
  147.1042  140.5204  153.5341 C   0  0  0  0  0  0  0  0  0  0  0  0
  147.2494  141.8071  154.3619 C   0  0  0  0  0  0  0  0  0  0  0  0
  148.6653  142.2295  154.4231 N   0  3  0  0  0  0  0  0  0  0  0  0
  149.5540  141.1902  154.9887 C   0  0  0  0  0  0  0  0  0  0  0  0
  150.4827  137.5726  154.1740 N   0  0  0  0  0  0  0  0  0  0  0  0
  151.3452  136.7725  154.8280 N   0  0  0  0  0  0  0  0  0  0  0  0
  149.9827  137.2533  153.3561 H   0  0  0  0  0  0  0  0  0  0  0  0
  153.8685  137.9432  158.4045 H   0  0  0  0  0  0  0  0  0  0  0  0
  152.8384  139.0639  157.5349 H   0  0  0  0  0  0  0  0  0  0  0  0
  151.3811  139.6493  156.5015 H   0  0  0  0  0  0  0  0  0  0  0  0
  149.8024  140.1008  153.1625 H   0  0  0  0  0  0  0  0  0  0  0  0
  147.9328  138.5217  153.4578 H   0  0  0  0  0  0  0  0  0  0  0  0
  147.6476  139.1129  155.0783 H   0  0  0  0  0  0  0  0  0  0  0  0
  147.3669  140.7206  152.4944 H   0  0  0  0  0  0  0  0  0  0  0  0
  146.0643  140.1921  153.5329 H   0  0  0  0  0  0  0  0  0  0  0  0
  146.6557  142.6093  153.9231 H   0  0  0  0  0  0  0  0  0  0  0  0
  146.8769  141.6505  155.3752 H   0  0  0  0  0  0  0  0  0  0  0  0
  148.9771  142.4456  153.4872 H   0  0  0  0  0  0  0  0  0  0  0  0
  149.2783  141.0154  156.0298 H   0  0  0  0  0  0  0  0  0  0  0  0
  150.5767  141.5687  154.9908 H   0  0  0  0  0  0  0  0  0  0  0  0
  148.7347  143.0630  154.9899 H   0  0  0  0  0  0  0  0  0  0  0  0
  1  2  1  0  0  0  0
  1 16  1  0  0  0  0
  1 17  1  0  0  0  0
  2  3  2  0  0  0  0
  2  4  1  0  0  0  0
  4 14  2  0  0  0  0
  4  5  1  0  0  0  0
  5  6  2  0  0  0  0
  5 18  1  0  0  0  0
  6  7  1  0  0  0  0
  6 13  1  0  0  0  0
  7 12  1  0  0  0  0
  7  8  1  0  0  0  0
  7 19  1  0  0  0  0
  8  9  1  0  0  0  0
  8 20  1  0  0  0  0
  8 21  1  0  0  0  0
  9 10  1  0  0  0  0
  9 22  1  0  0  0  0
  9 23  1  0  0  0  0
 10 11  1  0  0  0  0
 10 24  1  0  0  0  0
 10 25  1  0  0  0  0
 11 12  1  0  0  0  0
 11 26  1  0  0  0  0
 11 29  1  0  0  0  0
 12 27  1  0  0  0  0
 12 28  1  0  0  0  0
 13 15  1  0  0  0  0
 13 14  1  0  0  0  0
M  CHG  1  11   1
M  END
> <s_m_source_file>
AV-unprocessed.smi

> <i_m_source_file_index>
705

> <i_lp_mmshare_version>
43012

> <i_f3d_flags>
0

> <s_epik_input>
W05IMl1DKD1PKWMxW2NIXWMoW25IXW4xKVtDQEBIXTJbQ0gyXVtDSDJdW0NIMl1bTkhdW0NIMl0y

> <s_epik_cmdline>
J2VwaWtfcHl0aG9uJywgJy1waCcsICc3LjAnLCAnLXRuJywgJzgnLCAnLW1hJywgJzIwMCcsICctbWV0YWxfYmluZGluZycsICctaW1hZScsICc8aW5maWxlLm1hZT4nLCAnLW9tYWUnLCAnPG91dGZpbGUubWFlPic=

> <r_lp_tautomer_probability>
0.5

> <r_epik_Ionization_Penalty>
0.000245231

> <r_epik_Ionization_Penalty_Charging>
0.000226378

> <r_epik_Ionization_Penalty_Neutral>
1.88531e-05

> <r_epik_State_Penalty>
0.41068

> <r_epik_Charging_Adjusted_Penalty>
0.410906

> <i_epik_Tot_Q>
1

> <i_epik_Tot_abs_Q>
1

> <r_epik_Metal_State_Penalty>
0.446108

> <b_epik_Metal_Only>
0

> <s_lp_Force_Field>
OPLS_2005

> <r_lp_Energy>
15.347

> <b_lp_Chiralities_Consistent>
1

> <s_lp_Variant>
AV-unprocessed.smi:705-4

> <Gold.Version>
5.8.1

> <Gold.Id.Protein>
6NUR|6NUR_protein|mol2

> <Gold.PLP.Fitness>
36.6635

> <Gold.PLP.PLP>
-22.4260

> <Gold.PLP.part.hbond>
-4.6491

> <Gold.PLP.part.metal>
0.0000

> <Gold.PLP.part.buried>
-2.5620

> <Gold.PLP.part.nonpolar>
-17.8532

> <Gold.PLP.part.repulsive>
2.0438

> <Gold.PLP.ligand.clash>
0.0000

> <Gold.PLP.ligand.torsion>
0.0409

> <Gold.PLP.Chemscore.Hbond>
4.7673

> <Gold.PLP.Chemscore.CHOScore>
0.0000

> <Gold.PLP.Chemscore.Metal>
0.0000

> <Gold.Chemscore.Hbonds>
donor molecule, donor type, donor heavy atom, donor atom, acceptor molecule, acceptor atom, score
      L1  H    11    29       P1  8028  2.00
      L1  H    13    15       P1  7948  0.98
      P1  H 10752 10763       L1    14  0.74
      P1  H 10752 10764       L1     3  0.83

> <Gold.PLP.Chemscore.Internal.Correction>
0.0176

> <Gold.Rescore>
     Score         DG    S(hbond)    S(metal)    S(lipo)     H(rot)  DE(clash)    DE(int)     intcor
     17.38     -17.90       2.70        0.00      50.85       1.00       0.39       0.12       ----

> <Gold.Chemscore.Fitness>
17.3824

> <Gold.Chemscore.DG>
-17.8977

> <Gold.Chemscore.ZeroCoef>
-5.4800

> <Gold.Chemscore.Hbond>
2.7029

> <Gold.Chemscore.Metal>
0.0000

> <Gold.Chemscore.Lipo>
50.8538

> <Gold.Chemscore.Internal_Hbond>
0.0000

> <Gold.Chemscore.DEClash>
0.3907

> <Gold.Chemscore.DEInternal>
0.1246

> <Gold.Chemscore.Rot>
1.0000

> <Gold.Chemscore.Internal.Correction>
   9.000000E+99

> <Gold.Chemscore.Hbonds>
donor molecule, donor type, donor heavy atom, donor atom, acceptor molecule, acceptor atom, score
      L1  H    11    29       P1  8028  1.00
      L1  H    13    15       P1  7948  0.28
      P1  H 10752 10763       L1    14  0.44
      P1  H 10752 10764       L1     3  0.71

> <Gold.Chemscore.Hbond.Weighted>
-9.0278

> <Gold.Chemscore.Metal.Weighted>
-0.0000

> <Gold.Chemscore.Lipo.Weighted>
-5.9499

> <Gold.Chemscore.Internal_Hbond.Weighted>
0.0000

> <Gold.Chemscore.DEClash.Weighted>
0.3907

> <Gold.Chemscore.DEInternal.Weighted>
0.1246

> <Gold.Chemscore.Rot.Weighted>
2.5600

> <Gold.Chemscore.Internal.Correction.Weighted>
   9.000000E+99

> <Gold.Protein.RotatedTorsions>
[ 6907 6896 6895 6894 ] final   30.42 input  -60.11 | X-H torsion
[ 7974 7965 7964 7962 ] final  159.37 input  175.53 | X-H torsion
[ 8008 7997 7996 7995 ] final   47.05 input   59.86 | X-H torsion
[ 10167 10162 10161 10158 ] final -112.71 input  -65.29 | X-H torsion
[ 10718 10713 10712 10709 ] final  171.95 input   66.30 | X-H torsion
[ 10763 10752 10751 10750 ] final   29.20 input  -60.55 | X-H torsion
[ 11005 11000 10999 10996 ] final  105.00 input  -57.11 | X-H torsion

> <Gold.Protein.ActiveResidues>
 VAL166  LYS551  ARG553  GLY616  TRP617  ASP618  TYR619  PRO620  LYS621  CYS622 
 ASP623  PHE694  ASN695  SER759  ASP760  ASP761  ALA762  ILE779  LEU786  VAL792 
 PHE793  MET794  SER795  GLU796  ALA797  LYS798  CYS799  TRP800  GLU811  SER814 

> <Gold.Protein.RotatedAtoms>
  152.0457  134.9684  160.0574 H   0  0  0  0  0  0  0  0  0  0  0  0  # atno 6907 bound_to 6896
  152.1105  133.4293  159.4637 H   0  0  0  0  0  0  0  0  0  0  0  0  # atno 6908 bound_to 6896
  150.6843  134.2573  159.4578 H   0  0  0  0  0  0  0  0  0  0  0  0  # atno 6909 bound_to 6896
  144.7794  139.7608  143.6266 H   0  0  0  0  0  0  0  0  0  0  0  0  # atno 7974 bound_to 7965
  155.3626  140.3419  155.4241 H   0  0  0  0  0  0  0  0  0  0  0  0  # atno 8008 bound_to 7997
  156.1705  140.1630  156.8489 H   0  0  0  0  0  0  0  0  0  0  0  0  # atno 8009 bound_to 7997
  154.5229  140.0763  156.8187 H   0  0  0  0  0  0  0  0  0  0  0  0  # atno 8010 bound_to 7997
  140.1197  143.4454  152.1699 H   0  0  0  0  0  0  0  0  0  0  0  0  # atno 10167 bound_to 10162
  156.9861  131.0133  151.2869 H   0  0  0  0  0  0  0  0  0  0  0  0  # atno 10718 bound_to 10713
  153.0445  135.6495  154.0854 H   0  0  0  0  0  0  0  0  0  0  0  0  # atno 10763 bound_to 10752
  154.0554  135.2892  155.3335 H   0  0  0  0  0  0  0  0  0  0  0  0  # atno 10764 bound_to 10752
  154.6692  135.5362  153.8182 H   0  0  0  0  0  0  0  0  0  0  0  0  # atno 10765 bound_to 10752
  139.8797  134.9320  156.5446 H   0  0  0  0  0  0  0  0  0  0  0  0  # atno 11005 bound_to 11000
  146.1993  139.5278  142.9754 LP  0  0  0  0  0  0  0  0  0  0  0  0  # atno 17320 bound_to 7965
  145.6094  141.0342  143.1975 LP  0  0  0  0  0  0  0  0  0  0  0  0  # atno 17321 bound_to 7965
  139.5575  144.7383  151.4252 LP  0  0  0  0  0  0  0  0  0  0  0  0  # atno 17342 bound_to 10162
  140.6879  143.7931  150.7212 LP  0  0  0  0  0  0  0  0  0  0  0  0  # atno 17343 bound_to 10162
  157.5492  130.8171  149.8123 LP  0  0  0  0  0  0  0  0  0  0  0  0  # atno 17370 bound_to 10713
  156.0225  130.3790  150.1919 LP  0  0  0  0  0  0  0  0  0  0  0  0  # atno 17371 bound_to 10713
  140.8285  133.8298  155.8961 LP  0  0  0  0  0  0  0  0  0  0  0  0  # atno 17394 bound_to 11000
  140.9351  134.1972  157.4837 LP  0  0  0  0  0  0  0  0  0  0  0  0  # atno 17395 bound_to 11000

$$$$
