AV-unprocessed.smi:771|AV-procd|sdf|3682|dock3
  -GOLD-   22720 1 93D 1   1.00000     0.00000
 Structure written by MMmdl.
 41 42  0  0  0  0  0  0  0  0  3 V2000
  151.0399  139.9920  158.8938 O   0  0  0  0  0  0  0  0  0  0  0  0
  152.2428  139.8568  158.6660 C   0  0  0  0  0  0  0  0  0  0  0  0
  152.7261  138.9180  157.5524 C   0  0  0  0  0  0  0  0  0  0  0  0
  151.7749  138.8243  156.4319 N   0  0  0  0  0  0  0  0  0  0  0  0
  151.0083  139.9699  156.1407 C   0  0  0  0  0  0  0  0  0  0  0  0
  150.1120  139.9947  155.1347 C   0  0  0  0  0  0  0  0  0  0  0  0
  149.3348  141.1805  154.8480 N   0  3  0  0  0  0  0  0  0  0  0  0
  148.9988  141.3973  153.6881 O   0  0  0  0  0  0  0  0  0  0  0  0
  149.0335  141.9326  155.7701 O   0  5  0  0  0  0  0  0  0  0  0  0
  149.9528  138.7899  154.3434 C   0  0  0  0  0  0  0  0  0  0  0  0
  150.6850  137.6918  154.6152 C   0  0  0  0  0  0  0  0  0  0  0  0
  151.6604  137.6672  155.7098 C   0  0  0  0  0  0  0  0  0  0  0  0
  152.3341  136.6679  155.9624 O   0  0  0  0  0  0  0  0  0  0  0  0
  153.1993  140.4944  159.3571 N   0  0  0  0  0  0  0  0  0  0  0  0
  152.9613  141.4691  160.4169 C   0  0  0  0  0  0  0  0  0  0  0  0
  152.7968  142.9094  159.8769 C   0  0  1  0  0  0  0  0  0  0  0  0
  151.9226  142.9368  158.6061 C   0  0  0  0  0  0  0  0  0  0  0  0
  151.8162  144.3543  158.0214 C   0  0  0  0  0  0  0  0  0  0  0  0
  151.2788  145.3476  159.0621 C   0  0  0  0  0  0  0  0  0  0  0  0
  152.1368  145.3364  160.3389 C   0  0  0  0  0  0  0  0  0  0  0  0
  152.2799  143.9217  160.9331 C   0  0  1  0  0  0  0  0  0  0  0  0
  151.0339  143.5113  161.4650 O   0  0  0  0  0  0  0  0  0  0  0  0
  153.6983  139.2518  157.1838 H   0  0  0  0  0  0  0  0  0  0  0  0
  152.9090  137.9368  157.9923 H   0  0  0  0  0  0  0  0  0  0  0  0
  151.2051  140.8169  156.7820 H   0  0  0  0  0  0  0  0  0  0  0  0
  149.2469  138.7596  153.5263 H   0  0  0  0  0  0  0  0  0  0  0  0
  150.5516  136.8058  154.0119 H   0  0  0  0  0  0  0  0  0  0  0  0
  154.1621  140.3145  159.1106 H   0  0  0  0  0  0  0  0  0  0  0  0
  152.0783  141.1769  160.9874 H   0  0  0  0  0  0  0  0  0  0  0  0
  153.7992  141.4214  161.1127 H   0  0  0  0  0  0  0  0  0  0  0  0
  153.7885  143.2509  159.5758 H   0  0  0  0  0  0  0  0  0  0  0  0
  152.3397  142.2667  157.8537 H   0  0  0  0  0  0  0  0  0  0  0  0
  150.9246  142.5592  158.8324 H   0  0  0  0  0  0  0  0  0  0  0  0
  152.7975  144.6819  157.6756 H   0  0  0  0  0  0  0  0  0  0  0  0
  151.1669  144.3469  157.1454 H   0  0  0  0  0  0  0  0  0  0  0  0
  151.2563  146.3525  158.6394 H   0  0  0  0  0  0  0  0  0  0  0  0
  150.2467  145.0952  159.3088 H   0  0  0  0  0  0  0  0  0  0  0  0
  153.1284  145.7239  160.1022 H   0  0  0  0  0  0  0  0  0  0  0  0
  151.7152  146.0169  161.0797 H   0  0  0  0  0  0  0  0  0  0  0  0
  152.9820  143.9736  161.7660 H   0  0  0  0  0  0  0  0  0  0  0  0
  150.6805  144.2182  161.9826 H   0  0  0  0  0  0  0  0  0  0  0  0
  1  2  2  0  0  0  0
  2  3  1  0  0  0  0
  2 14  1  0  0  0  0
  3  4  1  0  0  0  0
  3 23  1  0  0  0  0
  3 24  1  0  0  0  0
  4 12  1  0  0  0  0
  4  5  1  0  0  0  0
  5  6  2  0  0  0  0
  5 25  1  0  0  0  0
  6  7  1  0  0  0  0
  6 10  1  0  0  0  0
  7  8  2  0  0  0  0
  7  9  1  0  0  0  0
 10 11  2  0  0  0  0
 10 26  1  0  0  0  0
 11 12  1  0  0  0  0
 11 27  1  0  0  0  0
 12 13  2  0  0  0  0
 14 15  1  0  0  0  0
 14 28  1  0  0  0  0
 15 16  1  0  0  0  0
 15 29  1  0  0  0  0
 15 30  1  0  0  0  0
 16 21  1  0  0  0  0
 16 17  1  0  0  0  0
 16 31  1  0  0  0  0
 17 18  1  0  0  0  0
 17 32  1  0  0  0  0
 17 33  1  0  0  0  0
 18 19  1  0  0  0  0
 18 34  1  0  0  0  0
 18 35  1  0  0  0  0
 19 20  1  0  0  0  0
 19 36  1  0  0  0  0
 19 37  1  0  0  0  0
 20 21  1  0  0  0  0
 20 38  1  0  0  0  0
 20 39  1  0  0  0  0
 21 22  1  0  0  0  0
 21 40  1  0  0  0  0
 22 41  1  0  0  0  0
M  CHG  1   7   1
M  CHG  1   9  -1
M  END
> <s_m_source_file>
AV-unprocessed.smi

> <i_m_source_file_index>
771

> <i_lp_mmshare_version>
43012

> <i_f3d_flags>
0

> <s_epik_input>
Tz1jMVtjSF1bY0hdYyhbTitdKD1PKVtPLV0pW2NIXW4xW0NIMl1DKD1PKVtOSF1bQ0gyXVtDQEBIXTJbQ0gyXVtDSDJdW0NIMl1bQ0gyXVtDQEhdMltPSF0=

> <s_epik_cmdline>
J2VwaWtfcHl0aG9uJywgJy1waCcsICc3LjAnLCAnLXRuJywgJzgnLCAnLW1hJywgJzIwMCcsICctbWV0YWxfYmluZGluZycsICctaW1hZScsICc8aW5maWxlLm1hZT4nLCAnLW9tYWUnLCAnPG91dGZpbGUubWFlPic=

> <r_lp_tautomer_probability>
1

> <r_epik_Ionization_Penalty>
3.77175e-07

> <r_epik_Ionization_Penalty_Charging>
7.70067e-11

> <r_epik_Ionization_Penalty_Neutral>
3.77098e-07

> <r_epik_State_Penalty>
-0

> <r_epik_Charging_Adjusted_Penalty>
7.70067e-11

> <i_epik_Tot_Q>
0

> <i_epik_Tot_abs_Q>
2

> <r_epik_Metal_State_Penalty>
-0

> <b_epik_Metal_Only>
0

> <s_lp_Force_Field>
OPLS_2005

> <r_lp_Energy>
25.2575

> <b_lp_Chiralities_Consistent>
1

> <s_lp_Variant>
AV-unprocessed.smi:771-2

> <Gold.Version>
5.8.1

> <Gold.Id.Protein>
6NUR|6NUR_protein|mol2

> <Gold.PLP.Fitness>
51.9156

> <Gold.PLP.PLP>
-48.5155

> <Gold.PLP.part.hbond>
-4.7038

> <Gold.PLP.part.metal>
0.0000

> <Gold.PLP.part.buried>
-5.4214

> <Gold.PLP.part.nonpolar>
-42.1108

> <Gold.PLP.part.repulsive>
4.2047

> <Gold.PLP.ligand.clash>
0.0000

> <Gold.PLP.ligand.torsion>
1.4356

> <Gold.PLP.Chemscore.Hbond>
2.0744

> <Gold.PLP.Chemscore.CHOScore>
0.0000

> <Gold.PLP.Chemscore.Metal>
0.0000

> <Gold.Chemscore.Hbonds>
donor molecule, donor type, donor heavy atom, donor atom, acceptor molecule, acceptor atom, score
      P1  H  6933  6945       L1    22  0.22
      P1  H  8011  8017       L1     8  0.82
      P1  H 10752 10765       L1    13  1.00

> <Gold.PLP.Chemscore.Internal.Correction>
0.0482

> <Gold.Rescore>
     Score         DG    S(hbond)    S(metal)    S(lipo)     H(rot)  DE(clash)    DE(int)     intcor
     14.14     -18.31       1.77        0.00     113.28       2.48       1.29       2.88       ----

> <Gold.Chemscore.Fitness>
14.1444

> <Gold.Chemscore.DG>
-18.3136

> <Gold.Chemscore.ZeroCoef>
-5.4800

> <Gold.Chemscore.Hbond>
1.7714

> <Gold.Chemscore.Metal>
0.0000

> <Gold.Chemscore.Lipo>
113.2826

> <Gold.Chemscore.Internal_Hbond>
0.0000

> <Gold.Chemscore.DEClash>
1.2862

> <Gold.Chemscore.DEInternal>
2.8830

> <Gold.Chemscore.Rot>
2.4753

> <Gold.Chemscore.Internal.Correction>
   9.000000E+99

> <Gold.Chemscore.Hbonds>
donor molecule, donor type, donor heavy atom, donor atom, acceptor molecule, acceptor atom, score
      P1  H  6933  6945       L1    22  0.08
      P1  H  8011  8017       L1     8  0.81
      P1  H 10752 10765       L1    13  0.97

> <Gold.Chemscore.Hbond.Weighted>
-5.9164

> <Gold.Chemscore.Metal.Weighted>
-0.0000

> <Gold.Chemscore.Lipo.Weighted>
-13.2541

> <Gold.Chemscore.Internal_Hbond.Weighted>
0.0000

> <Gold.Chemscore.DEClash.Weighted>
1.2862

> <Gold.Chemscore.DEInternal.Weighted>
2.8830

> <Gold.Chemscore.Rot.Weighted>
6.3369

> <Gold.Chemscore.Internal.Correction.Weighted>
   9.000000E+99

> <Gold.Protein.RotatedTorsions>
[ 6907 6896 6895 6894 ] final   64.76 input  -60.11 | X-H torsion
[ 7974 7965 7964 7962 ] final   79.59 input  175.53 | X-H torsion
[ 8008 7997 7996 7995 ] final   94.79 input   59.86 | X-H torsion
[ 10167 10162 10161 10158 ] final  -86.91 input  -65.29 | X-H torsion
[ 10718 10713 10712 10709 ] final   81.03 input   66.30 | X-H torsion
[ 10763 10752 10751 10750 ] final -155.48 input  -60.55 | X-H torsion
[ 11005 11000 10999 10996 ] final  105.76 input  -57.11 | X-H torsion

> <Gold.Protein.ActiveResidues>
 VAL166  LYS551  ARG553  GLY616  TRP617  ASP618  TYR619  PRO620  LYS621  CYS622 
 ASP623  PHE694  ASN695  SER759  ASP760  ASP761  ALA762  ILE779  LEU786  VAL792 
 PHE793  MET794  SER795  GLU796  ALA797  LYS798  CYS799  TRP800  GLU811  SER814 

> <Gold.Protein.RotatedAtoms>
  152.4356  134.5693  159.9916 H   0  0  0  0  0  0  0  0  0  0  0  0  # atno 6907 bound_to 6896
  151.5804  133.3373  159.3015 H   0  0  0  0  0  0  0  0  0  0  0  0  # atno 6908 bound_to 6896
  150.8254  134.7517  159.6872 H   0  0  0  0  0  0  0  0  0  0  0  0  # atno 6909 bound_to 6896
  145.6623  139.2474  143.1916 H   0  0  0  0  0  0  0  0  0  0  0  0  # atno 7974 bound_to 7965
  156.0618  140.3295  155.7471 H   0  0  0  0  0  0  0  0  0  0  0  0  # atno 8008 bound_to 7997
  155.5442  140.0604  157.2881 H   0  0  0  0  0  0  0  0  0  0  0  0  # atno 8009 bound_to 7997
  154.4485  140.1905  156.0610 H   0  0  0  0  0  0  0  0  0  0  0  0  # atno 8010 bound_to 7997
  140.3895  143.2711  151.9282 H   0  0  0  0  0  0  0  0  0  0  0  0  # atno 10167 bound_to 10162
  157.6822  130.9986  150.2167 H   0  0  0  0  0  0  0  0  0  0  0  0  # atno 10718 bound_to 10713
  154.7784  135.3167  154.8043 H   0  0  0  0  0  0  0  0  0  0  0  0  # atno 10763 bound_to 10752
  153.8761  135.6839  153.4775 H   0  0  0  0  0  0  0  0  0  0  0  0  # atno 10764 bound_to 10752
  153.1413  135.4738  154.9437 H   0  0  0  0  0  0  0  0  0  0  0  0  # atno 10765 bound_to 10752
  139.8806  134.9347  156.5564 H   0  0  0  0  0  0  0  0  0  0  0  0  # atno 11005 bound_to 11000
  146.1115  140.7422  142.9501 LP  0  0  0  0  0  0  0  0  0  0  0  0  # atno 17320 bound_to 7965
  144.7085  140.3946  143.7099 LP  0  0  0  0  0  0  0  0  0  0  0  0  # atno 17321 bound_to 7965
  139.4790  144.5741  151.8041 LP  0  0  0  0  0  0  0  0  0  0  0  0  # atno 17342 bound_to 10162
  140.4854  144.1389  150.5940 LP  0  0  0  0  0  0  0  0  0  0  0  0  # atno 17343 bound_to 10162
  156.2826  130.3735  149.7920 LP  0  0  0  0  0  0  0  0  0  0  0  0  # atno 17370 bound_to 10713
  156.5603  130.8380  151.3327 LP  0  0  0  0  0  0  0  0  0  0  0  0  # atno 17371 bound_to 10713
  140.8202  133.8360  155.8889 LP  0  0  0  0  0  0  0  0  0  0  0  0  # atno 17394 bound_to 11000
  140.9425  134.1882  157.4787 LP  0  0  0  0  0  0  0  0  0  0  0  0  # atno 17395 bound_to 11000

$$$$
