AV-unprocessed.smi:1885|AV-procd|sdf|7650|dock4
  -GOLD-   22720 9383D 1   1.00000     0.00000
 Structure written by MMmdl.
 43 45  0  0  0  0  0  0  0  0  1 V2000
  145.2296  144.3103  153.7041 C   0  0  0  0  0  0  0  0  0  0  0  0
  146.4654  143.7123  153.3403 O   0  0  0  0  0  0  0  0  0  0  0  0
  146.6813  142.3993  153.7004 C   0  0  0  0  0  0  0  0  0  0  0  0
  145.8020  141.6414  154.5140 C   0  0  0  0  0  0  0  0  0  0  0  0
  146.1018  140.3030  154.8347 C   0  0  0  0  0  0  0  0  0  0  0  0
  147.2764  139.6979  154.3444 C   0  0  0  0  0  0  0  0  0  0  0  0
  147.5995  138.2617  154.7123 C   0  0  0  0  0  0  0  0  0  0  0  0
  148.6553  138.1758  155.6556 O   0  0  0  0  0  0  0  0  0  0  0  0
  149.6557  137.2420  155.2848 C   0  0  0  0  0  0  0  0  0  0  0  0
  150.9090  138.0092  154.8397 C   0  0  2  0  0  0  0  0  0  0  0  0
  151.7753  137.1140  154.1706 O   0  0  0  0  0  0  0  0  0  0  0  0
  151.6490  138.6657  156.0215 C   0  0  0  0  0  0  0  0  0  0  0  0
  151.2646  140.0527  156.2096 N   0  0  0  0  0  0  0  0  0  0  0  0
  150.4828  140.8007  155.4072 C   0  0  0  0  0  0  0  0  0  0  0  0
  150.2593  142.0591  155.7761 N   0  0  0  0  0  0  0  0  0  0  0  0
  150.9798  142.1370  156.9558 C   0  0  0  0  0  0  0  0  0  0  0  0
  151.1577  143.2138  157.8537 C   0  0  0  0  0  0  0  0  0  0  0  0
  151.9494  143.0567  159.0107 C   0  0  0  0  0  0  0  0  0  0  0  0
  152.1092  144.0988  159.8606 F   0  0  0  0  0  0  0  0  0  0  0  0
  152.5745  141.8224  159.2866 C   0  0  0  0  0  0  0  0  0  0  0  0
  153.3327  141.6805  160.3995 F   0  0  0  0  0  0  0  0  0  0  0  0
  152.4121  140.7356  158.4064 C   0  0  0  0  0  0  0  0  0  0  0  0
  151.6213  140.8974  157.2543 C   0  0  0  0  0  0  0  0  0  0  0  0
  148.1586  140.4501  153.5420 C   0  0  0  0  0  0  0  0  0  0  0  0
  147.8586  141.7882  153.2224 C   0  0  0  0  0  0  0  0  0  0  0  0
  145.2098  145.3401  153.3482 H   0  0  0  0  0  0  0  0  0  0  0  0
  145.1014  144.3335  154.7871 H   0  0  0  0  0  0  0  0  0  0  0  0
  144.3857  143.7887  153.2507 H   0  0  0  0  0  0  0  0  0  0  0  0
  144.8904  142.0649  154.9073 H   0  0  0  0  0  0  0  0  0  0  0  0
  145.4237  139.7409  155.4598 H   0  0  0  0  0  0  0  0  0  0  0  0
  146.6976  137.8019  155.1190 H   0  0  0  0  0  0  0  0  0  0  0  0
  147.8704  137.7101  153.8105 H   0  0  0  0  0  0  0  0  0  0  0  0
  149.8895  136.5780  156.1188 H   0  0  0  0  0  0  0  0  0  0  0  0
  149.2831  136.6241  154.4659 H   0  0  0  0  0  0  0  0  0  0  0  0
  150.6144  138.7761  154.1219 H   0  0  0  0  0  0  0  0  0  0  0  0
  151.4832  137.0246  153.2765 H   0  0  0  0  0  0  0  0  0  0  0  0
  151.4344  138.1296  156.9468 H   0  0  0  0  0  0  0  0  0  0  0  0
  152.7293  138.6149  155.8768 H   0  0  0  0  0  0  0  0  0  0  0  0
  150.0516  140.3975  154.5024 H   0  0  0  0  0  0  0  0  0  0  0  0
  150.6837  144.1630  157.6532 H   0  0  0  0  0  0  0  0  0  0  0  0
  152.8884  139.7889  158.6141 H   0  0  0  0  0  0  0  0  0  0  0  0
  149.0695  140.0067  153.1674 H   0  0  0  0  0  0  0  0  0  0  0  0
  148.5413  142.3530  152.6047 H   0  0  0  0  0  0  0  0  0  0  0  0
  1  2  1  0  0  0  0
  1 26  1  0  0  0  0
  1 27  1  0  0  0  0
  1 28  1  0  0  0  0
  2  3  1  0  0  0  0
  3 25  1  0  0  0  0
  3  4  2  0  0  0  0
  4  5  1  0  0  0  0
  4 29  1  0  0  0  0
  5  6  2  0  0  0  0
  5 30  1  0  0  0  0
  6  7  1  0  0  0  0
  6 24  1  0  0  0  0
  7  8  1  0  0  0  0
  7 31  1  0  0  0  0
  7 32  1  0  0  0  0
  8  9  1  0  0  0  0
  9 10  1  0  0  0  0
  9 33  1  0  0  0  0
  9 34  1  0  0  0  0
 10 11  1  0  0  0  0
 10 12  1  0  0  0  0
 10 35  1  0  0  0  0
 11 36  1  0  0  0  0
 12 13  1  0  0  0  0
 12 37  1  0  0  0  0
 12 38  1  0  0  0  0
 13 23  1  0  0  0  0
 13 14  1  0  0  0  0
 14 15  2  0  0  0  0
 14 39  1  0  0  0  0
 15 16  1  0  0  0  0
 16 23  2  0  0  0  0
 16 17  1  0  0  0  0
 17 18  2  0  0  0  0
 17 40  1  0  0  0  0
 18 19  1  0  0  0  0
 18 20  1  0  0  0  0
 20 21  1  0  0  0  0
 20 22  2  0  0  0  0
 22 23  1  0  0  0  0
 22 41  1  0  0  0  0
 24 25  2  0  0  0  0
 24 42  1  0  0  0  0
 25 43  1  0  0  0  0
M  END
> <s_m_source_file>
AV-unprocessed.smi

> <i_m_source_file_index>
1885

> <i_lp_mmshare_version>
43012

> <i_f3d_flags>
0

> <s_epik_input>
W0NIM11PYzFbY0hdW2NIXWMoW2NIXVtjSF0xKVtDSDJdT1tDSDJdW0NASF0oW09IXSlbQ0gyXW4oW2NIXW4yKWMoYzIzKVtjSF1jKEYpYyhGKVtjSF0z

> <s_epik_cmdline>
J2VwaWtfcHl0aG9uJywgJy1waCcsICc3LjAnLCAnLXRuJywgJzgnLCAnLW1hJywgJzIwMCcsICctbWV0YWxfYmluZGluZycsICctaW1hZScsICc8aW5maWxlLm1hZT4nLCAnLW9tYWUnLCAnPG91dGZpbGUubWFlPic=

> <r_lp_tautomer_probability>
1

> <r_epik_Ionization_Penalty>
0.0160256

> <r_epik_Ionization_Penalty_Charging>
0

> <r_epik_Ionization_Penalty_Neutral>
0.0160256

> <r_epik_State_Penalty>
0.0126263

> <r_epik_Charging_Adjusted_Penalty>
0.0126263

> <i_epik_Tot_Q>
0

> <i_epik_Tot_abs_Q>
0

> <r_epik_Metal_State_Penalty>
1.27616e-05

> <b_epik_Metal_Only>
0

> <s_lp_Force_Field>
OPLS_2005

> <r_lp_Energy>
16.1682

> <b_lp_Chiralities_Consistent>
1

> <s_lp_Variant>
AV-unprocessed.smi:1885-1

> <Gold.Version>
5.8.1

> <Gold.Id.Protein>
6NUR|6NUR_protein|mol2

> <Gold.PLP.Fitness>
50.1302

> <Gold.PLP.PLP>
-47.0230

> <Gold.PLP.part.hbond>
-2.7340

> <Gold.PLP.part.metal>
0.0000

> <Gold.PLP.part.buried>
-4.8666

> <Gold.PLP.part.nonpolar>
-39.7622

> <Gold.PLP.part.repulsive>
0.9800

> <Gold.PLP.ligand.clash>
0.0000

> <Gold.PLP.ligand.torsion>
1.4854

> <Gold.PLP.Chemscore.Hbond>
1.9913

> <Gold.PLP.Chemscore.CHOScore>
0.0000

> <Gold.PLP.Chemscore.Metal>
0.0000

> <Gold.Chemscore.Hbonds>
donor molecule, donor type, donor heavy atom, donor atom, acceptor molecule, acceptor atom, score
      L1  H    11    36       P1  7949  0.86
      P1  H 10752 10764       L1    11  0.70

> <Gold.PLP.Chemscore.Internal.Correction>
0.1043

> <Gold.Rescore>
     Score         DG    S(hbond)    S(metal)    S(lipo)     H(rot)  DE(clash)    DE(int)     intcor
     13.14     -14.69       1.49        0.00     100.29       2.93       0.08       1.48       ----

> <Gold.Chemscore.Fitness>
13.1354

> <Gold.Chemscore.DG>
-14.6943

> <Gold.Chemscore.ZeroCoef>
-5.4800

> <Gold.Chemscore.Hbond>
1.4940

> <Gold.Chemscore.Metal>
0.0000

> <Gold.Chemscore.Lipo>
100.2918

> <Gold.Chemscore.Internal_Hbond>
0.0000

> <Gold.Chemscore.DEClash>
0.0761

> <Gold.Chemscore.DEInternal>
1.4828

> <Gold.Chemscore.Rot>
2.9335

> <Gold.Chemscore.Internal.Correction>
   9.000000E+99

> <Gold.Chemscore.Hbonds>
donor molecule, donor type, donor heavy atom, donor atom, acceptor molecule, acceptor atom, score
      L1  H    11    36       P1  7949  0.72
      P1  H 10752 10764       L1    11  0.07

> <Gold.Chemscore.Hbond.Weighted>
-4.9899

> <Gold.Chemscore.Metal.Weighted>
-0.0000

> <Gold.Chemscore.Lipo.Weighted>
-11.7341

> <Gold.Chemscore.Internal_Hbond.Weighted>
0.0000

> <Gold.Chemscore.DEClash.Weighted>
0.0761

> <Gold.Chemscore.DEInternal.Weighted>
1.4828

> <Gold.Chemscore.Rot.Weighted>
7.5097

> <Gold.Chemscore.Internal.Correction.Weighted>
   9.000000E+99

> <Gold.Protein.RotatedTorsions>
[ 6907 6896 6895 6894 ] final   38.77 input  -60.11 | X-H torsion
[ 7974 7965 7964 7962 ] final  162.17 input  175.53 | X-H torsion
[ 8008 7997 7996 7995 ] final -117.19 input   59.86 | X-H torsion
[ 10167 10162 10161 10158 ] final   46.59 input  -65.29 | X-H torsion
[ 10718 10713 10712 10709 ] final  -30.61 input   66.30 | X-H torsion
[ 10763 10752 10751 10750 ] final  -92.65 input  -60.55 | X-H torsion
[ 11005 11000 10999 10996 ] final -116.51 input  -57.11 | X-H torsion

> <Gold.Protein.ActiveResidues>
 VAL166  LYS551  ARG553  GLY616  TRP617  ASP618  TYR619  PRO620  LYS621  CYS622 
 ASP623  PHE694  ASN695  SER759  ASP760  ASP761  ALA762  ILE779  LEU786  VAL792 
 PHE793  MET794  SER795  GLU796  ALA797  LYS798  CYS799  TRP800  GLU811  SER814 

> <Gold.Protein.RotatedAtoms>
  152.1608  134.8914  160.0541 H   0  0  0  0  0  0  0  0  0  0  0  0  # atno 6907 bound_to 6896
  151.9910  133.3786  159.4152 H   0  0  0  0  0  0  0  0  0  0  0  0  # atno 6908 bound_to 6896
  150.6887  134.3859  159.5098 H   0  0  0  0  0  0  0  0  0  0  0  0  # atno 6909 bound_to 6896
  144.7650  139.8001  143.6318 H   0  0  0  0  0  0  0  0  0  0  0  0  # atno 7974 bound_to 7965
  155.0798  140.0394  157.2635 H   0  0  0  0  0  0  0  0  0  0  0  0  # atno 8008 bound_to 7997
  154.6916  140.2654  155.6782 H   0  0  0  0  0  0  0  0  0  0  0  0  # atno 8009 bound_to 7997
  156.2730  140.2758  156.1496 H   0  0  0  0  0  0  0  0  0  0  0  0  # atno 8010 bound_to 7997
  140.3123  144.2805  150.6197 H   0  0  0  0  0  0  0  0  0  0  0  0  # atno 10167 bound_to 10162
  156.3977  130.4384  149.7346 H   0  0  0  0  0  0  0  0  0  0  0  0  # atno 10718 bound_to 10713
  154.6881  135.5223  153.8355 H   0  0  0  0  0  0  0  0  0  0  0  0  # atno 10763 bound_to 10752
  153.0612  135.6569  154.0467 H   0  0  0  0  0  0  0  0  0  0  0  0  # atno 10764 bound_to 10752
  154.0345  135.2982  155.3343 H   0  0  0  0  0  0  0  0  0  0  0  0  # atno 10765 bound_to 10752
  141.0417  133.9825  157.2984 H   0  0  0  0  0  0  0  0  0  0  0  0  # atno 11005 bound_to 11000
  146.1748  139.4914  142.9904 LP  0  0  0  0  0  0  0  0  0  0  0  0  # atno 17320 bound_to 7965
  145.6499  141.0265  143.1766 LP  0  0  0  0  0  0  0  0  0  0  0  0  # atno 17321 bound_to 7965
  140.5557  143.2199  151.7852 LP  0  0  0  0  0  0  0  0  0  0  0  0  # atno 17342 bound_to 10162
  139.4891  144.4417  151.9757 LP  0  0  0  0  0  0  0  0  0  0  0  0  # atno 17343 bound_to 10162
  156.4375  130.7845  151.2866 LP  0  0  0  0  0  0  0  0  0  0  0  0  # atno 17370 bound_to 10713
  157.7502  131.0135  150.3427 LP  0  0  0  0  0  0  0  0  0  0  0  0  # atno 17371 bound_to 10713
  139.9281  135.0201  156.8304 LP  0  0  0  0  0  0  0  0  0  0  0  0  # atno 17394 bound_to 11000
  140.6222  133.9983  155.7623 LP  0  0  0  0  0  0  0  0  0  0  0  0  # atno 17395 bound_to 11000

$$$$
