AV-unprocessed.smi:3011|AV-procd|sdf|11459|dock9
  -GOLD-   2272016393D 1   1.00000     0.00000
 Structure written by MMmdl.
 47 49  0  0  0  0  0  0  0  0  2 V2000
  156.7926  139.5924  159.4661 C   0  0  0  0  0  0  0  0  0  0  0  0
  155.6247  139.3750  158.6884 O   0  0  0  0  0  0  0  0  0  0  0  0
  155.2590  138.0740  158.4076 C   0  0  0  0  0  0  0  0  0  0  0  0
  155.9355  136.9382  158.9206 C   0  0  0  0  0  0  0  0  0  0  0  0
  155.5029  135.6410  158.5911 C   0  0  0  0  0  0  0  0  0  0  0  0
  154.3928  135.4627  157.7481 C   0  0  0  0  0  0  0  0  0  0  0  0
  153.7142  136.5819  157.2334 C   0  0  0  0  0  0  0  0  0  0  0  0
  154.1425  137.8932  157.5592 C   0  0  0  0  0  0  0  0  0  0  0  0
  153.5311  139.0358  157.0918 O   0  0  0  0  0  0  0  0  0  0  0  0
  152.2453  138.9352  156.4966 C   0  0  0  0  0  0  0  0  0  0  0  0
  151.2122  139.5223  157.4688 C   0  0  0  0  0  0  0  0  0  0  0  0
  151.0225  140.9668  157.2685 N   0  0  0  0  0  0  0  0  0  0  0  0
  150.2393  141.6416  156.3759 C   0  0  0  0  0  0  0  0  0  0  0  0
  149.3130  141.0359  155.3576 C   0  0  2  0  0  0  0  0  0  0  0  0
  150.0288  140.0294  154.4374 C   0  0  0  0  0  0  0  0  0  0  0  0
  148.5903  142.0463  154.5883 N   0  0  0  0  0  0  0  0  0  0  0  0
  147.6041  141.8027  153.7141 C   0  0  0  0  0  0  0  0  0  0  0  0
  147.1938  140.6732  153.4613 O   0  0  0  0  0  0  0  0  0  0  0  0
  150.4212  142.9729  156.6142 N   0  3  0  0  0  0  0  0  0  0  0  0
  151.3416  143.1501  157.6469 C   0  0  0  0  0  0  0  0  0  0  0  0
  151.8452  144.3088  158.2298 C   0  0  0  0  0  0  0  0  0  0  0  0
  152.7817  144.1377  159.2704 C   0  0  0  0  0  0  0  0  0  0  0  0
  153.1837  142.8537  159.6926 C   0  0  0  0  0  0  0  0  0  0  0  0
  152.6645  141.6864  159.0947 C   0  0  0  0  0  0  0  0  0  0  0  0
  151.7367  141.8648  158.0689 C   0  0  0  0  0  0  0  0  0  0  0  0
  156.9446  140.6639  159.5939 H   0  0  0  0  0  0  0  0  0  0  0  0
  157.6794  139.1907  158.9745 H   0  0  0  0  0  0  0  0  0  0  0  0
  156.6978  139.1523  160.4596 H   0  0  0  0  0  0  0  0  0  0  0  0
  156.7915  137.0349  159.5709 H   0  0  0  0  0  0  0  0  0  0  0  0
  156.0240  134.7814  158.9862 H   0  0  0  0  0  0  0  0  0  0  0  0
  154.0615  134.4662  157.4954 H   0  0  0  0  0  0  0  0  0  0  0  0
  152.8671  136.4079  156.5878 H   0  0  0  0  0  0  0  0  0  0  0  0
  152.2150  139.4852  155.5551 H   0  0  0  0  0  0  0  0  0  0  0  0
  152.0071  137.8909  156.2885 H   0  0  0  0  0  0  0  0  0  0  0  0
  150.2463  139.0379  157.3241 H   0  0  0  0  0  0  0  0  0  0  0  0
  151.4947  139.3372  158.5054 H   0  0  0  0  0  0  0  0  0  0  0  0
  148.5510  140.4787  155.9020 H   0  0  0  0  0  0  0  0  0  0  0  0
  150.4915  139.2314  155.0191 H   0  0  0  0  0  0  0  0  0  0  0  0
  150.8111  140.5017  153.8423 H   0  0  0  0  0  0  0  0  0  0  0  0
  149.3248  139.5632  153.7477 H   0  0  0  0  0  0  0  0  0  0  0  0
  148.8683  143.0074  154.7272 H   0  0  0  0  0  0  0  0  0  0  0  0
  147.2171  142.7287  153.2605 H   0  0  0  0  0  0  0  0  0  0  0  0
  151.5395  145.2933  157.9068 H   0  0  0  0  0  0  0  0  0  0  0  0
  153.2008  145.0085  159.7535 H   0  0  0  0  0  0  0  0  0  0  0  0
  153.9044  142.7617  160.4921 H   0  0  0  0  0  0  0  0  0  0  0  0
  152.9795  140.7079  159.4252 H   0  0  0  0  0  0  0  0  0  0  0  0
  149.9488  143.7057  156.1005 H   0  0  0  0  0  0  0  0  0  0  0  0
  1  2  1  0  0  0  0
  1 26  1  0  0  0  0
  1 27  1  0  0  0  0
  1 28  1  0  0  0  0
  2  3  1  0  0  0  0
  3  8  1  0  0  0  0
  3  4  2  0  0  0  0
  4  5  1  0  0  0  0
  4 29  1  0  0  0  0
  5  6  2  0  0  0  0
  5 30  1  0  0  0  0
  6  7  1  0  0  0  0
  6 31  1  0  0  0  0
  7  8  2  0  0  0  0
  7 32  1  0  0  0  0
  8  9  1  0  0  0  0
  9 10  1  0  0  0  0
 10 11  1  0  0  0  0
 10 33  1  0  0  0  0
 10 34  1  0  0  0  0
 11 12  1  0  0  0  0
 11 35  1  0  0  0  0
 11 36  1  0  0  0  0
 12 25  1  0  0  0  0
 12 13  1  0  0  0  0
 13 14  1  0  0  0  0
 13 19  2  0  0  0  0
 14 15  1  0  0  0  0
 14 16  1  0  0  0  0
 14 37  1  0  0  0  0
 15 38  1  0  0  0  0
 15 39  1  0  0  0  0
 15 40  1  0  0  0  0
 16 17  1  0  0  0  0
 16 41  1  0  0  0  0
 17 18  2  0  0  0  0
 17 42  1  0  0  0  0
 19 20  1  0  0  0  0
 19 47  1  0  0  0  0
 20 25  2  0  0  0  0
 20 21  1  0  0  0  0
 21 22  2  0  0  0  0
 21 43  1  0  0  0  0
 22 23  1  0  0  0  0
 22 44  1  0  0  0  0
 23 24  2  0  0  0  0
 23 45  1  0  0  0  0
 24 25  1  0  0  0  0
 24 46  1  0  0  0  0
M  CHG  1  19   1
M  END
> <s_m_source_file>
AV-unprocessed.smi

> <i_m_source_file_index>
3011

> <i_lp_mmshare_version>
43012

> <i_f3d_flags>
0

> <s_epik_input>
W0NIM11PYzFbY0hdW2NIXVtjSF1bY0hdYzFPW0NIMl1bQ0gyXW4oYyhuMilbQ0BIXShbQ0gzXSlbTkhdW0NIXT1PKWMoYzIzKVtjSF1bY0hdW2NIXVtjSF0z

> <s_epik_cmdline>
J2VwaWtfcHl0aG9uJywgJy1waCcsICc3LjAnLCAnLXRuJywgJzgnLCAnLW1hJywgJzIwMCcsICctbWV0YWxfYmluZGluZycsICctaW1hZScsICc8aW5maWxlLm1hZT4nLCAnLW9tYWUnLCAnPG91dGZpbGUubWFlPic=

> <r_lp_tautomer_probability>
1

> <r_epik_Ionization_Penalty>
1.14644

> <r_epik_Ionization_Penalty_Charging>
1.14644

> <r_epik_Ionization_Penalty_Neutral>
5.5802e-08

> <r_epik_State_Penalty>
1.20743

> <r_epik_Charging_Adjusted_Penalty>
2.35387

> <i_epik_Tot_Q>
1

> <i_epik_Tot_abs_Q>
1

> <r_epik_Metal_State_Penalty>
1.28856

> <b_epik_Metal_Only>
0

> <s_lp_Force_Field>
OPLS_2005

> <r_lp_Energy>
19.8167

> <b_lp_Chiralities_Consistent>
1

> <s_lp_Variant>
AV-unprocessed.smi:3011-3

> <Gold.Version>
5.8.1

> <Gold.Id.Protein>
6NUR|6NUR_protein|mol2

> <Gold.PLP.Fitness>
55.0273

> <Gold.PLP.PLP>
-43.4512

> <Gold.PLP.part.hbond>
-3.8774

> <Gold.PLP.part.metal>
0.0000

> <Gold.PLP.part.buried>
-5.4498

> <Gold.PLP.part.nonpolar>
-33.7396

> <Gold.PLP.part.repulsive>
0.4215

> <Gold.PLP.ligand.clash>
0.0000

> <Gold.PLP.ligand.torsion>
1.1098

> <Gold.PLP.Chemscore.Hbond>
4.5520

> <Gold.PLP.Chemscore.CHOScore>
0.0000

> <Gold.PLP.Chemscore.Metal>
0.0000

> <Gold.Chemscore.Hbonds>
donor molecule, donor type, donor heavy atom, donor atom, acceptor molecule, acceptor atom, score
      L1  H    16    41       P1  8028  1.00
      L1  H    19    47       P1  8028  1.98
      P1  H  7997  8009       L1     2  0.62
      P1  H  7997  8010       L1     9  0.76

> <Gold.PLP.Chemscore.Internal.Correction>
0.1396

> <Gold.Rescore>
     Score         DG    S(hbond)    S(metal)    S(lipo)     H(rot)  DE(clash)    DE(int)     intcor
     20.52     -22.33       3.12        0.00     113.04       2.66       0.01       1.80       ----

> <Gold.Chemscore.Fitness>
20.5188

> <Gold.Chemscore.DG>
-22.3315

> <Gold.Chemscore.ZeroCoef>
-5.4800

> <Gold.Chemscore.Hbond>
3.1246

> <Gold.Chemscore.Metal>
0.0000

> <Gold.Chemscore.Lipo>
113.0424

> <Gold.Chemscore.Internal_Hbond>
0.0000

> <Gold.Chemscore.DEClash>
0.0102

> <Gold.Chemscore.DEInternal>
1.8025

> <Gold.Chemscore.Rot>
2.6604

> <Gold.Chemscore.Internal.Correction>
   9.000000E+99

> <Gold.Chemscore.Hbonds>
donor molecule, donor type, donor heavy atom, donor atom, acceptor molecule, acceptor atom, score
      L1  H    16    41       P1  8028  0.98
      L1  H    19    47       P1  8028  0.92
      P1  H  7997  8009       L1     2  0.17
      P1  H  7997  8010       L1     9  0.62

> <Gold.Chemscore.Hbond.Weighted>
-10.4362

> <Gold.Chemscore.Metal.Weighted>
-0.0000

> <Gold.Chemscore.Lipo.Weighted>
-13.2260

> <Gold.Chemscore.Internal_Hbond.Weighted>
0.0000

> <Gold.Chemscore.DEClash.Weighted>
0.0102

> <Gold.Chemscore.DEInternal.Weighted>
1.8025

> <Gold.Chemscore.Rot.Weighted>
6.8106

> <Gold.Chemscore.Internal.Correction.Weighted>
   9.000000E+99

> <Gold.Protein.RotatedTorsions>
[ 6907 6896 6895 6894 ] final  -49.88 input  -60.11 | X-H torsion
[ 7974 7965 7964 7962 ] final   96.04 input  175.53 | X-H torsion
[ 8008 7997 7996 7995 ] final   67.21 input   59.86 | X-H torsion
[ 10167 10162 10161 10158 ] final  -96.22 input  -65.29 | X-H torsion
[ 10718 10713 10712 10709 ] final -160.24 input   66.30 | X-H torsion
[ 10763 10752 10751 10750 ] final  166.33 input  -60.55 | X-H torsion
[ 11005 11000 10999 10996 ] final  156.34 input  -57.11 | X-H torsion

> <Gold.Protein.ActiveResidues>
 VAL166  LYS551  ARG553  GLY616  TRP617  ASP618  TYR619  PRO620  LYS621  CYS622 
 ASP623  PHE694  ASN695  SER759  ASP760  ASP761  ALA762  ILE779  LEU786  VAL792 
 PHE793  MET794  SER795  GLU796  ALA797  LYS798  CYS799  TRP800  GLU811  SER814 

> <Gold.Protein.RotatedAtoms>
  150.8762  134.8145  159.7190 H   0  0  0  0  0  0  0  0  0  0  0  0  # atno 6907 bound_to 6896
  152.4748  134.4869  159.9693 H   0  0  0  0  0  0  0  0  0  0  0  0  # atno 6908 bound_to 6896
  151.4950  133.3478  159.2895 H   0  0  0  0  0  0  0  0  0  0  0  0  # atno 6909 bound_to 6896
  145.4441  139.2298  143.3075 H   0  0  0  0  0  0  0  0  0  0  0  0  # atno 7974 bound_to 7965
  155.6894  140.3496  155.4887 H   0  0  0  0  0  0  0  0  0  0  0  0  # atno 8008 bound_to 7997
  155.9537  140.1124  157.0977 H   0  0  0  0  0  0  0  0  0  0  0  0  # atno 8009 bound_to 7997
  154.4127  140.1189  156.5073 H   0  0  0  0  0  0  0  0  0  0  0  0  # atno 8010 bound_to 7997
  140.2961  143.3191  152.0297 H   0  0  0  0  0  0  0  0  0  0  0  0  # atno 10167 bound_to 10162
  156.5793  130.8722  151.2860 H   0  0  0  0  0  0  0  0  0  0  0  0  # atno 10718 bound_to 10713
  154.3373  135.2754  155.2441 H   0  0  0  0  0  0  0  0  0  0  0  0  # atno 10763 bound_to 10752
  154.4726  135.5879  153.6336 H   0  0  0  0  0  0  0  0  0  0  0  0  # atno 10764 bound_to 10752
  152.9861  135.6092  154.3571 H   0  0  0  0  0  0  0  0  0  0  0  0  # atno 10765 bound_to 10752
  140.1666  134.8573  157.2639 H   0  0  0  0  0  0  0  0  0  0  0  0  # atno 11005 bound_to 11000
  146.2540  140.5193  142.8881 LP  0  0  0  0  0  0  0  0  0  0  0  0  # atno 17320 bound_to 7965
  144.8103  140.6373  143.6420 LP  0  0  0  0  0  0  0  0  0  0  0  0  # atno 17321 bound_to 7965
  139.4926  144.6490  151.6716 LP  0  0  0  0  0  0  0  0  0  0  0  0  # atno 17342 bound_to 10162
  140.5691  144.0139  150.6207 LP  0  0  0  0  0  0  0  0  0  0  0  0  # atno 17343 bound_to 10162
  157.7330  130.9724  150.1957 LP  0  0  0  0  0  0  0  0  0  0  0  0  # atno 17370 bound_to 10713
  156.2645  130.3714  149.8095 LP  0  0  0  0  0  0  0  0  0  0  0  0  # atno 17371 bound_to 10713
  140.2427  134.3776  155.7474 LP  0  0  0  0  0  0  0  0  0  0  0  0  # atno 17394 bound_to 11000
  141.2214  133.7274  156.8814 LP  0  0  0  0  0  0  0  0  0  0  0  0  # atno 17395 bound_to 11000

$$$$
