#       Name:                AV-unprocessed.smi:1769
#       Creating user name   scv26
#       Creation time:       Fri Mar 27 08:39:24 2020


#       File generated by GOLD software.
#

@<TRIPOS>MOLECULE
AV-unprocessed.smi:1769
    46    47     1
SMALL
NO_CHARGES


@<TRIPOS>ATOM
      1 ****        -5.8803  -0.0095   2.1455 C.3            1 S1                 0.0000
      2 ****        -4.4034   0.3882   2.1972 C.2            1 S1                 0.0000
      3 ****        -3.7956   0.2187   3.2544 O.2            1 S1                 0.0000
      4 ****        -3.8168   0.9032   1.0898 N.am           1 S1                 0.0000
      5 ****        -4.4629   1.0560  -0.2201 C.3            1 S1                 0.0000
      6 ****        -3.8628   0.0210  -1.1880 C.3            1 S1                 0.0000
      7 ****        -2.3318   0.1702  -1.2730 C.3            1 S1                 0.0000
      8 ****        -1.6768   0.1915   0.1290 C.3            1 S1                 0.0000
      9 ****        -0.1737   0.4843   0.0348 C.2            1 S1                 0.0000
     10 ****         0.2249   1.5312  -0.4769 O.2            1 S1                 0.0000
     11 ****         0.6523  -0.4501   0.5307 N.am           1 S1                 0.0000
     12 ****         2.1074  -0.3596   0.5327 C.3            1 S1                 0.0000
     13 ****         2.6989  -0.7641  -0.8275 C.3            1 S1                 0.0000
     14 ****         4.2106  -0.6509  -0.8493 C.ar           1 S1                 0.0000
     15 ****         4.8326   0.5619  -1.2197 C.ar           1 S1                 0.0000
     16 ****         6.2407   0.6427  -1.2277 C.ar           1 S1                 0.0000
     17 ****         6.9954  -0.4915  -0.8643 C.ar           1 S1                 0.0000
     18 ****         6.3651  -1.6350  -0.5154 N.pl3          1 S1                 1.0000
     19 ****         5.0191  -1.7528  -0.4954 C.ar           1 S1                 0.0000
     20 ****        -2.3862   1.2286   1.0291 C.3            1 S1                 0.0000
     21 ****        -6.0532  -0.7585   1.3722 H              1 S1                 0.0000
     22 ****        -6.5076   0.8594   1.9454 H              1 S1                 0.0000
     23 ****        -6.1967  -0.4365   3.0977 H              1 S1                 0.0000
     24 ****        -5.5464   0.9518  -0.1891 H              1 S1                 0.0000
     25 ****        -4.2797   2.0646  -0.5936 H              1 S1                 0.0000
     26 ****        -4.1149  -0.9845  -0.8483 H              1 S1                 0.0000
     27 ****        -4.3036   0.1331  -2.1789 H              1 S1                 0.0000
     28 ****        -1.9157  -0.6400  -1.8730 H              1 S1                 0.0000
     29 ****        -2.1022   1.0951  -1.8049 H              1 S1                 0.0000
     30 ****        -1.8082  -0.7944   0.5797 H              1 S1                 0.0000
     31 ****         0.2428  -1.2787   0.9380 H              1 S1                 0.0000
     32 ****         2.4166   0.6529   0.7991 H              1 S1                 0.0000
     33 ****         2.4883  -1.0159   1.3155 H              1 S1                 0.0000
     34 ****         2.4131  -1.7888  -1.0693 H              1 S1                 0.0000
     35 ****         2.2900  -0.1367  -1.6209 H              1 S1                 0.0000
     36 ****         4.2384   1.4221  -1.4930 H              1 S1                 0.0000
     37 ****         6.7338   1.5621  -1.5077 H              1 S1                 0.0000
     38 ****         8.0752  -0.5185  -0.8417 H              1 S1                 0.0000
     39 ****         4.6336  -2.7171  -0.1972 H              1 S1                 0.0000
     40 ****        -2.2669   2.2354   0.6247 H              1 S1                 0.0000
     41 ****        -1.9220   1.2524   2.0165 H              1 S1                 0.0000
     42 ****         6.9302  -2.4438  -0.2554 H              1 S1                 0.0000
     43 ****        -4.2680  -0.1685   4.0462 LP             1 S1                 0.0000
     44 ****        -2.8296   0.4682   3.3212 LP             1 S1                 0.0000
     45 ****        -0.4323   2.1953  -0.8335 LP             1 S1                 0.0000
     46 ****         1.2057   1.7172  -0.5359 LP             1 S1                 0.0000
@<TRIPOS>BOND
    1    1    2 1     
    2    1   21 1     
    3    1   22 1     
    4    1   23 1     
    5    2    3 2     
    6    2    4 am    
    7    4   20 1     
    8    4    5 1     
    9    5    6 1     
   10    5   24 1     
   11    5   25 1     
   12    6    7 1     
   13    6   26 1     
   14    6   27 1     
   15    7    8 1     
   16    7   28 1     
   17    7   29 1     
   18    8    9 1     
   19    8   20 1     
   20    8   30 1     
   21    9   10 2     
   22    9   11 am    
   23   11   12 1     
   24   11   31 1     
   25   12   13 1     
   26   12   32 1     
   27   12   33 1     
   28   13   14 1     
   29   13   34 1     
   30   13   35 1     
   31   14   19 ar    
   32   14   15 ar    
   33   15   16 ar    
   34   15   36 1     
   35   16   17 ar    
   36   16   37 1     
   37   17   18 ar    
   38   17   38 1     
   39   18   19 ar    
   40   18   42 1     
   41   19   39 1     
   42   20   40 1     
   43   20   41 1     
   44    3   43 1     
   45    3   44 1     
   46   10   45 1     
   47   10   46 1     
@<TRIPOS>SUBSTRUCTURE
      1 S1             1
@<TRIPOS>SET
LONE_PAIRS      STATIC     ATOMS    <user>   **** ""
4 43 44 45 46
DONOR_HYDROGENS      STATIC     ATOMS    <user>   **** ""
2 31 42
ATOM$BLUE        STATIC     ATOMS    COLORGROUP SYSTEM
4 43 44 45 46
ATOM$RED        STATIC     ATOMS    COLORGROUP SYSTEM
2 31 42
