#       Name:                AV-unprocessed.smi:102
#       Creating user name   scv26
#       Creation time:       Thu Mar 26 17:47:12 2020


#       File generated by GOLD software.
#

@<TRIPOS>MOLECULE
AV-unprocessed.smi:102
    56    57     1
SMALL
NO_CHARGES


@<TRIPOS>ATOM
      1 ****        -3.9608   1.8228   0.3043 C.3            1 S1                 0.0000
      2 ****        -3.7804   0.3127   0.2282 C.2            1 S1                 0.0000
      3 ****        -4.7459  -0.4483   0.1655 O.2            1 S1                 0.0000
      4 ****        -2.4905  -0.0501   0.2406 O.3            1 S1                 0.0000
      5 ****        -2.1463  -1.4263   0.1946 C.3            1 S1                 0.0000
      6 ****        -0.6228  -1.6029   0.2652 C.3            1 S1                 0.0000
      7 ****        -0.1152  -1.1268   1.5095 O.3            1 S1                 0.0000
      8 ****         0.8576  -0.1440   1.3084 C.3            1 S1                 0.0000
      9 ****         0.1982   1.2135   1.5138 N.am           1 S1                 0.0000
     10 ****        -0.0454   2.1305   0.4932 C.2            1 S1                 0.0000
     11 ****        -0.6768   3.3114   0.6944 C.2            1 S1                 0.0000
     12 ****        -0.8779   4.1407  -0.3437 F              1 S1                 0.0000
     13 ****        -1.1525   3.6881   2.0206 C.2            1 S1                 0.0000
     14 ****        -1.7352   4.7341   2.2991 O.2            1 S1                 0.0000
     15 ****        -0.9018   2.7372   3.0117 N.am           1 S1                 0.0000
     16 ****        -0.2547   1.5163   2.8188 C.2            1 S1                 0.0000
     17 ****        -0.0998   0.7512   3.7700 O.2            1 S1                 0.0000
     18 ****         1.4058  -0.3842  -0.1081 C.3            1 S1                 0.0000
     19 ****         2.4154  -1.3889  -0.0546 O.3            1 S1                 0.0000
     20 ****         3.7021  -1.0516   0.1393 C.2            1 S1                 0.0000
     21 ****         4.6256  -2.2623   0.1453 C.3            1 S1                 0.0000
     22 ****         4.1351   0.0884   0.3071 O.2            1 S1                 0.0000
     23 ****         0.1663  -0.8941  -0.8411 C.3            1 S1                 0.0000
     24 ****         0.4822  -1.7655  -1.9209 O.3            1 S1                 0.0000
     25 ****         0.8334  -1.2578  -3.1154 C.2            1 S1                 0.0000
     26 ****         1.1353  -2.3404  -4.1430 C.3            1 S1                 0.0000
     27 ****         0.9251  -0.0623  -3.3950 O.2            1 S1                 0.0000
     28 ****        -1.2195   2.9494   3.9462 H              1 S1                 0.0000
     29 ****        -3.3090   2.3217  -0.4130 H              1 S1                 0.0000
     30 ****        -3.7165   2.1814   1.3041 H              1 S1                 0.0000
     31 ****        -4.9922   2.0966   0.0819 H              1 S1                 0.0000
     32 ****        -2.6191  -1.9536   1.0242 H              1 S1                 0.0000
     33 ****        -2.5260  -1.8645  -0.7294 H              1 S1                 0.0000
     34 ****        -0.3937  -2.6690   0.2399 H              1 S1                 0.0000
     35 ****         1.6361  -0.1854   2.0732 H              1 S1                 0.0000
     36 ****         0.2626   1.9345  -0.5202 H              1 S1                 0.0000
     37 ****         1.8155   0.5229  -0.5518 H              1 S1                 0.0000
     38 ****         4.3273  -2.9754  -0.6235 H              1 S1                 0.0000
     39 ****         4.5880  -2.7597   1.1143 H              1 S1                 0.0000
     40 ****         5.6546  -1.9584  -0.0477 H              1 S1                 0.0000
     41 ****        -0.4199  -0.0509  -1.2055 H              1 S1                 0.0000
     42 ****         0.4735  -3.1959  -4.0059 H              1 S1                 0.0000
     43 ****         2.1663  -2.6789  -4.0407 H              1 S1                 0.0000
     44 ****         0.9958  -1.9562  -5.1536 H              1 S1                 0.0000
     45 ****        -5.6749  -0.0783   0.1637 LP             1 S1                 0.0000
     46 ****        -4.6012  -1.4366   0.1163 LP             1 S1                 0.0000
     47 ****         0.2902  -1.8908   2.0115 LP             1 S1                 0.0000
     48 ****        -0.8670  -0.7390   2.0428 LP             1 S1                 0.0000
     49 ****        -1.9179   5.4100   1.5851 LP             1 S1                 0.0000
     50 ****        -2.0265   4.9090   3.2396 LP             1 S1                 0.0000
     51 ****         0.3626  -0.1254   3.6364 LP             1 S1                 0.0000
     52 ****        -0.4363   1.0060   4.6766 LP             1 S1                 0.0000
     53 ****         3.5073   0.8668   0.3067 LP             1 S1                 0.0000
     54 ****         5.1146   0.2361   0.4438 LP             1 S1                 0.0000
     55 ****         0.7296   0.6301  -2.7004 LP             1 S1                 0.0000
     56 ****         1.1951   0.2164  -4.3167 LP             1 S1                 0.0000
@<TRIPOS>BOND
    1    1    2 1     
    2    1   29 1     
    3    1   30 1     
    4    1   31 1     
    5    2    3 2     
    6    2    4 1     
    7    4    5 1     
    8    5    6 1     
    9    5   32 1     
   10    5   33 1     
   11    6   23 1     
   12    6    7 1     
   13    6   34 1     
   14    7    8 1     
   15    8    9 1     
   16    8   18 1     
   17    8   35 1     
   18    9   16 1     
   19    9   10 1     
   20   10   11 2     
   21   10   36 1     
   22   11   12 1     
   23   11   13 1     
   24   13   14 2     
   25   13   15 1     
   26   15   28 1     
   27   15   16 1     
   28   16   17 2     
   29   18   19 1     
   30   18   23 1     
   31   18   37 1     
   32   19   20 1     
   33   20   21 1     
   34   20   22 2     
   35   21   38 1     
   36   21   39 1     
   37   21   40 1     
   38   23   24 1     
   39   23   41 1     
   40   24   25 1     
   41   25   26 1     
   42   25   27 2     
   43   26   42 1     
   44   26   43 1     
   45   26   44 1     
   46    3   45 1     
   47    3   46 1     
   48    7   47 1     
   49    7   48 1     
   50   14   49 1     
   51   14   50 1     
   52   17   51 1     
   53   17   52 1     
   54   22   53 1     
   55   22   54 1     
   56   27   55 1     
   57   27   56 1     
@<TRIPOS>SUBSTRUCTURE
      1 S1             1
@<TRIPOS>SET
LONE_PAIRS      STATIC     ATOMS    <user>   **** ""
12 45 46 47 48 49 50 51 52 53 54 55 56
DONOR_HYDROGENS      STATIC     ATOMS    <user>   **** ""
1 28
ATOM$BLUE        STATIC     ATOMS    COLORGROUP SYSTEM
12 45 46 47 48 49 50 51 52 53 54 55 56
ATOM$RED        STATIC     ATOMS    COLORGROUP SYSTEM
1 28
