AV-unprocessed.smi:2563|AV-procd|sdf|10060|dock2
  -GOLD-   2272014 93D 1   1.00000     0.00000
 Structure written by MMmdl.
 34 35  0  0  0  0  0  0  0  0  1 V2000
  152.6763  138.8289  159.9194 C   0  0  0  0  0  0  0  0  0  0  0  0
  152.7132  139.5635  158.5728 C   0  0  0  0  0  0  0  0  0  0  0  0
  151.8014  140.7072  158.5429 N   0  0  0  0  0  0  0  0  0  0  0  0
  150.6894  140.6912  157.5940 C   0  0  0  0  0  0  0  0  0  0  0  0
  151.1080  140.1725  156.2069 C   0  0  2  0  0  0  0  0  0  0  0  0
  150.0227  140.4521  155.1481 C   0  0  0  0  0  0  0  0  0  0  0  0
  150.4130  139.8914  153.8553 N   0  0  0  0  0  0  0  0  0  0  0  0
  150.7068  138.4639  153.9637 C   0  0  0  0  0  0  0  0  0  0  0  0
  151.7607  138.2186  155.0571 C   0  0  0  0  0  0  0  0  0  0  0  0
  151.2981  138.7618  156.2886 O   0  0  0  0  0  0  0  0  0  0  0  0
  151.9462  141.7676  159.4705 C   0  0  0  0  0  0  0  0  0  0  0  0
  152.9939  141.7895  160.4243 C   0  0  0  0  0  0  0  0  0  0  0  0
  153.0651  142.8794  161.3082 C   0  0  0  0  0  0  0  0  0  0  0  0
  152.0853  143.8783  161.1830 C   0  0  0  0  0  0  0  0  0  0  0  0
  151.1029  143.8177  160.2591 N   0  0  0  0  0  0  0  0  0  0  0  0
  151.0386  142.7781  159.4205 N   0  0  0  0  0  0  0  0  0  0  0  0
  153.3499  137.9719  159.9094 H   0  0  0  0  0  0  0  0  0  0  0  0
  151.6748  138.4608  160.1431 H   0  0  0  0  0  0  0  0  0  0  0  0
  152.9840  139.4821  160.7364 H   0  0  0  0  0  0  0  0  0  0  0  0
  153.7317  139.8700  158.3332 H   0  0  0  0  0  0  0  0  0  0  0  0
  152.4262  138.8696  157.7824 H   0  0  0  0  0  0  0  0  0  0  0  0
  149.8888  140.0642  157.9885 H   0  0  0  0  0  0  0  0  0  0  0  0
  150.2571  141.6888  157.5178 H   0  0  0  0  0  0  0  0  0  0  0  0
  152.0401  140.6528  155.9031 H   0  0  0  0  0  0  0  0  0  0  0  0
  149.0735  140.0200  155.4683 H   0  0  0  0  0  0  0  0  0  0  0  0
  149.8612  141.5263  155.0523 H   0  0  0  0  0  0  0  0  0  0  0  0
  149.6672  140.0351  153.1821 H   0  0  0  0  0  0  0  0  0  0  0  0
  149.7954  137.9153  154.2043 H   0  0  0  0  0  0  0  0  0  0  0  0
  151.0612  138.0795  153.0071 H   0  0  0  0  0  0  0  0  0  0  0  0
  151.9275  137.1489  155.1840 H   0  0  0  0  0  0  0  0  0  0  0  0
  152.7205  138.6602  154.7845 H   0  0  0  0  0  0  0  0  0  0  0  0
  153.7278  141.0023  160.5015 H   0  0  0  0  0  0  0  0  0  0  0  0
  153.8413  142.9456  162.0559 H   0  0  0  0  0  0  0  0  0  0  0  0
  152.0875  144.7396  161.8346 H   0  0  0  0  0  0  0  0  0  0  0  0
  1  2  1  0  0  0  0
  1 17  1  0  0  0  0
  1 18  1  0  0  0  0
  1 19  1  0  0  0  0
  2  3  1  0  0  0  0
  2 20  1  0  0  0  0
  2 21  1  0  0  0  0
  3  4  1  0  0  0  0
  3 11  1  0  0  0  0
  4  5  1  0  0  0  0
  4 22  1  0  0  0  0
  4 23  1  0  0  0  0
  5 10  1  0  0  0  0
  5  6  1  0  0  0  0
  5 24  1  0  0  0  0
  6  7  1  0  0  0  0
  6 25  1  0  0  0  0
  6 26  1  0  0  0  0
  7  8  1  0  0  0  0
  7 27  1  0  0  0  0
  8  9  1  0  0  0  0
  8 28  1  0  0  0  0
  8 29  1  0  0  0  0
  9 10  1  0  0  0  0
  9 30  1  0  0  0  0
  9 31  1  0  0  0  0
 11 16  1  0  0  0  0
 11 12  2  0  0  0  0
 12 13  1  0  0  0  0
 12 32  1  0  0  0  0
 13 14  2  0  0  0  0
 13 33  1  0  0  0  0
 14 15  1  0  0  0  0
 14 34  1  0  0  0  0
 15 16  2  0  0  0  0
M  END
> <s_m_source_file>
AV-unprocessed.smi

> <i_m_source_file_index>
2563

> <i_lp_mmshare_version>
43012

> <i_f3d_flags>
0

> <s_epik_input>
bjFuW2NIXVtjSF1bY0hdYzFOKFtDSDJdW0NIM10pW0NIMl1bQ0BASF0yW0NIMl1bTkhdW0NIMl1bQ0gyXU8y

> <s_epik_cmdline>
J2VwaWtfcHl0aG9uJywgJy1waCcsICc3LjAnLCAnLXRuJywgJzgnLCAnLW1hJywgJzIwMCcsICctbWV0YWxfYmluZGluZycsICctaW1hZScsICc8aW5maWxlLm1hZT4nLCAnLW9tYWUnLCAnPG91dGZpbGUubWFlPic=

> <r_lp_tautomer_probability>
1

> <r_epik_Ionization_Penalty>
2.34719

> <r_epik_Ionization_Penalty_Charging>
0

> <r_epik_Ionization_Penalty_Neutral>
2.34719

> <r_epik_State_Penalty>
2.60452

> <r_epik_Charging_Adjusted_Penalty>
2.60452

> <i_epik_Tot_Q>
0

> <i_epik_Tot_abs_Q>
0

> <r_epik_Metal_State_Penalty>
2.56937

> <b_epik_Metal_Only>
0

> <s_lp_Force_Field>
OPLS_2005

> <r_lp_Energy>
25.5001

> <b_lp_Chiralities_Consistent>
1

> <s_lp_Variant>
AV-unprocessed.smi:2563-5

> <Gold.Version>
5.8.1

> <Gold.Id.Protein>
6NUR|6NUR_protein|mol2

> <Gold.PLP.Fitness>
38.1952

> <Gold.PLP.PLP>
-34.2574

> <Gold.PLP.part.hbond>
-3.5435

> <Gold.PLP.part.metal>
0.0000

> <Gold.PLP.part.buried>
-3.2664

> <Gold.PLP.part.nonpolar>
-25.8427

> <Gold.PLP.part.repulsive>
0.0987

> <Gold.PLP.ligand.clash>
0.0000

> <Gold.PLP.ligand.torsion>
0.3602

> <Gold.PLP.Chemscore.Hbond>
1.5387

> <Gold.PLP.Chemscore.CHOScore>
0.0000

> <Gold.PLP.Chemscore.Metal>
0.0000

> <Gold.Chemscore.Hbonds>
donor molecule, donor type, donor heavy atom, donor atom, acceptor molecule, acceptor atom, score
      L1  H     7    27       P1  7957  0.66
      P1  H  7989  7998       L1     7  0.99

> <Gold.PLP.Chemscore.Internal.Correction>
0.0420

> <Gold.Rescore>
     Score         DG    S(hbond)    S(metal)    S(lipo)     H(rot)  DE(clash)    DE(int)     intcor
     12.03     -13.79       0.74        0.00      79.77       1.36       0.04       1.72       ----

> <Gold.Chemscore.Fitness>
12.0327

> <Gold.Chemscore.DG>
-13.7912

> <Gold.Chemscore.ZeroCoef>
-5.4800

> <Gold.Chemscore.Hbond>
0.7379

> <Gold.Chemscore.Metal>
0.0000

> <Gold.Chemscore.Lipo>
79.7678

> <Gold.Chemscore.Internal_Hbond>
0.0000

> <Gold.Chemscore.DEClash>
0.0378

> <Gold.Chemscore.DEInternal>
1.7207

> <Gold.Chemscore.Rot>
1.3618

> <Gold.Chemscore.Internal.Correction>
   9.000000E+99

> <Gold.Chemscore.Hbonds>
donor molecule, donor type, donor heavy atom, donor atom, acceptor molecule, acceptor atom, score
      L1  H     7    27       P1  7957  0.62
      P1  H  7989  7998       L1     7  0.17

> <Gold.Chemscore.Hbond.Weighted>
-2.4645

> <Gold.Chemscore.Metal.Weighted>
-0.0000

> <Gold.Chemscore.Lipo.Weighted>
-9.3328

> <Gold.Chemscore.Internal_Hbond.Weighted>
0.0000

> <Gold.Chemscore.DEClash.Weighted>
0.0378

> <Gold.Chemscore.DEInternal.Weighted>
1.7207

> <Gold.Chemscore.Rot.Weighted>
3.4861

> <Gold.Chemscore.Internal.Correction.Weighted>
   9.000000E+99

> <Gold.Protein.RotatedTorsions>
[ 6907 6896 6895 6894 ] final   -8.12 input  -60.11 | X-H torsion
[ 7974 7965 7964 7962 ] final   72.73 input  175.53 | X-H torsion
[ 8008 7997 7996 7995 ] final   91.15 input   59.86 | X-H torsion
[ 10167 10162 10161 10158 ] final  173.70 input  -65.29 | X-H torsion
[ 10718 10713 10712 10709 ] final   72.25 input   66.30 | X-H torsion
[ 10763 10752 10751 10750 ] final -170.36 input  -60.55 | X-H torsion
[ 11005 11000 10999 10996 ] final  -12.42 input  -57.11 | X-H torsion

> <Gold.Protein.ActiveResidues>
 VAL166  LYS551  ARG553  GLY616  TRP617  ASP618  TYR619  PRO620  LYS621  CYS622 
 ASP623  PHE694  ASN695  SER759  ASP760  ASP761  ALA762  ILE779  LEU786  VAL792 
 PHE793  MET794  SER795  GLU796  ALA797  LYS798  CYS799  TRP800  GLU811  SER814 

> <Gold.Protein.RotatedAtoms>
  151.4387  135.1018  159.9663 H   0  0  0  0  0  0  0  0  0  0  0  0  # atno 6907 bound_to 6896
  152.4930  133.8549  159.7231 H   0  0  0  0  0  0  0  0  0  0  0  0  # atno 6908 bound_to 6896
  150.9103  133.6947  159.2884 H   0  0  0  0  0  0  0  0  0  0  0  0  # atno 6909 bound_to 6896
  145.7497  139.2755  143.1438 H   0  0  0  0  0  0  0  0  0  0  0  0  # atno 7974 bound_to 7965
  156.0203  140.3341  155.7032 H   0  0  0  0  0  0  0  0  0  0  0  0  # atno 8008 bound_to 7997
  155.6031  140.0657  157.2745 H   0  0  0  0  0  0  0  0  0  0  0  0  # atno 8009 bound_to 7997
  154.4313  140.1807  156.1182 H   0  0  0  0  0  0  0  0  0  0  0  0  # atno 8010 bound_to 7997
  139.5117  144.3231  152.0184 H   0  0  0  0  0  0  0  0  0  0  0  0  # atno 10167 bound_to 10162
  157.6491  130.9569  150.0902 H   0  0  0  0  0  0  0  0  0  0  0  0  # atno 10718 bound_to 10713
  154.6423  135.2900  155.0088 H   0  0  0  0  0  0  0  0  0  0  0  0  # atno 10763 bound_to 10752
  154.1211  135.6548  153.4907 H   0  0  0  0  0  0  0  0  0  0  0  0  # atno 10764 bound_to 10752
  153.0333  135.5288  154.7295 H   0  0  0  0  0  0  0  0  0  0  0  0  # atno 10765 bound_to 10752
  140.7656  133.8480  155.9162 H   0  0  0  0  0  0  0  0  0  0  0  0  # atno 11005 bound_to 11000
  146.0368  140.8204  142.9848 LP  0  0  0  0  0  0  0  0  0  0  0  0  # atno 17320 bound_to 7965
  144.6852  140.2851  143.7286 LP  0  0  0  0  0  0  0  0  0  0  0  0  # atno 17321 bound_to 7965
  140.2672  144.4003  150.6164 LP  0  0  0  0  0  0  0  0  0  0  0  0  # atno 17342 bound_to 10162
  140.6115  143.2170  151.6877 LP  0  0  0  0  0  0  0  0  0  0  0  0  # atno 17343 bound_to 10162
  156.1853  130.3652  149.8981 LP  0  0  0  0  0  0  0  0  0  0  0  0  # atno 17370 bound_to 10713
  156.6923  130.8900  151.3589 LP  0  0  0  0  0  0  0  0  0  0  0  0  # atno 17371 bound_to 10713
  140.9622  134.1640  157.4644 LP  0  0  0  0  0  0  0  0  0  0  0  0  # atno 17394 bound_to 11000
  139.8764  134.9949  156.5716 LP  0  0  0  0  0  0  0  0  0  0  0  0  # atno 17395 bound_to 11000

$$$$
