AV-unprocessed.smi:658|AV-procd|sdf|3230|dock9
  -GOLD-   22720 0173D 1   1.00000     0.00000
 Structure written by MMmdl.
 38 38  0  0  0  0  0  0  0  0  2 V2000
  152.0594  144.7019  157.6047 C   0  0  0  0  0  0  0  0  0  0  0  0
  151.5807  143.3249  158.0943 C   0  0  2  0  0  0  0  0  0  0  0  0
  150.2814  143.0264  157.4467 N   0  3  0  0  0  0  0  0  0  0  0  0
  150.1784  141.6887  156.8278 C   0  0  0  0  0  0  0  0  0  0  0  0
  148.8430  141.5285  156.0925 C   0  0  0  0  0  0  0  0  0  0  0  0
  149.0211  141.0075  154.6597 C   0  0  0  0  0  0  0  0  0  0  0  0
  149.4448  139.2125  154.6377 S   0  0  0  0  0  0  0  0  0  0  0  0
  148.5003  138.6339  153.3226 N   0  0  0  0  0  0  0  0  0  0  0  0
  150.8592  139.0530  154.2672 O   0  0  0  0  0  0  0  0  0  0  0  0
  148.9107  138.5926  155.8593 O   0  0  0  0  0  0  0  0  0  0  0  0
  151.4520  143.2542  159.6410 C   0  0  2  0  0  0  0  0  0  0  0  0
  151.3283  144.6360  160.3115 C   0  0  0  0  0  0  0  0  0  0  0  0
  152.5621  142.5162  160.2335 N   0  0  0  0  0  0  0  0  0  0  0  0
  152.8765  142.3421  161.5675 C   0  0  0  0  0  0  0  0  0  0  0  0
  154.0257  141.6073  161.6244 C   0  0  0  0  0  0  0  0  0  0  0  0
  154.3521  141.3839  160.2584 C   0  0  0  0  0  0  0  0  0  0  0  0
  153.4816  141.9373  159.4295 N   0  0  0  0  0  0  0  0  0  0  0  0
  153.0720  144.9218  157.9422 H   0  0  0  0  0  0  0  0  0  0  0  0
  151.4064  145.5003  157.9593 H   0  0  0  0  0  0  0  0  0  0  0  0
  152.0738  144.7455  156.5151 H   0  0  0  0  0  0  0  0  0  0  0  0
  152.3184  142.5900  157.7661 H   0  0  0  0  0  0  0  0  0  0  0  0
  149.5533  143.1223  158.1406 H   0  0  0  0  0  0  0  0  0  0  0  0
  151.0095  141.5515  156.1349 H   0  0  0  0  0  0  0  0  0  0  0  0
  150.2680  140.9184  157.5936 H   0  0  0  0  0  0  0  0  0  0  0  0
  148.2046  140.8408  156.6489 H   0  0  0  0  0  0  0  0  0  0  0  0
  148.3232  142.4870  156.0704 H   0  0  0  0  0  0  0  0  0  0  0  0
  148.0915  141.1310  154.1034 H   0  0  0  0  0  0  0  0  0  0  0  0
  149.7987  141.5515  154.1227 H   0  0  0  0  0  0  0  0  0  0  0  0
  148.6533  137.6454  153.1235 H   0  0  0  0  0  0  0  0  0  0  0  0
  148.5261  139.2476  152.5085 H   0  0  0  0  0  0  0  0  0  0  0  0
  150.5367  142.7076  159.8773 H   0  0  0  0  0  0  0  0  0  0  0  0
  150.4013  145.1368  160.0336 H   0  0  0  0  0  0  0  0  0  0  0  0
  152.1554  145.2919  160.0386 H   0  0  0  0  0  0  0  0  0  0  0  0
  151.3221  144.5430  161.3982 H   0  0  0  0  0  0  0  0  0  0  0  0
  152.2646  142.7509  162.3582 H   0  0  0  0  0  0  0  0  0  0  0  0
  154.5541  141.2803  162.5078 H   0  0  0  0  0  0  0  0  0  0  0  0
  155.1923  140.8437  159.8474 H   0  0  0  0  0  0  0  0  0  0  0  0
  150.1242  143.7126  156.7223 H   0  0  0  0  0  0  0  0  0  0  0  0
  1  2  1  0  0  0  0
  1 18  1  0  0  0  0
  1 19  1  0  0  0  0
  1 20  1  0  0  0  0
  2  3  1  0  0  0  0
  2 11  1  0  0  0  0
  2 21  1  0  0  0  0
  3  4  1  0  0  0  0
  3 22  1  0  0  0  0
  3 38  1  0  0  0  0
  4  5  1  0  0  0  0
  4 23  1  0  0  0  0
  4 24  1  0  0  0  0
  5  6  1  0  0  0  0
  5 25  1  0  0  0  0
  5 26  1  0  0  0  0
  6  7  1  0  0  0  0
  6 27  1  0  0  0  0
  6 28  1  0  0  0  0
  7  8  1  0  0  0  0
  7  9  2  0  0  0  0
  7 10  2  0  0  0  0
  8 29  1  0  0  0  0
  8 30  1  0  0  0  0
 11 12  1  0  0  0  0
 11 13  1  0  0  0  0
 11 31  1  0  0  0  0
 12 32  1  0  0  0  0
 12 33  1  0  0  0  0
 12 34  1  0  0  0  0
 13 17  1  0  0  0  0
 13 14  1  0  0  0  0
 14 15  2  0  0  0  0
 14 35  1  0  0  0  0
 15 16  1  0  0  0  0
 15 36  1  0  0  0  0
 16 17  2  0  0  0  0
 16 37  1  0  0  0  0
M  CHG  1   3   1
M  END
> <s_m_source_file>
AV-unprocessed.smi

> <i_m_source_file_index>
658

> <i_lp_mmshare_version>
43012

> <i_f3d_flags>
0

> <s_epik_input>
bjFbY0hdW2NIXVtjSF1uMVtDQEBIXShbQ0gzXSlbQ0BIXShbQ0gzXSlbTkhdW0NIMl1bQ0gyXVtDSDJdUyg9TykoPU8pW05IMl0=

> <s_epik_cmdline>
J2VwaWtfcHl0aG9uJywgJy1waCcsICc3LjAnLCAnLXRuJywgJzgnLCAnLW1hJywgJzIwMCcsICctbWV0YWxfYmluZGluZycsICctaW1hZScsICc8aW5maWxlLm1hZT4nLCAnLW9tYWUnLCAnPG91dGZpbGUubWFlPic=

> <r_lp_tautomer_probability>
1

> <r_epik_Ionization_Penalty>
0.00535781

> <r_epik_Ionization_Penalty_Charging>
0.00511015

> <r_epik_Ionization_Penalty_Neutral>
0.000247661

> <r_epik_State_Penalty>
-0

> <r_epik_Charging_Adjusted_Penalty>
0.00511015

> <i_epik_Tot_Q>
1

> <i_epik_Tot_abs_Q>
1

> <r_epik_Metal_State_Penalty>
0.149106

> <b_epik_Metal_Only>
0

> <s_lp_Force_Field>
OPLS_2005

> <r_lp_Energy>
8.18413

> <b_lp_Chiralities_Consistent>
1

> <s_lp_Variant>
AV-unprocessed.smi:658-1

> <Gold.Version>
5.8.1

> <Gold.Id.Protein>
6NUR|6NUR_protein|mol2

> <Gold.PLP.Fitness>
49.4036

> <Gold.PLP.PLP>
-40.2921

> <Gold.PLP.part.hbond>
-4.0000

> <Gold.PLP.part.metal>
0.0000

> <Gold.PLP.part.buried>
-4.2370

> <Gold.PLP.part.nonpolar>
-32.9821

> <Gold.PLP.part.repulsive>
0.2113

> <Gold.PLP.ligand.clash>
0.0000

> <Gold.PLP.ligand.torsion>
2.8091

> <Gold.PLP.Chemscore.Hbond>
4.8240

> <Gold.PLP.Chemscore.CHOScore>
0.0000

> <Gold.PLP.Chemscore.Metal>
0.0000

> <Gold.Chemscore.Hbonds>
donor molecule, donor type, donor heavy atom, donor atom, acceptor molecule, acceptor atom, score
      L1  H     3    38       P1  8028  1.98
      L1  H     8    29       P1  7948  0.98
      L1  H     8    30       P1  7957  0.93
      P1  H  7989  7998       L1     9  0.80

> <Gold.PLP.Chemscore.Internal.Correction>
0.2578

> <Gold.Rescore>
     Score         DG    S(hbond)    S(metal)    S(lipo)     H(rot)  DE(clash)    DE(int)     intcor
     17.44     -20.25       3.51        0.00      94.60       3.13       0.25       2.56       ----

> <Gold.Chemscore.Fitness>
17.4441

> <Gold.Chemscore.DG>
-20.2534

> <Gold.Chemscore.ZeroCoef>
-5.4800

> <Gold.Chemscore.Hbond>
3.5092

> <Gold.Chemscore.Metal>
0.0000

> <Gold.Chemscore.Lipo>
94.6044

> <Gold.Chemscore.Internal_Hbond>
0.0000

> <Gold.Chemscore.DEClash>
0.2483

> <Gold.Chemscore.DEInternal>
2.5609

> <Gold.Chemscore.Rot>
3.1312

> <Gold.Chemscore.Internal.Correction>
   9.000000E+99

> <Gold.Chemscore.Hbonds>
donor molecule, donor type, donor heavy atom, donor atom, acceptor molecule, acceptor atom, score
      L1  H     3    38       P1  8028  0.93
      L1  H     8    29       P1  7948  0.93
      L1  H     8    30       P1  7957  0.91
      P1  H  7989  7998       L1     9  0.61

> <Gold.Chemscore.Hbond.Weighted>
-11.7206

> <Gold.Chemscore.Metal.Weighted>
-0.0000

> <Gold.Chemscore.Lipo.Weighted>
-11.0687

> <Gold.Chemscore.Internal_Hbond.Weighted>
0.0000

> <Gold.Chemscore.DEClash.Weighted>
0.2483

> <Gold.Chemscore.DEInternal.Weighted>
2.5609

> <Gold.Chemscore.Rot.Weighted>
8.0160

> <Gold.Chemscore.Internal.Correction.Weighted>
   9.000000E+99

> <Gold.Protein.RotatedTorsions>
[ 6907 6896 6895 6894 ] final  163.11 input  -60.11 | X-H torsion
[ 7974 7965 7964 7962 ] final -153.04 input  175.53 | X-H torsion
[ 8008 7997 7996 7995 ] final  179.38 input   59.86 | X-H torsion
[ 10167 10162 10161 10158 ] final   83.45 input  -65.29 | X-H torsion
[ 10718 10713 10712 10709 ] final -161.45 input   66.30 | X-H torsion
[ 10763 10752 10751 10750 ] final -123.85 input  -60.55 | X-H torsion
[ 11005 11000 10999 10996 ] final  145.64 input  -57.11 | X-H torsion

> <Gold.Protein.ActiveResidues>
 VAL166  LYS551  ARG553  GLY616  TRP617  ASP618  TYR619  PRO620  LYS621  CYS622 
 ASP623  PHE694  ASN695  SER759  ASP760  ASP761  ALA762  ILE779  LEU786  VAL792 
 PHE793  MET794  SER795  GLU796  ALA797  LYS798  CYS799  TRP800  GLU811  SER814 

> <Gold.Protein.RotatedAtoms>
  151.9302  133.3609  159.3927 H   0  0  0  0  0  0  0  0  0  0  0  0  # atno 6907 bound_to 6896
  150.7019  134.4545  159.5361 H   0  0  0  0  0  0  0  0  0  0  0  0  # atno 6908 bound_to 6896
  152.2184  134.8436  160.0540 H   0  0  0  0  0  0  0  0  0  0  0  0  # atno 6909 bound_to 6896
  144.7762  140.4581  143.5872 H   0  0  0  0  0  0  0  0  0  0  0  0  # atno 7974 bound_to 7965
  156.0440  140.1310  157.0124 H   0  0  0  0  0  0  0  0  0  0  0  0  # atno 8008 bound_to 7997
  154.4404  140.1024  156.6349 H   0  0  0  0  0  0  0  0  0  0  0  0  # atno 8009 bound_to 7997
  155.5624  140.3465  155.4497 H   0  0  0  0  0  0  0  0  0  0  0  0  # atno 8010 bound_to 7997
  139.9183  144.6229  150.8466 H   0  0  0  0  0  0  0  0  0  0  0  0  # atno 10167 bound_to 10162
  156.5964  130.8792  151.2903 H   0  0  0  0  0  0  0  0  0  0  0  0  # atno 10718 bound_to 10713
  154.8714  135.4084  154.3011 H   0  0  0  0  0  0  0  0  0  0  0  0  # atno 10763 bound_to 10752
  153.3870  135.7013  153.6528 H   0  0  0  0  0  0  0  0  0  0  0  0  # atno 10764 bound_to 10752
  153.5326  135.3664  155.2654 H   0  0  0  0  0  0  0  0  0  0  0  0  # atno 10765 bound_to 10752
  140.0728  134.9142  157.1374 H   0  0  0  0  0  0  0  0  0  0  0  0  # atno 11005 bound_to 11000
  145.6180  139.1520  143.3039 LP  0  0  0  0  0  0  0  0  0  0  0  0  # atno 17320 bound_to 7965
  146.1943  140.6292  142.9131 LP  0  0  0  0  0  0  0  0  0  0  0  0  # atno 17321 bound_to 7965
  140.7668  143.3315  151.2399 LP  0  0  0  0  0  0  0  0  0  0  0  0  # atno 17342 bound_to 10162
  139.6883  143.9735  152.2846 LP  0  0  0  0  0  0  0  0  0  0  0  0  # atno 17343 bound_to 10162
  157.7291  130.9666  150.1771 LP  0  0  0  0  0  0  0  0  0  0  0  0  # atno 17370 bound_to 10713
  156.2506  130.3700  149.8236 LP  0  0  0  0  0  0  0  0  0  0  0  0  # atno 17371 bound_to 10713
  140.3601  134.2503  155.7188 LP  0  0  0  0  0  0  0  0  0  0  0  0  # atno 17394 bound_to 11000
  141.2018  133.7953  157.0421 LP  0  0  0  0  0  0  0  0  0  0  0  0  # atno 17395 bound_to 11000

$$$$
