#       Name:                AV-unprocessed.smi:2923
#       Creating user name   scv26
#       Creation time:       Fri Mar 27 16:09:39 2020


#       File generated by GOLD software.
#

@<TRIPOS>MOLECULE
AV-unprocessed.smi:2923
    51    53     1
SMALL
NO_CHARGES


@<TRIPOS>ATOM
      1 ****        -6.8042   0.4545   0.6510 C.3            1 S1                 0.0000
      2 ****        -6.0894  -0.8168   0.6199 N.pl3          1 S1                 0.0000
      3 ****        -6.8240  -2.0751   0.6435 C.3            1 S1                 0.0000
      4 ****        -4.6781  -0.8271   0.5923 C.ar           1 S1                 0.0000
      5 ****        -3.9104  -2.0174   0.5769 C.ar           1 S1                 0.0000
      6 ****        -2.5024  -1.9436   0.5516 C.ar           1 S1                 0.0000
      7 ****        -1.8641  -0.6860   0.5347 C.ar           1 S1                 0.0000
      8 ****        -0.4427  -0.6654   0.5259 N.am           1 S1                 0.0000
      9 ****         0.3815   0.3589   0.2451 C.2            1 S1                 0.0000
     10 ****         0.0275   1.4824  -0.1107 O.2            1 S1                 0.0000
     11 ****         1.6645   0.0007   0.3835 N.am           1 S1                 0.0000
     12 ****         2.7956   0.8873   0.1384 C.3            1 S1                 0.0000
     13 ****         4.1386   0.2145   0.4209 C.3            1 S1                 0.0000
     14 ****         5.2171   0.4158   1.4247 C.3            1 S1                 0.0000
     15 ****         6.4246   0.3684   0.4504 C.3            1 S1                 0.0000
     16 ****         5.8613   0.4212  -0.8834 O.3            1 S1                 0.0000
     17 ****         4.6362   1.1016  -0.7037 C.3            1 S1                 0.0000
     18 ****         3.2560   0.9223  -1.3675 C.3            1 S1                 0.0000
     19 ****         3.0445  -0.3166  -2.2615 C.3            1 S1                 0.0000
     20 ****         2.7595   2.1225  -2.1743 C.3            1 S1                 0.0000
     21 ****        -2.6744   0.4740   0.5598 C.ar           1 S1                 0.0000
     22 ****        -4.0194   0.3574   0.5846 N.pl3          1 S1                 1.0000
     23 ****        -6.5386   1.0214   1.5441 H              1 S1                 0.0000
     24 ****        -7.8838   0.3039   0.6597 H              1 S1                 0.0000
     25 ****        -6.5592   1.0538  -0.2266 H              1 S1                 0.0000
     26 ****        -6.6126  -2.6591  -0.2527 H              1 S1                 0.0000
     27 ****        -7.8999  -1.9048   0.6839 H              1 S1                 0.0000
     28 ****        -6.5481  -2.6647   1.5182 H              1 S1                 0.0000
     29 ****        -4.3782  -2.9905   0.5863 H              1 S1                 0.0000
     30 ****        -1.9185  -2.8525   0.5426 H              1 S1                 0.0000
     31 ****         0.0042  -1.5466   0.7335 H              1 S1                 0.0000
     32 ****         1.8756  -0.9426   0.6743 H              1 S1                 0.0000
     33 ****         2.7041   1.8728   0.6044 H              1 S1                 0.0000
     34 ****         4.0987  -0.8423   0.1468 H              1 S1                 0.0000
     35 ****         5.1332   1.3807   1.9267 H              1 S1                 0.0000
     36 ****         5.2522  -0.3750   2.1744 H              1 S1                 0.0000
     37 ****         7.0915   1.2153   0.6163 H              1 S1                 0.0000
     38 ****         7.0049  -0.5475   0.5648 H              1 S1                 0.0000
     39 ****         4.8128   2.1408  -0.4029 H              1 S1                 0.0000
     40 ****         3.6192  -0.2355  -3.1845 H              1 S1                 0.0000
     41 ****         1.9969  -0.4275  -2.5433 H              1 S1                 0.0000
     42 ****         3.3418  -1.2528  -1.7930 H              1 S1                 0.0000
     43 ****         3.3288   2.2481  -3.0958 H              1 S1                 0.0000
     44 ****         2.8513   3.0507  -1.6093 H              1 S1                 0.0000
     45 ****         1.7088   2.0166  -2.4460 H              1 S1                 0.0000
     46 ****        -2.3114   1.4904   0.5736 H              1 S1                 0.0000
     47 ****        -4.5719   1.2148   0.6014 H              1 S1                 0.0000
     48 ****        -0.9452   1.6916  -0.2114 LP             1 S1                 0.0000
     49 ****         0.7125   2.1862  -0.2991 LP             1 S1                 0.0000
     50 ****         5.7084  -0.4995  -1.2425 LP             1 S1                 0.0000
     51 ****         6.4615   0.9256  -1.5041 LP             1 S1                 0.0000
@<TRIPOS>BOND
    1    1    2 1     
    2    1   23 1     
    3    1   24 1     
    4    1   25 1     
    5    2    3 1     
    6    2    4 1     
    7    3   26 1     
    8    3   27 1     
    9    3   28 1     
   10    4   22 ar    
   11    4    5 ar    
   12    5    6 ar    
   13    5   29 1     
   14    6    7 ar    
   15    6   30 1     
   16    7    8 1     
   17    7   21 ar    
   18    8    9 am    
   19    8   31 1     
   20    9   10 2     
   21    9   11 am    
   22   11   12 1     
   23   11   32 1     
   24   12   18 1     
   25   12   13 1     
   26   12   33 1     
   27   13   17 1     
   28   13   14 1     
   29   13   34 1     
   30   14   15 1     
   31   14   35 1     
   32   14   36 1     
   33   15   16 1     
   34   15   37 1     
   35   15   38 1     
   36   16   17 1     
   37   17   18 1     
   38   17   39 1     
   39   18   19 1     
   40   18   20 1     
   41   19   40 1     
   42   19   41 1     
   43   19   42 1     
   44   20   43 1     
   45   20   44 1     
   46   20   45 1     
   47   21   22 ar    
   48   21   46 1     
   49   22   47 1     
   50   10   48 1     
   51   10   49 1     
   52   16   50 1     
   53   16   51 1     
@<TRIPOS>SUBSTRUCTURE
      1 S1             1
@<TRIPOS>SET
LONE_PAIRS      STATIC     ATOMS    <user>   **** ""
4 48 49 50 51
DONOR_HYDROGENS      STATIC     ATOMS    <user>   **** ""
3 31 32 47
ATOM$BLUE        STATIC     ATOMS    COLORGROUP SYSTEM
4 48 49 50 51
ATOM$RED        STATIC     ATOMS    COLORGROUP SYSTEM
3 31 32 47
