AV-unprocessed.smi:113|AV-procd|sdf|1098|dock5
  -GOLD-   2262018203D 1   1.00000     0.00000
 Structure written by MMmdl.
 52 55  0  0  0  0  0  0  0  0  1 V2000
  154.9598  140.0242  162.5018 C   0  0  0  0  0  0  0  0  0  0  0  0
  154.0691  140.6759  161.4647 C   0  0  0  0  0  0  0  0  0  0  0  0
  153.7250  139.9952  160.2833 C   0  0  0  0  0  0  0  0  0  0  0  0
  152.8913  140.6380  159.3398 C   0  0  0  0  0  0  0  0  0  0  0  0
  152.4797  139.9385  158.0397 C   0  0  0  0  0  0  0  0  0  0  0  0
  151.0919  139.5108  157.9316 N   0  0  0  0  0  0  0  0  0  0  0  0
  150.2197  140.2965  157.1399 C   0  0  0  0  0  0  0  0  0  0  0  0
  150.6134  141.3107  156.5598 O   0  0  0  0  0  0  0  0  0  0  0  0
  148.8343  139.8241  157.0840 C   0  0  0  0  0  0  0  0  0  0  0  0
  147.8399  140.6184  156.2518 C   0  0  0  0  0  0  0  0  0  0  0  0
  148.4742  138.7111  157.7670 C   0  0  0  0  0  0  0  0  0  0  0  0
  149.3472  137.9643  158.5426 N   0  0  0  0  0  0  0  0  0  0  0  0
  148.8948  136.7320  159.3021 C   0  0  1  0  0  0  0  0  0  0  0  0
  147.3727  136.5982  159.2521 C   0  0  0  0  0  0  0  0  0  0  0  0
  147.1829  135.7472  158.0139 C   0  0  2  0  0  0  0  0  0  0  0  0
  145.9383  135.0771  158.0306 O   0  0  0  0  0  0  0  0  0  0  0  0
  148.4177  134.8277  158.0384 C   0  0  2  0  0  0  0  0  0  0  0  0
  148.2567  133.5065  158.8176 C   0  0  0  0  0  0  0  0  0  0  0  0
  147.8709  133.7566  160.1531 O   0  0  0  0  0  0  0  0  0  0  0  0
  149.4302  135.5852  158.7075 O   0  0  0  0  0  0  0  0  0  0  0  0
  150.6948  138.3650  158.6567 C   0  0  0  0  0  0  0  0  0  0  0  0
  151.4811  137.7436  159.3759 O   0  0  0  0  0  0  0  0  0  0  0  0
  152.4452  141.9551  159.6340 C   0  0  0  0  0  0  0  0  0  0  0  0
  151.6114  142.6704  158.7404 C   0  0  0  0  0  0  0  0  0  0  0  0
  151.1796  143.9723  159.0507 C   0  0  0  0  0  0  0  0  0  0  0  0
  151.5767  144.5732  160.2565 C   0  0  0  0  0  0  0  0  0  0  0  0
  152.4057  143.8701  161.1490 C   0  0  0  0  0  0  0  0  0  0  0  0
  152.8509  142.5626  160.8590 C   0  0  0  0  0  0  0  0  0  0  0  0
  153.6462  141.9242  161.7454 N   0  0  0  0  0  0  0  0  0  0  0  0
  154.9347  138.9380  162.4104 H   0  0  0  0  0  0  0  0  0  0  0  0
  154.6377  140.2846  163.5107 H   0  0  0  0  0  0  0  0  0  0  0  0
  155.9905  140.3551  162.3731 H   0  0  0  0  0  0  0  0  0  0  0  0
  154.1006  138.9963  160.1191 H   0  0  0  0  0  0  0  0  0  0  0  0
  152.6825  140.5843  157.1840 H   0  0  0  0  0  0  0  0  0  0  0  0
  153.1079  139.0626  157.8705 H   0  0  0  0  0  0  0  0  0  0  0  0
  146.8439  140.1749  156.2741 H   0  0  0  0  0  0  0  0  0  0  0  0
  148.1619  140.6610  155.2106 H   0  0  0  0  0  0  0  0  0  0  0  0
  147.7583  141.6390  156.6279 H   0  0  0  0  0  0  0  0  0  0  0  0
  147.4416  138.4044  157.7005 H   0  0  0  0  0  0  0  0  0  0  0  0
  149.2977  136.8363  160.3107 H   0  0  0  0  0  0  0  0  0  0  0  0
  147.0459  136.0675  160.1477 H   0  0  0  0  0  0  0  0  0  0  0  0
  146.8690  137.5649  159.2115 H   0  0  0  0  0  0  0  0  0  0  0  0
  147.2237  136.3845  157.1297 H   0  0  0  0  0  0  0  0  0  0  0  0
  145.2674  135.6828  157.7534 H   0  0  0  0  0  0  0  0  0  0  0  0
  148.7579  134.6114  157.0246 H   0  0  0  0  0  0  0  0  0  0  0  0
  147.4715  132.9025  158.3622 H   0  0  0  0  0  0  0  0  0  0  0  0
  149.1704  132.9119  158.7935 H   0  0  0  0  0  0  0  0  0  0  0  0
  148.4663  133.2998  160.7278 H   0  0  0  0  0  0  0  0  0  0  0  0
  151.2888  142.2385  157.8056 H   0  0  0  0  0  0  0  0  0  0  0  0
  150.5435  144.5096  158.3627 H   0  0  0  0  0  0  0  0  0  0  0  0
  151.2464  145.5729  160.4977 H   0  0  0  0  0  0  0  0  0  0  0  0
  152.7047  144.3436  162.0729 H   0  0  0  0  0  0  0  0  0  0  0  0
  1  2  1  0  0  0  0
  1 30  1  0  0  0  0
  1 31  1  0  0  0  0
  1 32  1  0  0  0  0
  2 29  1  0  0  0  0
  2  3  2  0  0  0  0
  3  4  1  0  0  0  0
  3 33  1  0  0  0  0
  4  5  1  0  0  0  0
  4 23  2  0  0  0  0
  5  6  1  0  0  0  0
  5 34  1  0  0  0  0
  5 35  1  0  0  0  0
  6 21  1  0  0  0  0
  6  7  1  0  0  0  0
  7  8  2  0  0  0  0
  7  9  1  0  0  0  0
  9 10  1  0  0  0  0
  9 11  2  0  0  0  0
 10 36  1  0  0  0  0
 10 37  1  0  0  0  0
 10 38  1  0  0  0  0
 11 12  1  0  0  0  0
 11 39  1  0  0  0  0
 12 13  1  0  0  0  0
 12 21  1  0  0  0  0
 13 20  1  0  0  0  0
 13 14  1  0  0  0  0
 13 40  1  0  0  0  0
 14 15  1  0  0  0  0
 14 41  1  0  0  0  0
 14 42  1  0  0  0  0
 15 16  1  0  0  0  0
 15 17  1  0  0  0  0
 15 43  1  0  0  0  0
 16 44  1  0  0  0  0
 17 18  1  0  0  0  0
 17 20  1  0  0  0  0
 17 45  1  0  0  0  0
 18 19  1  0  0  0  0
 18 46  1  0  0  0  0
 18 47  1  0  0  0  0
 19 48  1  0  0  0  0
 21 22  2  0  0  0  0
 23 28  1  0  0  0  0
 23 24  1  0  0  0  0
 24 25  2  0  0  0  0
 24 49  1  0  0  0  0
 25 26  1  0  0  0  0
 25 50  1  0  0  0  0
 26 27  2  0  0  0  0
 26 51  1  0  0  0  0
 27 28  1  0  0  0  0
 27 52  1  0  0  0  0
 28 29  2  0  0  0  0
M  END
> <s_m_source_file>
AV-unprocessed.smi

> <i_m_source_file_index>
113

> <i_lp_mmshare_version>
43012

> <i_f3d_flags>
0

> <s_epik_input>
W2NIXTFbY0hdW2NIXVtjSF1jKGMxMiluYyhbQ0gzXSlbY0hdYzJbQ0gyXW4zYyg9TyljKFtDSDNdKVtjSF1uKGMzPU8pW0NAQEhdNFtDSDJdW0NAQEhdKFtPSF0pW0NASF0oTzQpW0NIMl1bT0hd

> <s_epik_cmdline>
J2VwaWtfcHl0aG9uJywgJy1waCcsICc3LjAnLCAnLXRuJywgJzgnLCAnLW1hJywgJzIwMCcsICctbWV0YWxfYmluZGluZycsICctaW1hZScsICc8aW5maWxlLm1hZT4nLCAnLW9tYWUnLCAnPG91dGZpbGUubWFlPic=

> <r_lp_tautomer_probability>
1

> <r_epik_Ionization_Penalty>
0.214728

> <r_epik_Ionization_Penalty_Charging>
3.04883e-08

> <r_epik_Ionization_Penalty_Neutral>
0.214728

> <r_epik_State_Penalty>
0.204913

> <r_epik_Charging_Adjusted_Penalty>
0.204913

> <i_epik_Tot_Q>
0

> <i_epik_Tot_abs_Q>
0

> <r_epik_Metal_State_Penalty>
0.000244761

> <b_epik_Metal_Only>
0

> <s_epik_Chemistry_Notes>
This compound contains an acetal/aminal-like group ( X-CH(R)-Y where X, Y are N, S, or O) that may be acid/base labile, releasing an aldehyde.

> <s_lp_Force_Field>
OPLS_2005

> <r_lp_Energy>
41.6677

> <b_lp_Chiralities_Consistent>
1

> <s_lp_Variant>
AV-unprocessed.smi:113-8

> <Gold.Version>
5.8.1

> <Gold.Id.Protein>
6NUR|6NUR_protein|mol2

> <Gold.PLP.Fitness>
46.6037

> <Gold.PLP.PLP>
-44.6383

> <Gold.PLP.part.hbond>
-1.0000

> <Gold.PLP.part.metal>
0.0000

> <Gold.PLP.part.buried>
-7.2595

> <Gold.PLP.part.nonpolar>
-36.4222

> <Gold.PLP.part.repulsive>
0.0764

> <Gold.PLP.ligand.clash>
0.0000

> <Gold.PLP.ligand.torsion>
0.5252

> <Gold.PLP.Chemscore.Hbond>
1.0000

> <Gold.PLP.Chemscore.CHOScore>
0.0000

> <Gold.PLP.Chemscore.Metal>
0.0000

> <Gold.Chemscore.Hbonds>
donor molecule, donor type, donor heavy atom, donor atom, acceptor molecule, acceptor atom, score
      P1  H  6896  6909       L1    20  1.00

> <Gold.PLP.Chemscore.Internal.Correction>
0.0158

> <Gold.Rescore>
     Score         DG    S(hbond)    S(metal)    S(lipo)     H(rot)  DE(clash)    DE(int)     intcor
     12.08     -14.95       0.92        0.00     119.28       2.95       0.04       2.84       ----

> <Gold.Chemscore.Fitness>
12.0808

> <Gold.Chemscore.DG>
-14.9534

> <Gold.Chemscore.ZeroCoef>
-5.4800

> <Gold.Chemscore.Hbond>
0.9166

> <Gold.Chemscore.Metal>
0.0000

> <Gold.Chemscore.Lipo>
119.2804

> <Gold.Chemscore.Internal_Hbond>
0.0000

> <Gold.Chemscore.DEClash>
0.0358

> <Gold.Chemscore.DEInternal>
2.8368

> <Gold.Chemscore.Rot>
2.9469

> <Gold.Chemscore.Internal.Correction>
   9.000000E+99

> <Gold.Chemscore.Hbonds>
donor molecule, donor type, donor heavy atom, donor atom, acceptor molecule, acceptor atom, score
      P1  H  6896  6909       L1    20  0.74

> <Gold.Chemscore.Hbond.Weighted>
-3.0615

> <Gold.Chemscore.Metal.Weighted>
-0.0000

> <Gold.Chemscore.Lipo.Weighted>
-13.9558

> <Gold.Chemscore.Internal_Hbond.Weighted>
0.0000

> <Gold.Chemscore.DEClash.Weighted>
0.0358

> <Gold.Chemscore.DEInternal.Weighted>
2.8368

> <Gold.Chemscore.Rot.Weighted>
7.5439

> <Gold.Chemscore.Internal.Correction.Weighted>
   9.000000E+99

> <Gold.Protein.RotatedTorsions>
[ 6907 6896 6895 6894 ] final   39.63 input  -60.11 | X-H torsion
[ 7974 7965 7964 7962 ] final -160.12 input  175.53 | X-H torsion
[ 8008 7997 7996 7995 ] final    5.61 input   59.86 | X-H torsion
[ 10167 10162 10161 10158 ] final -104.05 input  -65.29 | X-H torsion
[ 10718 10713 10712 10709 ] final  150.07 input   66.30 | X-H torsion
[ 10763 10752 10751 10750 ] final  -47.36 input  -60.55 | X-H torsion
[ 11005 11000 10999 10996 ] final -178.64 input  -57.11 | X-H torsion

> <Gold.Protein.ActiveResidues>
 VAL166  LYS551  ARG553  GLY616  TRP617  ASP618  TYR619  PRO620  LYS621  CYS622 
 ASP623  PHE694  ASN695  SER759  ASP760  ASP761  ALA762  ILE779  LEU786  VAL792 
 PHE793  MET794  SER795  GLU796  ALA797  LYS798  CYS799  TRP800  GLU811  SER814 

> <Gold.Protein.RotatedAtoms>
  152.1721  134.8825  160.0533 H   0  0  0  0  0  0  0  0  0  0  0  0  # atno 6907 bound_to 6896
  151.9782  133.3743  159.4105 H   0  0  0  0  0  0  0  0  0  0  0  0  # atno 6908 bound_to 6896
  150.6903  134.3990  159.5154 H   0  0  0  0  0  0  0  0  0  0  0  0  # atno 6909 bound_to 6896
  144.7439  140.3587  143.6100 H   0  0  0  0  0  0  0  0  0  0  0  0  # atno 7974 bound_to 7965
  154.7305  140.2729  155.6460 H   0  0  0  0  0  0  0  0  0  0  0  0  # atno 8008 bound_to 7997
  156.2848  140.2716  156.1929 H   0  0  0  0  0  0  0  0  0  0  0  0  # atno 8009 bound_to 7997
  155.0387  140.0371  157.2491 H   0  0  0  0  0  0  0  0  0  0  0  0  # atno 8010 bound_to 7997
  140.2135  143.3729  152.1031 H   0  0  0  0  0  0  0  0  0  0  0  0  # atno 10167 bound_to 10162
  157.2881  131.0848  151.1482 H   0  0  0  0  0  0  0  0  0  0  0  0  # atno 10718 bound_to 10713
  154.0601  135.6619  153.4811 H   0  0  0  0  0  0  0  0  0  0  0  0  # atno 10763 bound_to 10752
  153.0430  135.5132  154.7667 H   0  0  0  0  0  0  0  0  0  0  0  0  # atno 10764 bound_to 10752
  154.6701  135.3028  154.9720 H   0  0  0  0  0  0  0  0  0  0  0  0  # atno 10765 bound_to 10752
  140.4275  134.6549  157.4695 H   0  0  0  0  0  0  0  0  0  0  0  0  # atno 11005 bound_to 11000
  145.7200  139.1707  143.2490 LP  0  0  0  0  0  0  0  0  0  0  0  0  # atno 17320 bound_to 7965
  146.1284  140.7218  142.9424 LP  0  0  0  0  0  0  0  0  0  0  0  0  # atno 17321 bound_to 7965
  139.5171  144.6987  151.5557 LP  0  0  0  0  0  0  0  0  0  0  0  0  # atno 17342 bound_to 10162
  140.6307  143.9082  150.6603 LP  0  0  0  0  0  0  0  0  0  0  0  0  # atno 17343 bound_to 10162
  157.2889  130.6786  149.6104 LP  0  0  0  0  0  0  0  0  0  0  0  0  # atno 17370 bound_to 10713
  155.9666  130.4427  150.5390 LP  0  0  0  0  0  0  0  0  0  0  0  0  # atno 17371 bound_to 10713
  140.0157  134.6622  155.9313 LP  0  0  0  0  0  0  0  0  0  0  0  0  # atno 17394 bound_to 11000
  141.1759  133.6540  156.4828 LP  0  0  0  0  0  0  0  0  0  0  0  0  # atno 17395 bound_to 11000

$$$$
