AV-unprocessed.smi:1849|AV-procd|sdf|7520|dock7
  -GOLD-   22720 9223D 1   1.00000     0.00000
 Structure written by MMmdl.
 41 42  0  0  0  0  0  0  0  0  2 V2000
  148.6152  137.9873  154.8915 C   0  0  0  0  0  0  0  0  0  0  0  0
  147.4310  138.2191  154.0612 N   0  0  0  0  0  0  0  0  0  0  0  0
  146.7309  137.2751  153.3544 C   0  0  0  0  0  0  0  0  0  0  0  0
  145.7069  137.9343  152.7255 C   0  0  0  0  0  0  0  0  0  0  0  0
  145.8238  139.2524  153.0746 N   0  3  0  0  0  0  0  0  0  0  0  0
  146.8698  139.4275  153.8906 C   0  0  0  0  0  0  0  0  0  0  0  0
  147.3144  140.7351  154.4662 C   0  0  0  0  0  0  0  0  0  0  0  0
  148.7814  141.0600  154.1393 C   0  0  0  0  0  0  0  0  0  0  0  0
  149.3171  142.0784  155.0342 N   0  0  0  0  0  0  0  0  0  0  0  0
  150.3101  141.8768  155.9117 C   0  0  0  0  0  0  0  0  0  0  0  0
  150.8858  140.7989  156.0627 O   0  0  0  0  0  0  0  0  0  0  0  0
  150.5927  142.9868  156.6078 N   0  0  0  0  0  0  0  0  0  0  0  0
  151.6104  143.0916  157.6490 C   0  0  0  0  0  0  0  0  0  0  0  0
  151.4683  141.9386  158.6650 C   0  0  0  0  0  0  0  0  0  0  0  0
  152.4756  142.0763  159.8179 C   0  0  0  0  0  0  0  0  0  0  0  0
  152.3472  143.4413  160.5120 C   0  0  0  0  0  0  0  0  0  0  0  0
  152.4990  144.5907  159.5037 C   0  0  0  0  0  0  0  0  0  0  0  0
  151.4904  144.4578  158.3512 C   0  0  0  0  0  0  0  0  0  0  0  0
  148.9208  136.9439  154.8083 H   0  0  0  0  0  0  0  0  0  0  0  0
  148.3758  138.2117  155.9314 H   0  0  0  0  0  0  0  0  0  0  0  0
  149.4298  138.6281  154.5529 H   0  0  0  0  0  0  0  0  0  0  0  0
  147.0066  136.2304  153.3501 H   0  0  0  0  0  0  0  0  0  0  0  0
  144.9253  137.5739  152.0726 H   0  0  0  0  0  0  0  0  0  0  0  0
  146.6500  141.5023  154.0667 H   0  0  0  0  0  0  0  0  0  0  0  0
  147.1434  140.6908  155.5421 H   0  0  0  0  0  0  0  0  0  0  0  0
  149.3982  140.1617  154.1950 H   0  0  0  0  0  0  0  0  0  0  0  0
  148.8622  141.4282  153.1161 H   0  0  0  0  0  0  0  0  0  0  0  0
  148.9060  142.9992  154.9808 H   0  0  0  0  0  0  0  0  0  0  0  0
  150.0617  143.8220  156.4083 H   0  0  0  0  0  0  0  0  0  0  0  0
  152.5983  143.0346  157.1872 H   0  0  0  0  0  0  0  0  0  0  0  0
  150.4555  141.9265  159.0705 H   0  0  0  0  0  0  0  0  0  0  0  0
  151.6131  140.9781  158.1690 H   0  0  0  0  0  0  0  0  0  0  0  0
  152.3235  141.2753  160.5419 H   0  0  0  0  0  0  0  0  0  0  0  0
  153.4890  141.9566  159.4327 H   0  0  0  0  0  0  0  0  0  0  0  0
  151.3762  143.5119  161.0040 H   0  0  0  0  0  0  0  0  0  0  0  0
  153.0992  143.5319  161.2962 H   0  0  0  0  0  0  0  0  0  0  0  0
  152.3626  145.5478  160.0081 H   0  0  0  0  0  0  0  0  0  0  0  0
  153.5137  144.5938  159.1036 H   0  0  0  0  0  0  0  0  0  0  0  0
  151.6479  145.2631  157.6327 H   0  0  0  0  0  0  0  0  0  0  0  0
  150.4798  144.5858  158.7422 H   0  0  0  0  0  0  0  0  0  0  0  0
  145.2071  139.9921  152.7626 H   0  0  0  0  0  0  0  0  0  0  0  0
  1  2  1  0  0  0  0
  1 19  1  0  0  0  0
  1 20  1  0  0  0  0
  1 21  1  0  0  0  0
  2  6  1  0  0  0  0
  2  3  1  0  0  0  0
  3  4  2  0  0  0  0
  3 22  1  0  0  0  0
  4  5  1  0  0  0  0
  4 23  1  0  0  0  0
  5  6  2  0  0  0  0
  5 41  1  0  0  0  0
  6  7  1  0  0  0  0
  7  8  1  0  0  0  0
  7 24  1  0  0  0  0
  7 25  1  0  0  0  0
  8  9  1  0  0  0  0
  8 26  1  0  0  0  0
  8 27  1  0  0  0  0
  9 10  1  0  0  0  0
  9 28  1  0  0  0  0
 10 11  2  0  0  0  0
 10 12  1  0  0  0  0
 12 13  1  0  0  0  0
 12 29  1  0  0  0  0
 13 18  1  0  0  0  0
 13 14  1  0  0  0  0
 13 30  1  0  0  0  0
 14 15  1  0  0  0  0
 14 31  1  0  0  0  0
 14 32  1  0  0  0  0
 15 16  1  0  0  0  0
 15 33  1  0  0  0  0
 15 34  1  0  0  0  0
 16 17  1  0  0  0  0
 16 35  1  0  0  0  0
 16 36  1  0  0  0  0
 17 18  1  0  0  0  0
 17 37  1  0  0  0  0
 17 38  1  0  0  0  0
 18 39  1  0  0  0  0
 18 40  1  0  0  0  0
M  CHG  1   5   1
M  END
> <s_m_source_file>
AV-unprocessed.smi

> <i_m_source_file_index>
1849

> <i_lp_mmshare_version>
43012

> <i_f3d_flags>
0

> <s_epik_input>
W0NIM11uMVtjSF1bY0hdbmMxW0NIMl1bQ0gyXVtOSF1DKD1PKVtOSF1bQ0hdMltDSDJdW0NIMl1bQ0gyXVtDSDJdW0NIMl0y

> <s_epik_cmdline>
J2VwaWtfcHl0aG9uJywgJy1waCcsICc3LjAnLCAnLXRuJywgJzgnLCAnLW1hJywgJzIwMCcsICctbWV0YWxfYmluZGluZycsICctaW1hZScsICc8aW5maWxlLm1hZT4nLCAnLW9tYWUnLCAnPG91dGZpbGUubWFlPic=

> <r_lp_tautomer_probability>
1

> <r_epik_Ionization_Penalty>
0.0507041

> <r_epik_Ionization_Penalty_Charging>
0

> <r_epik_Ionization_Penalty_Neutral>
0.0507041

> <r_epik_State_Penalty>
0.0433397

> <r_epik_Charging_Adjusted_Penalty>
0.0433397

> <i_epik_Tot_Q>
1

> <i_epik_Tot_abs_Q>
1

> <r_epik_Metal_State_Penalty>
0.385258

> <b_epik_Metal_Only>
0

> <s_lp_Force_Field>
OPLS_2005

> <r_lp_Energy>
7.33452

> <b_lp_Chiralities_Consistent>
1

> <s_lp_Variant>
AV-unprocessed.smi:1849-1

> <Gold.Version>
5.8.1

> <Gold.Id.Protein>
6NUR|6NUR_protein|mol2

> <Gold.PLP.Fitness>
45.9539

> <Gold.PLP.PLP>
-33.2048

> <Gold.PLP.part.hbond>
-3.0000

> <Gold.PLP.part.metal>
0.0000

> <Gold.PLP.part.buried>
-3.5855

> <Gold.PLP.part.nonpolar>
-27.2248

> <Gold.PLP.part.repulsive>
0.2998

> <Gold.PLP.ligand.clash>
0.0000

> <Gold.PLP.ligand.torsion>
0.1979

> <Gold.PLP.Chemscore.Hbond>
3.9600

> <Gold.PLP.Chemscore.CHOScore>
0.4188

> <Gold.PLP.Chemscore.Metal>
0.0000

> <Gold.Chemscore.Hbonds>
donor molecule, donor type, donor heavy atom, donor atom, acceptor molecule, acceptor atom, score
      L1  H     5    41       P1 10175  1.92
      L1  H     9    28       P1  8028  0.96
      L1  H    12    29       P1  8028  1.00
      L1  C     3    22       P1  7948  0.44

> <Gold.PLP.Chemscore.Internal.Correction>
0.0085

> <Gold.Rescore>
     Score         DG    S(hbond)    S(metal)    S(lipo)     H(rot)  DE(clash)    DE(int)     intcor
     19.63     -21.26       2.84        0.00      91.69       1.73       0.18       1.45       ----

> <Gold.Chemscore.Fitness>
19.6317

> <Gold.Chemscore.DG>
-21.2635

> <Gold.Chemscore.ZeroCoef>
-5.4800

> <Gold.Chemscore.Hbond>
2.8370

> <Gold.Chemscore.Metal>
0.0000

> <Gold.Chemscore.Lipo>
91.6907

> <Gold.Chemscore.Internal_Hbond>
0.0000

> <Gold.Chemscore.DEClash>
0.1780

> <Gold.Chemscore.DEInternal>
1.4538

> <Gold.Chemscore.Rot>
1.7265

> <Gold.Chemscore.Internal.Correction>
   9.000000E+99

> <Gold.Chemscore.Hbonds>
donor molecule, donor type, donor heavy atom, donor atom, acceptor molecule, acceptor atom, score
      L1  H     5    41       P1 10175  0.91
      L1  H     9    28       P1  8028  0.92
      L1  H    12    29       P1  8028  0.99

> <Gold.Chemscore.Hbond.Weighted>
-9.4756

> <Gold.Chemscore.Metal.Weighted>
-0.0000

> <Gold.Chemscore.Lipo.Weighted>
-10.7278

> <Gold.Chemscore.Internal_Hbond.Weighted>
0.0000

> <Gold.Chemscore.DEClash.Weighted>
0.1780

> <Gold.Chemscore.DEInternal.Weighted>
1.4538

> <Gold.Chemscore.Rot.Weighted>
4.4199

> <Gold.Chemscore.Internal.Correction.Weighted>
   9.000000E+99

> <Gold.Protein.RotatedTorsions>
[ 6907 6896 6895 6894 ] final   37.53 input  -60.11 | X-H torsion
[ 7974 7965 7964 7962 ] final    0.39 input  175.53 | X-H torsion
[ 8008 7997 7996 7995 ] final   25.17 input   59.86 | X-H torsion
[ 10167 10162 10161 10158 ] final  -97.27 input  -65.29 | X-H torsion
[ 10718 10713 10712 10709 ] final  -41.05 input   66.30 | X-H torsion
[ 10763 10752 10751 10750 ] final  -63.91 input  -60.55 | X-H torsion
[ 11005 11000 10999 10996 ] final -111.28 input  -57.11 | X-H torsion

> <Gold.Protein.ActiveResidues>
 VAL166  LYS551  ARG553  GLY616  TRP617  ASP618  TYR619  PRO620  LYS621  CYS622 
 ASP623  PHE694  ASN695  SER759  ASP760  ASP761  ALA762  ILE779  LEU786  VAL792 
 PHE793  MET794  SER795  GLU796  ALA797  LYS798  CYS799  TRP800  GLU811  SER814 

> <Gold.Protein.RotatedAtoms>
  152.1445  134.9037  160.0551 H   0  0  0  0  0  0  0  0  0  0  0  0  # atno 6907 bound_to 6896
  152.0092  133.3850  159.4221 H   0  0  0  0  0  0  0  0  0  0  0  0  # atno 6908 bound_to 6896
  150.6868  134.3670  159.5019 H   0  0  0  0  0  0  0  0  0  0  0  0  # atno 6909 bound_to 6896
  146.2434  140.1144  142.8342 H   0  0  0  0  0  0  0  0  0  0  0  0  # atno 7974 bound_to 7965
  155.0076  140.3133  155.4842 H   0  0  0  0  0  0  0  0  0  0  0  0  # atno 8008 bound_to 7997
  156.2914  140.2220  156.5130 H   0  0  0  0  0  0  0  0  0  0  0  0  # atno 8009 bound_to 7997
  154.7563  140.0462  157.0924 H   0  0  0  0  0  0  0  0  0  0  0  0  # atno 8010 bound_to 7997
  140.2852  143.3256  152.0401 H   0  0  0  0  0  0  0  0  0  0  0  0  # atno 10167 bound_to 10162
  156.2746  130.4210  149.8402 H   0  0  0  0  0  0  0  0  0  0  0  0  # atno 10718 bound_to 10713
  154.3222  135.6194  153.5513 H   0  0  0  0  0  0  0  0  0  0  0  0  # atno 10763 bound_to 10752
  152.9819  135.5727  154.5057 H   0  0  0  0  0  0  0  0  0  0  0  0  # atno 10764 bound_to 10752
  154.4727  135.2860  155.1607 H   0  0  0  0  0  0  0  0  0  0  0  0  # atno 10765 bound_to 10752
  141.0743  133.9327  157.2422 H   0  0  0  0  0  0  0  0  0  0  0  0  # atno 11005 bound_to 11000
  145.0459  140.8981  143.5024 LP  0  0  0  0  0  0  0  0  0  0  0  0  # atno 17320 bound_to 7965
  145.1233  139.2679  143.5577 LP  0  0  0  0  0  0  0  0  0  0  0  0  # atno 17321 bound_to 7965
  139.4952  144.6564  151.6563 LP  0  0  0  0  0  0  0  0  0  0  0  0  # atno 17342 bound_to 10162
  140.5779  143.9997  150.6251 LP  0  0  0  0  0  0  0  0  0  0  0  0  # atno 17343 bound_to 10162
  156.5871  130.8490  151.3398 LP  0  0  0  0  0  0  0  0  0  0  0  0  # atno 17370 bound_to 10713
  157.7295  130.9672  150.1789 LP  0  0  0  0  0  0  0  0  0  0  0  0  # atno 17371 bound_to 10713
  139.9555  135.0166  156.9117 LP  0  0  0  0  0  0  0  0  0  0  0  0  # atno 17394 bound_to 11000
  140.5607  134.0538  155.7398 LP  0  0  0  0  0  0  0  0  0  0  0  0  # atno 17395 bound_to 11000

$$$$
