AV-unprocessed.smi:1042|AV-procd|sdf|4536|dock5
  -GOLD-   22720 2563D 1   1.00000     0.00000
 Structure written by MMmdl.
 40 42  0  0  0  0  0  0  0  0  2 V2000
  150.4680  140.5244  156.5392 O   0  0  0  0  0  0  0  0  0  0  0  0
  150.1806  141.6748  156.2072 C   0  0  0  0  0  0  0  0  0  0  0  0
  149.4027  141.9668  155.1543 N   0  0  0  0  0  0  0  0  0  0  0  0
  148.7883  140.9903  154.2594 C   0  0  0  0  0  0  0  0  0  0  0  0
  147.3550  141.3922  153.8602 C   0  0  2  0  0  0  0  0  0  0  0  0
  147.1535  142.8765  153.5519 C   0  0  0  0  0  0  0  0  0  0  0  0
  145.6512  143.1037  153.7495 C   0  0  0  0  0  0  0  0  0  0  0  0
  145.1590  141.9915  154.5952 N   0  3  2  0  0  0  0  0  0  0  0  0
  144.3421  142.4234  155.7491 C   0  0  0  0  0  0  0  0  0  0  0  0
  143.6112  143.7241  155.5184 C   0  0  0  0  0  0  0  0  0  0  0  0
  144.8401  143.6907  156.4014 C   0  0  0  0  0  0  0  0  0  0  0  0
  146.3230  141.1592  154.9638 C   0  0  0  0  0  0  0  0  0  0  0  0
  150.5878  142.7913  156.8366 N   0  0  0  0  0  0  0  0  0  0  0  0
  151.3759  142.8974  158.0136 C   0  0  0  0  0  0  0  0  0  0  0  0
  151.6359  144.2186  158.4430 C   0  0  0  0  0  0  0  0  0  0  0  0
  152.4037  144.4316  159.6041 C   0  0  0  0  0  0  0  0  0  0  0  0
  152.8935  143.3164  160.3069 C   0  0  0  0  0  0  0  0  0  0  0  0
  152.5893  142.0350  159.8117 C   0  0  0  0  0  0  0  0  0  0  0  0
  151.8524  141.8285  158.6996 N   0  0  0  0  0  0  0  0  0  0  0  0
  149.2239  142.9400  154.9539 H   0  0  0  0  0  0  0  0  0  0  0  0
  149.4093  140.9272  153.3655 H   0  0  0  0  0  0  0  0  0  0  0  0
  148.8000  139.9947  154.7064 H   0  0  0  0  0  0  0  0  0  0  0  0
  147.0530  140.8146  152.9846 H   0  0  0  0  0  0  0  0  0  0  0  0
  147.7074  143.4840  154.2690 H   0  0  0  0  0  0  0  0  0  0  0  0
  147.4909  143.1520  152.5523 H   0  0  0  0  0  0  0  0  0  0  0  0
  145.4580  144.0817  154.1931 H   0  0  0  0  0  0  0  0  0  0  0  0
  145.1269  143.0661  152.7944 H   0  0  0  0  0  0  0  0  0  0  0  0
  143.8936  141.6338  156.3496 H   0  0  0  0  0  0  0  0  0  0  0  0
  143.7046  144.2027  154.5451 H   0  0  0  0  0  0  0  0  0  0  0  0
  142.6483  143.8518  156.0087 H   0  0  0  0  0  0  0  0  0  0  0  0
  144.6861  143.7974  157.4733 H   0  0  0  0  0  0  0  0  0  0  0  0
  145.7504  144.1453  156.0151 H   0  0  0  0  0  0  0  0  0  0  0  0
  146.0456  140.1094  155.0634 H   0  0  0  0  0  0  0  0  0  0  0  0
  146.7238  141.4930  155.9228 H   0  0  0  0  0  0  0  0  0  0  0  0
  150.2849  143.6677  156.4381 H   0  0  0  0  0  0  0  0  0  0  0  0
  151.2513  145.0644  157.8916 H   0  0  0  0  0  0  0  0  0  0  0  0
  152.6126  145.4336  159.9491 H   0  0  0  0  0  0  0  0  0  0  0  0
  153.4860  143.4395  161.2012 H   0  0  0  0  0  0  0  0  0  0  0  0
  152.9459  141.1525  160.3217 H   0  0  0  0  0  0  0  0  0  0  0  0
  144.5721  141.4230  154.0015 H   0  0  0  0  0  0  0  0  0  0  0  0
  1  2  2  0  0  0  0
  2  3  1  0  0  0  0
  2 13  1  0  0  0  0
  3  4  1  0  0  0  0
  3 20  1  0  0  0  0
  4  5  1  0  0  0  0
  4 21  1  0  0  0  0
  4 22  1  0  0  0  0
  5 12  1  0  0  0  0
  5  6  1  0  0  0  0
  5 23  1  0  0  0  0
  6  7  1  0  0  0  0
  6 24  1  0  0  0  0
  6 25  1  0  0  0  0
  7  8  1  0  0  0  0
  7 26  1  0  0  0  0
  7 27  1  0  0  0  0
  8  9  1  0  0  0  0
  8 12  1  0  0  0  0
  8 40  1  0  0  0  0
  9 11  1  0  0  0  0
  9 10  1  0  0  0  0
  9 28  1  0  0  0  0
 10 11  1  0  0  0  0
 10 29  1  0  0  0  0
 10 30  1  0  0  0  0
 11 31  1  0  0  0  0
 11 32  1  0  0  0  0
 12 33  1  0  0  0  0
 12 34  1  0  0  0  0
 13 14  1  0  0  0  0
 13 35  1  0  0  0  0
 14 19  1  0  0  0  0
 14 15  2  0  0  0  0
 15 16  1  0  0  0  0
 15 36  1  0  0  0  0
 16 17  2  0  0  0  0
 16 37  1  0  0  0  0
 17 18  1  0  0  0  0
 17 38  1  0  0  0  0
 18 19  2  0  0  0  0
 18 39  1  0  0  0  0
M  CHG  1   8   1
M  END
> <s_m_source_file>
AV-unprocessed.smi

> <i_m_source_file_index>
1042

> <i_lp_mmshare_version>
43012

> <i_f3d_flags>
0

> <s_epik_input>
bjFbY0hdW2NIXVtjSF1bY0hdYzFbTkhdQyg9TylbTkhdW0NIMl1bQ0BASF0yW0NIMl1bQ0gyXU4oW0NIMl0yKVtDSF0zW0NIMl1bQ0gyXTM=

> <s_epik_cmdline>
J2VwaWtfcHl0aG9uJywgJy1waCcsICc3LjAnLCAnLXRuJywgJzgnLCAnLW1hJywgJzIwMCcsICctbWV0YWxfYmluZGluZycsICctaW1hZScsICc8aW5maWxlLm1hZT4nLCAnLW9tYWUnLCAnPG91dGZpbGUubWFlPic=

> <r_lp_tautomer_probability>
1

> <r_epik_Ionization_Penalty>
0.000244736

> <r_epik_Ionization_Penalty_Charging>
0.000203384

> <r_epik_Ionization_Penalty_Neutral>
4.13519e-05

> <r_epik_State_Penalty>
-0

> <r_epik_Charging_Adjusted_Penalty>
0.000203384

> <i_epik_Tot_Q>
1

> <i_epik_Tot_abs_Q>
1

> <r_epik_Metal_State_Penalty>
-0

> <b_epik_Metal_Only>
0

> <s_lp_Force_Field>
OPLS_2005

> <r_lp_Energy>
38.723

> <b_lp_Chiralities_Consistent>
1

> <s_lp_Variant>
AV-unprocessed.smi:1042-1

> <Gold.Version>
5.8.1

> <Gold.Id.Protein>
6NUR|6NUR_protein|mol2

> <Gold.PLP.Fitness>
50.3110

> <Gold.PLP.PLP>
-38.8893

> <Gold.PLP.part.hbond>
-3.0000

> <Gold.PLP.part.metal>
0.0000

> <Gold.PLP.part.buried>
-4.8366

> <Gold.PLP.part.nonpolar>
-31.3223

> <Gold.PLP.part.repulsive>
0.2700

> <Gold.PLP.ligand.clash>
0.0000

> <Gold.PLP.ligand.torsion>
0.9193

> <Gold.PLP.Chemscore.Hbond>
4.0000

> <Gold.PLP.Chemscore.CHOScore>
0.0000

> <Gold.PLP.Chemscore.Metal>
0.0000

> <Gold.Chemscore.Hbonds>
donor molecule, donor type, donor heavy atom, donor atom, acceptor molecule, acceptor atom, score
      L1  H     3    20       P1  8028  0.98
      L1  H     8    40       P1 10175  2.00
      L1  H    13    35       P1  8028  0.99

> <Gold.PLP.Chemscore.Internal.Correction>
1.2602

> <Gold.Rescore>
     Score         DG    S(hbond)    S(metal)    S(lipo)     H(rot)  DE(clash)    DE(int)     intcor
     18.78     -21.21       2.89        0.00      84.10       1.47       0.03       2.40       ----

> <Gold.Chemscore.Fitness>
18.7774

> <Gold.Chemscore.DG>
-21.2100

> <Gold.Chemscore.ZeroCoef>
-5.4800

> <Gold.Chemscore.Hbond>
2.8909

> <Gold.Chemscore.Metal>
0.0000

> <Gold.Chemscore.Lipo>
84.0965

> <Gold.Chemscore.Internal_Hbond>
0.0000

> <Gold.Chemscore.DEClash>
0.0315

> <Gold.Chemscore.DEInternal>
2.4011

> <Gold.Chemscore.Rot>
1.4707

> <Gold.Chemscore.Internal.Correction>
   9.000000E+99

> <Gold.Chemscore.Hbonds>
donor molecule, donor type, donor heavy atom, donor atom, acceptor molecule, acceptor atom, score
      L1  H     3    20       P1  8028  0.92
      L1  H     8    40       P1 10175  0.34
      L1  H    13    35       P1  8028  0.94

> <Gold.Chemscore.Hbond.Weighted>
-9.6557

> <Gold.Chemscore.Metal.Weighted>
-0.0000

> <Gold.Chemscore.Lipo.Weighted>
-9.8393

> <Gold.Chemscore.Internal_Hbond.Weighted>
0.0000

> <Gold.Chemscore.DEClash.Weighted>
0.0315

> <Gold.Chemscore.DEInternal.Weighted>
2.4011

> <Gold.Chemscore.Rot.Weighted>
3.7650

> <Gold.Chemscore.Internal.Correction.Weighted>
   9.000000E+99

> <Gold.Protein.RotatedTorsions>
[ 6907 6896 6895 6894 ] final  175.77 input  -60.11 | X-H torsion
[ 7974 7965 7964 7962 ] final  -11.24 input  175.53 | X-H torsion
[ 8008 7997 7996 7995 ] final  -27.15 input   59.86 | X-H torsion
[ 10167 10162 10161 10158 ] final   47.13 input  -65.29 | X-H torsion
[ 10718 10713 10712 10709 ] final  -78.84 input   66.30 | X-H torsion
[ 10763 10752 10751 10750 ] final  -95.34 input  -60.55 | X-H torsion
[ 11005 11000 10999 10996 ] final   39.40 input  -57.11 | X-H torsion

> <Gold.Protein.ActiveResidues>
 VAL166  LYS551  ARG553  GLY616  TRP617  ASP618  TYR619  PRO620  LYS621  CYS622 
 ASP623  PHE694  ASN695  SER759  ASP760  ASP761  ALA762  ILE779  LEU786  VAL792 
 PHE793  MET794  SER795  GLU796  ALA797  LYS798  CYS799  TRP800  GLU811  SER814 

> <Gold.Protein.RotatedAtoms>
  151.7309  133.3318  159.3339 H   0  0  0  0  0  0  0  0  0  0  0  0  # atno 6907 bound_to 6896
  150.7613  134.6364  159.6223 H   0  0  0  0  0  0  0  0  0  0  0  0  # atno 6908 bound_to 6896
  152.3592  134.6899  160.0264 H   0  0  0  0  0  0  0  0  0  0  0  0  # atno 6909 bound_to 6896
  146.2194  140.2882  142.8366 H   0  0  0  0  0  0  0  0  0  0  0  0  # atno 7974 bound_to 7965
  154.4391  140.1880  156.0886 H   0  0  0  0  0  0  0  0  0  0  0  0  # atno 8008 bound_to 7997
  156.0383  140.3322  155.7189 H   0  0  0  0  0  0  0  0  0  0  0  0  # atno 8009 bound_to 7997
  155.5738  140.0615  157.2791 H   0  0  0  0  0  0  0  0  0  0  0  0  # atno 8010 bound_to 7997
  140.3068  144.2868  150.6207 H   0  0  0  0  0  0  0  0  0  0  0  0  # atno 10167 bound_to 10162
  156.0107  130.4529  150.3558 H   0  0  0  0  0  0  0  0  0  0  0  0  # atno 10718 bound_to 10713
  154.7140  135.5124  153.8709 H   0  0  0  0  0  0  0  0  0  0  0  0  # atno 10763 bound_to 10752
  153.0804  135.6629  154.0066 H   0  0  0  0  0  0  0  0  0  0  0  0  # atno 10764 bound_to 10752
  153.9902  135.3020  155.3392 H   0  0  0  0  0  0  0  0  0  0  0  0  # atno 10765 bound_to 10752
  140.2032  134.3845  155.8086 H   0  0  0  0  0  0  0  0  0  0  0  0  # atno 11005 bound_to 11000
  144.9146  140.7797  143.5786 LP  0  0  0  0  0  0  0  0  0  0  0  0  # atno 17320 bound_to 7965
  145.2815  139.1916  143.4788 LP  0  0  0  0  0  0  0  0  0  0  0  0  # atno 17321 bound_to 7965
  140.5603  143.2193  151.7777 LP  0  0  0  0  0  0  0  0  0  0  0  0  # atno 17342 bound_to 10162
  139.4902  144.4358  151.9821 LP  0  0  0  0  0  0  0  0  0  0  0  0  # atno 17343 bound_to 10162
  157.1648  131.0354  151.2823 LP  0  0  0  0  0  0  0  0  0  0  0  0  # atno 17370 bound_to 10713
  157.4280  130.7474  149.6966 LP  0  0  0  0  0  0  0  0  0  0  0  0  # atno 17371 bound_to 10713
  141.2227  133.7104  156.8292 LP  0  0  0  0  0  0  0  0  0  0  0  0  # atno 17394 bound_to 11000
  140.2032  134.8882  157.3192 LP  0  0  0  0  0  0  0  0  0  0  0  0  # atno 17395 bound_to 11000

$$$$
