AV-unprocessed.smi:3349|AV-procd|sdf|12932|dock1
  -GOLD-   2272019363D 1   1.00000     0.00000
 Structure written by MMmdl.
 40 41  0  0  0  0  0  0  0  0  1 V2000
  148.4738  130.6012  153.5394 C   0  0  0  0  0  0  0  0  0  0  0  0
  149.3215  131.7947  154.0490 C   0  0  1  0  0  0  0  0  0  0  0  0
  148.4242  133.0660  154.0821 C   0  0  0  0  0  0  0  0  0  0  0  0
  147.7299  133.3151  152.8217 N   0  0  0  0  0  0  0  0  0  0  0  0
  146.6988  134.1610  152.6648 C   0  0  0  0  0  0  0  0  0  0  0  0
  146.2278  134.8213  153.5920 O   0  0  0  0  0  0  0  0  0  0  0  0
  146.1235  134.2783  151.2437 C   0  0  2  0  0  0  0  0  0  0  0  0
  145.2062  135.5057  151.0673 C   0  0  0  0  0  0  0  0  0  0  0  0
  145.4571  133.0394  150.8608 N   0  0  0  0  0  0  0  0  0  0  0  0
  144.7924  132.7315  149.7451 C   0  0  0  0  0  0  0  0  0  0  0  0
  144.3449  131.4843  149.7110 N   0  0  0  0  0  0  0  0  0  0  0  0
  144.8091  131.0427  150.9176 C   0  0  0  0  0  0  0  0  0  0  0  0
  145.4887  131.9310  151.6423 N   0  0  0  0  0  0  0  0  0  0  0  0
  149.9908  131.5117  155.3402 N   0  0  0  0  0  0  0  0  0  0  0  0
  150.9130  132.5821  155.7379 C   0  0  0  0  0  0  0  0  0  0  0  0
  151.5897  132.3181  157.0939 C   0  0  0  0  0  0  0  0  0  0  0  0
  150.5982  132.1349  158.0947 O   0  0  0  0  0  0  0  0  0  0  0  0
  149.7297  131.0528  157.7905 C   0  0  0  0  0  0  0  0  0  0  0  0
  149.0392  131.3047  156.4386 C   0  0  0  0  0  0  0  0  0  0  0  0
  147.9390  130.8326  152.6189 H   0  0  0  0  0  0  0  0  0  0  0  0
  147.7334  130.2991  154.2808 H   0  0  0  0  0  0  0  0  0  0  0  0
  149.0855  129.7326  153.2999 H   0  0  0  0  0  0  0  0  0  0  0  0
  150.0999  131.9709  153.3051 H   0  0  0  0  0  0  0  0  0  0  0  0
  147.6758  132.9718  154.8695 H   0  0  0  0  0  0  0  0  0  0  0  0
  148.9937  133.9665  154.3073 H   0  0  0  0  0  0  0  0  0  0  0  0
  148.0595  132.8096  152.0124 H   0  0  0  0  0  0  0  0  0  0  0  0
  146.9695  134.4092  150.5667 H   0  0  0  0  0  0  0  0  0  0  0  0
  145.7353  136.4296  151.3029 H   0  0  0  0  0  0  0  0  0  0  0  0
  144.3265  135.4557  151.7103 H   0  0  0  0  0  0  0  0  0  0  0  0
  144.8569  135.5841  150.0374 H   0  0  0  0  0  0  0  0  0  0  0  0
  144.6350  133.4336  148.9393 H   0  0  0  0  0  0  0  0  0  0  0  0
  144.6457  130.0351  151.2705 H   0  0  0  0  0  0  0  0  0  0  0  0
  151.7081  132.6961  155.0034 H   0  0  0  0  0  0  0  0  0  0  0  0
  150.3797  133.5330  155.7795 H   0  0  0  0  0  0  0  0  0  0  0  0
  152.2332  131.4386  157.0409 H   0  0  0  0  0  0  0  0  0  0  0  0
  152.2225  133.1613  157.3709 H   0  0  0  0  0  0  0  0  0  0  0  0
  150.2931  130.1185  157.7685 H   0  0  0  0  0  0  0  0  0  0  0  0
  148.9871  130.9595  158.5831 H   0  0  0  0  0  0  0  0  0  0  0  0
  148.3789  132.1691  156.5243 H   0  0  0  0  0  0  0  0  0  0  0  0
  148.4078  130.4405  156.2448 H   0  0  0  0  0  0  0  0  0  0  0  0
  1  2  1  0  0  0  0
  1 20  1  0  0  0  0
  1 21  1  0  0  0  0
  1 22  1  0  0  0  0
  2  3  1  0  0  0  0
  2 14  1  0  0  0  0
  2 23  1  0  0  0  0
  3  4  1  0  0  0  0
  3 24  1  0  0  0  0
  3 25  1  0  0  0  0
  4  5  1  0  0  0  0
  4 26  1  0  0  0  0
  5  6  2  0  0  0  0
  5  7  1  0  0  0  0
  7  8  1  0  0  0  0
  7  9  1  0  0  0  0
  7 27  1  0  0  0  0
  8 28  1  0  0  0  0
  8 29  1  0  0  0  0
  8 30  1  0  0  0  0
  9 13  1  0  0  0  0
  9 10  1  0  0  0  0
 10 11  2  0  0  0  0
 10 31  1  0  0  0  0
 11 12  1  0  0  0  0
 12 13  2  0  0  0  0
 12 32  1  0  0  0  0
 14 19  1  0  0  0  0
 14 15  1  0  0  0  0
 15 16  1  0  0  0  0
 15 33  1  0  0  0  0
 15 34  1  0  0  0  0
 16 17  1  0  0  0  0
 16 35  1  0  0  0  0
 16 36  1  0  0  0  0
 17 18  1  0  0  0  0
 18 19  1  0  0  0  0
 18 37  1  0  0  0  0
 18 38  1  0  0  0  0
 19 39  1  0  0  0  0
 19 40  1  0  0  0  0
M  END
> <s_m_source_file>
AV-unprocessed.smi

> <i_m_source_file_index>
3349

> <i_lp_mmshare_version>
43012

> <i_f3d_flags>
0

> <s_epik_input>
W0NIMl0xW0NIMl1PW0NIMl1bQ0gyXU4xW0NASF0oW0NIM10pW0NIMl1bTkhdQyg9TylbQ0BIXShbQ0gzXSluMltjSF1uW2NIXW4y

> <s_epik_cmdline>
J2VwaWtfcHl0aG9uJywgJy1waCcsICc3LjAnLCAnLXRuJywgJzgnLCAnLW1hJywgJzIwMCcsICctbWV0YWxfYmluZGluZycsICctaW1hZScsICc8aW5maWxlLm1hZT4nLCAnLW9tYWUnLCAnPG91dGZpbGUubWFlPic=

> <r_lp_tautomer_probability>
1

> <r_epik_Ionization_Penalty>
0.211373

> <r_epik_Ionization_Penalty_Charging>
0

> <r_epik_Ionization_Penalty_Neutral>
0.211373

> <r_epik_State_Penalty>
0.201459

> <r_epik_Charging_Adjusted_Penalty>
0.201459

> <i_epik_Tot_Q>
0

> <i_epik_Tot_abs_Q>
0

> <r_epik_Metal_State_Penalty>
0.201458

> <b_epik_Metal_Only>
0

> <s_lp_Force_Field>
OPLS_2005

> <r_lp_Energy>
34.2526

> <b_lp_Chiralities_Consistent>
1

> <s_lp_Variant>
AV-unprocessed.smi:3349-2

> <Gold.Version>
5.8.1

> <Gold.Id.Protein>
6NUR|6NUR_protein|mol2

> <Gold.PLP.Fitness>
35.3247

> <Gold.PLP.PLP>
-28.1903

> <Gold.PLP.part.hbond>
-2.1784

> <Gold.PLP.part.metal>
0.0000

> <Gold.PLP.part.buried>
-4.8004

> <Gold.PLP.part.nonpolar>
-22.0729

> <Gold.PLP.part.repulsive>
0.3696

> <Gold.PLP.ligand.clash>
0.0000

> <Gold.PLP.ligand.torsion>
0.5009

> <Gold.PLP.Chemscore.Hbond>
1.6521

> <Gold.PLP.Chemscore.CHOScore>
1.0000

> <Gold.PLP.Chemscore.Metal>
0.0000

> <Gold.Chemscore.Hbonds>
donor molecule, donor type, donor heavy atom, donor atom, acceptor molecule, acceptor atom, score
      P1  H  6896  6909       L1    17  0.54
      P1  H 10785 10796       L1    11  0.51
      L1  C    10    31       P1  7921  1.00

> <Gold.PLP.Chemscore.Internal.Correction>
0.1800

> <Gold.Rescore>
     Score         DG    S(hbond)    S(metal)    S(lipo)     H(rot)  DE(clash)    DE(int)     intcor
      8.44     -10.09       1.76        0.00      45.02       2.56       0.05       1.59       ----

> <Gold.Chemscore.Fitness>
8.4448

> <Gold.Chemscore.DG>
-10.0907

> <Gold.Chemscore.ZeroCoef>
-5.4800

> <Gold.Chemscore.Hbond>
1.7633

> <Gold.Chemscore.Metal>
0.0000

> <Gold.Chemscore.Lipo>
45.0196

> <Gold.Chemscore.Internal_Hbond>
0.0000

> <Gold.Chemscore.DEClash>
0.0546

> <Gold.Chemscore.DEInternal>
1.5913

> <Gold.Chemscore.Rot>
2.5570

> <Gold.Chemscore.Internal.Correction>
   9.000000E+99

> <Gold.Chemscore.Hbonds>
donor molecule, donor type, donor heavy atom, donor atom, acceptor molecule, acceptor atom, score
      P1  H  6896  6909       L1    17  0.03
      P1  H 10785 10796       L1    11  0.41

> <Gold.Chemscore.Hbond.Weighted>
-5.8893

> <Gold.Chemscore.Metal.Weighted>
-0.0000

> <Gold.Chemscore.Lipo.Weighted>
-5.2673

> <Gold.Chemscore.Internal_Hbond.Weighted>
0.0000

> <Gold.Chemscore.DEClash.Weighted>
0.0546

> <Gold.Chemscore.DEInternal.Weighted>
1.5913

> <Gold.Chemscore.Rot.Weighted>
6.5459

> <Gold.Chemscore.Internal.Correction.Weighted>
   9.000000E+99

> <Gold.Protein.RotatedTorsions>
[ 6907 6896 6895 6894 ] final  -54.21 input  -60.11 | X-H torsion
[ 7974 7965 7964 7962 ] final  -89.12 input  175.53 | X-H torsion
[ 8008 7997 7996 7995 ] final  119.01 input   59.86 | X-H torsion
[ 10167 10162 10161 10158 ] final  154.61 input  -65.29 | X-H torsion
[ 10718 10713 10712 10709 ] final  -44.48 input   66.30 | X-H torsion
[ 10763 10752 10751 10750 ] final   51.22 input  -60.55 | X-H torsion
[ 11005 11000 10999 10996 ] final -145.49 input  -57.11 | X-H torsion

> <Gold.Protein.ActiveResidues>
 VAL166  LYS551  ARG553  GLY616  TRP617  ASP618  TYR619  PRO620  LYS621  CYS622 
 ASP623  PHE694  ASN695  SER759  ASP760  ASP761  ALA762  ILE779  LEU786  VAL792 
 PHE793  MET794  SER795  GLU796  ALA797  LYS798  CYS799  TRP800  GLU811  SER814 

> <Gold.Protein.RotatedAtoms>
  150.8358  134.7630  159.6891 H   0  0  0  0  0  0  0  0  0  0  0  0  # atno 6907 bound_to 6896
  152.4455  134.5500  159.9874 H   0  0  0  0  0  0  0  0  0  0  0  0  # atno 6908 bound_to 6896
  151.5651  133.3360  159.3014 H   0  0  0  0  0  0  0  0  0  0  0  0  # atno 6909 bound_to 6896
  145.4440  140.9559  143.2059 H   0  0  0  0  0  0  0  0  0  0  0  0  # atno 7974 bound_to 7965
  156.2575  140.2862  156.0925 H   0  0  0  0  0  0  0  0  0  0  0  0  # atno 8008 bound_to 7997
  155.1447  140.0396  157.2824 H   0  0  0  0  0  0  0  0  0  0  0  0  # atno 8009 bound_to 7997
  154.6504  140.2543  155.7227 H   0  0  0  0  0  0  0  0  0  0  0  0  # atno 8010 bound_to 7997
  139.4823  144.5171  151.7934 H   0  0  0  0  0  0  0  0  0  0  0  0  # atno 10167 bound_to 10162
  156.2382  130.4178  149.8792 H   0  0  0  0  0  0  0  0  0  0  0  0  # atno 10718 bound_to 10713
  152.9785  135.5853  154.4380 H   0  0  0  0  0  0  0  0  0  0  0  0  # atno 10763 bound_to 10752
  154.3985  135.2768  155.2113 H   0  0  0  0  0  0  0  0  0  0  0  0  # atno 10764 bound_to 10752
  154.3955  135.6115  153.5921 H   0  0  0  0  0  0  0  0  0  0  0  0  # atno 10765 bound_to 10752
  140.7917  134.2960  157.5011 H   0  0  0  0  0  0  0  0  0  0  0  0  # atno 11005 bound_to 11000
  144.8103  139.5974  143.7032 LP  0  0  0  0  0  0  0  0  0  0  0  0  # atno 17320 bound_to 7965
  146.2541  139.6263  142.9407 LP  0  0  0  0  0  0  0  0  0  0  0  0  # atno 17321 bound_to 7965
  140.4681  144.1626  150.5914 LP  0  0  0  0  0  0  0  0  0  0  0  0  # atno 17342 bound_to 10162
  140.4412  143.2525  151.9470 LP  0  0  0  0  0  0  0  0  0  0  0  0  # atno 17343 bound_to 10162
  156.6383  130.8694  151.3509 LP  0  0  0  0  0  0  0  0  0  0  0  0  # atno 17370 bound_to 10713
  157.7163  130.9502  150.1270 LP  0  0  0  0  0  0  0  0  0  0  0  0  # atno 17371 bound_to 10713
  139.8730  134.9378  156.3698 LP  0  0  0  0  0  0  0  0  0  0  0  0  # atno 17394 bound_to 11000
  140.9383  133.7532  156.0113 LP  0  0  0  0  0  0  0  0  0  0  0  0  # atno 17395 bound_to 11000

$$$$
