#       Name:                AV-unprocessed.smi:1983
#       Creating user name   scv26
#       Creation time:       Fri Mar 27 10:23:27 2020


#       File generated by GOLD software.
#

@<TRIPOS>MOLECULE
AV-unprocessed.smi:1983
    57    58     1
SMALL
NO_CHARGES


@<TRIPOS>ATOM
      1 ****        -5.4601   1.1310  -4.5916 C.3            1 S1                 0.0000
      2 ****        -4.4330   1.3891  -3.4786 C.3            1 S1                 0.0000
      3 ****        -5.0066   1.1082  -2.0759 C.3            1 S1                 0.0000
      4 ****        -5.9636   2.0862  -1.7280 O.3            1 S1                 0.0000
      5 ****        -3.2532   0.5615  -3.7160 N.am           1 S1                 0.0000
      6 ****        -2.0053   0.8614  -3.3291 C.2            1 S1                 0.0000
      7 ****        -1.6967   1.8829  -2.7155 O.2            1 S1                 0.0000
      8 ****        -1.1317  -0.0925  -3.6813 N.am           1 S1                 0.0000
      9 ****         0.3052  -0.0427  -3.4257 C.3            1 S1                 0.0000
     10 ****         0.7086  -0.2286  -1.9681 C.ar           1 S1                 0.0000
     11 ****        -0.0798  -0.9680  -1.0579 C.ar           1 S1                 0.0000
     12 ****         0.3420  -1.1041   0.2806 C.ar           1 S1                 0.0000
     13 ****         1.5581  -0.5090   0.7023 C.ar           1 S1                 0.0000
     14 ****         2.0562  -0.5830   2.0213 N.3            1 S1                 0.0000
     15 ****         1.2202  -1.2075   3.0419 C.3            1 S1                 0.0000
     16 ****         1.7486  -0.9030   4.4573 C.3            1 S1                 0.0000
     17 ****         1.4360   0.5270   4.9343 C.3            1 S1                 0.0000
     18 ****         3.1417  -1.2082   4.5409 O.3            1 S1                 0.0000
     19 ****         3.9594  -0.5318   3.5878 C.3            1 S1                 0.0000
     20 ****         5.4115  -0.9626   3.8192 C.3            1 S1                 0.0000
     21 ****         3.4810  -0.8706   2.1653 C.3            1 S1                 0.0000
     22 ****         2.2814   0.1810  -0.2130 N.pl3          1 S1                 1.0000
     23 ****         1.9116   0.3387  -1.5021 C.ar           1 S1                 0.0000
     24 ****        -6.3391   1.7650  -4.4726 H              1 S1                 0.0000
     25 ****        -5.7964   0.0937  -4.5908 H              1 S1                 0.0000
     26 ****        -5.0358   1.3431  -5.5735 H              1 S1                 0.0000
     27 ****        -4.1342   2.4379  -3.5342 H              1 S1                 0.0000
     28 ****        -5.4602   0.1178  -2.0278 H              1 S1                 0.0000
     29 ****        -4.2179   1.1374  -1.3232 H              1 S1                 0.0000
     30 ****        -6.2838   1.8985  -0.8588 H              1 S1                 0.0000
     31 ****        -3.4012  -0.3027  -4.2162 H              1 S1                 0.0000
     32 ****        -1.4792  -0.8960  -4.1844 H              1 S1                 0.0000
     33 ****         0.7812  -0.8276  -4.0137 H              1 S1                 0.0000
     34 ****         0.7026   0.9037  -3.7967 H              1 S1                 0.0000
     35 ****        -1.0039  -1.4290  -1.3736 H              1 S1                 0.0000
     36 ****        -0.2763  -1.6735   0.9579 H              1 S1                 0.0000
     37 ****         0.1898  -0.8592   2.9638 H              1 S1                 0.0000
     38 ****         1.2129  -2.2854   2.8748 H              1 S1                 0.0000
     39 ****         1.2480  -1.5802   5.1499 H              1 S1                 0.0000
     40 ****         0.3593   0.6860   4.9957 H              1 S1                 0.0000
     41 ****         1.8355   1.2861   4.2624 H              1 S1                 0.0000
     42 ****         1.8519   0.7053   5.9261 H              1 S1                 0.0000
     43 ****         3.8994   0.5448   3.7475 H              1 S1                 0.0000
     44 ****         6.0850  -0.4660   3.1203 H              1 S1                 0.0000
     45 ****         5.5292  -2.0390   3.6905 H              1 S1                 0.0000
     46 ****         5.7369  -0.7109   4.8289 H              1 S1                 0.0000
     47 ****         3.6450  -1.9282   1.9545 H              1 S1                 0.0000
     48 ****         4.0798  -0.3072   1.4499 H              1 S1                 0.0000
     49 ****         2.5851   0.9182  -2.1170 H              1 S1                 0.0000
     50 ****         3.1542   0.6136   0.0905 H              1 S1                 0.0000
     51 ****        -6.7222   2.0619  -2.3791 LP             1 S1                 0.0000
     52 ****        -5.5404   2.9921  -1.7428 LP             1 S1                 0.0000
     53 ****        -2.3989   2.5529  -2.4746 LP             1 S1                 0.0000
     54 ****        -0.7438   2.0427  -2.4578 LP             1 S1                 0.0000
     55 ****         1.9717   0.3862   2.2524 LP             1 S1                 0.0000
     56 ****         3.2535  -2.1925   4.4042 LP             1 S1                 0.0000
     57 ****         3.4603  -0.9605   5.4559 LP             1 S1                 0.0000
@<TRIPOS>BOND
    1    1    2 1     
    2    1   24 1     
    3    1   25 1     
    4    1   26 1     
    5    2    3 1     
    6    2    5 1     
    7    2   27 1     
    8    3    4 1     
    9    3   28 1     
   10    3   29 1     
   11    4   30 1     
   12    5    6 am    
   13    5   31 1     
   14    6    7 2     
   15    6    8 am    
   16    8    9 1     
   17    8   32 1     
   18    9   10 1     
   19    9   33 1     
   20    9   34 1     
   21   10   23 ar    
   22   10   11 ar    
   23   11   12 ar    
   24   11   35 1     
   25   12   13 ar    
   26   12   36 1     
   27   13   14 1     
   28   13   22 ar    
   29   14   21 1     
   30   14   15 1     
   31   15   16 1     
   32   15   37 1     
   33   15   38 1     
   34   16   17 1     
   35   16   18 1     
   36   16   39 1     
   37   17   40 1     
   38   17   41 1     
   39   17   42 1     
   40   18   19 1     
   41   19   20 1     
   42   19   21 1     
   43   19   43 1     
   44   20   44 1     
   45   20   45 1     
   46   20   46 1     
   47   21   47 1     
   48   21   48 1     
   49   22   23 ar    
   50   22   50 1     
   51   23   49 1     
   52    4   51 1     
   53    4   52 1     
   54    7   53 1     
   55    7   54 1     
   56   14   55 1     
   57   18   56 1     
   58   18   57 1     
@<TRIPOS>SUBSTRUCTURE
      1 S1             1
@<TRIPOS>SET
LONE_PAIRS      STATIC     ATOMS    <user>   **** ""
7 51 52 53 54 55 56 57
DONOR_HYDROGENS      STATIC     ATOMS    <user>   **** ""
4 30 31 32 50
ATOM$BLUE        STATIC     ATOMS    COLORGROUP SYSTEM
7 51 52 53 54 55 56 57
ATOM$RED        STATIC     ATOMS    COLORGROUP SYSTEM
4 30 31 32 50
