AV-unprocessed.smi:753|AV-procd|sdf|3605|dock8
  -GOLD-   22720 1 03D 1   1.00000     0.00000
 Structure written by MMmdl.
 44 46  0  0  0  0  0  0  0  0  2 V2000
  145.7904  129.9563  151.3036 C   0  0  0  0  0  0  0  0  0  0  0  0
  145.5353  131.4485  151.3124 C   0  0  0  0  0  0  0  0  0  0  0  0
  144.2517  131.9911  151.5352 C   0  0  0  0  0  0  0  0  0  0  0  0
  144.0843  133.3912  151.5234 C   0  0  0  0  0  0  0  0  0  0  0  0
  145.2036  134.2208  151.2907 C   0  0  0  0  0  0  0  0  0  0  0  0
  145.0543  135.7313  151.2352 C   0  0  0  0  0  0  0  0  0  0  0  0
  145.2357  136.4210  152.6015 C   0  0  0  0  0  0  0  0  0  0  0  0
  146.6309  136.7515  152.8820 N   0  0  0  0  0  0  0  0  0  0  0  0
  147.0885  137.3358  154.0034 C   0  0  0  0  0  0  0  0  0  0  0  0
  146.3669  137.6539  154.9469 O   0  0  0  0  0  0  0  0  0  0  0  0
  148.4173  137.5375  154.0287 N   0  0  0  0  0  0  0  0  0  0  0  0
  149.2139  138.1459  155.0974 C   0  0  2  0  0  0  0  0  0  0  0  0
  150.0348  139.3430  154.5680 C   0  0  0  0  0  0  0  0  0  0  0  0
  151.4850  138.9475  154.9019 C   0  0  2  0  0  0  0  0  0  0  0  0
  151.9343  137.8014  153.9757 C   0  0  0  0  0  0  0  0  0  0  0  0
  151.1625  136.5904  154.5327 C   0  0  0  0  0  0  0  0  0  0  0  0
  150.3207  137.2188  155.6645 C   0  0  1  0  0  0  0  0  0  0  0  0
  151.3102  138.2299  156.2336 C   0  0  0  0  0  0  0  0  0  0  0  0
  146.4645  133.6219  151.0838 C   0  0  0  0  0  0  0  0  0  0  0  0
  146.5827  132.2765  151.0996 N   0  3  0  0  0  0  0  0  0  0  0  0
  144.8648  129.4034  151.1405 H   0  0  0  0  0  0  0  0  0  0  0  0
  146.2153  129.6404  152.2565 H   0  0  0  0  0  0  0  0  0  0  0  0
  146.4881  129.6883  150.5094 H   0  0  0  0  0  0  0  0  0  0  0  0
  143.4035  131.3448  151.7077 H   0  0  0  0  0  0  0  0  0  0  0  0
  143.1050  133.8196  151.6802 H   0  0  0  0  0  0  0  0  0  0  0  0
  145.7716  136.1386  150.5213 H   0  0  0  0  0  0  0  0  0  0  0  0
  144.0663  135.9658  150.8375 H   0  0  0  0  0  0  0  0  0  0  0  0
  144.6626  137.3483  152.6171 H   0  0  0  0  0  0  0  0  0  0  0  0
  144.8232  135.7985  153.3973 H   0  0  0  0  0  0  0  0  0  0  0  0
  147.3028  136.5278  152.1622 H   0  0  0  0  0  0  0  0  0  0  0  0
  148.9380  137.2102  153.2278 H   0  0  0  0  0  0  0  0  0  0  0  0
  148.5605  138.4921  155.9004 H   0  0  0  0  0  0  0  0  0  0  0  0
  149.8983  139.5253  153.5010 H   0  0  0  0  0  0  0  0  0  0  0  0
  149.7555  140.2568  155.0941 H   0  0  0  0  0  0  0  0  0  0  0  0
  152.1744  139.7922  154.9193 H   0  0  0  0  0  0  0  0  0  0  0  0
  151.6963  138.0001  152.9301 H   0  0  0  0  0  0  0  0  0  0  0  0
  153.0101  137.6367  154.0487 H   0  0  0  0  0  0  0  0  0  0  0  0
  150.5682  136.0835  153.7725 H   0  0  0  0  0  0  0  0  0  0  0  0
  151.8579  135.8555  154.9403 H   0  0  0  0  0  0  0  0  0  0  0  0
  149.9529  136.4891  156.3865 H   0  0  0  0  0  0  0  0  0  0  0  0
  152.2307  137.7763  156.6055 H   0  0  0  0  0  0  0  0  0  0  0  0
  150.8830  138.8626  157.0138 H   0  0  0  0  0  0  0  0  0  0  0  0
  147.3726  134.1739  150.8907 H   0  0  0  0  0  0  0  0  0  0  0  0
  147.5031  131.8672  150.9383 H   0  0  0  0  0  0  0  0  0  0  0  0
  1  2  1  0  0  0  0
  1 21  1  0  0  0  0
  1 22  1  0  0  0  0
  1 23  1  0  0  0  0
  2 20  1  0  0  0  0
  2  3  2  0  0  0  0
  3  4  1  0  0  0  0
  3 24  1  0  0  0  0
  4  5  2  0  0  0  0
  4 25  1  0  0  0  0
  5  6  1  0  0  0  0
  5 19  1  0  0  0  0
  6  7  1  0  0  0  0
  6 26  1  0  0  0  0
  6 27  1  0  0  0  0
  7  8  1  0  0  0  0
  7 28  1  0  0  0  0
  7 29  1  0  0  0  0
  8  9  1  0  0  0  0
  8 30  1  0  0  0  0
  9 10  2  0  0  0  0
  9 11  1  0  0  0  0
 11 12  1  0  0  0  0
 11 31  1  0  0  0  0
 12 17  1  0  0  0  0
 12 13  1  0  0  0  0
 12 32  1  0  0  0  0
 13 14  1  0  0  0  0
 13 33  1  0  0  0  0
 13 34  1  0  0  0  0
 14 18  1  0  0  0  0
 14 15  1  0  0  0  0
 14 35  1  0  0  0  0
 15 16  1  0  0  0  0
 15 36  1  0  0  0  0
 15 37  1  0  0  0  0
 16 17  1  0  0  0  0
 16 38  1  0  0  0  0
 16 39  1  0  0  0  0
 17 18  1  0  0  0  0
 17 40  1  0  0  0  0
 18 41  1  0  0  0  0
 18 42  1  0  0  0  0
 19 20  2  0  0  0  0
 19 43  1  0  0  0  0
 20 44  1  0  0  0  0
M  CHG  1  20   1
M  END
> <s_m_source_file>
AV-unprocessed.smi

> <i_m_source_file_index>
753

> <i_lp_mmshare_version>
43012

> <i_f3d_flags>
0

> <s_epik_input>
W0NIM11jMVtjSF1bY0hdYyhbY0hdbjEpW0NIMl1bQ0gyXVtOSF1DKD1PKVtOSF1bQ0BIXShbQ0gyXVtDQEBIXTIzKVtDQEBIXShbQ0gyXTMpW0NIMl1bQ0gyXTI=

> <s_epik_cmdline>
J2VwaWtfcHl0aG9uJywgJy1waCcsICc3LjAnLCAnLXRuJywgJzgnLCAnLW1hJywgJzIwMCcsICctbWV0YWxfYmluZGluZycsICctaW1hZScsICc8aW5maWxlLm1hZT4nLCAnLW9tYWUnLCAnPG91dGZpbGUubWFlPic=

> <r_epik_Ionization_Penalty>
1.41708

> <r_epik_Ionization_Penalty_Charging>
1.41702

> <r_epik_Ionization_Penalty_Neutral>
5.73163e-05

> <r_epik_State_Penalty>
1.50048

> <r_epik_Charging_Adjusted_Penalty>
2.9175

> <i_epik_Tot_Q>
1

> <i_epik_Tot_abs_Q>
1

> <r_epik_Metal_State_Penalty>
1.55295

> <b_epik_Metal_Only>
0

> <s_lp_Force_Field>
OPLS_2005

> <r_lp_Energy>
59.6045

> <b_lp_Chiralities_Consistent>
1

> <s_lp_Variant>
AV-unprocessed.smi:753-7

> <Gold.Version>
5.8.1

> <Gold.Id.Protein>
6NUR|6NUR_protein|mol2

> <Gold.PLP.Fitness>
43.8009

> <Gold.PLP.PLP>
-36.1703

> <Gold.PLP.part.hbond>
-3.0000

> <Gold.PLP.part.metal>
0.0000

> <Gold.PLP.part.buried>
-5.0526

> <Gold.PLP.part.nonpolar>
-28.2628

> <Gold.PLP.part.repulsive>
0.1782

> <Gold.PLP.ligand.clash>
0.0000

> <Gold.PLP.ligand.torsion>
0.5527

> <Gold.PLP.Chemscore.Hbond>
2.9040

> <Gold.PLP.Chemscore.CHOScore>
0.0000

> <Gold.PLP.Chemscore.Metal>
0.0000

> <Gold.Chemscore.Hbonds>
donor molecule, donor type, donor heavy atom, donor atom, acceptor molecule, acceptor atom, score
      L1  H     8    30       P1  7948  0.91
      L1  H    11    31       P1  7948  0.98
      L1  H    20    44       P1 10747  1.00

> <Gold.PLP.Chemscore.Internal.Correction>
0.0241

> <Gold.Rescore>
     Score         DG    S(hbond)    S(metal)    S(lipo)     H(rot)  DE(clash)    DE(int)     intcor
     22.04     -22.55       2.82        0.00      98.11       1.50       0.02       0.49       ----

> <Gold.Chemscore.Fitness>
22.0371

> <Gold.Chemscore.DG>
-22.5463

> <Gold.Chemscore.ZeroCoef>
-5.4800

> <Gold.Chemscore.Hbond>
2.8246

> <Gold.Chemscore.Metal>
0.0000

> <Gold.Chemscore.Lipo>
98.1097

> <Gold.Chemscore.Internal_Hbond>
0.0000

> <Gold.Chemscore.DEClash>
0.0237

> <Gold.Chemscore.DEInternal>
0.4856

> <Gold.Chemscore.Rot>
1.5027

> <Gold.Chemscore.Internal.Correction>
   9.000000E+99

> <Gold.Chemscore.Hbonds>
donor molecule, donor type, donor heavy atom, donor atom, acceptor molecule, acceptor atom, score
      L1  H     8    30       P1  7948  0.88
      L1  H    11    31       P1  7948  0.92
      L1  H    20    44       P1 10747  1.00

> <Gold.Chemscore.Hbond.Weighted>
-9.4343

> <Gold.Chemscore.Metal.Weighted>
-0.0000

> <Gold.Chemscore.Lipo.Weighted>
-11.4788

> <Gold.Chemscore.Internal_Hbond.Weighted>
0.0000

> <Gold.Chemscore.DEClash.Weighted>
0.0237

> <Gold.Chemscore.DEInternal.Weighted>
0.4856

> <Gold.Chemscore.Rot.Weighted>
3.8468

> <Gold.Chemscore.Internal.Correction.Weighted>
   9.000000E+99

> <Gold.Protein.RotatedTorsions>
[ 6907 6896 6895 6894 ] final  -67.12 input  -60.11 | X-H torsion
[ 7974 7965 7964 7962 ] final  -77.98 input  175.53 | X-H torsion
[ 8008 7997 7996 7995 ] final   57.65 input   59.86 | X-H torsion
[ 10167 10162 10161 10158 ] final -144.62 input  -65.29 | X-H torsion
[ 10718 10713 10712 10709 ] final  167.95 input   66.30 | X-H torsion
[ 10763 10752 10751 10750 ] final -128.08 input  -60.55 | X-H torsion
[ 11005 11000 10999 10996 ] final  -22.29 input  -57.11 | X-H torsion

> <Gold.Protein.ActiveResidues>
 VAL166  LYS551  ARG553  GLY616  TRP617  ASP618  TYR619  PRO620  LYS621  CYS622 
 ASP623  PHE694  ASN695  SER759  ASP760  ASP761  ALA762  ILE779  LEU786  VAL792 
 PHE793  MET794  SER795  GLU796  ALA797  LYS798  CYS799  TRP800  GLU811  SER814 

> <Gold.Protein.RotatedAtoms>
  150.7427  134.5926  159.5994 H   0  0  0  0  0  0  0  0  0  0  0  0  # atno 6907 bound_to 6896
  152.3309  134.7257  160.0298 H   0  0  0  0  0  0  0  0  0  0  0  0  # atno 6908 bound_to 6896
  151.7741  133.3308  159.3489 H   0  0  0  0  0  0  0  0  0  0  0  0  # atno 6909 bound_to 6896
  145.5926  140.9426  143.1284 H   0  0  0  0  0  0  0  0  0  0  0  0  # atno 7974 bound_to 7965
  155.5373  140.3483  155.4439 H   0  0  0  0  0  0  0  0  0  0  0  0  # atno 8008 bound_to 7997
  156.0676  140.1355  156.9893 H   0  0  0  0  0  0  0  0  0  0  0  0  # atno 8009 bound_to 7997
  154.4511  140.0972  156.6596 H   0  0  0  0  0  0  0  0  0  0  0  0  # atno 8010 bound_to 7997
  139.7882  143.8004  152.2647 H   0  0  0  0  0  0  0  0  0  0  0  0  # atno 10167 bound_to 10162
  157.0441  131.0295  151.2703 H   0  0  0  0  0  0  0  0  0  0  0  0  # atno 10718 bound_to 10713
  154.8755  135.3940  154.3698 H   0  0  0  0  0  0  0  0  0  0  0  0  # atno 10763 bound_to 10752
  153.4460  135.7027  153.6144 H   0  0  0  0  0  0  0  0  0  0  0  0  # atno 10764 bound_to 10752
  153.4705  135.3791  155.2357 H   0  0  0  0  0  0  0  0  0  0  0  0  # atno 10765 bound_to 10752
  140.8643  133.7765  156.0111 H   0  0  0  0  0  0  0  0  0  0  0  0  # atno 11005 bound_to 11000
  144.7345  139.7627  143.7335 LP  0  0  0  0  0  0  0  0  0  0  0  0  # atno 17320 bound_to 7965
  146.1636  139.4759  142.9973 LP  0  0  0  0  0  0  0  0  0  0  0  0  # atno 17321 bound_to 7965
  139.8087  144.7344  150.9726 LP  0  0  0  0  0  0  0  0  0  0  0  0  # atno 17342 bound_to 10162
  140.7820  143.4272  151.0750 LP  0  0  0  0  0  0  0  0  0  0  0  0  # atno 17343 bound_to 10162
  157.5081  130.7921  149.7676 LP  0  0  0  0  0  0  0  0  0  0  0  0  # atno 17370 bound_to 10713
  156.0028  130.3871  150.2540 LP  0  0  0  0  0  0  0  0  0  0  0  0  # atno 17371 bound_to 10713
  140.8647  134.2799  157.5219 LP  0  0  0  0  0  0  0  0  0  0  0  0  # atno 17394 bound_to 11000
  139.8708  134.9536  156.4150 LP  0  0  0  0  0  0  0  0  0  0  0  0  # atno 17395 bound_to 11000

$$$$
