AV-unprocessed.smi:2401|AV-procd|sdf|9504|dock3
  -GOLD-   2272013133D 1   1.00000     0.00000
 Structure written by MMmdl.
 34 35  0  0  0  0  0  0  0  0  1 V2000
  153.2675  142.5144  162.3529 C   0  0  0  0  0  0  0  0  0  0  0  0
  152.9540  142.0844  160.9306 C   0  0  0  0  0  0  0  0  0  0  0  0
  152.0972  142.9293  160.2192 N   0  0  0  0  0  0  0  0  0  0  0  0
  151.7707  142.6404  159.0020 C   0  0  0  0  0  0  0  0  0  0  0  0
  152.2571  141.4891  158.3613 N   0  0  0  0  0  0  0  0  0  0  0  0
  151.7989  141.2683  156.9791 C   0  0  0  0  0  0  0  0  0  0  0  0
  150.4378  141.9435  156.6997 C   0  0  1  0  0  0  0  0  0  0  0  0
  150.6703  143.2713  156.2720 O   0  0  0  0  0  0  0  0  0  0  0  0
  149.6425  141.1608  155.6659 C   0  0  0  0  0  0  0  0  0  0  0  0
  150.1420  139.9505  155.1354 C   0  0  0  0  0  0  0  0  0  0  0  0
  149.3948  139.2308  154.1828 C   0  0  0  0  0  0  0  0  0  0  0  0
  148.1425  139.7146  153.7572 C   0  0  0  0  0  0  0  0  0  0  0  0
  147.2276  138.8336  152.5897 Cl  0  0  0  0  0  0  0  0  0  0  0  0
  147.6372  140.9176  154.2871 C   0  0  0  0  0  0  0  0  0  0  0  0
  148.3842  141.6376  155.2396 C   0  0  0  0  0  0  0  0  0  0  0  0
  153.0945  140.6099  158.9836 C   0  0  0  0  0  0  0  0  0  0  0  0
  153.5063  139.5963  158.4155 O   0  0  0  0  0  0  0  0  0  0  0  0
  153.4596  140.9533  160.3674 C   0  0  0  0  0  0  0  0  0  0  0  0
  154.3966  139.9956  161.0928 C   0  0  0  0  0  0  0  0  0  0  0  0
  154.3404  142.6592  162.4817 H   0  0  0  0  0  0  0  0  0  0  0  0
  152.9289  141.7592  163.0628 H   0  0  0  0  0  0  0  0  0  0  0  0
  152.7715  143.4532  162.6027 H   0  0  0  0  0  0  0  0  0  0  0  0
  151.1015  143.2632  158.4056 H   0  0  0  0  0  0  0  0  0  0  0  0
  152.5401  141.5768  156.2383 H   0  0  0  0  0  0  0  0  0  0  0  0
  151.7023  140.1912  156.8279 H   0  0  0  0  0  0  0  0  0  0  0  0
  149.8461  141.9933  157.6148 H   0  0  0  0  0  0  0  0  0  0  0  0
  149.8386  143.6666  156.0591 H   0  0  0  0  0  0  0  0  0  0  0  0
  151.0996  139.5690  155.4586 H   0  0  0  0  0  0  0  0  0  0  0  0
  149.7837  138.3071  153.7802 H   0  0  0  0  0  0  0  0  0  0  0  0
  146.6757  141.2897  153.9647 H   0  0  0  0  0  0  0  0  0  0  0  0
  147.9860  142.5575  155.6424 H   0  0  0  0  0  0  0  0  0  0  0  0
  153.9482  139.0032  161.1500 H   0  0  0  0  0  0  0  0  0  0  0  0
  154.6297  140.3090  162.1089 H   0  0  0  0  0  0  0  0  0  0  0  0
  155.3395  139.9109  160.5517 H   0  0  0  0  0  0  0  0  0  0  0  0
  1  2  1  0  0  0  0
  1 20  1  0  0  0  0
  1 21  1  0  0  0  0
  1 22  1  0  0  0  0
  2 18  2  0  0  0  0
  2  3  1  0  0  0  0
  3  4  2  0  0  0  0
  4  5  1  0  0  0  0
  4 23  1  0  0  0  0
  5  6  1  0  0  0  0
  5 16  1  0  0  0  0
  6  7  1  0  0  0  0
  6 24  1  0  0  0  0
  6 25  1  0  0  0  0
  7  8  1  0  0  0  0
  7  9  1  0  0  0  0
  7 26  1  0  0  0  0
  8 27  1  0  0  0  0
  9 15  1  0  0  0  0
  9 10  2  0  0  0  0
 10 11  1  0  0  0  0
 10 28  1  0  0  0  0
 11 12  2  0  0  0  0
 11 29  1  0  0  0  0
 12 13  1  0  0  0  0
 12 14  1  0  0  0  0
 14 15  2  0  0  0  0
 14 30  1  0  0  0  0
 15 31  1  0  0  0  0
 16 17  2  0  0  0  0
 16 18  1  0  0  0  0
 18 19  1  0  0  0  0
 19 32  1  0  0  0  0
 19 33  1  0  0  0  0
 19 34  1  0  0  0  0
M  END
> <s_m_source_file>
AV-unprocessed.smi

> <i_m_source_file_index>
2401

> <i_lp_mmshare_version>
43012

> <i_f3d_flags>
0

> <s_epik_input>
W0NIM11jMW5bY0hdbihjKD1PKWMxW0NIM10pW0NIMl1bQ0BIXShbT0hdKWMyW2NIXVtjSF1jKENsKVtjSF1bY0hdMg==

> <s_epik_cmdline>
J2VwaWtfcHl0aG9uJywgJy1waCcsICc3LjAnLCAnLXRuJywgJzgnLCAnLW1hJywgJzIwMCcsICctbWV0YWxfYmluZGluZycsICctaW1hZScsICc8aW5maWxlLm1hZT4nLCAnLW9tYWUnLCAnPG91dGZpbGUubWFlPic=

> <r_lp_tautomer_probability>
1

> <r_epik_Ionization_Penalty>
5.07713e-05

> <r_epik_Ionization_Penalty_Charging>
7.56727e-08

> <r_epik_Ionization_Penalty_Neutral>
5.06957e-05

> <r_epik_State_Penalty>
-0

> <r_epik_Charging_Adjusted_Penalty>
7.56727e-08

> <i_epik_Tot_Q>
0

> <i_epik_Tot_abs_Q>
0

> <r_epik_Metal_State_Penalty>
-0

> <b_epik_Metal_Only>
0

> <s_lp_Force_Field>
OPLS_2005

> <r_lp_Energy>
18.5783

> <b_lp_Chiralities_Consistent>
1

> <s_lp_Variant>
AV-unprocessed.smi:2401-2

> <Gold.Version>
5.8.1

> <Gold.Id.Protein>
6NUR|6NUR_protein|mol2

> <Gold.PLP.Fitness>
43.1508

> <Gold.PLP.PLP>
-38.6234

> <Gold.PLP.part.hbond>
-1.7190

> <Gold.PLP.part.metal>
0.0000

> <Gold.PLP.part.buried>
-1.9599

> <Gold.PLP.part.nonpolar>
-33.7922

> <Gold.PLP.part.repulsive>
0.0128

> <Gold.PLP.ligand.clash>
0.0000

> <Gold.PLP.ligand.torsion>
0.7401

> <Gold.PLP.Chemscore.Hbond>
2.0000

> <Gold.PLP.Chemscore.CHOScore>
0.0000

> <Gold.PLP.Chemscore.Metal>
0.0000

> <Gold.Chemscore.Hbonds>
donor molecule, donor type, donor heavy atom, donor atom, acceptor molecule, acceptor atom, score
      L1  H     8    27       P1  8028  0.84
      P1  H  7997  8009       L1    17  1.00

> <Gold.PLP.Chemscore.Internal.Correction>
0.0077

> <Gold.Rescore>
     Score         DG    S(hbond)    S(metal)    S(lipo)     H(rot)  DE(clash)    DE(int)     intcor
     17.01     -18.03       1.91        0.00      94.79       1.93       0.27       0.75       ----

> <Gold.Chemscore.Fitness>
17.0085

> <Gold.Chemscore.DG>
-18.0306

> <Gold.Chemscore.ZeroCoef>
-5.4800

> <Gold.Chemscore.Hbond>
1.9137

> <Gold.Chemscore.Metal>
0.0000

> <Gold.Chemscore.Lipo>
94.7925

> <Gold.Chemscore.Internal_Hbond>
0.0000

> <Gold.Chemscore.DEClash>
0.2744

> <Gold.Chemscore.DEInternal>
0.7477

> <Gold.Chemscore.Rot>
1.9265

> <Gold.Chemscore.Internal.Correction>
   9.000000E+99

> <Gold.Chemscore.Hbonds>
donor molecule, donor type, donor heavy atom, donor atom, acceptor molecule, acceptor atom, score
      L1  H     8    27       P1  8028  0.83
      P1  H  7997  8009       L1    17  0.74

> <Gold.Chemscore.Hbond.Weighted>
-6.3916

> <Gold.Chemscore.Metal.Weighted>
-0.0000

> <Gold.Chemscore.Lipo.Weighted>
-11.0907

> <Gold.Chemscore.Internal_Hbond.Weighted>
0.0000

> <Gold.Chemscore.DEClash.Weighted>
0.2744

> <Gold.Chemscore.DEInternal.Weighted>
0.7477

> <Gold.Chemscore.Rot.Weighted>
4.9317

> <Gold.Chemscore.Internal.Correction.Weighted>
   9.000000E+99

> <Gold.Protein.RotatedTorsions>
[ 6907 6896 6895 6894 ] final -162.08 input  -60.11 | X-H torsion
[ 7974 7965 7964 7962 ] final   43.70 input  175.53 | X-H torsion
[ 8008 7997 7996 7995 ] final  142.33 input   59.86 | X-H torsion
[ 10167 10162 10161 10158 ] final  -21.68 input  -65.29 | X-H torsion
[ 10718 10713 10712 10709 ] final   79.08 input   66.30 | X-H torsion
[ 10763 10752 10751 10750 ] final -173.80 input  -60.55 | X-H torsion
[ 11005 11000 10999 10996 ] final  -19.42 input  -57.11 | X-H torsion

> <Gold.Protein.ActiveResidues>
 VAL166  LYS551  ARG553  GLY616  TRP617  ASP618  TYR619  PRO620  LYS621  CYS622 
 ASP623  PHE694  ASN695  SER759  ASP760  ASP761  ALA762  ILE779  LEU786  VAL792 
 PHE793  MET794  SER795  GLU796  ALA797  LYS798  CYS799  TRP800  GLU811  SER814 

> <Gold.Protein.RotatedAtoms>
  151.3746  133.3842  159.2703 H   0  0  0  0  0  0  0  0  0  0  0  0  # atno 6907 bound_to 6896
  150.9624  134.9011  159.7749 H   0  0  0  0  0  0  0  0  0  0  0  0  # atno 6908 bound_to 6896
  152.5154  134.3706  159.9369 H   0  0  0  0  0  0  0  0  0  0  0  0  # atno 6909 bound_to 6896
  146.0633  139.5157  142.9644 H   0  0  0  0  0  0  0  0  0  0  0  0  # atno 7974 bound_to 7965
  156.2951  140.2291  156.4710 H   0  0  0  0  0  0  0  0  0  0  0  0  # atno 8008 bound_to 7997
  154.7935  140.0453  157.1240 H   0  0  0  0  0  0  0  0  0  0  0  0  # atno 8009 bound_to 7997
  154.9617  140.3055  155.5031 H   0  0  0  0  0  0  0  0  0  0  0  0  # atno 8010 bound_to 7997
  140.7283  143.4605  151.0387 H   0  0  0  0  0  0  0  0  0  0  0  0  # atno 10167 bound_to 10162
  157.6765  130.9898  150.1880 H   0  0  0  0  0  0  0  0  0  0  0  0  # atno 10718 bound_to 10713
  154.6037  135.2857  155.0508 H   0  0  0  0  0  0  0  0  0  0  0  0  # atno 10763 bound_to 10752
  154.1763  135.6464  153.5026 H   0  0  0  0  0  0  0  0  0  0  0  0  # atno 10764 bound_to 10752
  153.0167  135.5413  154.6765 H   0  0  0  0  0  0  0  0  0  0  0  0  # atno 10765 bound_to 10752
  140.8365  133.7958  155.9814 H   0  0  0  0  0  0  0  0  0  0  0  0  # atno 11005 bound_to 11000
  145.6522  141.0260  143.1754 LP  0  0  0  0  0  0  0  0  0  0  0  0  # atno 17320 bound_to 7965
  144.7187  139.8104  143.7389 LP  0  0  0  0  0  0  0  0  0  0  0  0  # atno 17321 bound_to 7965
  139.8289  143.7718  152.3179 LP  0  0  0  0  0  0  0  0  0  0  0  0  # atno 17342 bound_to 10162
  139.7827  144.7439  151.0066 LP  0  0  0  0  0  0  0  0  0  0  0  0  # atno 17343 bound_to 10162
  156.2598  130.3709  149.8143 LP  0  0  0  0  0  0  0  0  0  0  0  0  # atno 17370 bound_to 10713
  156.5892  130.8499  151.3403 LP  0  0  0  0  0  0  0  0  0  0  0  0  # atno 17371 bound_to 10713
  140.8942  134.2458  157.5078 LP  0  0  0  0  0  0  0  0  0  0  0  0  # atno 17394 bound_to 11000
  139.8704  134.9676  156.4601 LP  0  0  0  0  0  0  0  0  0  0  0  0  # atno 17395 bound_to 11000

$$$$
