AV-unprocessed.smi:2718|AV-procd|sdf|10487|dock5
  -GOLD-   2272014533D 1   1.00000     0.00000
 Structure written by MMmdl.
 47 48  0  0  0  0  0  0  0  0  1 V2000
  140.9151  136.5913  154.0914 C   0  0  0  0  0  0  0  0  0  0  0  0
  142.0059  135.9652  153.2456 C   0  0  0  0  0  0  0  0  0  0  0  0
  141.7898  134.4977  152.9200 C   0  0  0  0  0  0  0  0  0  0  0  0
  143.0706  136.6763  152.8261 C   0  0  0  0  0  0  0  0  0  0  0  0
  144.2026  136.1882  151.9852 C   0  0  1  0  0  0  0  0  0  0  0  0
  145.6706  136.5090  152.2473 C   0  0  1  0  0  0  0  0  0  0  0  0
  146.0573  137.3765  153.4125 C   0  0  0  0  0  0  0  0  0  0  0  0
  145.2593  137.8540  154.2196 O   0  0  0  0  0  0  0  0  0  0  0  0
  147.3743  137.6253  153.4770 N   0  0  0  0  0  0  0  0  0  0  0  0
  148.0050  138.5286  154.4343 C   0  0  0  0  0  0  0  0  0  0  0  0
  149.5130  138.7083  154.1563 C   0  0  2  0  0  0  0  0  0  0  0  0
  150.3253  137.4221  154.3885 C   0  0  0  0  0  0  0  0  0  0  0  0
  150.0770  139.8595  154.9402 C   0  0  0  0  0  0  0  0  0  0  0  0
  151.1544  139.7618  155.7310 N   0  0  0  0  0  0  0  0  0  0  0  0
  151.3373  141.0184  156.2721 N   0  0  0  0  0  0  0  0  0  0  0  0
  150.3506  141.7508  155.7576 C   0  0  0  0  0  0  0  0  0  0  0  0
  149.5303  141.0941  154.9238 N   0  0  0  0  0  0  0  0  0  0  0  0
  148.3729  141.6021  154.2136 C   0  0  0  0  0  0  0  0  0  0  0  0
  145.1476  135.0888  152.4472 C   0  0  0  0  0  0  0  0  0  0  0  0
  144.9901  134.4332  153.8180 C   0  0  0  0  0  0  0  0  0  0  0  0
  145.5932  134.0348  151.4478 C   0  0  0  0  0  0  0  0  0  0  0  0
  140.8270  136.0683  155.0438 H   0  0  0  0  0  0  0  0  0  0  0  0
  139.9566  136.5298  153.5755 H   0  0  0  0  0  0  0  0  0  0  0  0
  141.1207  137.6419  154.2991 H   0  0  0  0  0  0  0  0  0  0  0  0
  140.8679  134.3730  152.3521 H   0  0  0  0  0  0  0  0  0  0  0  0
  141.7039  133.9183  153.8393 H   0  0  0  0  0  0  0  0  0  0  0  0
  142.6057  134.0747  152.3348 H   0  0  0  0  0  0  0  0  0  0  0  0
  143.1372  137.7127  153.1234 H   0  0  0  0  0  0  0  0  0  0  0  0
  143.9060  136.1546  150.9386 H   0  0  0  0  0  0  0  0  0  0  0  0
  146.2721  136.6688  151.3533 H   0  0  0  0  0  0  0  0  0  0  0  0
  147.9739  137.2003  152.7844 H   0  0  0  0  0  0  0  0  0  0  0  0
  147.4991  139.4955  154.4084 H   0  0  0  0  0  0  0  0  0  0  0  0
  147.8515  138.1301  155.4375 H   0  0  0  0  0  0  0  0  0  0  0  0
  149.6167  138.9456  153.0982 H   0  0  0  0  0  0  0  0  0  0  0  0
  151.3761  137.5757  154.1408 H   0  0  0  0  0  0  0  0  0  0  0  0
  149.9628  136.6015  153.7695 H   0  0  0  0  0  0  0  0  0  0  0  0
  150.2721  137.1014  155.4294 H   0  0  0  0  0  0  0  0  0  0  0  0
  150.2218  142.7960  155.9985 H   0  0  0  0  0  0  0  0  0  0  0  0
  148.2277  142.6592  154.4390 H   0  0  0  0  0  0  0  0  0  0  0  0
  147.4831  141.0497  154.5174 H   0  0  0  0  0  0  0  0  0  0  0  0
  148.5191  141.4869  153.1393 H   0  0  0  0  0  0  0  0  0  0  0  0
  145.9669  134.1599  154.2178 H   0  0  0  0  0  0  0  0  0  0  0  0
  144.3881  133.5276  153.7369 H   0  0  0  0  0  0  0  0  0  0  0  0
  144.4951  135.0822  154.5375 H   0  0  0  0  0  0  0  0  0  0  0  0
  146.5438  133.5978  151.7551 H   0  0  0  0  0  0  0  0  0  0  0  0
  145.7218  134.4693  150.4561 H   0  0  0  0  0  0  0  0  0  0  0  0
  144.8501  133.2403  151.3749 H   0  0  0  0  0  0  0  0  0  0  0  0
  1  2  1  0  0  0  0
  1 22  1  0  0  0  0
  1 23  1  0  0  0  0
  1 24  1  0  0  0  0
  2  3  1  0  0  0  0
  2  4  2  0  0  0  0
  3 25  1  0  0  0  0
  3 26  1  0  0  0  0
  3 27  1  0  0  0  0
  4  5  1  0  0  0  0
  4 28  1  0  0  0  0
  5 19  1  0  0  0  0
  5  6  1  0  0  0  0
  5 29  1  0  0  0  0
  6  7  1  0  0  0  0
  6 19  1  0  0  0  0
  6 30  1  0  0  0  0
  7  8  2  0  0  0  0
  7  9  1  0  0  0  0
  9 10  1  0  0  0  0
  9 31  1  0  0  0  0
 10 11  1  0  0  0  0
 10 32  1  0  0  0  0
 10 33  1  0  0  0  0
 11 12  1  0  0  0  0
 11 13  1  0  0  0  0
 11 34  1  0  0  0  0
 12 35  1  0  0  0  0
 12 36  1  0  0  0  0
 12 37  1  0  0  0  0
 13 17  1  0  0  0  0
 13 14  2  0  0  0  0
 14 15  1  0  0  0  0
 15 16  2  0  0  0  0
 16 17  1  0  0  0  0
 16 38  1  0  0  0  0
 17 18  1  0  0  0  0
 18 39  1  0  0  0  0
 18 40  1  0  0  0  0
 18 41  1  0  0  0  0
 19 20  1  0  0  0  0
 19 21  1  0  0  0  0
 20 42  1  0  0  0  0
 20 43  1  0  0  0  0
 20 44  1  0  0  0  0
 21 45  1  0  0  0  0
 21 46  1  0  0  0  0
 21 47  1  0  0  0  0
M  END
> <s_m_source_file>
AV-unprocessed.smi

> <i_m_source_file_index>
2718

> <i_lp_mmshare_version>
43012

> <i_f3d_flags>
0

> <s_epik_input>
W0NIM11DKFtDSDNdKT1bQ0hdW0NAQEhdKEMxKFtDSDNdKVtDSDNdKVtDQEhdMUMoPU8pW05IXVtDSDJdW0NASF0oW0NIM10pYzJubltjSF1uMltDSDNd

> <s_epik_cmdline>
J2VwaWtfcHl0aG9uJywgJy1waCcsICc3LjAnLCAnLXRuJywgJzgnLCAnLW1hJywgJzIwMCcsICctbWV0YWxfYmluZGluZycsICctaW1hZScsICc8aW5maWxlLm1hZT4nLCAnLW9tYWUnLCAnPG91dGZpbGUubWFlPic=

> <r_lp_tautomer_probability>
1

> <r_epik_Ionization_Penalty>
0.000449586

> <r_epik_Ionization_Penalty_Charging>
0

> <r_epik_Ionization_Penalty_Neutral>
0.000449586

> <r_epik_State_Penalty>
0.000243372

> <r_epik_Charging_Adjusted_Penalty>
0.000243372

> <i_epik_Tot_Q>
0

> <i_epik_Tot_abs_Q>
0

> <r_epik_Metal_State_Penalty>
-0

> <b_epik_Metal_Only>
0

> <s_lp_Force_Field>
OPLS_2005

> <r_lp_Energy>
16.2745

> <b_lp_Chiralities_Consistent>
1

> <s_lp_Variant>
AV-unprocessed.smi:2718-2

> <Gold.Version>
5.8.1

> <Gold.Id.Protein>
6NUR|6NUR_protein|mol2

> <Gold.PLP.Fitness>
40.1707

> <Gold.PLP.PLP>
-34.5005

> <Gold.PLP.part.hbond>
-1.0000

> <Gold.PLP.part.metal>
0.0000

> <Gold.PLP.part.buried>
-4.3949

> <Gold.PLP.part.nonpolar>
-28.9713

> <Gold.PLP.part.repulsive>
0.1546

> <Gold.PLP.ligand.clash>
0.0000

> <Gold.PLP.ligand.torsion>
0.3189

> <Gold.PLP.Chemscore.Hbond>
1.0000

> <Gold.PLP.Chemscore.CHOScore>
1.0000

> <Gold.PLP.Chemscore.Metal>
0.0000

> <Gold.Chemscore.Hbonds>
donor molecule, donor type, donor heavy atom, donor atom, acceptor molecule, acceptor atom, score
      L1  H     9    31       P1  7948  1.00
      L1  C    16    38       P1  8028  1.00

> <Gold.PLP.Chemscore.Internal.Correction>
0.3079

> <Gold.Rescore>
     Score         DG    S(hbond)    S(metal)    S(lipo)     H(rot)  DE(clash)    DE(int)     intcor
      9.89     -11.53       1.00        0.00      65.91       1.95       0.13       1.51       ----

> <Gold.Chemscore.Fitness>
9.8878

> <Gold.Chemscore.DG>
-11.5285

> <Gold.Chemscore.ZeroCoef>
-5.4800

> <Gold.Chemscore.Hbond>
0.9992

> <Gold.Chemscore.Metal>
0.0000

> <Gold.Chemscore.Lipo>
65.9127

> <Gold.Chemscore.Internal_Hbond>
0.0000

> <Gold.Chemscore.DEClash>
0.1334

> <Gold.Chemscore.DEInternal>
1.5073

> <Gold.Chemscore.Rot>
1.9533

> <Gold.Chemscore.Internal.Correction>
   9.000000E+99

> <Gold.Chemscore.Hbonds>
donor molecule, donor type, donor heavy atom, donor atom, acceptor molecule, acceptor atom, score
      L1  H     9    31       P1  7948  1.00

> <Gold.Chemscore.Hbond.Weighted>
-3.3372

> <Gold.Chemscore.Metal.Weighted>
-0.0000

> <Gold.Chemscore.Lipo.Weighted>
-7.7118

> <Gold.Chemscore.Internal_Hbond.Weighted>
0.0000

> <Gold.Chemscore.DEClash.Weighted>
0.1334

> <Gold.Chemscore.DEInternal.Weighted>
1.5073

> <Gold.Chemscore.Rot.Weighted>
5.0005

> <Gold.Chemscore.Internal.Correction.Weighted>
   9.000000E+99

> <Gold.Protein.RotatedTorsions>
[ 6907 6896 6895 6894 ] final  124.02 input  -60.11 | X-H torsion
[ 7974 7965 7964 7962 ] final  -93.47 input  175.53 | X-H torsion
[ 8008 7997 7996 7995 ] final   30.27 input   59.86 | X-H torsion
[ 10167 10162 10161 10158 ] final  -60.69 input  -65.29 | X-H torsion
[ 10718 10713 10712 10709 ] final   -6.96 input   66.30 | X-H torsion
[ 10763 10752 10751 10750 ] final  -69.96 input  -60.55 | X-H torsion
[ 11005 11000 10999 10996 ] final   63.17 input  -57.11 | X-H torsion

> <Gold.Protein.ActiveResidues>
 VAL166  LYS551  ARG553  GLY616  TRP617  ASP618  TYR619  PRO620  LYS621  CYS622 
 ASP623  PHE694  ASN695  SER759  ASP760  ASP761  ALA762  ILE779  LEU786  VAL792 
 PHE793  MET794  SER795  GLU796  ALA797  LYS798  CYS799  TRP800  GLU811  SER814 

> <Gold.Protein.RotatedAtoms>
  152.4113  133.6968  159.6400 H   0  0  0  0  0  0  0  0  0  0  0  0  # atno 6907 bound_to 6896
  150.7993  133.8618  159.3243 H   0  0  0  0  0  0  0  0  0  0  0  0  # atno 6908 bound_to 6896
  151.6360  135.1020  160.0183 H   0  0  0  0  0  0  0  0  0  0  0  0  # atno 6909 bound_to 6896
  145.3861  140.9523  143.2367 H   0  0  0  0  0  0  0  0  0  0  0  0  # atno 7974 bound_to 7965
  155.0878  140.3217  155.4582 H   0  0  0  0  0  0  0  0  0  0  0  0  # atno 8008 bound_to 7997
  156.2750  140.2083  156.5952 H   0  0  0  0  0  0  0  0  0  0  0  0  # atno 8009 bound_to 7997
  154.6927  140.0515  157.0367 H   0  0  0  0  0  0  0  0  0  0  0  0  # atno 8010 bound_to 7997
  140.6055  143.2372  151.5831 H   0  0  0  0  0  0  0  0  0  0  0  0  # atno 10167 bound_to 10162
  156.7242  130.5160  149.5861 H   0  0  0  0  0  0  0  0  0  0  0  0  # atno 10718 bound_to 10713
  154.4109  135.6009  153.5952 H   0  0  0  0  0  0  0  0  0  0  0  0  # atno 10763 bound_to 10752
  152.9790  135.5929  154.4071 H   0  0  0  0  0  0  0  0  0  0  0  0  # atno 10764 bound_to 10752
  154.3883  135.2841  155.2148 H   0  0  0  0  0  0  0  0  0  0  0  0  # atno 10765 bound_to 10752
  140.0043  134.6394  155.9881 H   0  0  0  0  0  0  0  0  0  0  0  0  # atno 11005 bound_to 11000
  144.8473  139.5376  143.6872 LP  0  0  0  0  0  0  0  0  0  0  0  0  # atno 17320 bound_to 7965
  146.2820  139.6901  142.9222 LP  0  0  0  0  0  0  0  0  0  0  0  0  # atno 17321 bound_to 7965
  139.5322  144.2884  152.1172 LP  0  0  0  0  0  0  0  0  0  0  0  0  # atno 17342 bound_to 10162
  140.2073  144.4598  150.6402 LP  0  0  0  0  0  0  0  0  0  0  0  0  # atno 17343 bound_to 10162
  156.1573  130.6350  151.0674 LP  0  0  0  0  0  0  0  0  0  0  0  0  # atno 17370 bound_to 10713
  157.6885  131.0817  150.7174 LP  0  0  0  0  0  0  0  0  0  0  0  0  # atno 17371 bound_to 10713
  141.1665  133.6537  156.4498 LP  0  0  0  0  0  0  0  0  0  0  0  0  # atno 17394 bound_to 11000
  140.4671  134.6788  157.5112 LP  0  0  0  0  0  0  0  0  0  0  0  0  # atno 17395 bound_to 11000

$$$$
