AV-unprocessed.smi:453|AV-procd|sdf|2611|dock9
  -GOLD-   2262023 13D 1   1.00000     0.00000
 Structure written by MMmdl.
 43 44  0  0  0  0  0  0  0  0  1 V2000
  145.6538  132.5514  151.0392 C   0  0  0  0  0  0  0  0  0  0  0  0
  144.3590  133.2096  150.5277 C   0  0  0  0  0  0  0  0  0  0  0  0
  143.9959  132.6625  149.1386 C   0  0  0  0  0  0  0  0  0  0  0  0
  144.4271  134.7542  150.5006 C   0  0  0  0  0  0  0  0  0  0  0  0
  144.4912  135.3938  151.8914 C   0  0  0  0  0  0  0  0  0  0  0  0
  144.5128  134.6868  152.8987 O   0  0  0  0  0  0  0  0  0  0  0  0
  144.5453  136.7340  151.9304 N   0  0  0  0  0  0  0  0  0  0  0  0
  144.6181  137.5345  153.1487 C   0  0  0  0  0  0  0  0  0  0  0  0
  146.0311  137.8480  153.6225 C   0  0  0  0  0  0  0  0  0  0  0  0
  146.8319  136.8269  154.1701 C   0  0  0  0  0  0  0  0  0  0  0  0
  148.1294  137.1379  154.6189 C   0  0  0  0  0  0  0  0  0  0  0  0
  148.5956  138.4698  154.5141 C   0  0  0  0  0  0  0  0  0  0  0  0
  149.8911  138.8058  154.9636 N   0  0  0  0  0  0  0  0  0  0  0  0
  151.0286  138.1286  154.3435 C   0  0  0  0  0  0  0  0  0  0  0  0
  152.3150  138.4019  155.1406 C   0  0  0  0  0  0  0  0  0  0  0  0
  152.5133  139.8063  155.2636 O   0  0  0  0  0  0  0  0  0  0  0  0
  151.4458  140.4316  155.9682 C   0  0  0  0  0  0  0  0  0  0  0  0
  150.1260  140.2276  155.2043 C   0  0  0  0  0  0  0  0  0  0  0  0
  147.8236  139.4506  153.9842 N   0  0  0  0  0  0  0  0  0  0  0  0
  146.5801  139.1470  153.5562 C   0  0  0  0  0  0  0  0  0  0  0  0
  146.5120  132.8425  150.4324 H   0  0  0  0  0  0  0  0  0  0  0  0
  145.5784  131.4642  151.0061 H   0  0  0  0  0  0  0  0  0  0  0  0
  145.8672  132.8229  152.0728 H   0  0  0  0  0  0  0  0  0  0  0  0
  143.5539  132.9195  151.2046 H   0  0  0  0  0  0  0  0  0  0  0  0
  144.7607  132.9122  148.4024 H   0  0  0  0  0  0  0  0  0  0  0  0
  143.0491  133.0737  148.7877 H   0  0  0  0  0  0  0  0  0  0  0  0
  143.8937  131.5769  149.1571 H   0  0  0  0  0  0  0  0  0  0  0  0
  145.2970  135.0780  149.9274 H   0  0  0  0  0  0  0  0  0  0  0  0
  143.5578  135.1531  149.9752 H   0  0  0  0  0  0  0  0  0  0  0  0
  144.5297  137.2354  151.0539 H   0  0  0  0  0  0  0  0  0  0  0  0
  144.1067  138.4789  152.9614 H   0  0  0  0  0  0  0  0  0  0  0  0
  144.0641  137.0397  153.9485 H   0  0  0  0  0  0  0  0  0  0  0  0
  146.4599  135.8155  154.2442 H   0  0  0  0  0  0  0  0  0  0  0  0
  148.7518  136.3540  155.0238 H   0  0  0  0  0  0  0  0  0  0  0  0
  150.8512  137.0531  154.3021 H   0  0  0  0  0  0  0  0  0  0  0  0
  151.1440  138.4809  153.3175 H   0  0  0  0  0  0  0  0  0  0  0  0
  152.2652  137.9423  156.1291 H   0  0  0  0  0  0  0  0  0  0  0  0
  153.1731  137.9652  154.6295 H   0  0  0  0  0  0  0  0  0  0  0  0
  151.3765  140.0267  156.9792 H   0  0  0  0  0  0  0  0  0  0  0  0
  151.6612  141.4957  156.0663 H   0  0  0  0  0  0  0  0  0  0  0  0
  150.1681  140.7437  154.2440 H   0  0  0  0  0  0  0  0  0  0  0  0
  149.3150  140.6817  155.7719 H   0  0  0  0  0  0  0  0  0  0  0  0
  146.0112  139.9732  153.1563 H   0  0  0  0  0  0  0  0  0  0  0  0
  1  2  1  0  0  0  0
  1 21  1  0  0  0  0
  1 22  1  0  0  0  0
  1 23  1  0  0  0  0
  2  3  1  0  0  0  0
  2  4  1  0  0  0  0
  2 24  1  0  0  0  0
  3 25  1  0  0  0  0
  3 26  1  0  0  0  0
  3 27  1  0  0  0  0
  4  5  1  0  0  0  0
  4 28  1  0  0  0  0
  4 29  1  0  0  0  0
  5  6  2  0  0  0  0
  5  7  1  0  0  0  0
  7  8  1  0  0  0  0
  7 30  1  0  0  0  0
  8  9  1  0  0  0  0
  8 31  1  0  0  0  0
  8 32  1  0  0  0  0
  9 20  1  0  0  0  0
  9 10  2  0  0  0  0
 10 11  1  0  0  0  0
 10 33  1  0  0  0  0
 11 12  2  0  0  0  0
 11 34  1  0  0  0  0
 12 13  1  0  0  0  0
 12 19  1  0  0  0  0
 13 18  1  0  0  0  0
 13 14  1  0  0  0  0
 14 15  1  0  0  0  0
 14 35  1  0  0  0  0
 14 36  1  0  0  0  0
 15 16  1  0  0  0  0
 15 37  1  0  0  0  0
 15 38  1  0  0  0  0
 16 17  1  0  0  0  0
 17 18  1  0  0  0  0
 17 39  1  0  0  0  0
 17 40  1  0  0  0  0
 18 41  1  0  0  0  0
 18 42  1  0  0  0  0
 19 20  2  0  0  0  0
 20 43  1  0  0  0  0
M  END
> <s_m_source_file>
AV-unprocessed.smi

> <i_m_source_file_index>
453

> <i_lp_mmshare_version>
43012

> <i_f3d_flags>
0

> <s_epik_input>
W0NIM11bQ0hdKFtDSDNdKVtDSDJdQyg9TylbTkhdW0NIMl1jMVtjSF1bY0hdYyhuW2NIXTEpTjJbQ0gyXVtDSDJdT1tDSDJdW0NIMl0y

> <s_epik_cmdline>
J2VwaWtfcHl0aG9uJywgJy1waCcsICc3LjAnLCAnLXRuJywgJzgnLCAnLW1hJywgJzIwMCcsICctbWV0YWxfYmluZGluZycsICctaW1hZScsICc8aW5maWxlLm1hZT4nLCAnLW9tYWUnLCAnPG91dGZpbGUubWFlPic=

> <r_lp_tautomer_probability>
1

> <r_epik_Ionization_Penalty>
0.00505548

> <r_epik_Ionization_Penalty_Charging>
0

> <r_epik_Ionization_Penalty_Neutral>
0.00505548

> <r_epik_State_Penalty>
0.00367784

> <r_epik_Charging_Adjusted_Penalty>
0.00367784

> <i_epik_Tot_Q>
0

> <i_epik_Tot_abs_Q>
0

> <r_epik_Metal_State_Penalty>
-0

> <b_epik_Metal_Only>
0

> <s_lp_Force_Field>
OPLS_2005

> <r_lp_Energy>
17.3119

> <b_lp_Chiralities_Consistent>
1

> <s_lp_Variant>
AV-unprocessed.smi:453-1

> <Gold.Version>
5.8.1

> <Gold.Id.Protein>
6NUR|6NUR_protein|mol2

> <Gold.PLP.Fitness>
40.4878

> <Gold.PLP.PLP>
-32.0350

> <Gold.PLP.part.hbond>
-2.9488

> <Gold.PLP.part.metal>
0.0000

> <Gold.PLP.part.buried>
-2.5068

> <Gold.PLP.part.nonpolar>
-26.8575

> <Gold.PLP.part.repulsive>
0.3575

> <Gold.PLP.ligand.clash>
0.0000

> <Gold.PLP.ligand.torsion>
0.5967

> <Gold.PLP.Chemscore.Hbond>
2.1007

> <Gold.PLP.Chemscore.CHOScore>
1.0000

> <Gold.PLP.Chemscore.Metal>
0.0000

> <Gold.Chemscore.Hbonds>
donor molecule, donor type, donor heavy atom, donor atom, acceptor molecule, acceptor atom, score
      L1  H     7    30       P1 10171  1.00
      P1  H  7989  7998       L1    16  0.07
      P1  H  7997  8008       L1    16  0.93
      L1  C    20    43       P1 10175  1.00

> <Gold.PLP.Chemscore.Internal.Correction>
0.3440

> <Gold.Rescore>
     Score         DG    S(hbond)    S(metal)    S(lipo)     H(rot)  DE(clash)    DE(int)     intcor
     15.28     -16.50       1.76        0.00      79.94       1.65       0.61       0.61       ----

> <Gold.Chemscore.Fitness>
15.2755

> <Gold.Chemscore.DG>
-16.4951

> <Gold.Chemscore.ZeroCoef>
-5.4800

> <Gold.Chemscore.Hbond>
1.7613

> <Gold.Chemscore.Metal>
0.0000

> <Gold.Chemscore.Lipo>
79.9409

> <Gold.Chemscore.Internal_Hbond>
0.0000

> <Gold.Chemscore.DEClash>
0.6064

> <Gold.Chemscore.DEInternal>
0.6132

> <Gold.Chemscore.Rot>
1.6488

> <Gold.Chemscore.Internal.Correction>
   9.000000E+99

> <Gold.Chemscore.Hbonds>
donor molecule, donor type, donor heavy atom, donor atom, acceptor molecule, acceptor atom, score
      L1  H     7    30       P1 10171  0.97
      P1  H  7997  8008       L1    16  0.60

> <Gold.Chemscore.Hbond.Weighted>
-5.8828

> <Gold.Chemscore.Metal.Weighted>
-0.0000

> <Gold.Chemscore.Lipo.Weighted>
-9.3531

> <Gold.Chemscore.Internal_Hbond.Weighted>
0.0000

> <Gold.Chemscore.DEClash.Weighted>
0.6064

> <Gold.Chemscore.DEInternal.Weighted>
0.6132

> <Gold.Chemscore.Rot.Weighted>
4.2208

> <Gold.Chemscore.Internal.Correction.Weighted>
   9.000000E+99

> <Gold.Protein.RotatedTorsions>
[ 6907 6896 6895 6894 ] final -166.30 input  -60.11 | X-H torsion
[ 7974 7965 7964 7962 ] final  -89.10 input  175.53 | X-H torsion
[ 8008 7997 7996 7995 ] final  -25.26 input   59.86 | X-H torsion
[ 10167 10162 10161 10158 ] final -154.14 input  -65.29 | X-H torsion
[ 10718 10713 10712 10709 ] final  159.91 input   66.30 | X-H torsion
[ 10763 10752 10751 10750 ] final  110.73 input  -60.55 | X-H torsion
[ 11005 11000 10999 10996 ] final   87.01 input  -57.11 | X-H torsion

> <Gold.Protein.ActiveResidues>
 VAL166  LYS551  ARG553  GLY616  TRP617  ASP618  TYR619  PRO620  LYS621  CYS622 
 ASP623  PHE694  ASN695  SER759  ASP760  ASP761  ALA762  ILE779  LEU786  VAL792 
 PHE793  MET794  SER795  GLU796  ALA797  LYS798  CYS799  TRP800  GLU811  SER814 

> <Gold.Protein.RotatedAtoms>
  151.4414  133.3642  159.2782 H   0  0  0  0  0  0  0  0  0  0  0  0  # atno 6907 bound_to 6896
  150.9155  134.8574  159.7465 H   0  0  0  0  0  0  0  0  0  0  0  0  # atno 6908 bound_to 6896
  152.4955  134.4347  159.9576 H   0  0  0  0  0  0  0  0  0  0  0  0  # atno 6909 bound_to 6896
  145.4444  140.9559  143.2057 H   0  0  0  0  0  0  0  0  0  0  0  0  # atno 7974 bound_to 7965
  154.4485  140.1931  156.0592 H   0  0  0  0  0  0  0  0  0  0  0  0  # atno 8008 bound_to 7997
  156.0596  140.3298  155.7418 H   0  0  0  0  0  0  0  0  0  0  0  0  # atno 8009 bound_to 7997
  155.5433  140.0588  157.2856 H   0  0  0  0  0  0  0  0  0  0  0  0  # atno 8010 bound_to 7997
  139.7038  143.9219  152.2440 H   0  0  0  0  0  0  0  0  0  0  0  0  # atno 10167 bound_to 10162
  157.1577  131.0579  151.2248 H   0  0  0  0  0  0  0  0  0  0  0  0  # atno 10718 bound_to 10713
  153.4532  135.3739  155.2296 H   0  0  0  0  0  0  0  0  0  0  0  0  # atno 10763 bound_to 10752
  154.8756  135.3890  154.4014 H   0  0  0  0  0  0  0  0  0  0  0  0  # atno 10764 bound_to 10752
  153.4576  135.7086  153.6134 H   0  0  0  0  0  0  0  0  0  0  0  0  # atno 10765 bound_to 10752
  139.8930  134.8394  156.2800 H   0  0  0  0  0  0  0  0  0  0  0  0  # atno 11005 bound_to 11000
  144.8101  139.5978  143.7033 LP  0  0  0  0  0  0  0  0  0  0  0  0  # atno 17320 bound_to 7965
  146.2539  139.6259  142.9408 LP  0  0  0  0  0  0  0  0  0  0  0  0  # atno 17321 bound_to 7965
  139.9069  144.6879  150.8604 LP  0  0  0  0  0  0  0  0  0  0  0  0  # atno 17342 bound_to 10162
  140.7716  143.3472  151.2087 LP  0  0  0  0  0  0  0  0  0  0  0  0  # atno 17343 bound_to 10162
  157.4162  130.7412  149.6877 LP  0  0  0  0  0  0  0  0  0  0  0  0  # atno 17370 bound_to 10713
  155.9759  130.4082  150.3815 LP  0  0  0  0  0  0  0  0  0  0  0  0  # atno 17371 bound_to 10713
  141.0044  133.7132  156.1012 LP  0  0  0  0  0  0  0  0  0  0  0  0  # atno 17394 bound_to 11000
  140.7453  134.4105  157.5549 LP  0  0  0  0  0  0  0  0  0  0  0  0  # atno 17395 bound_to 11000

$$$$
