AV-unprocessed.smi:1822|AV-procd|sdf|7390|dock2
  -GOLD-   22720 9 53D 1   1.00000     0.00000
 Structure written by MMmdl.
 46 47  0  0  0  0  0  0  0  0  1 V2000
  153.5124  137.7010  156.6834 C   0  0  0  0  0  0  0  0  0  0  0  0
  152.3998  138.5437  156.2719 N   0  0  0  0  0  0  0  0  0  0  0  0
  151.4035  138.1481  155.4624 C   0  0  0  0  0  0  0  0  0  0  0  0
  151.3578  137.0056  155.0027 O   0  0  0  0  0  0  0  0  0  0  0  0
  150.4104  139.1906  155.1921 C   0  0  0  0  0  0  0  0  0  0  0  0
  150.4796  140.5250  155.7688 C   0  0  0  0  0  0  0  0  0  0  0  0
  149.5379  141.4451  155.4822 C   0  0  0  0  0  0  0  0  0  0  0  0
  148.4146  141.1483  154.5888 C   0  0  0  0  0  0  0  0  0  0  0  0
  147.5520  141.9857  154.3242 O   0  0  0  0  0  0  0  0  0  0  0  0
  148.3855  139.8832  154.0705 N   0  0  0  0  0  0  0  0  0  0  0  0
  147.3061  139.4672  153.1589 C   0  0  0  0  0  0  0  0  0  0  0  0
  146.5515  138.2344  153.6726 C   0  0  0  0  0  0  0  0  0  0  0  0
  146.0549  138.2617  154.8000 O   0  0  0  0  0  0  0  0  0  0  0  0
  146.4815  137.1920  152.8185 N   0  0  0  0  0  0  0  0  0  0  0  0
  145.8802  136.0039  153.0179 C   0  0  0  0  0  0  0  0  0  0  0  0
  145.0182  135.7671  153.8671 O   0  0  0  0  0  0  0  0  0  0  0  0
  146.3396  135.0844  152.1562 N   0  0  0  0  0  0  0  0  0  0  0  0
  145.6602  133.8410  151.8043 C   0  0  0  0  0  0  0  0  0  0  0  0
  146.5340  133.0380  150.8221 C   0  0  0  0  0  0  0  0  0  0  0  0
  145.8311  131.7491  150.3658 C   0  0  0  0  0  0  0  0  0  0  0  0
  144.4550  132.0516  149.7527 C   0  0  0  0  0  0  0  0  0  0  0  0
  143.5756  132.8461  150.7308 C   0  0  0  0  0  0  0  0  0  0  0  0
  144.2750  134.1353  151.1916 C   0  0  0  0  0  0  0  0  0  0  0  0
  149.3741  138.9256  154.3728 C   0  0  0  0  0  0  0  0  0  0  0  0
  154.1974  138.2713  157.3107 H   0  0  0  0  0  0  0  0  0  0  0  0
  154.0665  137.3373  155.8173 H   0  0  0  0  0  0  0  0  0  0  0  0
  153.1586  136.8436  157.2568 H   0  0  0  0  0  0  0  0  0  0  0  0
  152.3858  139.4913  156.6206 H   0  0  0  0  0  0  0  0  0  0  0  0
  151.2800  140.8088  156.4361 H   0  0  0  0  0  0  0  0  0  0  0  0
  149.6102  142.4289  155.9224 H   0  0  0  0  0  0  0  0  0  0  0  0
  146.6024  140.2875  153.0037 H   0  0  0  0  0  0  0  0  0  0  0  0
  147.6994  139.2421  152.1664 H   0  0  0  0  0  0  0  0  0  0  0  0
  146.9371  137.3182  151.9267 H   0  0  0  0  0  0  0  0  0  0  0  0
  147.2252  135.2582  151.7042 H   0  0  0  0  0  0  0  0  0  0  0  0
  145.5268  133.2398  152.7061 H   0  0  0  0  0  0  0  0  0  0  0  0
  146.7670  133.6492  149.9490 H   0  0  0  0  0  0  0  0  0  0  0  0
  147.4880  132.7888  151.2881 H   0  0  0  0  0  0  0  0  0  0  0  0
  146.4530  131.2233  149.6410 H   0  0  0  0  0  0  0  0  0  0  0  0
  145.7125  131.0772  151.2168 H   0  0  0  0  0  0  0  0  0  0  0  0
  144.5822  132.6202  148.8306 H   0  0  0  0  0  0  0  0  0  0  0  0
  143.9578  131.1214  149.4766 H   0  0  0  0  0  0  0  0  0  0  0  0
  142.6221  133.0882  150.2609 H   0  0  0  0  0  0  0  0  0  0  0  0
  143.3441  132.2272  151.5986 H   0  0  0  0  0  0  0  0  0  0  0  0
  143.6442  134.6515  151.9164 H   0  0  0  0  0  0  0  0  0  0  0  0
  144.3830  134.8106  150.3416 H   0  0  0  0  0  0  0  0  0  0  0  0
  149.2263  137.9670  153.8948 H   0  0  0  0  0  0  0  0  0  0  0  0
  1  2  1  0  0  0  0
  1 25  1  0  0  0  0
  1 26  1  0  0  0  0
  1 27  1  0  0  0  0
  2  3  1  0  0  0  0
  2 28  1  0  0  0  0
  3  4  2  0  0  0  0
  3  5  1  0  0  0  0
  5 24  2  0  0  0  0
  5  6  1  0  0  0  0
  6  7  2  0  0  0  0
  6 29  1  0  0  0  0
  7  8  1  0  0  0  0
  7 30  1  0  0  0  0
  8  9  2  0  0  0  0
  8 10  1  0  0  0  0
 10 11  1  0  0  0  0
 10 24  1  0  0  0  0
 11 12  1  0  0  0  0
 11 31  1  0  0  0  0
 11 32  1  0  0  0  0
 12 13  2  0  0  0  0
 12 14  1  0  0  0  0
 14 15  1  0  0  0  0
 14 33  1  0  0  0  0
 15 16  2  0  0  0  0
 15 17  1  0  0  0  0
 17 18  1  0  0  0  0
 17 34  1  0  0  0  0
 18 23  1  0  0  0  0
 18 19  1  0  0  0  0
 18 35  1  0  0  0  0
 19 20  1  0  0  0  0
 19 36  1  0  0  0  0
 19 37  1  0  0  0  0
 20 21  1  0  0  0  0
 20 38  1  0  0  0  0
 20 39  1  0  0  0  0
 21 22  1  0  0  0  0
 21 40  1  0  0  0  0
 21 41  1  0  0  0  0
 22 23  1  0  0  0  0
 22 42  1  0  0  0  0
 22 43  1  0  0  0  0
 23 44  1  0  0  0  0
 23 45  1  0  0  0  0
 24 46  1  0  0  0  0
M  END
> <s_m_source_file>
AV-unprocessed.smi

> <i_m_source_file_index>
1822

> <i_lp_mmshare_version>
43012

> <i_f3d_flags>
0

> <s_epik_input>
W0NIM11bTkhdQyg9TyljMVtjSF1bY0hdYyg9TyluKFtjSF0xKVtDSDJdQyg9TylbTkhdQyg9TylbTkhdW0NIXTJbQ0gyXVtDSDJdW0NIMl1bQ0gyXVtDSDJdMg==

> <s_epik_cmdline>
J2VwaWtfcHl0aG9uJywgJy1waCcsICc3LjAnLCAnLXRuJywgJzgnLCAnLW1hJywgJzIwMCcsICctbWV0YWxfYmluZGluZycsICctaW1hZScsICc8aW5maWxlLm1hZT4nLCAnLW9tYWUnLCAnPG91dGZpbGUubWFlPic=

> <r_lp_tautomer_probability>
1

> <r_epik_Ionization_Penalty>
3.30797e-05

> <r_epik_Ionization_Penalty_Charging>
3.7169e-08

> <r_epik_Ionization_Penalty_Neutral>
3.30425e-05

> <r_epik_State_Penalty>
-0

> <r_epik_Charging_Adjusted_Penalty>
3.7169e-08

> <i_epik_Tot_Q>
0

> <i_epik_Tot_abs_Q>
0

> <r_epik_Metal_State_Penalty>
-0

> <b_epik_Metal_Only>
0

> <s_lp_Force_Field>
OPLS_2005

> <r_lp_Energy>
24.3679

> <b_lp_Chiralities_Consistent>
1

> <s_lp_Variant>
AV-unprocessed.smi:1822-1

> <Gold.Version>
5.8.1

> <Gold.Id.Protein>
6NUR|6NUR_protein|mol2

> <Gold.PLP.Fitness>
48.0608

> <Gold.PLP.PLP>
-39.9851

> <Gold.PLP.part.hbond>
-3.0000

> <Gold.PLP.part.metal>
0.0000

> <Gold.PLP.part.buried>
0.6251

> <Gold.PLP.part.nonpolar>
-38.6034

> <Gold.PLP.part.repulsive>
0.6758

> <Gold.PLP.ligand.clash>
0.0000

> <Gold.PLP.ligand.torsion>
0.1989

> <Gold.PLP.Chemscore.Hbond>
1.8237

> <Gold.PLP.Chemscore.CHOScore>
0.9892

> <Gold.PLP.Chemscore.Metal>
0.0000

> <Gold.Chemscore.Hbonds>
donor molecule, donor type, donor heavy atom, donor atom, acceptor molecule, acceptor atom, score
      L1  H    14    33       P1  7948  0.10
      L1  H    17    34       P1  7948  0.93
      P1  H 10752 10763       L1     4  0.68
      L1  C    24    46       P1  7948  0.67

> <Gold.PLP.Chemscore.Internal.Correction>
0.0352

> <Gold.Rescore>
     Score         DG    S(hbond)    S(metal)    S(lipo)     H(rot)  DE(clash)    DE(int)     intcor
     16.01     -17.82       1.92        0.00      86.06       1.62       0.19       1.63       ----

> <Gold.Chemscore.Fitness>
16.0075

> <Gold.Chemscore.DG>
-17.8221

> <Gold.Chemscore.ZeroCoef>
-5.4800

> <Gold.Chemscore.Hbond>
1.9184

> <Gold.Chemscore.Metal>
0.0000

> <Gold.Chemscore.Lipo>
86.0618

> <Gold.Chemscore.Internal_Hbond>
0.0000

> <Gold.Chemscore.DEClash>
0.1874

> <Gold.Chemscore.DEInternal>
1.6272

> <Gold.Chemscore.Rot>
1.6151

> <Gold.Chemscore.Internal.Correction>
   9.000000E+99

> <Gold.Chemscore.Hbonds>
donor molecule, donor type, donor heavy atom, donor atom, acceptor molecule, acceptor atom, score
      L1  H    14    33       P1  7948  0.11
      L1  H    17    34       P1  7948  0.86
      P1  H 10752 10763       L1     4  0.67

> <Gold.Chemscore.Hbond.Weighted>
-6.4074

> <Gold.Chemscore.Metal.Weighted>
-0.0000

> <Gold.Chemscore.Lipo.Weighted>
-10.0692

> <Gold.Chemscore.Internal_Hbond.Weighted>
0.0000

> <Gold.Chemscore.DEClash.Weighted>
0.1874

> <Gold.Chemscore.DEInternal.Weighted>
1.6272

> <Gold.Chemscore.Rot.Weighted>
4.1346

> <Gold.Chemscore.Internal.Correction.Weighted>
   9.000000E+99

> <Gold.Protein.RotatedTorsions>
[ 6907 6896 6895 6894 ] final  116.62 input  -60.11 | X-H torsion
[ 7974 7965 7964 7962 ] final   40.03 input  175.53 | X-H torsion
[ 8008 7997 7996 7995 ] final    5.94 input   59.86 | X-H torsion
[ 10167 10162 10161 10158 ] final   34.15 input  -65.29 | X-H torsion
[ 10718 10713 10712 10709 ] final  149.34 input   66.30 | X-H torsion
[ 10763 10752 10751 10750 ] final   50.31 input  -60.55 | X-H torsion
[ 11005 11000 10999 10996 ] final  172.75 input  -57.11 | X-H torsion

> <Gold.Protein.ActiveResidues>
 VAL166  LYS551  ARG553  GLY616  TRP617  ASP618  TYR619  PRO620  LYS621  CYS622 
 ASP623  PHE694  ASN695  SER759  ASP760  ASP761  ALA762  ILE779  LEU786  VAL792 
 PHE793  MET794  SER795  GLU796  ALA797  LYS798  CYS799  TRP800  GLU811  SER814 

> <Gold.Protein.RotatedAtoms>
  152.4666  133.7937  159.6915 H   0  0  0  0  0  0  0  0  0  0  0  0  # atno 6907 bound_to 6896
  150.8634  133.7601  159.2991 H   0  0  0  0  0  0  0  0  0  0  0  0  # atno 6908 bound_to 6896
  151.5159  135.1069  159.9918 H   0  0  0  0  0  0  0  0  0  0  0  0  # atno 6909 bound_to 6896
  146.0937  139.5581  142.9459 H   0  0  0  0  0  0  0  0  0  0  0  0  # atno 7974 bound_to 7965
  154.7347  140.2737  155.6425 H   0  0  0  0  0  0  0  0  0  0  0  0  # atno 8008 bound_to 7997
  156.2859  140.2709  156.1983 H   0  0  0  0  0  0  0  0  0  0  0  0  # atno 8009 bound_to 7997
  155.0336  140.0371  157.2473 H   0  0  0  0  0  0  0  0  0  0  0  0  # atno 8010 bound_to 7997
  140.4342  144.1281  150.6164 H   0  0  0  0  0  0  0  0  0  0  0  0  # atno 10167 bound_to 10162
  157.2973  131.0864  151.1417 H   0  0  0  0  0  0  0  0  0  0  0  0  # atno 10718 bound_to 10713
  152.9785  135.5883  154.4232 H   0  0  0  0  0  0  0  0  0  0  0  0  # atno 10763 bound_to 10752
  154.3854  135.2767  155.2188 H   0  0  0  0  0  0  0  0  0  0  0  0  # atno 10764 bound_to 10752
  154.4084  135.6087  153.5992 H   0  0  0  0  0  0  0  0  0  0  0  0  # atno 10765 bound_to 10752
  140.3331  134.7340  157.4148 H   0  0  0  0  0  0  0  0  0  0  0  0  # atno 11005 bound_to 11000
  145.5989  141.0358  143.2029 LP  0  0  0  0  0  0  0  0  0  0  0  0  # atno 17320 bound_to 7965
  144.7379  139.7531  143.7322 LP  0  0  0  0  0  0  0  0  0  0  0  0  # atno 17321 bound_to 7965
  140.4393  143.2534  151.9494 LP  0  0  0  0  0  0  0  0  0  0  0  0  # atno 17342 bound_to 10162
  139.4786  144.5670  151.8149 LP  0  0  0  0  0  0  0  0  0  0  0  0  # atno 17343 bound_to 10162
  157.2790  130.6741  149.6056 LP  0  0  0  0  0  0  0  0  0  0  0  0  # atno 17370 bound_to 10713
  155.9670  130.4456  150.5506 LP  0  0  0  0  0  0  0  0  0  0  0  0  # atno 17371 bound_to 10713
  140.0844  134.5687  155.8507 LP  0  0  0  0  0  0  0  0  0  0  0  0  # atno 17394 bound_to 11000
  141.2058  133.6650  156.6204 LP  0  0  0  0  0  0  0  0  0  0  0  0  # atno 17395 bound_to 11000

$$$$
