#       Name:                AV-unprocessed.smi:3292
#       Creating user name   scv26
#       Creation time:       Fri Mar 27 18:56:08 2020


#       File generated by GOLD software.
#

@<TRIPOS>MOLECULE
AV-unprocessed.smi:3292
    43    44     1
SMALL
NO_CHARGES


@<TRIPOS>ATOM
      1 ****        -2.2262  -2.3152  -0.7792 C.3            1 S1                 0.0000
      2 ****        -1.7031  -1.1964   0.1370 C.3            1 S1                 0.0000
      3 ****        -2.1534  -1.3540   1.6061 C.3            1 S1                 0.0000
      4 ****        -3.5964  -1.3994   1.7481 N.pl3          1 S1                 0.0000
      5 ****        -4.4821  -0.3377   1.6198 C.2            1 S1                 0.0000
      6 ****        -5.7415  -0.8477   1.8404 C.2            1 S1                 0.0000
      7 ****        -5.6546  -2.2115   2.1100 N.2            1 S1                 0.0000
      8 ****        -4.3540  -2.4653   2.0414 C.2            1 S1                 0.0000
      9 ****        -0.2456  -1.1551   0.0567 N.am           1 S1                 0.0000
     10 ****         0.5116  -0.0745   0.2934 C.2            1 S1                 0.0000
     11 ****         0.0627   1.0233   0.6239 O.2            1 S1                 0.0000
     12 ****         1.8156  -0.3342   0.1226 N.am           1 S1                 0.0000
     13 ****         2.8984   0.6298   0.2925 C.3            1 S1                 0.0000
     14 ****         3.3139   1.2681  -1.0464 C.3            1 S1                 0.0000
     15 ****         4.4752   2.2339  -0.9296 C.3            1 S1                 0.0000
     16 ****         4.3634   3.0286  -2.2280 C.3            1 S1                 0.0000
     17 ****         2.9798   3.0315  -2.5694 O.3            1 S1                 0.0000
     18 ****         2.2605   2.1669  -1.6963 C.3            1 S1                 0.0000
     19 ****        -3.3155  -2.3207  -0.8225 H              1 S1                 0.0000
     20 ****        -1.9018  -3.2964  -0.4315 H              1 S1                 0.0000
     21 ****        -1.8643  -2.1867  -1.7998 H              1 S1                 0.0000
     22 ****        -2.0956  -0.2528  -0.2473 H              1 S1                 0.0000
     23 ****        -1.7330  -2.2647   2.0354 H              1 S1                 0.0000
     24 ****        -1.7841  -0.5251   2.2110 H              1 S1                 0.0000
     25 ****        -4.1513   0.6638   1.3868 H              1 S1                 0.0000
     26 ****        -6.6956  -0.3418   1.8277 H              1 S1                 0.0000
     27 ****        -3.9436  -3.4512   2.2041 H              1 S1                 0.0000
     28 ****         0.2186  -2.0111  -0.2095 H              1 S1                 0.0000
     29 ****         2.0809  -1.2692  -0.1503 H              1 S1                 0.0000
     30 ****         2.6256   1.3978   1.0184 H              1 S1                 0.0000
     31 ****         3.7488   0.0976   0.7192 H              1 S1                 0.0000
     32 ****         3.5887   0.4827  -1.7527 H              1 S1                 0.0000
     33 ****         4.3344   2.8964  -0.0743 H              1 S1                 0.0000
     34 ****         5.4386   1.7357  -0.8200 H              1 S1                 0.0000
     35 ****         4.7515   4.0423  -2.1279 H              1 S1                 0.0000
     36 ****         4.9149   2.5323  -3.0272 H              1 S1                 0.0000
     37 ****         1.5003   1.6014  -2.2355 H              1 S1                 0.0000
     38 ****         1.7583   2.7783  -0.9454 H              1 S1                 0.0000
     39 ****        -6.3983  -2.8498   2.3087 LP             1 S1                 0.0000
     40 ****        -0.9237   1.1486   0.7307 LP             1 S1                 0.0000
     41 ****         0.6845   1.7897   0.7855 LP             1 S1                 0.0000
     42 ****         2.8707   2.7157  -3.5120 LP             1 S1                 0.0000
     43 ****         2.6200   3.9608  -2.4855 LP             1 S1                 0.0000
@<TRIPOS>BOND
    1    1    2 1     
    2    1   19 1     
    3    1   20 1     
    4    1   21 1     
    5    2    3 1     
    6    2    9 1     
    7    2   22 1     
    8    3    4 1     
    9    3   23 1     
   10    3   24 1     
   11    4    8 1     
   12    4    5 1     
   13    5    6 2     
   14    5   25 1     
   15    6    7 1     
   16    6   26 1     
   17    7    8 2     
   18    8   27 1     
   19    9   10 am    
   20    9   28 1     
   21   10   11 2     
   22   10   12 am    
   23   12   13 1     
   24   12   29 1     
   25   13   14 1     
   26   13   30 1     
   27   13   31 1     
   28   14   18 1     
   29   14   15 1     
   30   14   32 1     
   31   15   16 1     
   32   15   33 1     
   33   15   34 1     
   34   16   17 1     
   35   16   35 1     
   36   16   36 1     
   37   17   18 1     
   38   18   37 1     
   39   18   38 1     
   40    7   39 1     
   41   11   40 1     
   42   11   41 1     
   43   17   42 1     
   44   17   43 1     
@<TRIPOS>SUBSTRUCTURE
      1 S1             1
@<TRIPOS>SET
LONE_PAIRS      STATIC     ATOMS    <user>   **** ""
5 39 40 41 42 43
DONOR_HYDROGENS      STATIC     ATOMS    <user>   **** ""
2 28 29
ATOM$BLUE        STATIC     ATOMS    COLORGROUP SYSTEM
5 39 40 41 42 43
ATOM$RED        STATIC     ATOMS    COLORGROUP SYSTEM
2 28 29
