AV-unprocessed.smi:1906|AV-procd|sdf|7728|dock1
  -GOLD-   22720 9473D 1   1.00000     0.00000
 Structure written by MMmdl.
 35 37  0  0  0  0  0  0  0  0  1 V2000
  152.7455  138.6471  155.1987 C   0  0  0  0  0  0  0  0  0  0  0  0
  151.3538  139.1399  154.9596 C   0  0  0  0  0  0  0  0  0  0  0  0
  150.4623  138.4321  154.2659 N   0  0  0  0  0  0  0  0  0  0  0  0
  149.3431  139.2412  154.2960 C   0  0  0  0  0  0  0  0  0  0  0  0
  148.0587  139.0538  153.7373 C   0  0  0  0  0  0  0  0  0  0  0  0
  147.0583  140.0340  153.9033 C   0  0  0  0  0  0  0  0  0  0  0  0
  147.3268  141.2128  154.6288 C   0  0  0  0  0  0  0  0  0  0  0  0
  148.6001  141.4195  155.1932 C   0  0  0  0  0  0  0  0  0  0  0  0
  149.5955  140.4388  155.0233 C   0  0  0  0  0  0  0  0  0  0  0  0
  150.9212  140.3358  155.4322 N   0  0  0  0  0  0  0  0  0  0  0  0
  151.6592  141.3260  156.2055 C   0  0  0  0  0  0  0  0  0  0  0  0
  151.7526  140.9526  157.6989 C   0  0  1  0  0  0  0  0  0  0  0  0
  152.8139  140.0335  157.8593 O   0  0  0  0  0  0  0  0  0  0  0  0
  151.9020  142.1747  158.5948 C   0  0  0  0  0  0  0  0  0  0  0  0
  151.6864  143.4750  158.0866 C   0  0  0  0  0  0  0  0  0  0  0  0
  151.8054  144.5958  158.9312 C   0  0  0  0  0  0  0  0  0  0  0  0
  152.1392  144.4236  160.2883 C   0  0  0  0  0  0  0  0  0  0  0  0
  152.3546  143.1300  160.8006 C   0  0  0  0  0  0  0  0  0  0  0  0
  152.6726  142.9633  162.1060 F   0  0  0  0  0  0  0  0  0  0  0  0
  152.2368  142.0094  159.9562 C   0  0  0  0  0  0  0  0  0  0  0  0
  152.8972  137.6812  154.7160 H   0  0  0  0  0  0  0  0  0  0  0  0
  152.9257  138.5282  156.2674 H   0  0  0  0  0  0  0  0  0  0  0  0
  153.4718  139.3496  154.7914 H   0  0  0  0  0  0  0  0  0  0  0  0
  147.8431  138.1543  153.1801 H   0  0  0  0  0  0  0  0  0  0  0  0
  146.0798  139.8798  153.4725 H   0  0  0  0  0  0  0  0  0  0  0  0
  146.5551  141.9586  154.7521 H   0  0  0  0  0  0  0  0  0  0  0  0
  148.8096  142.3210  155.7496 H   0  0  0  0  0  0  0  0  0  0  0  0
  152.6601  141.3951  155.7772 H   0  0  0  0  0  0  0  0  0  0  0  0
  151.2079  142.3104  156.0811 H   0  0  0  0  0  0  0  0  0  0  0  0
  150.8463  140.4214  157.9919 H   0  0  0  0  0  0  0  0  0  0  0  0
  152.9758  139.9222  158.7837 H   0  0  0  0  0  0  0  0  0  0  0  0
  151.4204  143.6174  157.0493 H   0  0  0  0  0  0  0  0  0  0  0  0
  151.6373  145.5878  158.5389 H   0  0  0  0  0  0  0  0  0  0  0  0
  152.2283  145.2830  160.9361 H   0  0  0  0  0  0  0  0  0  0  0  0
  152.3950  141.0197  160.3599 H   0  0  0  0  0  0  0  0  0  0  0  0
  1  2  1  0  0  0  0
  1 21  1  0  0  0  0
  1 22  1  0  0  0  0
  1 23  1  0  0  0  0
  2 10  1  0  0  0  0
  2  3  2  0  0  0  0
  3  4  1  0  0  0  0
  4  9  2  0  0  0  0
  4  5  1  0  0  0  0
  5  6  2  0  0  0  0
  5 24  1  0  0  0  0
  6  7  1  0  0  0  0
  6 25  1  0  0  0  0
  7  8  2  0  0  0  0
  7 26  1  0  0  0  0
  8  9  1  0  0  0  0
  8 27  1  0  0  0  0
  9 10  1  0  0  0  0
 10 11  1  0  0  0  0
 11 12  1  0  0  0  0
 11 28  1  0  0  0  0
 11 29  1  0  0  0  0
 12 13  1  0  0  0  0
 12 14  1  0  0  0  0
 12 30  1  0  0  0  0
 13 31  1  0  0  0  0
 14 20  1  0  0  0  0
 14 15  2  0  0  0  0
 15 16  1  0  0  0  0
 15 32  1  0  0  0  0
 16 17  2  0  0  0  0
 16 33  1  0  0  0  0
 17 18  1  0  0  0  0
 17 34  1  0  0  0  0
 18 19  1  0  0  0  0
 18 20  2  0  0  0  0
 20 35  1  0  0  0  0
M  END
> <s_m_source_file>
AV-unprocessed.smi

> <i_m_source_file_index>
1906

> <i_lp_mmshare_version>
43012

> <i_f3d_flags>
0

> <s_epik_input>
W2NIXTFbY0hdW2NIXVtjSF1jKGMxMiluKGMobjIpW0NIM10pW0NIMl1bQ0BIXShbT0hdKWMzW2NIXVtjSF1bY0hdYyhGKVtjSF0z

> <s_epik_cmdline>
J2VwaWtfcHl0aG9uJywgJy1waCcsICc3LjAnLCAnLXRuJywgJzgnLCAnLW1hJywgJzIwMCcsICctbWV0YWxfYmluZGluZycsICctaW1hZScsICc8aW5maWxlLm1hZT4nLCAnLW9tYWUnLCAnPG91dGZpbGUubWFlPic=

> <r_epik_Ionization_Penalty>
0.129664

> <r_epik_Ionization_Penalty_Charging>
0

> <r_epik_Ionization_Penalty_Neutral>
0.129664

> <r_epik_State_Penalty>
0.119073

> <r_epik_Charging_Adjusted_Penalty>
0.119073

> <i_epik_Tot_Q>
0

> <i_epik_Tot_abs_Q>
0

> <r_epik_Metal_State_Penalty>
0.000131867

> <b_epik_Metal_Only>
0

> <s_lp_Force_Field>
OPLS_2005

> <r_lp_Energy>
11.7028

> <b_lp_Chiralities_Consistent>
1

> <s_lp_Variant>
AV-unprocessed.smi:1906-2

> <Gold.Version>
5.8.1

> <Gold.Id.Protein>
6NUR|6NUR_protein|mol2

> <Gold.PLP.Fitness>
49.6069

> <Gold.PLP.PLP>
-48.2586

> <Gold.PLP.part.hbond>
-1.0000

> <Gold.PLP.part.metal>
0.0000

> <Gold.PLP.part.buried>
-5.2217

> <Gold.PLP.part.nonpolar>
-42.8151

> <Gold.PLP.part.repulsive>
0.2150

> <Gold.PLP.ligand.clash>
0.0000

> <Gold.PLP.ligand.torsion>
0.8346

> <Gold.PLP.Chemscore.Hbond>
1.0000

> <Gold.PLP.Chemscore.CHOScore>
0.0000

> <Gold.PLP.Chemscore.Metal>
0.0000

> <Gold.Chemscore.Hbonds>
donor molecule, donor type, donor heavy atom, donor atom, acceptor molecule, acceptor atom, score
      P1  H  7997  8009       L1    13  1.00

> <Gold.PLP.Chemscore.Internal.Correction>
0.0175

> <Gold.Rescore>
     Score         DG    S(hbond)    S(metal)    S(lipo)     H(rot)  DE(clash)    DE(int)     intcor
     16.41     -18.13       0.96        0.00     120.06       1.79       0.55       1.17       ----

> <Gold.Chemscore.Fitness>
16.4145

> <Gold.Chemscore.DG>
-18.1341

> <Gold.Chemscore.ZeroCoef>
-5.4800

> <Gold.Chemscore.Hbond>
0.9571

> <Gold.Chemscore.Metal>
0.0000

> <Gold.Chemscore.Lipo>
120.0557

> <Gold.Chemscore.Internal_Hbond>
0.0000

> <Gold.Chemscore.DEClash>
0.5471

> <Gold.Chemscore.DEInternal>
1.1726

> <Gold.Chemscore.Rot>
1.7926

> <Gold.Chemscore.Internal.Correction>
   9.000000E+99

> <Gold.Chemscore.Hbonds>
donor molecule, donor type, donor heavy atom, donor atom, acceptor molecule, acceptor atom, score
      P1  H  7997  8009       L1    13  0.63

> <Gold.Chemscore.Hbond.Weighted>
-3.1967

> <Gold.Chemscore.Metal.Weighted>
-0.0000

> <Gold.Chemscore.Lipo.Weighted>
-14.0465

> <Gold.Chemscore.Internal_Hbond.Weighted>
0.0000

> <Gold.Chemscore.DEClash.Weighted>
0.5471

> <Gold.Chemscore.DEInternal.Weighted>
1.1726

> <Gold.Chemscore.Rot.Weighted>
4.5890

> <Gold.Chemscore.Internal.Correction.Weighted>
   9.000000E+99

> <Gold.Protein.RotatedTorsions>
[ 6907 6896 6895 6894 ] final -161.07 input  -60.11 | X-H torsion
[ 7974 7965 7964 7962 ] final -129.16 input  175.53 | X-H torsion
[ 8008 7997 7996 7995 ] final  160.68 input   59.86 | X-H torsion
[ 10167 10162 10161 10158 ] final  -10.06 input  -65.29 | X-H torsion
[ 10718 10713 10712 10709 ] final -160.73 input   66.30 | X-H torsion
[ 10763 10752 10751 10750 ] final -136.23 input  -60.55 | X-H torsion
[ 11005 11000 10999 10996 ] final   64.19 input  -57.11 | X-H torsion

> <Gold.Protein.ActiveResidues>
 VAL166  LYS551  ARG553  GLY616  TRP617  ASP618  TYR619  PRO620  LYS621  CYS622 
 ASP623  PHE694  ASN695  SER759  ASP760  ASP761  ALA762  ILE779  LEU786  VAL792 
 PHE793  MET794  SER795  GLU796  ALA797  LYS798  CYS799  TRP800  GLU811  SER814 

> <Gold.Protein.RotatedAtoms>
  151.3590  133.3896  159.2687 H   0  0  0  0  0  0  0  0  0  0  0  0  # atno 6907 bound_to 6896
  150.9741  134.9109  159.7816 H   0  0  0  0  0  0  0  0  0  0  0  0  # atno 6908 bound_to 6896
  152.5194  134.3552  159.9317 H   0  0  0  0  0  0  0  0  0  0  0  0  # atno 6909 bound_to 6896
  144.9599  140.7436  143.4735 H   0  0  0  0  0  0  0  0  0  0  0  0  # atno 7974 bound_to 7965
  156.2156  140.1798  156.7597 H   0  0  0  0  0  0  0  0  0  0  0  0  # atno 8008 bound_to 7997
  154.5786  140.0670  156.9100 H   0  0  0  0  0  0  0  0  0  0  0  0  # atno 8009 bound_to 7997
  155.2543  140.3331  155.4281 H   0  0  0  0  0  0  0  0  0  0  0  0  # atno 8010 bound_to 7997
  140.7104  143.5789  150.9013 H   0  0  0  0  0  0  0  0  0  0  0  0  # atno 10167 bound_to 10162
  156.5862  130.8751  151.2878 H   0  0  0  0  0  0  0  0  0  0  0  0  # atno 10718 bound_to 10713
  154.8688  135.3679  154.5027 H   0  0  0  0  0  0  0  0  0  0  0  0  # atno 10763 bound_to 10752
  153.5666  135.7021  153.5528 H   0  0  0  0  0  0  0  0  0  0  0  0  # atno 10764 bound_to 10752
  153.3579  135.4054  155.1659 H   0  0  0  0  0  0  0  0  0  0  0  0  # atno 10765 bound_to 10752
  139.9975  134.6494  155.9986 H   0  0  0  0  0  0  0  0  0  0  0  0  # atno 11005 bound_to 11000
  145.2715  139.1953  143.4839 LP  0  0  0  0  0  0  0  0  0  0  0  0  # atno 17320 bound_to 7965
  146.3350  140.2662  142.8604 LP  0  0  0  0  0  0  0  0  0  0  0  0  # atno 17321 bound_to 7965
  139.9515  143.6266  152.3027 LP  0  0  0  0  0  0  0  0  0  0  0  0  # atno 17342 bound_to 10162
  139.6787  144.7657  151.1649 LP  0  0  0  0  0  0  0  0  0  0  0  0  # atno 17343 bound_to 10162
  157.7314  130.9700  150.1881 LP  0  0  0  0  0  0  0  0  0  0  0  0  # atno 17370 bound_to 10713
  156.2588  130.3708  149.8152 LP  0  0  0  0  0  0  0  0  0  0  0  0  # atno 17371 bound_to 10713
  141.1616  133.6538  156.4337 LP  0  0  0  0  0  0  0  0  0  0  0  0  # atno 17394 bound_to 11000
  140.4790  134.6682  157.5163 LP  0  0  0  0  0  0  0  0  0  0  0  0  # atno 17395 bound_to 11000

$$$$
