AV-unprocessed.smi:2245|AV-procd|sdf|9080|dock2
  -GOLD-   2272012283D 1   1.00000     0.00000
 Structure written by MMmdl.
 45 46  0  0  0  0  0  0  0  0  2 V2000
  151.9068  145.8844  160.1270 C   0  0  0  0  0  0  0  0  0  0  0  0
  151.9225  144.5217  159.4671 C   0  0  0  0  0  0  0  0  0  0  0  0
  152.7823  143.5078  159.9303 C   0  0  0  0  0  0  0  0  0  0  0  0
  152.7552  142.2618  159.2736 C   0  0  0  0  0  0  0  0  0  0  0  0
  153.6503  141.1256  159.7211 C   0  0  0  0  0  0  0  0  0  0  0  0
  151.9462  141.9990  158.2249 N   0  0  0  0  0  0  0  0  0  0  0  0
  151.1148  142.9688  157.7694 C   0  0  0  0  0  0  0  0  0  0  0  0
  150.2290  142.7953  156.6729 N   0  0  0  0  0  0  0  0  0  0  0  0
  150.1160  141.7329  155.8567 C   0  0  0  0  0  0  0  0  0  0  0  0
  150.7760  140.6964  155.9376 O   0  0  0  0  0  0  0  0  0  0  0  0
  149.1840  141.9401  154.9152 N   0  0  0  0  0  0  0  0  0  0  0  0
  148.8322  140.9912  153.8639 C   0  0  0  0  0  0  0  0  0  0  0  0
  147.8919  139.8819  154.3741 C   0  0  2  0  0  0  0  0  0  0  0  0
  148.5680  138.8020  155.2147 C   0  0  0  0  0  0  0  0  0  0  0  0
  147.5625  137.6569  155.1468 C   0  0  0  0  0  0  0  0  0  0  0  0
  146.9915  137.7102  153.7818 N   0  3  1  0  0  0  0  0  0  0  0  0
  145.5938  137.2259  153.6624 C   0  0  0  0  0  0  0  0  0  0  0  0
  145.3145  136.5217  152.3223 C   0  0  0  0  0  0  0  0  0  0  0  0
  145.9069  135.3287  152.3284 F   0  0  0  0  0  0  0  0  0  0  0  0
  144.0028  136.3465  152.1615 F   0  0  0  0  0  0  0  0  0  0  0  0
  145.7943  137.2236  151.2961 F   0  0  0  0  0  0  0  0  0  0  0  0
  147.2068  139.0816  153.2584 C   0  0  0  0  0  0  0  0  0  0  0  0
  151.0790  144.2465  158.3718 C   0  0  0  0  0  0  0  0  0  0  0  0
  152.2812  145.8283  161.1495 H   0  0  0  0  0  0  0  0  0  0  0  0
  150.8931  146.2849  160.1596 H   0  0  0  0  0  0  0  0  0  0  0  0
  152.5340  146.5796  159.5687 H   0  0  0  0  0  0  0  0  0  0  0  0
  153.4441  143.6806  160.7662 H   0  0  0  0  0  0  0  0  0  0  0  0
  154.3484  141.4518  160.4927 H   0  0  0  0  0  0  0  0  0  0  0  0
  154.2290  140.7425  158.8800 H   0  0  0  0  0  0  0  0  0  0  0  0
  153.0507  140.3101  160.1261 H   0  0  0  0  0  0  0  0  0  0  0  0
  149.6177  143.5754  156.4829 H   0  0  0  0  0  0  0  0  0  0  0  0
  148.6841  142.8174  154.9244 H   0  0  0  0  0  0  0  0  0  0  0  0
  148.3735  141.5209  153.0273 H   0  0  0  0  0  0  0  0  0  0  0  0
  149.7555  140.5543  153.4825 H   0  0  0  0  0  0  0  0  0  0  0  0
  147.1063  140.3328  154.9831 H   0  0  0  0  0  0  0  0  0  0  0  0
  149.5123  138.4990  154.7594 H   0  0  0  0  0  0  0  0  0  0  0  0
  148.7712  139.1235  156.2368 H   0  0  0  0  0  0  0  0  0  0  0  0
  148.0219  136.6900  155.3532 H   0  0  0  0  0  0  0  0  0  0  0  0
  146.7777  137.8234  155.8868 H   0  0  0  0  0  0  0  0  0  0  0  0
  145.3484  136.5730  154.5015 H   0  0  0  0  0  0  0  0  0  0  0  0
  144.9300  138.0887  153.7362 H   0  0  0  0  0  0  0  0  0  0  0  0
  146.2808  139.5656  152.9438 H   0  0  0  0  0  0  0  0  0  0  0  0
  147.8497  139.0064  152.3805 H   0  0  0  0  0  0  0  0  0  0  0  0
  150.4128  145.0106  157.9982 H   0  0  0  0  0  0  0  0  0  0  0  0
  147.5607  137.1058  153.2062 H   0  0  0  0  0  0  0  0  0  0  0  0
  1  2  1  0  0  0  0
  1 24  1  0  0  0  0
  1 25  1  0  0  0  0
  1 26  1  0  0  0  0
  2 23  1  0  0  0  0
  2  3  2  0  0  0  0
  3  4  1  0  0  0  0
  3 27  1  0  0  0  0
  4  5  1  0  0  0  0
  4  6  2  0  0  0  0
  5 28  1  0  0  0  0
  5 29  1  0  0  0  0
  5 30  1  0  0  0  0
  6  7  1  0  0  0  0
  7  8  1  0  0  0  0
  7 23  2  0  0  0  0
  8  9  1  0  0  0  0
  8 31  1  0  0  0  0
  9 10  2  0  0  0  0
  9 11  1  0  0  0  0
 11 12  1  0  0  0  0
 11 32  1  0  0  0  0
 12 13  1  0  0  0  0
 12 33  1  0  0  0  0
 12 34  1  0  0  0  0
 13 22  1  0  0  0  0
 13 14  1  0  0  0  0
 13 35  1  0  0  0  0
 14 15  1  0  0  0  0
 14 36  1  0  0  0  0
 14 37  1  0  0  0  0
 15 16  1  0  0  0  0
 15 38  1  0  0  0  0
 15 39  1  0  0  0  0
 16 17  1  0  0  0  0
 16 22  1  0  0  0  0
 16 45  1  0  0  0  0
 17 18  1  0  0  0  0
 17 40  1  0  0  0  0
 17 41  1  0  0  0  0
 18 19  1  0  0  0  0
 18 20  1  0  0  0  0
 18 21  1  0  0  0  0
 22 42  1  0  0  0  0
 22 43  1  0  0  0  0
 23 44  1  0  0  0  0
M  CHG  1  16   1
M  END
> <s_m_source_file>
AV-unprocessed.smi

> <i_m_source_file_index>
2245

> <i_lp_mmshare_version>
43012

> <i_f3d_flags>
0

> <s_epik_input>
W0NIM11jMVtjSF1jKFtDSDNdKW5jKFtjSF0xKVtOSF1DKD1PKVtOSF1bQ0gyXVtDQEBIXTJbQ0gyXVtDSDJdTihbQ0gyXTIpW0NIMl1DKEYpKEYpRg==

> <s_epik_cmdline>
J2VwaWtfcHl0aG9uJywgJy1waCcsICc3LjAnLCAnLXRuJywgJzgnLCAnLW1hJywgJzIwMCcsICctbWV0YWxfYmluZGluZycsICctaW1hZScsICc8aW5maWxlLm1hZT4nLCAnLW9tYWUnLCAnPG91dGZpbGUubWFlPic=

> <r_epik_Ionization_Penalty>
0.628315

> <r_epik_Ionization_Penalty_Charging>
0.628113

> <r_epik_Ionization_Penalty_Neutral>
0.000202271

> <r_epik_State_Penalty>
0.644725

> <r_epik_Charging_Adjusted_Penalty>
1.27284

> <i_epik_Tot_Q>
1

> <i_epik_Tot_abs_Q>
1

> <r_epik_Metal_State_Penalty>
0.644752

> <b_epik_Metal_Only>
0

> <s_lp_Force_Field>
OPLS_2005

> <r_lp_Energy>
28.8046

> <b_lp_Chiralities_Consistent>
1

> <s_lp_Variant>
AV-unprocessed.smi:2245-5

> <Gold.Version>
5.8.1

> <Gold.Id.Protein>
6NUR|6NUR_protein|mol2

> <Gold.PLP.Fitness>
53.6119

> <Gold.PLP.PLP>
-43.4123

> <Gold.PLP.part.hbond>
-3.0000

> <Gold.PLP.part.metal>
0.0000

> <Gold.PLP.part.buried>
1.7449

> <Gold.PLP.part.nonpolar>
-41.3545

> <Gold.PLP.part.repulsive>
0.3026

> <Gold.PLP.ligand.clash>
0.0000

> <Gold.PLP.ligand.torsion>
0.7861

> <Gold.PLP.Chemscore.Hbond>
3.7436

> <Gold.PLP.Chemscore.CHOScore>
0.0000

> <Gold.PLP.Chemscore.Metal>
0.0000

> <Gold.Chemscore.Hbonds>
donor molecule, donor type, donor heavy atom, donor atom, acceptor molecule, acceptor atom, score
      L1  H     8    31       P1  8028  1.00
      L1  H    11    32       P1  8028  0.81
      L1  H    16    45       P1  7948  1.53

> <Gold.PLP.Chemscore.Internal.Correction>
0.5409

> <Gold.Rescore>
     Score         DG    S(hbond)    S(metal)    S(lipo)     H(rot)  DE(clash)    DE(int)     intcor
     17.75     -22.17       2.80        0.00      98.01       1.61       1.31       3.11       ----

> <Gold.Chemscore.Fitness>
17.7462

> <Gold.Chemscore.DG>
-22.1651

> <Gold.Chemscore.ZeroCoef>
-5.4800

> <Gold.Chemscore.Hbond>
2.7996

> <Gold.Chemscore.Metal>
0.0000

> <Gold.Chemscore.Lipo>
98.0084

> <Gold.Chemscore.Internal_Hbond>
0.0000

> <Gold.Chemscore.DEClash>
1.3131

> <Gold.Chemscore.DEInternal>
3.1059

> <Gold.Chemscore.Rot>
1.6143

> <Gold.Chemscore.Internal.Correction>
   9.000000E+99

> <Gold.Chemscore.Hbonds>
donor molecule, donor type, donor heavy atom, donor atom, acceptor molecule, acceptor atom, score
      L1  H     8    31       P1  8028  0.97
      L1  H    11    32       P1  8028  0.75
      L1  H    16    45       P1  7948  0.77

> <Gold.Chemscore.Hbond.Weighted>
-9.3506

> <Gold.Chemscore.Metal.Weighted>
-0.0000

> <Gold.Chemscore.Lipo.Weighted>
-11.4670

> <Gold.Chemscore.Internal_Hbond.Weighted>
0.0000

> <Gold.Chemscore.DEClash.Weighted>
1.3131

> <Gold.Chemscore.DEInternal.Weighted>
3.1059

> <Gold.Chemscore.Rot.Weighted>
4.1325

> <Gold.Chemscore.Internal.Correction.Weighted>
   9.000000E+99

> <Gold.Protein.RotatedTorsions>
[ 6907 6896 6895 6894 ] final   32.99 input  -60.11 | X-H torsion
[ 7974 7965 7964 7962 ] final  -30.94 input  175.53 | X-H torsion
[ 8008 7997 7996 7995 ] final   24.82 input   59.86 | X-H torsion
[ 10167 10162 10161 10158 ] final   18.41 input  -65.29 | X-H torsion
[ 10718 10713 10712 10709 ] final   87.12 input   66.30 | X-H torsion
[ 10763 10752 10751 10750 ] final   79.28 input  -60.55 | X-H torsion
[ 11005 11000 10999 10996 ] final   36.15 input  -57.11 | X-H torsion

> <Gold.Protein.ActiveResidues>
 VAL166  LYS551  ARG553  GLY616  TRP617  ASP618  TYR619  PRO620  LYS621  CYS622 
 ASP623  PHE694  ASN695  SER759  ASP760  ASP761  ALA762  ILE779  LEU786  VAL792 
 PHE793  MET794  SER795  GLU796  ALA797  LYS798  CYS799  TRP800  GLU811  SER814 

> <Gold.Protein.RotatedAtoms>
  152.0823  134.9463  160.0573 H   0  0  0  0  0  0  0  0  0  0  0  0  # atno 6907 bound_to 6896
  152.0747  133.4118  159.4483 H   0  0  0  0  0  0  0  0  0  0  0  0  # atno 6908 bound_to 6896
  150.6836  134.2971  159.4734 H   0  0  0  0  0  0  0  0  0  0  0  0  # atno 6909 bound_to 6896
  146.1105  140.5604  142.8780 H   0  0  0  0  0  0  0  0  0  0  0  0  # atno 7974 bound_to 7965
  155.0022  140.3126  155.4863 H   0  0  0  0  0  0  0  0  0  0  0  0  # atno 8008 bound_to 7997
  156.2923  140.2230  156.5073 H   0  0  0  0  0  0  0  0  0  0  0  0  # atno 8009 bound_to 7997
  154.7608  140.0459  157.0960 H   0  0  0  0  0  0  0  0  0  0  0  0  # atno 8010 bound_to 7997
  140.5655  143.9258  150.6674 H   0  0  0  0  0  0  0  0  0  0  0  0  # atno 10167 bound_to 10162
  157.6936  131.0243  150.3075 H   0  0  0  0  0  0  0  0  0  0  0  0  # atno 10718 bound_to 10713
  153.0940  135.4845  154.8744 H   0  0  0  0  0  0  0  0  0  0  0  0  # atno 10763 bound_to 10752
  154.7303  135.3058  154.8905 H   0  0  0  0  0  0  0  0  0  0  0  0  # atno 10764 bound_to 10752
  153.9543  135.6820  153.4797 H   0  0  0  0  0  0  0  0  0  0  0  0  # atno 10765 bound_to 10752
  140.2355  134.3477  155.7946 H   0  0  0  0  0  0  0  0  0  0  0  0  # atno 11005 bound_to 11000
  144.7507  140.5184  143.6803 LP  0  0  0  0  0  0  0  0  0  0  0  0  # atno 17320 bound_to 7965
  145.5673  139.1482  143.3308 LP  0  0  0  0  0  0  0  0  0  0  0  0  # atno 17321 bound_to 7965
  140.2720  143.3449  152.1230 LP  0  0  0  0  0  0  0  0  0  0  0  0  # atno 17342 bound_to 10162
  139.5091  144.6861  151.5883 LP  0  0  0  0  0  0  0  0  0  0  0  0  # atno 17343 bound_to 10162
  156.3581  130.3842  149.7273 LP  0  0  0  0  0  0  0  0  0  0  0  0  # atno 17370 bound_to 10713
  156.4728  130.8005  151.3022 LP  0  0  0  0  0  0  0  0  0  0  0  0  # atno 17371 bound_to 10713
  141.2215  133.7269  156.8800 LP  0  0  0  0  0  0  0  0  0  0  0  0  # atno 17394 bound_to 11000
  140.1707  134.9102  157.2829 LP  0  0  0  0  0  0  0  0  0  0  0  0  # atno 17395 bound_to 11000

$$$$
