AV-unprocessed.smi:48|AV-procd|sdf|449|dock8
  -GOLD-   2262016313D 1   1.00000     0.00000
 Structure written by MMmdl.
 30 32  0  0  0  0  0  0  0  0  1 V2000
  144.3701  133.1802  148.6470 O   0  0  0  0  0  0  0  0  0  0  0  0
  144.3149  132.8655  150.0219 C   0  0  0  0  0  0  0  0  0  0  0  0
  143.9948  134.1283  150.8354 C   0  0  1  0  0  0  0  0  0  0  0  0
  144.0298  133.8277  152.2265 O   0  0  0  0  0  0  0  0  0  0  0  0
  144.2160  135.0022  152.9592 C   0  0  2  0  0  0  0  0  0  0  0  0
  142.8944  135.4140  153.5363 N   0  0  0  0  0  0  0  0  0  0  0  0
  141.6787  134.8442  153.3884 C   0  0  0  0  0  0  0  0  0  0  0  0
  140.6538  135.4141  154.0223 N   0  0  0  0  0  0  0  0  0  0  0  0
  141.2768  136.4757  154.6572 C   0  0  0  0  0  0  0  0  0  0  0  0
  140.7996  137.5055  155.5038 C   0  0  0  0  0  0  0  0  0  0  0  0
  139.1309  137.6027  155.9328 Cl  0  0  0  0  0  0  0  0  0  0  0  0
  141.6857  138.4174  155.9715 N   0  0  0  0  0  0  0  0  0  0  0  0
  142.9749  138.3192  155.6227 C   0  0  0  0  0  0  0  0  0  0  0  0
  143.5674  137.4111  154.8380 N   0  0  0  0  0  0  0  0  0  0  0  0
  142.6705  136.4936  154.3706 C   0  0  0  0  0  0  0  0  0  0  0  0
  144.7984  136.0567  151.9869 C   0  0  2  0  0  0  0  0  0  0  0  0
  143.9232  137.1437  151.7233 O   0  0  0  0  0  0  0  0  0  0  0  0
  145.0678  135.2127  150.7424 C   0  0  2  0  0  0  0  0  0  0  0  0
  145.0086  135.9476  149.5339 O   0  0  0  0  0  0  0  0  0  0  0  0
  143.0229  134.5428  150.5605 H   0  0  0  0  0  0  0  0  0  0  0  0
  144.8466  134.8081  153.8276 H   0  0  0  0  0  0  0  0  0  0  0  0
  145.7266  136.4551  152.3976 H   0  0  0  0  0  0  0  0  0  0  0  0
  146.0545  134.7551  150.8289 H   0  0  0  0  0  0  0  0  0  0  0  0
  144.9756  133.8958  148.5269 H   0  0  0  0  0  0  0  0  0  0  0  0
  143.5824  132.0786  150.2035 H   0  0  0  0  0  0  0  0  0  0  0  0
  145.2910  132.4723  150.3070 H   0  0  0  0  0  0  0  0  0  0  0  0
  141.5329  133.9607  152.7847 H   0  0  0  0  0  0  0  0  0  0  0  0
  143.6264  139.0780  156.0303 H   0  0  0  0  0  0  0  0  0  0  0  0
  144.1133  137.4790  150.8604 H   0  0  0  0  0  0  0  0  0  0  0  0
  144.5700  136.7672  149.7028 H   0  0  0  0  0  0  0  0  0  0  0  0
  1  2  1  0  0  0  0
  1 24  1  0  0  0  0
  2  3  1  0  0  0  0
  2 25  1  0  0  0  0
  2 26  1  0  0  0  0
  3 20  1  0  0  0  0
  3 18  1  0  0  0  0
  3  4  1  0  0  0  0
  4  5  1  0  0  0  0
  5 21  1  0  0  0  0
  5  6  1  0  0  0  0
  5 16  1  0  0  0  0
  6 15  1  0  0  0  0
  6  7  1  0  0  0  0
  7  8  2  0  0  0  0
  7 27  1  0  0  0  0
  8  9  1  0  0  0  0
  9 15  2  0  0  0  0
  9 10  1  0  0  0  0
 10 11  1  0  0  0  0
 10 12  2  0  0  0  0
 12 13  1  0  0  0  0
 13 14  2  0  0  0  0
 13 28  1  0  0  0  0
 14 15  1  0  0  0  0
 16 22  1  0  0  0  0
 16 17  1  0  0  0  0
 16 18  1  0  0  0  0
 17 29  1  0  0  0  0
 18 23  1  0  0  0  0
 18 19  1  0  0  0  0
 19 30  1  0  0  0  0
M  END
> <s_m_source_file>
AV-unprocessed.smi

> <i_m_source_file_index>
48

> <i_lp_mmshare_version>
43012

> <i_f3d_flags>
0

> <s_epik_input>
W09IXVtDSDJdW0NASF0xT1tDQEhdKFtDQEhdKFtPSF0pW0NAQEhdMVtPSF0pbihbY0hdbjIpYyhjMjMpbltjSF1uYzNDbA==

> <s_epik_cmdline>
J2VwaWtfcHl0aG9uJywgJy1waCcsICc3LjAnLCAnLXRuJywgJzgnLCAnLW1hJywgJzIwMCcsICctbWV0YWxfYmluZGluZycsICctaW1hZScsICc8aW5maWxlLm1hZT4nLCAnLW9tYWUnLCAnPG91dGZpbGUubWFlPic=

> <r_lp_tautomer_probability>
1

> <r_epik_Ionization_Penalty>
3.45505e-06

> <r_epik_Ionization_Penalty_Charging>
0

> <r_epik_Ionization_Penalty_Neutral>
3.45505e-06

> <r_epik_State_Penalty>
-0

> <r_epik_Charging_Adjusted_Penalty>
0

> <i_epik_Tot_Q>
0

> <i_epik_Tot_abs_Q>
0

> <r_epik_Metal_State_Penalty>
-0

> <b_epik_Metal_Only>
0

> <s_epik_Chemistry_Notes>
This compound contains an acetal/aminal-like group ( X-CH(R)-Y where X, Y are N, S, or O) that may be acid/base labile, releasing an aldehyde.

> <s_lp_Force_Field>
OPLS_2005

> <r_lp_Energy>
41.4935

> <b_lp_Chiralities_Consistent>
1

> <s_lp_Variant>
AV-unprocessed.smi:48-3

> <Gold.Version>
5.8.1

> <Gold.Id.Protein>
6NUR|6NUR_protein|mol2

> <Gold.PLP.Fitness>
39.1678

> <Gold.PLP.PLP>
-27.5879

> <Gold.PLP.part.hbond>
-4.4981

> <Gold.PLP.part.metal>
0.0000

> <Gold.PLP.part.buried>
-6.4029

> <Gold.PLP.part.nonpolar>
-17.2631

> <Gold.PLP.part.repulsive>
0.3599

> <Gold.PLP.ligand.clash>
0.0001

> <Gold.PLP.ligand.torsion>
0.0335

> <Gold.PLP.Chemscore.Hbond>
3.8600

> <Gold.PLP.Chemscore.CHOScore>
0.0000

> <Gold.PLP.Chemscore.Metal>
0.0000

> <Gold.Chemscore.Hbonds>
donor molecule, donor type, donor heavy atom, donor atom, acceptor molecule, acceptor atom, score
      L1  H     1    24       P1  7921  1.00
      L1  H    17    29       P1 10171  0.94
      L1  H    19    30       P1 10171  1.00
      P1  H 11000 11005       L1     8  0.79

> <Gold.PLP.Chemscore.Internal.Correction>
0.0670

> <Gold.Rescore>
     Score         DG    S(hbond)    S(metal)    S(lipo)     H(rot)  DE(clash)    DE(int)     intcor
     10.53     -11.73       3.55        0.00      35.19       3.80       0.01       1.19       ----

> <Gold.Chemscore.Fitness>
10.5309

> <Gold.Chemscore.DG>
-11.7283

> <Gold.Chemscore.ZeroCoef>
-5.4800

> <Gold.Chemscore.Hbond>
3.5519

> <Gold.Chemscore.Metal>
0.0000

> <Gold.Chemscore.Lipo>
35.1911

> <Gold.Chemscore.Internal_Hbond>
0.0000

> <Gold.Chemscore.DEClash>
0.0073

> <Gold.Chemscore.DEInternal>
1.1901

> <Gold.Chemscore.Rot>
3.8017

> <Gold.Chemscore.Internal.Correction>
   9.000000E+99

> <Gold.Chemscore.Hbonds>
donor molecule, donor type, donor heavy atom, donor atom, acceptor molecule, acceptor atom, score
      L1  H     1    24       P1  7921  0.95
      L1  H    17    29       P1 10171  0.86
      L1  H    19    30       P1 10171  1.00
      P1  H 11000 11005       L1     8  0.06

> <Gold.Chemscore.Hbond.Weighted>
-11.8633

> <Gold.Chemscore.Metal.Weighted>
-0.0000

> <Gold.Chemscore.Lipo.Weighted>
-4.1174

> <Gold.Chemscore.Internal_Hbond.Weighted>
0.0000

> <Gold.Chemscore.DEClash.Weighted>
0.0073

> <Gold.Chemscore.DEInternal.Weighted>
1.1901

> <Gold.Chemscore.Rot.Weighted>
9.7324

> <Gold.Chemscore.Internal.Correction.Weighted>
   9.000000E+99

> <Gold.Protein.RotatedTorsions>
[ 6907 6896 6895 6894 ] final  162.62 input  -60.11 | X-H torsion
[ 7974 7965 7964 7962 ] final  -47.52 input  175.53 | X-H torsion
[ 8008 7997 7996 7995 ] final  -70.38 input   59.86 | X-H torsion
[ 10167 10162 10161 10158 ] final  -58.42 input  -65.29 | X-H torsion
[ 10718 10713 10712 10709 ] final -143.71 input   66.30 | X-H torsion
[ 10763 10752 10751 10750 ] final -148.18 input  -60.55 | X-H torsion
[ 11005 11000 10999 10996 ] final   26.20 input  -57.11 | X-H torsion

> <Gold.Protein.ActiveResidues>
 VAL166  LYS551  ARG553  GLY616  TRP617  ASP618  TYR619  PRO620  LYS621  CYS622 
 ASP623  PHE694  ASN695  SER759  ASP760  ASP761  ALA762  ILE779  LEU786  VAL792 
 PHE793  MET794  SER795  GLU796  ALA797  LYS798  CYS799  TRP800  GLU811  SER814 

> <Gold.Protein.RotatedAtoms>
  151.9377  133.3629  159.3953 H   0  0  0  0  0  0  0  0  0  0  0  0  # atno 6907 bound_to 6896
  150.7004  134.4472  159.5329 H   0  0  0  0  0  0  0  0  0  0  0  0  # atno 6908 bound_to 6896
  152.2123  134.8490  160.0546 H   0  0  0  0  0  0  0  0  0  0  0  0  # atno 6909 bound_to 6896
  145.9607  140.7481  142.9458 H   0  0  0  0  0  0  0  0  0  0  0  0  # atno 7974 bound_to 7965
  154.5008  140.0835  156.7793 H   0  0  0  0  0  0  0  0  0  0  0  0  # atno 8008 bound_to 7997
  155.4007  140.3437  155.4238 H   0  0  0  0  0  0  0  0  0  0  0  0  # atno 8009 bound_to 7997
  156.1454  140.1542  156.8843 H   0  0  0  0  0  0  0  0  0  0  0  0  # atno 8010 bound_to 7997
  140.6199  143.2415  151.5507 H   0  0  0  0  0  0  0  0  0  0  0  0  # atno 10167 bound_to 10162
  156.3612  130.7739  151.1907 H   0  0  0  0  0  0  0  0  0  0  0  0  # atno 10718 bound_to 10713
  154.8247  135.3341  154.6933 H   0  0  0  0  0  0  0  0  0  0  0  0  # atno 10763 bound_to 10752
  153.7561  135.6936  153.4940 H   0  0  0  0  0  0  0  0  0  0  0  0  # atno 10764 bound_to 10752
  153.2143  135.4471  155.0366 H   0  0  0  0  0  0  0  0  0  0  0  0  # atno 10765 bound_to 10752
  140.3395  134.2348  155.7692 H   0  0  0  0  0  0  0  0  0  0  0  0  # atno 11005 bound_to 11000
  144.6814  140.2587  143.7322 LP  0  0  0  0  0  0  0  0  0  0  0  0  # atno 17320 bound_to 7965
  145.8043  139.1977  143.2030 LP  0  0  0  0  0  0  0  0  0  0  0  0  # atno 17321 bound_to 7965
  139.5429  144.2598  152.1387 LP  0  0  0  0  0  0  0  0  0  0  0  0  # atno 17342 bound_to 10162
  140.1816  144.4839  150.6525 LP  0  0  0  0  0  0  0  0  0  0  0  0  # atno 17343 bound_to 10162
  157.7473  131.0399  150.4574 LP  0  0  0  0  0  0  0  0  0  0  0  0  # atno 17370 bound_to 10713
  156.4785  130.4068  149.6475 LP  0  0  0  0  0  0  0  0  0  0  0  0  # atno 17371 bound_to 10713
  141.2042  133.7892  157.0299 LP  0  0  0  0  0  0  0  0  0  0  0  0  # atno 17394 bound_to 11000
  140.0793  134.9658  157.1597 LP  0  0  0  0  0  0  0  0  0  0  0  0  # atno 17395 bound_to 11000

$$$$
