#       Name:                AV-unprocessed.smi:914
#       Creating user name   scv26
#       Creation time:       Fri Mar 27 02:05:41 2020


#       File generated by GOLD software.
#

@<TRIPOS>MOLECULE
AV-unprocessed.smi:914
    41    42     1
SMALL
NO_CHARGES


@<TRIPOS>ATOM
      1 ****        -0.8169   3.7908  -3.4066 O.2            1 S1                 0.0000
      2 ****        -1.1557   3.1997  -2.3823 C.2            1 S1                 0.0000
      3 ****        -0.4021   3.2071  -1.2440 N.pl3          1 S1                -1.0000
      4 ****        -0.7632   2.5581  -0.0941 C.2            1 S1                 0.0000
      5 ****        -0.0607   2.5760   0.9168 O.2            1 S1                 0.0000
      6 ****        -1.9421   1.8669  -0.0715 N.am           1 S1                 0.0000
      7 ****        -2.4067   1.1250   1.1098 C.3            1 S1                 0.0000
      8 ****        -1.9641  -0.3456   1.0590 C.3            1 S1                 0.0000
      9 ****        -0.5564  -0.4093   1.2009 O.3            1 S1                 0.0000
     10 ****        -0.0298  -1.7105   1.0181 C.3            1 S1                 0.0000
     11 ****         1.4974  -1.6273   1.1199 C.3            1 S1                 0.0000
     12 ****         2.1462  -0.7811   0.0244 C.3            1 S1                 0.0000
     13 ****         3.5348  -1.3733  -0.0340 C.3            1 S1                 0.0000
     14 ****         3.2443  -2.8574   0.1681 C.3            1 S1                 0.0000
     15 ****         2.0809  -2.9218   0.9894 O.3            1 S1                 0.0000
     16 ****        -2.7516   1.8223  -1.2189 C.2            1 S1                 0.0000
     17 ****        -2.4113   2.4523  -2.3600 C.2            1 S1                 0.0000
     18 ****        -3.4254   2.3751  -3.7567 Cl             1 S1                 0.0000
     19 ****        -2.0658   1.5890   2.0367 H              1 S1                 0.0000
     20 ****        -3.4956   1.1711   1.1552 H              1 S1                 0.0000
     21 ****        -2.4347  -0.9067   1.8671 H              1 S1                 0.0000
     22 ****        -2.2795  -0.8010   0.1187 H              1 S1                 0.0000
     23 ****        -0.4241  -2.3807   1.7831 H              1 S1                 0.0000
     24 ****        -0.3220  -2.1099   0.0456 H              1 S1                 0.0000
     25 ****         1.7852  -1.2349   2.0964 H              1 S1                 0.0000
     26 ****         1.6384  -0.9270  -0.9302 H              1 S1                 0.0000
     27 ****         2.1420   0.2856   0.2524 H              1 S1                 0.0000
     28 ****         4.0536  -1.1624  -0.9694 H              1 S1                 0.0000
     29 ****         4.1397  -0.9905   0.7891 H              1 S1                 0.0000
     30 ****         3.0183  -3.3333  -0.7868 H              1 S1                 0.0000
     31 ****         4.0829  -3.3871   0.6205 H              1 S1                 0.0000
     32 ****        -3.6570   1.2422  -1.1152 H              1 S1                 0.0000
     33 ****        -1.3997   3.7583  -4.2186 LP             1 S1                 0.0000
     34 ****         0.0413   4.3037  -3.4273 LP             1 S1                 0.0000
     35 ****         0.4600   3.7138  -1.2506 LP             1 S1                 0.0000
     36 ****         0.8052   3.0762   0.9151 LP             1 S1                 0.0000
     37 ****        -0.3560   2.0903   1.7395 LP             1 S1                 0.0000
     38 ****        -0.3162  -0.0967   2.1199 LP             1 S1                 0.0000
     39 ****        -0.1419   0.1981   0.5232 LP             1 S1                 0.0000
     40 ****         1.4169  -3.5430   0.5732 LP             1 S1                 0.0000
     41 ****         2.3343  -3.2627   1.8947 LP             1 S1                 0.0000
@<TRIPOS>BOND
    1    1    2 2     
    2    2   17 1     
    3    2    3 1     
    4    3    4 1     
    5    4    5 2     
    6    4    6 am    
    7    6    7 1     
    8    6   16 1     
    9    7    8 1     
   10    7   19 1     
   11    7   20 1     
   12    8    9 1     
   13    8   21 1     
   14    8   22 1     
   15    9   10 1     
   16   10   11 1     
   17   10   23 1     
   18   10   24 1     
   19   11   15 1     
   20   11   12 1     
   21   11   25 1     
   22   12   13 1     
   23   12   26 1     
   24   12   27 1     
   25   13   14 1     
   26   13   28 1     
   27   13   29 1     
   28   14   15 1     
   29   14   30 1     
   30   14   31 1     
   31   16   17 2     
   32   16   32 1     
   33   17   18 1     
   34    1   33 1     
   35    1   34 1     
   36    3   35 1     
   37    5   36 1     
   38    5   37 1     
   39    9   38 1     
   40    9   39 1     
   41   15   40 1     
   42   15   41 1     
@<TRIPOS>SUBSTRUCTURE
      1 S1             1
@<TRIPOS>SET
LONE_PAIRS      STATIC     ATOMS    <user>   **** ""
9 33 34 35 36 37 38 39 40 41
ATOM$BLUE        STATIC     ATOMS    COLORGROUP SYSTEM
9 33 34 35 36 37 38 39 40 41
