AV-unprocessed.smi:439|AV-procd|sdf|2580|dock4
  -GOLD-   2262022563D 1   1.00000     0.00000
 Structure written by MMmdl.
 45 46  0  0  0  0  0  0  0  0  2 V2000
  145.4258  131.0700  150.9471 C   0  0  0  0  0  0  0  0  0  0  0  0
  145.9839  130.0290  151.9268 C   0  0  0  0  0  0  0  0  0  0  0  0
  146.7210  130.6431  153.1278 C   0  0  0  0  0  0  0  0  0  0  0  0
  147.7777  131.6926  152.7340 C   0  0  0  0  0  0  0  0  0  0  0  0
  148.4936  132.2064  153.9213 N   0  0  0  0  0  0  0  0  0  0  0  0
  148.5391  133.6084  154.1478 C   0  0  0  0  0  0  0  0  0  0  0  0
  147.9105  134.4570  153.2471 N   0  0  0  0  0  0  0  0  0  0  0  0
  149.1696  134.1004  155.2484 C   0  0  0  0  0  0  0  0  0  0  0  0
  149.2567  135.4869  155.5073 N   0  0  0  0  0  0  0  0  0  0  0  0
  148.0395  136.1166  156.0494 C   0  0  0  0  0  0  0  0  0  0  0  0
  147.6690  135.5522  157.4301 C   0  0  0  0  0  0  0  0  0  0  0  0
  150.3456  136.2598  155.2095 C   0  0  0  0  0  0  0  0  0  0  0  0
  151.4212  135.7456  154.8928 O   0  0  0  0  0  0  0  0  0  0  0  0
  150.1703  137.7155  155.2495 C   0  0  0  0  0  0  0  0  0  0  0  0
  150.5280  138.4424  154.1659 C   0  0  0  0  0  0  0  0  0  0  0  0
  150.3623  139.8017  154.0666 O   0  0  0  0  0  0  0  0  0  0  0  0
  149.5658  140.3828  155.0925 C   0  0  0  0  0  0  0  0  0  0  0  0
  149.8738  139.7306  156.4472 C   0  0  0  0  0  0  0  0  0  0  0  0
  149.6495  138.3289  156.3667 O   0  0  0  0  0  0  0  0  0  0  0  0
  149.8329  133.1604  156.1629 C   0  0  0  0  0  0  0  0  0  0  0  0
  150.4345  133.5776  157.1529 O   0  0  0  0  0  0  0  0  0  0  0  0
  149.7606  131.8354  155.8707 N   0  5  0  0  0  0  0  0  0  0  0  0
  149.1190  131.3390  154.7752 C   0  0  0  0  0  0  0  0  0  0  0  0
  149.0928  130.1309  154.5355 O   0  0  0  0  0  0  0  0  0  0  0  0
  144.9762  130.5826  150.0818 H   0  0  0  0  0  0  0  0  0  0  0  0
  146.2134  131.7308  150.5842 H   0  0  0  0  0  0  0  0  0  0  0  0
  144.6559  131.6865  151.4109 H   0  0  0  0  0  0  0  0  0  0  0  0
  145.1790  129.3820  152.2771 H   0  0  0  0  0  0  0  0  0  0  0  0
  146.6768  129.3835  151.3862 H   0  0  0  0  0  0  0  0  0  0  0  0
  145.9855  131.1143  153.7809 H   0  0  0  0  0  0  0  0  0  0  0  0
  147.1811  129.8499  153.7182 H   0  0  0  0  0  0  0  0  0  0  0  0
  148.4805  131.2795  152.0115 H   0  0  0  0  0  0  0  0  0  0  0  0
  147.2971  132.5013  152.1812 H   0  0  0  0  0  0  0  0  0  0  0  0
  147.4223  134.1056  152.4361 H   0  0  0  0  0  0  0  0  0  0  0  0
  147.9672  135.4612  153.3376 H   0  0  0  0  0  0  0  0  0  0  0  0
  148.1789  137.1938  156.1456 H   0  0  0  0  0  0  0  0  0  0  0  0
  147.2036  135.9965  155.3583 H   0  0  0  0  0  0  0  0  0  0  0  0
  146.7736  136.0380  157.8177 H   0  0  0  0  0  0  0  0  0  0  0  0
  148.4717  135.7156  158.1499 H   0  0  0  0  0  0  0  0  0  0  0  0
  147.4719  134.4809  157.3881 H   0  0  0  0  0  0  0  0  0  0  0  0
  150.9506  138.0282  153.2615 H   0  0  0  0  0  0  0  0  0  0  0  0
  149.7601  141.4549  155.1322 H   0  0  0  0  0  0  0  0  0  0  0  0
  148.5117  140.2566  154.8418 H   0  0  0  0  0  0  0  0  0  0  0  0
  150.9095  139.9138  156.7375 H   0  0  0  0  0  0  0  0  0  0  0  0
  149.2405  140.1489  157.2295 H   0  0  0  0  0  0  0  0  0  0  0  0
  1  2  1  0  0  0  0
  1 25  1  0  0  0  0
  1 26  1  0  0  0  0
  1 27  1  0  0  0  0
  2  3  1  0  0  0  0
  2 28  1  0  0  0  0
  2 29  1  0  0  0  0
  3  4  1  0  0  0  0
  3 30  1  0  0  0  0
  3 31  1  0  0  0  0
  4  5  1  0  0  0  0
  4 32  1  0  0  0  0
  4 33  1  0  0  0  0
  5 23  1  0  0  0  0
  5  6  1  0  0  0  0
  6  7  1  0  0  0  0
  6  8  2  0  0  0  0
  7 34  1  0  0  0  0
  7 35  1  0  0  0  0
  8  9  1  0  0  0  0
  8 20  1  0  0  0  0
  9 10  1  0  0  0  0
  9 12  1  0  0  0  0
 10 11  1  0  0  0  0
 10 36  1  0  0  0  0
 10 37  1  0  0  0  0
 11 38  1  0  0  0  0
 11 39  1  0  0  0  0
 11 40  1  0  0  0  0
 12 13  2  0  0  0  0
 12 14  1  0  0  0  0
 14 19  1  0  0  0  0
 14 15  2  0  0  0  0
 15 16  1  0  0  0  0
 15 41  1  0  0  0  0
 16 17  1  0  0  0  0
 17 18  1  0  0  0  0
 17 42  1  0  0  0  0
 17 43  1  0  0  0  0
 18 19  1  0  0  0  0
 18 44  1  0  0  0  0
 18 45  1  0  0  0  0
 20 21  2  0  0  0  0
 20 22  1  0  0  0  0
 22 23  1  0  0  0  0
 23 24  2  0  0  0  0
M  CHG  1  22  -1
M  END
> <s_m_source_file>
AV-unprocessed.smi

> <i_m_source_file_index>
439

> <i_lp_mmshare_version>
43012

> <i_f3d_flags>
0

> <s_epik_input>
W0NIM11bQ0gyXVtDSDJdW0NIMl1uMWMoW05IMl0pYyhjKD1PKVtuSF1jMT1PKU4oW0NIMl1bQ0gzXSlDKD1PKUMyPVtDSF1PW0NIMl1bQ0gyXU8y

> <s_epik_cmdline>
J2VwaWtfcHl0aG9uJywgJy1waCcsICc3LjAnLCAnLXRuJywgJzgnLCAnLW1hJywgJzIwMCcsICctbWV0YWxfYmluZGluZycsICctaW1hZScsICc8aW5maWxlLm1hZT4nLCAnLW9tYWUnLCAnPG91dGZpbGUubWFlPic=

> <r_lp_tautomer_probability>
1

> <r_epik_Ionization_Penalty>
6.21372

> <r_epik_Ionization_Penalty_Charging>
0.188923

> <r_epik_Ionization_Penalty_Neutral>
6.0248

> <r_epik_State_Penalty>
6.02477

> <r_epik_Charging_Adjusted_Penalty>
6.2137

> <i_epik_Tot_Q>
-1

> <i_epik_Tot_abs_Q>
1

> <r_epik_Metal_State_Penalty>
1.95433

> <b_epik_Metal_Only>
1

> <s_epik_Chemistry_Notes>
This compound has an imine and may undergo hydrolysis.

> <s_lp_Force_Field>
OPLS_2005

> <r_lp_Energy>
37.3971

> <b_lp_Chiralities_Consistent>
1

> <s_lp_Variant>
AV-unprocessed.smi:439-2

> <Gold.Version>
5.8.1

> <Gold.Id.Protein>
6NUR|6NUR_protein|mol2

> <Gold.PLP.Fitness>
38.6644

> <Gold.PLP.PLP>
-28.9608

> <Gold.PLP.part.hbond>
-3.9818

> <Gold.PLP.part.metal>
0.0000

> <Gold.PLP.part.buried>
-2.2385

> <Gold.PLP.part.nonpolar>
-23.7302

> <Gold.PLP.part.repulsive>
0.7379

> <Gold.PLP.ligand.clash>
0.0000

> <Gold.PLP.ligand.torsion>
2.4907

> <Gold.PLP.Chemscore.Hbond>
3.1360

> <Gold.PLP.Chemscore.CHOScore>
0.5694

> <Gold.PLP.Chemscore.Metal>
0.0000

> <Gold.Chemscore.Hbonds>
donor molecule, donor type, donor heavy atom, donor atom, acceptor molecule, acceptor atom, score
      L1  H     7    35       P1  7948  0.19
      P1  H  6896  6907       L1    21  0.70
      P1  H  7989  7998       L1    16  1.00
      P1  H 10752 10764       L1    13  1.00
      L1  C    15    41       P1  7949  0.56

> <Gold.PLP.Chemscore.Internal.Correction>
3.5689

> <Gold.Rescore>
     Score         DG    S(hbond)    S(metal)    S(lipo)     H(rot)  DE(clash)    DE(int)     intcor
     12.75     -17.88       2.97        0.00      57.03       1.63       0.01       5.12       ----

> <Gold.Chemscore.Fitness>
12.7505

> <Gold.Chemscore.DG>
-17.8846

> <Gold.Chemscore.ZeroCoef>
-5.4800

> <Gold.Chemscore.Hbond>
2.9674

> <Gold.Chemscore.Metal>
0.0000

> <Gold.Chemscore.Lipo>
57.0309

> <Gold.Chemscore.Internal_Hbond>
0.0000

> <Gold.Chemscore.DEClash>
0.0106

> <Gold.Chemscore.DEInternal>
5.1234

> <Gold.Chemscore.Rot>
1.6325

> <Gold.Chemscore.Internal.Correction>
   9.000000E+99

> <Gold.Chemscore.Hbonds>
donor molecule, donor type, donor heavy atom, donor atom, acceptor molecule, acceptor atom, score
      L1  H     7    35       P1  7948  0.20
      P1  H  6896  6907       L1    21  0.66
      P1  H  7989  7998       L1    16  0.86
      P1  H 10752 10764       L1    13  0.95

> <Gold.Chemscore.Hbond.Weighted>
-9.9113

> <Gold.Chemscore.Metal.Weighted>
-0.0000

> <Gold.Chemscore.Lipo.Weighted>
-6.6726

> <Gold.Chemscore.Internal_Hbond.Weighted>
0.0000

> <Gold.Chemscore.DEClash.Weighted>
0.0106

> <Gold.Chemscore.DEInternal.Weighted>
5.1234

> <Gold.Chemscore.Rot.Weighted>
4.1793

> <Gold.Chemscore.Internal.Correction.Weighted>
   9.000000E+99

> <Gold.Protein.RotatedTorsions>
[ 6907 6896 6895 6894 ] final -134.16 input  -60.11 | X-H torsion
[ 7974 7965 7964 7962 ] final -105.33 input  175.53 | X-H torsion
[ 8008 7997 7996 7995 ] final  115.40 input   59.86 | X-H torsion
[ 10167 10162 10161 10158 ] final  117.77 input  -65.29 | X-H torsion
[ 10718 10713 10712 10709 ] final -111.96 input   66.30 | X-H torsion
[ 10763 10752 10751 10750 ] final  -68.40 input  -60.55 | X-H torsion
[ 11005 11000 10999 10996 ] final  -26.66 input  -57.11 | X-H torsion

> <Gold.Protein.ActiveResidues>
 VAL166  LYS551  ARG553  GLY616  TRP617  ASP618  TYR619  PRO620  LYS621  CYS622 
 ASP623  PHE694  ASN695  SER759  ASP760  ASP761  ALA762  ILE779  LEU786  VAL792 
 PHE793  MET794  SER795  GLU796  ALA797  LYS798  CYS799  TRP800  GLU811  SER814 

> <Gold.Protein.RotatedAtoms>
  150.9825  133.6230  159.2720 H   0  0  0  0  0  0  0  0  0  0  0  0  # atno 6907 bound_to 6896
  151.3480  135.0877  159.9403 H   0  0  0  0  0  0  0  0  0  0  0  0  # atno 6908 bound_to 6896
  152.5220  133.9424  159.7687 H   0  0  0  0  0  0  0  0  0  0  0  0  # atno 6909 bound_to 6896
  145.2319  140.9173  143.3200 H   0  0  0  0  0  0  0  0  0  0  0  0  # atno 7974 bound_to 7965
  156.2379  140.2939  156.0363 H   0  0  0  0  0  0  0  0  0  0  0  0  # atno 8008 bound_to 7997
  155.2037  140.0410  157.2939 H   0  0  0  0  0  0  0  0  0  0  0  0  # atno 8009 bound_to 7997
  154.6113  140.2452  155.7672 H   0  0  0  0  0  0  0  0  0  0  0  0  # atno 8010 bound_to 7997
  139.6156  144.7091  151.2746 H   0  0  0  0  0  0  0  0  0  0  0  0  # atno 10167 bound_to 10162
  156.0677  130.5894  150.8443 H   0  0  0  0  0  0  0  0  0  0  0  0  # atno 10718 bound_to 10713
  154.3885  135.6058  153.5830 H   0  0  0  0  0  0  0  0  0  0  0  0  # atno 10763 bound_to 10752
  152.9787  135.5878  154.4326 H   0  0  0  0  0  0  0  0  0  0  0  0  # atno 10764 bound_to 10752
  154.4106  135.2844  155.2017 H   0  0  0  0  0  0  0  0  0  0  0  0  # atno 10765 bound_to 10752
  140.9049  133.7499  156.0593 H   0  0  0  0  0  0  0  0  0  0  0  0  # atno 11005 bound_to 11000
  144.9669  139.3921  143.6328 LP  0  0  0  0  0  0  0  0  0  0  0  0  # atno 17320 bound_to 7965
  146.3351  139.8748  142.8834 LP  0  0  0  0  0  0  0  0  0  0  0  0  # atno 17321 bound_to 7965
  140.7349  143.6753  150.8046 LP  0  0  0  0  0  0  0  0  0  0  0  0  # atno 17342 bound_to 10162
  140.0355  143.5399  152.2741 LP  0  0  0  0  0  0  0  0  0  0  0  0  # atno 17343 bound_to 10162
  157.5729  131.0946  150.9390 LP  0  0  0  0  0  0  0  0  0  0  0  0  # atno 17370 bound_to 10713
  156.9602  130.5452  149.5285 LP  0  0  0  0  0  0  0  0  0  0  0  0  # atno 17371 bound_to 10713
  140.8184  134.3318  157.5390 LP  0  0  0  0  0  0  0  0  0  0  0  0  # atno 17394 bound_to 11000
  139.8748  134.9295  156.3477 LP  0  0  0  0  0  0  0  0  0  0  0  0  # atno 17395 bound_to 11000

$$$$
