AV-unprocessed.smi:1081|AV-procd|sdf|4710|dock9
  -GOLD-   22720 3233D 1   1.00000     0.00000
 Structure written by MMmdl.
 52 54  0  0  0  0  0  0  0  0  1 V2000
  146.7128  137.8157  155.4464 O   0  0  0  0  0  0  0  0  0  0  0  0
  147.3870  137.5402  154.4546 C   0  0  0  0  0  0  0  0  0  0  0  0
  146.9658  136.7138  153.4854 N   0  0  0  0  0  0  0  0  0  0  0  0
  145.6747  136.0269  153.4680 C   0  0  0  0  0  0  0  0  0  0  0  0
  145.7877  134.4991  153.2966 C   0  0  0  0  0  0  0  0  0  0  0  0
  145.8765  133.7899  154.3010 O   0  0  0  0  0  0  0  0  0  0  0  0
  145.7950  133.9779  152.0452 N   0  0  0  0  0  0  0  0  0  0  0  0
  145.8105  132.5451  151.7149 C   0  0  0  0  0  0  0  0  0  0  0  0
  144.4581  132.1626  151.0855 C   0  0  0  0  0  0  0  0  0  0  0  0
  144.1552  133.0366  149.8543 C   0  0  0  0  0  0  0  0  0  0  0  0
  144.3185  134.5347  150.1702 C   0  0  0  0  0  0  0  0  0  0  0  0
  145.6769  134.8103  150.8399 C   0  0  0  0  0  0  0  0  0  0  0  0
  148.6237  137.9990  154.1960 N   0  0  0  0  0  0  0  0  0  0  0  0
  149.4354  138.8800  154.9627 C   0  0  0  0  0  0  0  0  0  0  0  0
  150.7861  139.1905  154.6779 C   0  0  0  0  0  0  0  0  0  0  0  0
  151.4766  140.0749  155.5285 C   0  0  0  0  0  0  0  0  0  0  0  0
  150.8078  140.6256  156.6461 C   0  0  0  0  0  0  0  0  0  0  0  0
  151.4851  141.5169  157.5053 N   0  0  0  0  0  0  0  0  0  0  0  0
  151.0195  142.9041  157.4535 C   0  0  0  0  0  0  0  0  0  0  0  0
  152.0439  143.8583  158.0914 C   0  0  0  0  0  0  0  0  0  0  0  0
  152.4091  143.4086  159.5140 C   0  0  0  0  0  0  0  0  0  0  0  0
  152.8941  141.9516  159.4962 C   0  0  0  0  0  0  0  0  0  0  0  0
  151.8527  141.0308  158.8375 C   0  0  0  0  0  0  0  0  0  0  0  0
  149.5185  140.3151  156.9250 N   0  0  0  0  0  0  0  0  0  0  0  0
  148.8599  139.4689  156.1061 C   0  0  0  0  0  0  0  0  0  0  0  0
  147.5865  136.5332  152.7103 H   0  0  0  0  0  0  0  0  0  0  0  0
  145.1365  136.2578  154.3889 H   0  0  0  0  0  0  0  0  0  0  0  0
  145.0899  136.4333  152.6423 H   0  0  0  0  0  0  0  0  0  0  0  0
  146.6184  132.3519  151.0077 H   0  0  0  0  0  0  0  0  0  0  0  0
  146.0093  131.8961  152.5659 H   0  0  0  0  0  0  0  0  0  0  0  0
  144.4598  131.1095  150.8032 H   0  0  0  0  0  0  0  0  0  0  0  0
  143.6654  132.2841  151.8248 H   0  0  0  0  0  0  0  0  0  0  0  0
  144.8384  132.7659  149.0483 H   0  0  0  0  0  0  0  0  0  0  0  0
  143.1489  132.8358  149.4860 H   0  0  0  0  0  0  0  0  0  0  0  0
  144.2239  135.1219  149.2563 H   0  0  0  0  0  0  0  0  0  0  0  0
  143.5145  134.8595  150.8322 H   0  0  0  0  0  0  0  0  0  0  0  0
  145.7761  135.8765  151.0469 H   0  0  0  0  0  0  0  0  0  0  0  0
  146.4895  134.5663  150.1542 H   0  0  0  0  0  0  0  0  0  0  0  0
  149.0577  137.6396  153.3585 H   0  0  0  0  0  0  0  0  0  0  0  0
  151.3152  138.7669  153.8397 H   0  0  0  0  0  0  0  0  0  0  0  0
  152.5113  140.3077  155.3256 H   0  0  0  0  0  0  0  0  0  0  0  0
  150.8265  143.2259  156.4309 H   0  0  0  0  0  0  0  0  0  0  0  0
  150.0692  142.9706  157.9849 H   0  0  0  0  0  0  0  0  0  0  0  0
  152.9442  143.8893  157.4761 H   0  0  0  0  0  0  0  0  0  0  0  0
  151.6459  144.8732  158.1100 H   0  0  0  0  0  0  0  0  0  0  0  0
  153.1807  144.0581  159.9284 H   0  0  0  0  0  0  0  0  0  0  0  0
  151.5384  143.4993  160.1647 H   0  0  0  0  0  0  0  0  0  0  0  0
  153.8353  141.8873  158.9485 H   0  0  0  0  0  0  0  0  0  0  0  0
  153.1029  141.6128  160.5113 H   0  0  0  0  0  0  0  0  0  0  0  0
  150.9572  140.9761  159.4582 H   0  0  0  0  0  0  0  0  0  0  0  0
  152.2616  140.0218  158.7700 H   0  0  0  0  0  0  0  0  0  0  0  0
  147.8351  139.2573  156.3748 H   0  0  0  0  0  0  0  0  0  0  0  0
  1  2  2  0  0  0  0
  2  3  1  0  0  0  0
  2 13  1  0  0  0  0
  3  4  1  0  0  0  0
  3 26  1  0  0  0  0
  4  5  1  0  0  0  0
  4 27  1  0  0  0  0
  4 28  1  0  0  0  0
  5  6  2  0  0  0  0
  5  7  1  0  0  0  0
  7 12  1  0  0  0  0
  7  8  1  0  0  0  0
  8  9  1  0  0  0  0
  8 29  1  0  0  0  0
  8 30  1  0  0  0  0
  9 10  1  0  0  0  0
  9 31  1  0  0  0  0
  9 32  1  0  0  0  0
 10 11  1  0  0  0  0
 10 33  1  0  0  0  0
 10 34  1  0  0  0  0
 11 12  1  0  0  0  0
 11 35  1  0  0  0  0
 11 36  1  0  0  0  0
 12 37  1  0  0  0  0
 12 38  1  0  0  0  0
 13 14  1  0  0  0  0
 13 39  1  0  0  0  0
 14 25  1  0  0  0  0
 14 15  2  0  0  0  0
 15 16  1  0  0  0  0
 15 40  1  0  0  0  0
 16 17  2  0  0  0  0
 16 41  1  0  0  0  0
 17 18  1  0  0  0  0
 17 24  1  0  0  0  0
 18 23  1  0  0  0  0
 18 19  1  0  0  0  0
 19 20  1  0  0  0  0
 19 42  1  0  0  0  0
 19 43  1  0  0  0  0
 20 21  1  0  0  0  0
 20 44  1  0  0  0  0
 20 45  1  0  0  0  0
 21 22  1  0  0  0  0
 21 46  1  0  0  0  0
 21 47  1  0  0  0  0
 22 23  1  0  0  0  0
 22 48  1  0  0  0  0
 22 49  1  0  0  0  0
 23 50  1  0  0  0  0
 23 51  1  0  0  0  0
 24 25  2  0  0  0  0
 25 52  1  0  0  0  0
M  END
> <s_m_source_file>
AV-unprocessed.smi

> <i_m_source_file_index>
1081

> <i_lp_mmshare_version>
43012

> <i_f3d_flags>
0

> <s_epik_input>
W0NIMl0xW0NIMl1bQ0gyXVtDSDJdW0NIMl1OMUMoPU8pW0NIMl1bTkhdQyg9TylbTkhdYzJbY0hdW2NIXWMobltjSF0yKU4zW0NIMl1bQ0gyXVtDSDJdW0NIMl1bQ0gyXTM=

> <s_epik_cmdline>
J2VwaWtfcHl0aG9uJywgJy1waCcsICc3LjAnLCAnLXRuJywgJzgnLCAnLW1hJywgJzIwMCcsICctbWV0YWxfYmluZGluZycsICctaW1hZScsICc8aW5maWxlLm1hZT4nLCAnLW9tYWUnLCAnPG91dGZpbGUubWFlPic=

> <r_lp_tautomer_probability>
1

> <r_epik_Ionization_Penalty>
0.2566

> <r_epik_Ionization_Penalty_Charging>
0

> <r_epik_Ionization_Penalty_Neutral>
0.2566

> <r_epik_State_Penalty>
0.242651

> <r_epik_Charging_Adjusted_Penalty>
0.242651

> <i_epik_Tot_Q>
0

> <i_epik_Tot_abs_Q>
0

> <r_epik_Metal_State_Penalty>
0.169478

> <b_epik_Metal_Only>
0

> <s_lp_Force_Field>
OPLS_2005

> <r_lp_Energy>
36.1946

> <b_lp_Chiralities_Consistent>
1

> <s_lp_Variant>
AV-unprocessed.smi:1081-1

> <Gold.Version>
5.8.1

> <Gold.Id.Protein>
6NUR|6NUR_protein|mol2

> <Gold.PLP.Fitness>
48.6951

> <Gold.PLP.PLP>
-43.6578

> <Gold.PLP.part.hbond>
-2.0000

> <Gold.PLP.part.metal>
0.0000

> <Gold.PLP.part.buried>
-3.4175

> <Gold.PLP.part.nonpolar>
-38.2347

> <Gold.PLP.part.repulsive>
0.1473

> <Gold.PLP.ligand.clash>
0.0000

> <Gold.PLP.ligand.torsion>
0.6123

> <Gold.PLP.Chemscore.Hbond>
1.9440

> <Gold.PLP.Chemscore.CHOScore>
0.0000

> <Gold.PLP.Chemscore.Metal>
0.0000

> <Gold.Chemscore.Hbonds>
donor molecule, donor type, donor heavy atom, donor atom, acceptor molecule, acceptor atom, score
      L1  H     3    26       P1  7948  1.00
      L1  H    13    39       P1  7948  0.94

> <Gold.PLP.Chemscore.Internal.Correction>
0.4300

> <Gold.Rescore>
     Score         DG    S(hbond)    S(metal)    S(lipo)     H(rot)  DE(clash)    DE(int)     intcor
     19.42     -21.54       1.90        0.00     113.82       1.41       0.09       2.03       ----

> <Gold.Chemscore.Fitness>
19.4214

> <Gold.Chemscore.DG>
-21.5377

> <Gold.Chemscore.ZeroCoef>
-5.4800

> <Gold.Chemscore.Hbond>
1.9021

> <Gold.Chemscore.Metal>
0.0000

> <Gold.Chemscore.Lipo>
113.8178

> <Gold.Chemscore.Internal_Hbond>
0.0000

> <Gold.Chemscore.DEClash>
0.0863

> <Gold.Chemscore.DEInternal>
2.0300

> <Gold.Chemscore.Rot>
1.4109

> <Gold.Chemscore.Internal.Correction>
   9.000000E+99

> <Gold.Chemscore.Hbonds>
donor molecule, donor type, donor heavy atom, donor atom, acceptor molecule, acceptor atom, score
      L1  H     3    26       P1  7948  0.99
      L1  H    13    39       P1  7948  0.84

> <Gold.Chemscore.Hbond.Weighted>
-6.3529

> <Gold.Chemscore.Metal.Weighted>
-0.0000

> <Gold.Chemscore.Lipo.Weighted>
-13.3167

> <Gold.Chemscore.Internal_Hbond.Weighted>
0.0000

> <Gold.Chemscore.DEClash.Weighted>
0.0863

> <Gold.Chemscore.DEInternal.Weighted>
2.0300

> <Gold.Chemscore.Rot.Weighted>
3.6118

> <Gold.Chemscore.Internal.Correction.Weighted>
   9.000000E+99

> <Gold.Protein.RotatedTorsions>
[ 6907 6896 6895 6894 ] final  -73.57 input  -60.11 | X-H torsion
[ 7974 7965 7964 7962 ] final  118.07 input  175.53 | X-H torsion
[ 8008 7997 7996 7995 ] final  -28.96 input   59.86 | X-H torsion
[ 10167 10162 10161 10158 ] final -132.98 input  -65.29 | X-H torsion
[ 10718 10713 10712 10709 ] final  135.65 input   66.30 | X-H torsion
[ 10763 10752 10751 10750 ] final  156.41 input  -60.55 | X-H torsion
[ 11005 11000 10999 10996 ] final  116.24 input  -57.11 | X-H torsion

> <Gold.Protein.ActiveResidues>
 VAL166  LYS551  ARG553  GLY616  TRP617  ASP618  TYR619  PRO620  LYS621  CYS622 
 ASP623  PHE694  ASN695  SER759  ASP760  ASP761  ALA762  ILE779  LEU786  VAL792 
 PHE793  MET794  SER795  GLU796  ALA797  LYS798  CYS799  TRP800  GLU811  SER814 

> <Gold.Protein.RotatedAtoms>
  150.7125  134.4996  159.5554 H   0  0  0  0  0  0  0  0  0  0  0  0  # atno 6907 bound_to 6896
  152.2596  134.8045  160.0442 H   0  0  0  0  0  0  0  0  0  0  0  0  # atno 6908 bound_to 6896
  151.8763  133.3451  159.3788 H   0  0  0  0  0  0  0  0  0  0  0  0  # atno 6909 bound_to 6896
  145.1597  139.3162  143.4523 H   0  0  0  0  0  0  0  0  0  0  0  0  # atno 7974 bound_to 7965
  154.4310  140.1831  156.1172 H   0  0  0  0  0  0  0  0  0  0  0  0  # atno 8008 bound_to 7997
  156.0171  140.3344  155.6975 H   0  0  0  0  0  0  0  0  0  0  0  0  # atno 8009 bound_to 7997
  155.6028  140.0642  157.2719 H   0  0  0  0  0  0  0  0  0  0  0  0  # atno 8010 bound_to 7997
  139.9030  143.6585  152.2591 H   0  0  0  0  0  0  0  0  0  0  0  0  # atno 10167 bound_to 10162
  157.4548  131.1069  150.9990 H   0  0  0  0  0  0  0  0  0  0  0  0  # atno 10718 bound_to 10713
  154.1838  135.2798  155.3043 H   0  0  0  0  0  0  0  0  0  0  0  0  # atno 10763 bound_to 10752
  154.5982  135.5538  153.7350 H   0  0  0  0  0  0  0  0  0  0  0  0  # atno 10764 bound_to 10752
  153.0131  135.6385  154.1977 H   0  0  0  0  0  0  0  0  0  0  0  0  # atno 10765 bound_to 10752
  139.9035  134.9595  156.7168 H   0  0  0  0  0  0  0  0  0  0  0  0  # atno 11005 bound_to 11000
  146.3484  140.1703  142.8589 LP  0  0  0  0  0  0  0  0  0  0  0  0  # atno 17320 bound_to 7965
  145.0344  140.8896  143.5090 LP  0  0  0  0  0  0  0  0  0  0  0  0  # atno 17321 bound_to 7965
  139.7009  144.7635  151.1275 LP  0  0  0  0  0  0  0  0  0  0  0  0  # atno 17342 bound_to 10162
  140.7703  143.5459  150.9259 LP  0  0  0  0  0  0  0  0  0  0  0  0  # atno 17343 bound_to 10162
  157.0808  130.5902  149.5420 LP  0  0  0  0  0  0  0  0  0  0  0  0  # atno 17370 bound_to 10713
  156.0002  130.5080  150.7636 LP  0  0  0  0  0  0  0  0  0  0  0  0  # atno 17371 bound_to 10713
  140.7032  133.9288  155.8037 LP  0  0  0  0  0  0  0  0  0  0  0  0  # atno 17394 bound_to 11000
  141.0356  134.0694  157.3963 LP  0  0  0  0  0  0  0  0  0  0  0  0  # atno 17395 bound_to 11000

$$$$
