AV-unprocessed.smi:686|AV-procd|sdf|3344|dock9
  -GOLD-   22720 0323D 1   1.00000     0.00000
 Structure written by MMmdl.
 41 42  0  0  0  0  0  0  0  0  2 V2000
  147.9510  138.0030  154.3401 C   0  0  0  0  0  0  0  0  0  0  0  0
  147.2906  136.8354  155.0918 C   0  0  1  0  0  0  0  0  0  0  0  0
  146.7257  135.7872  154.1306 C   0  0  0  0  0  0  0  0  0  0  0  0
  147.8462  134.8704  153.8306 N   0  3  2  0  0  0  0  0  0  0  0  0
  147.4598  133.5291  153.3083 C   0  0  0  0  0  0  0  0  0  0  0  0
  148.6823  132.5963  153.2158 C   0  0  0  0  0  0  0  0  0  0  0  0
  146.7825  133.6273  151.9280 C   0  0  0  0  0  0  0  0  0  0  0  0
  148.7184  134.8527  155.0299 C   0  0  0  0  0  0  0  0  0  0  0  0
  148.3000  136.0349  155.9254 C   0  0  2  0  0  0  0  0  0  0  0  0
  147.6594  135.5576  157.1554 N   0  0  0  0  0  0  0  0  0  0  0  0
  148.6670  134.9571  158.4214 S   0  0  0  0  0  0  0  0  0  0  0  0
  149.4076  133.7997  157.8959 O   0  0  0  0  0  0  0  0  0  0  0  0
  149.3985  136.1035  158.9810 O   0  0  0  0  0  0  0  0  0  0  0  0
  147.4423  134.3585  159.6602 C   0  0  0  0  0  0  0  0  0  0  0  0
  147.4628  135.2615  160.8600 C   0  0  0  0  0  0  0  0  0  0  0  0
  147.6579  134.9135  162.2252 C   0  0  0  0  0  0  0  0  0  0  0  0
  147.5783  136.1120  162.8738 C   0  0  0  0  0  0  0  0  0  0  0  0
  147.3569  137.1171  161.9894 O   0  0  0  0  0  0  0  0  0  0  0  0
  147.2858  136.5642  160.7057 N   0  0  0  0  0  0  0  0  0  0  0  0
  148.7593  137.6599  153.6934 H   0  0  0  0  0  0  0  0  0  0  0  0
  148.3697  138.7289  155.0379 H   0  0  0  0  0  0  0  0  0  0  0  0
  147.2263  138.5282  153.7173 H   0  0  0  0  0  0  0  0  0  0  0  0
  146.4939  137.2486  155.7127 H   0  0  0  0  0  0  0  0  0  0  0  0
  145.9301  135.2315  154.6300 H   0  0  0  0  0  0  0  0  0  0  0  0
  146.3066  136.2314  153.2270 H   0  0  0  0  0  0  0  0  0  0  0  0
  146.7440  133.0878  154.0037 H   0  0  0  0  0  0  0  0  0  0  0  0
  148.4004  131.6224  152.8149 H   0  0  0  0  0  0  0  0  0  0  0  0
  149.1382  132.4163  154.1892 H   0  0  0  0  0  0  0  0  0  0  0  0
  149.4487  133.0122  152.5609 H   0  0  0  0  0  0  0  0  0  0  0  0
  146.5517  132.6363  151.5361 H   0  0  0  0  0  0  0  0  0  0  0  0
  147.4274  134.1261  151.2035 H   0  0  0  0  0  0  0  0  0  0  0  0
  145.8402  134.1737  151.9716 H   0  0  0  0  0  0  0  0  0  0  0  0
  148.6268  133.9060  155.5648 H   0  0  0  0  0  0  0  0  0  0  0  0
  149.7584  134.9472  154.7161 H   0  0  0  0  0  0  0  0  0  0  0  0
  149.1585  136.6501  156.2000 H   0  0  0  0  0  0  0  0  0  0  0  0
  147.0025  136.2500  157.5156 H   0  0  0  0  0  0  0  0  0  0  0  0
  146.4564  134.3456  159.1962 H   0  0  0  0  0  0  0  0  0  0  0  0
  147.6983  133.3333  159.9295 H   0  0  0  0  0  0  0  0  0  0  0  0
  147.8252  133.9391  162.6596 H   0  0  0  0  0  0  0  0  0  0  0  0
  147.6549  136.4010  163.9115 H   0  0  0  0  0  0  0  0  0  0  0  0
  148.3834  135.3258  153.1066 H   0  0  0  0  0  0  0  0  0  0  0  0
  1  2  1  0  0  0  0
  1 20  1  0  0  0  0
  1 21  1  0  0  0  0
  1 22  1  0  0  0  0
  2  9  1  0  0  0  0
  2  3  1  0  0  0  0
  2 23  1  0  0  0  0
  3  4  1  0  0  0  0
  3 24  1  0  0  0  0
  3 25  1  0  0  0  0
  4  5  1  0  0  0  0
  4  8  1  0  0  0  0
  4 41  1  0  0  0  0
  5  6  1  0  0  0  0
  5  7  1  0  0  0  0
  5 26  1  0  0  0  0
  6 27  1  0  0  0  0
  6 28  1  0  0  0  0
  6 29  1  0  0  0  0
  7 30  1  0  0  0  0
  7 31  1  0  0  0  0
  7 32  1  0  0  0  0
  8  9  1  0  0  0  0
  8 33  1  0  0  0  0
  8 34  1  0  0  0  0
  9 10  1  0  0  0  0
  9 35  1  0  0  0  0
 10 11  1  0  0  0  0
 10 36  1  0  0  0  0
 11 12  2  0  0  0  0
 11 13  2  0  0  0  0
 11 14  1  0  0  0  0
 14 15  1  0  0  0  0
 14 37  1  0  0  0  0
 14 38  1  0  0  0  0
 15 19  2  0  0  0  0
 15 16  1  0  0  0  0
 16 17  2  0  0  0  0
 16 39  1  0  0  0  0
 17 18  1  0  0  0  0
 17 40  1  0  0  0  0
 18 19  1  0  0  0  0
M  CHG  1   4   1
M  END
> <s_m_source_file>
AV-unprocessed.smi

> <i_m_source_file_index>
686

> <i_lp_mmshare_version>
43012

> <i_f3d_flags>
0

> <s_epik_input>
W0NIM11bQ0BASF0xW0NIMl1OKFtDSF0oW0NIM10pW0NIM10pW0NIMl1bQ0BIXTFbTkhdUyg9TykoPU8pW0NIMl1jMltjSF1bY0hdb24y

> <s_epik_cmdline>
J2VwaWtfcHl0aG9uJywgJy1waCcsICc3LjAnLCAnLXRuJywgJzgnLCAnLW1hJywgJzIwMCcsICctbWV0YWxfYmluZGluZycsICctaW1hZScsICc8aW5maWxlLm1hZT4nLCAnLW9tYWUnLCAnPG91dGZpbGUubWFlPic=

> <r_epik_Ionization_Penalty>
0.00200818

> <r_epik_Ionization_Penalty_Charging>
0.000701289

> <r_epik_Ionization_Penalty_Neutral>
0.00130689

> <r_epik_State_Penalty>
0.00131314

> <r_epik_Charging_Adjusted_Penalty>
0.00201443

> <i_epik_Tot_Q>
1

> <i_epik_Tot_abs_Q>
1

> <r_epik_Metal_State_Penalty>
0.310831

> <b_epik_Metal_Only>
0

> <s_lp_Force_Field>
OPLS_2005

> <r_lp_Energy>
21.6188

> <b_lp_Chiralities_Consistent>
1

> <s_lp_Variant>
AV-unprocessed.smi:686-8

> <Gold.Version>
5.8.1

> <Gold.Id.Protein>
6NUR|6NUR_protein|mol2

> <Gold.PLP.Fitness>
38.6883

> <Gold.PLP.PLP>
-27.2115

> <Gold.PLP.part.hbond>
-4.7917

> <Gold.PLP.part.metal>
0.0000

> <Gold.PLP.part.buried>
-1.9877

> <Gold.PLP.part.nonpolar>
-19.4598

> <Gold.PLP.part.repulsive>
0.0000

> <Gold.PLP.ligand.clash>
0.0000

> <Gold.PLP.ligand.torsion>
0.4648

> <Gold.PLP.Chemscore.Hbond>
4.0816

> <Gold.PLP.Chemscore.CHOScore>
0.0000

> <Gold.PLP.Chemscore.Metal>
0.0000

> <Gold.Chemscore.Hbonds>
donor molecule, donor type, donor heavy atom, donor atom, acceptor molecule, acceptor atom, score
      L1  H     4    41       P1  7948  2.00
      P1  H  6896  6907       L1    13  0.01
      P1  H  6896  6909       L1    12  0.95
      P1  H  6931  6943       L1    18  0.93
      P1  H  6934  6947       L1    18  0.12

> <Gold.PLP.Chemscore.Internal.Correction>
0.1615

> <Gold.Rescore>
     Score         DG    S(hbond)    S(metal)    S(lipo)     H(rot)  DE(clash)    DE(int)     intcor
     11.81     -13.48       1.87        0.00      56.96       1.91       0.00       1.67       ----

> <Gold.Chemscore.Fitness>
11.8071

> <Gold.Chemscore.DG>
-13.4822

> <Gold.Chemscore.ZeroCoef>
-5.4800

> <Gold.Chemscore.Hbond>
1.8656

> <Gold.Chemscore.Metal>
0.0000

> <Gold.Chemscore.Lipo>
56.9635

> <Gold.Chemscore.Internal_Hbond>
0.0000

> <Gold.Chemscore.DEClash>
0.0021

> <Gold.Chemscore.DEInternal>
1.6730

> <Gold.Chemscore.Rot>
1.9115

> <Gold.Chemscore.Internal.Correction>
   9.000000E+99

> <Gold.Chemscore.Hbonds>
donor molecule, donor type, donor heavy atom, donor atom, acceptor molecule, acceptor atom, score
      L1  H     4    41       P1  7948  0.96
      P1  H  6896  6907       L1    13  0.01
      P1  H  6896  6909       L1    12  0.21
      P1  H  6931  6943       L1    18  0.25

> <Gold.Chemscore.Hbond.Weighted>
-6.2310

> <Gold.Chemscore.Metal.Weighted>
-0.0000

> <Gold.Chemscore.Lipo.Weighted>
-6.6647

> <Gold.Chemscore.Internal_Hbond.Weighted>
0.0000

> <Gold.Chemscore.DEClash.Weighted>
0.0021

> <Gold.Chemscore.DEInternal.Weighted>
1.6730

> <Gold.Chemscore.Rot.Weighted>
4.8935

> <Gold.Chemscore.Internal.Correction.Weighted>
   9.000000E+99

> <Gold.Protein.RotatedTorsions>
[ 6907 6896 6895 6894 ] final   -7.23 input  -60.11 | X-H torsion
[ 7974 7965 7964 7962 ] final   17.79 input  175.53 | X-H torsion
[ 8008 7997 7996 7995 ] final    9.41 input   59.86 | X-H torsion
[ 10167 10162 10161 10158 ] final   27.30 input  -65.29 | X-H torsion
[ 10718 10713 10712 10709 ] final  -31.87 input   66.30 | X-H torsion
[ 10763 10752 10751 10750 ] final    5.14 input  -60.55 | X-H torsion
[ 11005 11000 10999 10996 ] final  154.31 input  -57.11 | X-H torsion

> <Gold.Protein.ActiveResidues>
 VAL166  LYS551  ARG553  GLY616  TRP617  ASP618  TYR619  PRO620  LYS621  CYS622 
 ASP623  PHE694  ASN695  SER759  ASP760  ASP761  ALA762  ILE779  LEU786  VAL792 
 PHE793  MET794  SER795  GLU796  ALA797  LYS798  CYS799  TRP800  GLU811  SER814 

> <Gold.Protein.RotatedAtoms>
  151.4528  135.1031  159.9702 H   0  0  0  0  0  0  0  0  0  0  0  0  # atno 6907 bound_to 6896
  152.4882  133.8424  159.7170 H   0  0  0  0  0  0  0  0  0  0  0  0  # atno 6908 bound_to 6896
  150.9010  133.7059  159.2906 H   0  0  0  0  0  0  0  0  0  0  0  0  # atno 6909 bound_to 6896
  146.2207  139.8551  142.8615 H   0  0  0  0  0  0  0  0  0  0  0  0  # atno 7974 bound_to 7965
  154.7797  140.2817  155.6073 H   0  0  0  0  0  0  0  0  0  0  0  0  # atno 8008 bound_to 7997
  156.2948  140.2625  156.2548 H   0  0  0  0  0  0  0  0  0  0  0  0  # atno 8009 bound_to 7997
  154.9799  140.0375  157.2262 H   0  0  0  0  0  0  0  0  0  0  0  0  # atno 8010 bound_to 7997
  140.4950  144.0407  150.6311 H   0  0  0  0  0  0  0  0  0  0  0  0  # atno 10167 bound_to 10162
  156.3819  130.4357  149.7462 H   0  0  0  0  0  0  0  0  0  0  0  0  # atno 10718 bound_to 10713
  153.2629  135.6925  153.7560 H   0  0  0  0  0  0  0  0  0  0  0  0  # atno 10763 bound_to 10752
  153.6612  135.3360  155.3128 H   0  0  0  0  0  0  0  0  0  0  0  0  # atno 10764 bound_to 10752
  154.8437  135.4477  154.1626 H   0  0  0  0  0  0  0  0  0  0  0  0  # atno 10765 bound_to 10752
  140.1477  134.8696  157.2414 H   0  0  0  0  0  0  0  0  0  0  0  0  # atno 11005 bound_to 11000
  145.2761  141.0124  143.3744 LP  0  0  0  0  0  0  0  0  0  0  0  0  # atno 17320 bound_to 7965
  144.9186  139.4440  143.6552 LP  0  0  0  0  0  0  0  0  0  0  0  0  # atno 17321 bound_to 7965
  140.3686  143.2867  152.0303 LP  0  0  0  0  0  0  0  0  0  0  0  0  # atno 17342 bound_to 10162
  139.4859  144.6247  151.7187 LP  0  0  0  0  0  0  0  0  0  0  0  0  # atno 17343 bound_to 10162
  156.4550  130.7924  151.2945 LP  0  0  0  0  0  0  0  0  0  0  0  0  # atno 17370 bound_to 10713
  157.7493  131.0083  150.3225 LP  0  0  0  0  0  0  0  0  0  0  0  0  # atno 17371 bound_to 10713
  140.2643  134.3535  155.7395 LP  0  0  0  0  0  0  0  0  0  0  0  0  # atno 17394 bound_to 11000
  141.2195  133.7387  156.9127 LP  0  0  0  0  0  0  0  0  0  0  0  0  # atno 17395 bound_to 11000

$$$$
