AV-unprocessed.smi:2223|AV-procd|sdf|8989|dock1
  -GOLD-   2272012203D 1   1.00000     0.00000
 Structure written by MMmdl.
 46 47  0  0  0  0  0  0  0  0  1 V2000
  149.2026  130.5442  153.8079 C   0  0  0  0  0  0  0  0  0  0  0  0
  149.1179  131.7722  154.6898 C   0  0  0  0  0  0  0  0  0  0  0  0
  148.7398  131.6633  156.0418 C   0  0  0  0  0  0  0  0  0  0  0  0
  148.6823  132.8407  156.8130 C   0  0  0  0  0  0  0  0  0  0  0  0
  148.2841  132.7955  158.2732 C   0  0  0  0  0  0  0  0  0  0  0  0
  148.9751  134.0618  156.3166 N   0  0  0  0  0  0  0  0  0  0  0  0
  149.3411  134.1785  155.0159 C   0  0  0  0  0  0  0  0  0  0  0  0
  149.6631  135.4148  154.3959 N   0  0  0  0  0  0  0  0  0  0  0  0
  150.2727  136.4834  154.9384 C   0  0  0  0  0  0  0  0  0  0  0  0
  150.6848  136.5594  156.0963 O   0  0  0  0  0  0  0  0  0  0  0  0
  150.3889  137.4784  154.0474 N   0  0  0  0  0  0  0  0  0  0  0  0
  151.0107  138.7724  154.3159 C   0  0  2  0  0  0  0  0  0  0  0  0
  152.2578  138.6294  155.1898 C   0  0  0  0  0  0  0  0  0  0  0  0
  152.0641  139.6738  156.2749 C   0  0  0  0  0  0  0  0  0  0  0  0
  152.9339  139.8932  157.1167 O   0  0  0  0  0  0  0  0  0  0  0  0
  150.8651  140.2801  156.1847 N   0  0  0  0  0  0  0  0  0  0  0  0
  150.3178  141.3140  157.1027 C   0  0  0  0  0  0  0  0  0  0  0  0
  148.8627  141.6428  156.7018 C   0  0  0  0  0  0  0  0  0  0  0  0
  151.1312  142.6292  157.0438 C   0  0  0  0  0  0  0  0  0  0  0  0
  150.3563  140.8064  158.5621 C   0  0  0  0  0  0  0  0  0  0  0  0
  150.0713  139.7077  155.0978 C   0  0  0  0  0  0  0  0  0  0  0  0
  149.4220  133.0476  154.1727 C   0  0  0  0  0  0  0  0  0  0  0  0
  148.6092  129.7258  154.2169 H   0  0  0  0  0  0  0  0  0  0  0  0
  150.2374  130.2111  153.7263 H   0  0  0  0  0  0  0  0  0  0  0  0
  148.8316  130.7637  152.8064 H   0  0  0  0  0  0  0  0  0  0  0  0
  148.5013  130.7033  156.4758 H   0  0  0  0  0  0  0  0  0  0  0  0
  147.8500  131.8298  158.5335 H   0  0  0  0  0  0  0  0  0  0  0  0
  147.5467  133.5682  158.4937 H   0  0  0  0  0  0  0  0  0  0  0  0
  149.1557  132.9612  158.9066 H   0  0  0  0  0  0  0  0  0  0  0  0
  149.3940  135.4959  153.4268 H   0  0  0  0  0  0  0  0  0  0  0  0
  150.0242  137.3321  153.1176 H   0  0  0  0  0  0  0  0  0  0  0  0
  151.2983  139.2456  153.3747 H   0  0  0  0  0  0  0  0  0  0  0  0
  152.3326  137.6444  155.6527 H   0  0  0  0  0  0  0  0  0  0  0  0
  153.1729  138.8171  154.6271 H   0  0  0  0  0  0  0  0  0  0  0  0
  148.4515  142.4376  157.3250 H   0  0  0  0  0  0  0  0  0  0  0  0
  148.1993  140.7844  156.8066 H   0  0  0  0  0  0  0  0  0  0  0  0
  148.8057  141.9782  155.6655 H   0  0  0  0  0  0  0  0  0  0  0  0
  151.1316  143.0673  156.0451 H   0  0  0  0  0  0  0  0  0  0  0  0
  152.1671  142.4802  157.3499 H   0  0  0  0  0  0  0  0  0  0  0  0
  150.7110  143.3795  157.7146 H   0  0  0  0  0  0  0  0  0  0  0  0
  150.0326  141.5820  159.2568 H   0  0  0  0  0  0  0  0  0  0  0  0
  151.3662  140.5118  158.8501 H   0  0  0  0  0  0  0  0  0  0  0  0
  149.7033  139.9498  158.7257 H   0  0  0  0  0  0  0  0  0  0  0  0
  149.6763  140.4767  154.4336 H   0  0  0  0  0  0  0  0  0  0  0  0
  149.2278  139.1619  155.5243 H   0  0  0  0  0  0  0  0  0  0  0  0
  149.7155  133.1545  153.1382 H   0  0  0  0  0  0  0  0  0  0  0  0
  1  2  1  0  0  0  0
  1 23  1  0  0  0  0
  1 24  1  0  0  0  0
  1 25  1  0  0  0  0
  2 22  1  0  0  0  0
  2  3  2  0  0  0  0
  3  4  1  0  0  0  0
  3 26  1  0  0  0  0
  4  5  1  0  0  0  0
  4  6  2  0  0  0  0
  5 27  1  0  0  0  0
  5 28  1  0  0  0  0
  5 29  1  0  0  0  0
  6  7  1  0  0  0  0
  7  8  1  0  0  0  0
  7 22  2  0  0  0  0
  8  9  1  0  0  0  0
  8 30  1  0  0  0  0
  9 10  2  0  0  0  0
  9 11  1  0  0  0  0
 11 12  1  0  0  0  0
 11 31  1  0  0  0  0
 12 21  1  0  0  0  0
 12 13  1  0  0  0  0
 12 32  1  0  0  0  0
 13 14  1  0  0  0  0
 13 33  1  0  0  0  0
 13 34  1  0  0  0  0
 14 15  2  0  0  0  0
 14 16  1  0  0  0  0
 16 17  1  0  0  0  0
 16 21  1  0  0  0  0
 17 18  1  0  0  0  0
 17 19  1  0  0  0  0
 17 20  1  0  0  0  0
 18 35  1  0  0  0  0
 18 36  1  0  0  0  0
 18 37  1  0  0  0  0
 19 38  1  0  0  0  0
 19 39  1  0  0  0  0
 19 40  1  0  0  0  0
 20 41  1  0  0  0  0
 20 42  1  0  0  0  0
 20 43  1  0  0  0  0
 21 44  1  0  0  0  0
 21 45  1  0  0  0  0
 22 46  1  0  0  0  0
M  END
> <s_m_source_file>
AV-unprocessed.smi

> <i_m_source_file_index>
2223

> <i_lp_mmshare_version>
43012

> <i_f3d_flags>
0

> <s_epik_input>
W0NIM11jMVtjSF1jKFtDSDNdKW5jKFtjSF0xKVtOSF1DKD1PKVtOSF1bQ0BASF0yW0NIMl1DKD1PKU4oW0NIMl0yKUMoW0NIM10pKFtDSDNdKVtDSDNd

> <s_epik_cmdline>
J2VwaWtfcHl0aG9uJywgJy1waCcsICc3LjAnLCAnLXRuJywgJzgnLCAnLW1hJywgJzIwMCcsICctbWV0YWxfYmluZGluZycsICctaW1hZScsICc8aW5maWxlLm1hZT4nLCAnLW9tYWUnLCAnPG91dGZpbGUubWFlPic=

> <r_lp_tautomer_probability>
1

> <r_epik_Ionization_Penalty>
0.000228403

> <r_epik_Ionization_Penalty_Charging>
0

> <r_epik_Ionization_Penalty_Neutral>
0.000228403

> <r_epik_State_Penalty>
-0

> <r_epik_Charging_Adjusted_Penalty>
0

> <i_epik_Tot_Q>
0

> <i_epik_Tot_abs_Q>
0

> <r_epik_Metal_State_Penalty>
-0

> <b_epik_Metal_Only>
0

> <s_lp_Force_Field>
OPLS_2005

> <r_lp_Energy>
26.8517

> <b_lp_Chiralities_Consistent>
1

> <s_lp_Variant>
AV-unprocessed.smi:2223-1

> <Gold.Version>
5.8.1

> <Gold.Id.Protein>
6NUR|6NUR_protein|mol2

> <Gold.PLP.Fitness>
41.0072

> <Gold.PLP.PLP>
-33.0641

> <Gold.PLP.part.hbond>
-3.8259

> <Gold.PLP.part.metal>
0.0000

> <Gold.PLP.part.buried>
-2.1962

> <Gold.PLP.part.nonpolar>
-27.6932

> <Gold.PLP.part.repulsive>
0.1411

> <Gold.PLP.ligand.clash>
0.0000

> <Gold.PLP.ligand.torsion>
0.5550

> <Gold.PLP.Chemscore.Hbond>
3.0000

> <Gold.PLP.Chemscore.CHOScore>
0.0000

> <Gold.PLP.Chemscore.Metal>
0.0000

> <Gold.Chemscore.Hbonds>
donor molecule, donor type, donor heavy atom, donor atom, acceptor molecule, acceptor atom, score
      L1  H     8    30       P1  7948  0.95
      L1  H    11    31       P1  7948  0.90
      P1  H  7997  8010       L1    15  1.00

> <Gold.PLP.Chemscore.Internal.Correction>
0.0532

> <Gold.Rescore>
     Score         DG    S(hbond)    S(metal)    S(lipo)     H(rot)  DE(clash)    DE(int)     intcor
     15.78     -19.01       2.59        0.00      68.03       1.21       0.14       3.09       ----

> <Gold.Chemscore.Fitness>
15.7850

> <Gold.Chemscore.DG>
-19.0066

> <Gold.Chemscore.ZeroCoef>
-5.4800

> <Gold.Chemscore.Hbond>
2.5907

> <Gold.Chemscore.Metal>
0.0000

> <Gold.Chemscore.Lipo>
68.0304

> <Gold.Chemscore.Internal_Hbond>
0.0000

> <Gold.Chemscore.DEClash>
0.1351

> <Gold.Chemscore.DEInternal>
3.0865

> <Gold.Chemscore.Rot>
1.2055

> <Gold.Chemscore.Internal.Correction>
   9.000000E+99

> <Gold.Chemscore.Hbonds>
donor molecule, donor type, donor heavy atom, donor atom, acceptor molecule, acceptor atom, score
      L1  H     8    30       P1  7948  0.21
      L1  H    11    31       P1  7948  0.17
      P1  H  7997  8010       L1    15  0.86

> <Gold.Chemscore.Hbond.Weighted>
-8.6531

> <Gold.Chemscore.Metal.Weighted>
-0.0000

> <Gold.Chemscore.Lipo.Weighted>
-7.9596

> <Gold.Chemscore.Internal_Hbond.Weighted>
0.0000

> <Gold.Chemscore.DEClash.Weighted>
0.1351

> <Gold.Chemscore.DEInternal.Weighted>
3.0865

> <Gold.Chemscore.Rot.Weighted>
3.0861

> <Gold.Chemscore.Internal.Correction.Weighted>
   9.000000E+99

> <Gold.Protein.RotatedTorsions>
[ 6907 6896 6895 6894 ] final   48.51 input  -60.11 | X-H torsion
[ 7974 7965 7964 7962 ] final   84.12 input  175.53 | X-H torsion
[ 8008 7997 7996 7995 ] final   65.06 input   59.86 | X-H torsion
[ 10167 10162 10161 10158 ] final   -4.58 input  -65.29 | X-H torsion
[ 10718 10713 10712 10709 ] final   66.08 input   66.30 | X-H torsion
[ 10763 10752 10751 10750 ] final  125.63 input  -60.55 | X-H torsion
[ 11005 11000 10999 10996 ] final   36.11 input  -57.11 | X-H torsion

> <Gold.Protein.ActiveResidues>
 VAL166  LYS551  ARG553  GLY616  TRP617  ASP618  TYR619  PRO620  LYS621  CYS622 
 ASP623  PHE694  ASN695  SER759  ASP760  ASP761  ALA762  ILE779  LEU786  VAL792 
 PHE793  MET794  SER795  GLU796  ALA797  LYS798  CYS799  TRP800  GLU811  SER814 

> <Gold.Protein.RotatedAtoms>
  152.2803  134.7835  160.0397 H   0  0  0  0  0  0  0  0  0  0  0  0  # atno 6907 bound_to 6896
  151.8417  133.3419  159.3653 H   0  0  0  0  0  0  0  0  0  0  0  0  # atno 6908 bound_to 6896
  150.7187  134.5313  159.5746 H   0  0  0  0  0  0  0  0  0  0  0  0  # atno 6909 bound_to 6896
  145.6030  139.2355  143.2235 H   0  0  0  0  0  0  0  0  0  0  0  0  # atno 7974 bound_to 7965
  155.6558  140.3497  155.4765 H   0  0  0  0  0  0  0  0  0  0  0  0  # atno 8008 bound_to 7997
  155.9809  140.1174  157.0750 H   0  0  0  0  0  0  0  0  0  0  0  0  # atno 8009 bound_to 7997
  154.4191  140.1138  156.5421 H   0  0  0  0  0  0  0  0  0  0  0  0  # atno 8010 bound_to 7997
  140.6932  143.6407  150.8438 H   0  0  0  0  0  0  0  0  0  0  0  0  # atno 10167 bound_to 10162
  157.6146  130.9248  150.0061 H   0  0  0  0  0  0  0  0  0  0  0  0  # atno 10718 bound_to 10713
  153.6804  135.3315  155.3176 H   0  0  0  0  0  0  0  0  0  0  0  0  # atno 10763 bound_to 10752
  154.8467  135.4407  154.1613 H   0  0  0  0  0  0  0  0  0  0  0  0  # atno 10764 bound_to 10752
  153.2627  135.6993  153.7638 H   0  0  0  0  0  0  0  0  0  0  0  0  # atno 10765 bound_to 10752
  140.2359  134.3473  155.7945 H   0  0  0  0  0  0  0  0  0  0  0  0  # atno 11005 bound_to 11000
  146.1562  140.6854  142.9299 LP  0  0  0  0  0  0  0  0  0  0  0  0  # atno 17320 bound_to 7965
  144.7302  140.4648  143.6943 LP  0  0  0  0  0  0  0  0  0  0  0  0  # atno 17321 bound_to 7965
  140.0123  143.5630  152.2834 LP  0  0  0  0  0  0  0  0  0  0  0  0  # atno 17342 bound_to 10162
  139.6358  144.7650  151.2441 LP  0  0  0  0  0  0  0  0  0  0  0  0  # atno 17343 bound_to 10162
  156.1263  130.3644  149.9804 LP  0  0  0  0  0  0  0  0  0  0  0  0  # atno 17370 bound_to 10713
  156.7874  130.9244  151.3646 LP  0  0  0  0  0  0  0  0  0  0  0  0  # atno 17371 bound_to 10713
  141.2214  133.7271  156.8806 LP  0  0  0  0  0  0  0  0  0  0  0  0  # atno 17394 bound_to 11000
  140.1703  134.9104  157.2825 LP  0  0  0  0  0  0  0  0  0  0  0  0  # atno 17395 bound_to 11000

$$$$
