AV-unprocessed.smi:1868|AV-procd|sdf|7589|dock8
  -GOLD-   22720 9303D 1   1.00000     0.00000
 Structure written by MMmdl.
 48 50  0  0  0  0  0  0  0  0  3 V2000
  148.8714  141.0791  154.9200 C   0  0  0  0  0  0  0  0  0  0  0  0
  149.7422  141.4538  156.0720 C   0  0  0  0  0  0  0  0  0  0  0  0
  149.8749  142.7021  156.6027 N   0  3  0  0  0  0  0  0  0  0  0  0
  150.7792  142.6704  157.6654 C   0  0  0  0  0  0  0  0  0  0  0  0
  151.2365  143.6820  158.5041 C   0  0  0  0  0  0  0  0  0  0  0  0
  152.1681  143.3093  159.4953 C   0  0  0  0  0  0  0  0  0  0  0  0
  152.6092  141.9761  159.6247 C   0  0  0  0  0  0  0  0  0  0  0  0
  152.1384  140.9585  158.7684 C   0  0  0  0  0  0  0  0  0  0  0  0
  151.2177  141.3361  157.7914 C   0  0  0  0  0  0  0  0  0  0  0  0
  150.5494  140.6212  156.7910 N   0  0  0  0  0  0  0  0  0  0  0  0
  150.7976  139.1779  156.6498 C   0  0  0  0  0  0  0  0  0  0  0  0
  150.7291  138.6901  155.1886 C   0  0  1  0  0  0  0  0  0  0  0  0
  151.5626  139.5024  154.3848 O   0  0  0  0  0  0  0  0  0  0  0  0
  151.1931  137.2254  155.0602 C   0  0  0  0  0  0  0  0  0  0  0  0
  150.0758  136.2897  154.7704 N   0  3  2  0  0  0  0  0  0  0  0  0
  148.8221  136.6247  155.4972 C   0  0  0  0  0  0  0  0  0  0  0  0
  147.6673  135.7060  155.0635 C   0  0  0  0  0  0  0  0  0  0  0  0
  148.0242  134.2245  155.2709 C   0  0  1  0  0  0  0  0  0  0  0  0
  146.8905  133.2950  154.8159 C   0  0  0  0  0  0  0  0  0  0  0  0
  149.3413  133.9157  154.5398 C   0  0  0  0  0  0  0  0  0  0  0  0
  150.4626  134.8709  154.9817 C   0  0  0  0  0  0  0  0  0  0  0  0
  148.3736  141.9596  154.5130 H   0  0  0  0  0  0  0  0  0  0  0  0
  148.1100  140.3673  155.2389 H   0  0  0  0  0  0  0  0  0  0  0  0
  149.4674  140.6228  154.1292 H   0  0  0  0  0  0  0  0  0  0  0  0
  150.9017  144.7045  158.4064 H   0  0  0  0  0  0  0  0  0  0  0  0
  152.5527  144.0613  160.1692 H   0  0  0  0  0  0  0  0  0  0  0  0
  153.3246  141.7291  160.3958 H   0  0  0  0  0  0  0  0  0  0  0  0
  152.4842  139.9412  158.8751 H   0  0  0  0  0  0  0  0  0  0  0  0
  151.7811  138.9688  157.0729 H   0  0  0  0  0  0  0  0  0  0  0  0
  150.0791  138.6432  157.2726 H   0  0  0  0  0  0  0  0  0  0  0  0
  149.7064  138.8005  154.8310 H   0  0  0  0  0  0  0  0  0  0  0  0
  152.3072  139.7723  154.9012 H   0  0  0  0  0  0  0  0  0  0  0  0
  151.9356  137.1707  154.2621 H   0  0  0  0  0  0  0  0  0  0  0  0
  151.7036  136.9031  155.9690 H   0  0  0  0  0  0  0  0  0  0  0  0
  148.9879  136.5339  156.5718 H   0  0  0  0  0  0  0  0  0  0  0  0
  148.5371  137.6592  155.3103 H   0  0  0  0  0  0  0  0  0  0  0  0
  146.7688  135.9561  155.6287 H   0  0  0  0  0  0  0  0  0  0  0  0
  147.4324  135.8878  154.0135 H   0  0  0  0  0  0  0  0  0  0  0  0
  148.1802  134.0582  156.3379 H   0  0  0  0  0  0  0  0  0  0  0  0
  146.6845  133.4097  153.7512 H   0  0  0  0  0  0  0  0  0  0  0  0
  145.9681  133.5060  155.3577 H   0  0  0  0  0  0  0  0  0  0  0  0
  147.1448  132.2499  154.9949 H   0  0  0  0  0  0  0  0  0  0  0  0
  149.6421  132.8850  154.7311 H   0  0  0  0  0  0  0  0  0  0  0  0
  149.1955  133.9992  153.4616 H   0  0  0  0  0  0  0  0  0  0  0  0
  151.3653  134.6456  154.4124 H   0  0  0  0  0  0  0  0  0  0  0  0
  150.7022  134.7104  156.0343 H   0  0  0  0  0  0  0  0  0  0  0  0
  149.8811  136.3818  153.7831 H   0  0  0  0  0  0  0  0  0  0  0  0
  149.3829  143.5168  156.2583 H   0  0  0  0  0  0  0  0  0  0  0  0
  1  2  1  0  0  0  0
  1 22  1  0  0  0  0
  1 23  1  0  0  0  0
  1 24  1  0  0  0  0
  2 10  1  0  0  0  0
  2  3  2  0  0  0  0
  3  4  1  0  0  0  0
  3 48  1  0  0  0  0
  4  9  2  0  0  0  0
  4  5  1  0  0  0  0
  5  6  2  0  0  0  0
  5 25  1  0  0  0  0
  6  7  1  0  0  0  0
  6 26  1  0  0  0  0
  7  8  2  0  0  0  0
  7 27  1  0  0  0  0
  8  9  1  0  0  0  0
  8 28  1  0  0  0  0
  9 10  1  0  0  0  0
 10 11  1  0  0  0  0
 11 12  1  0  0  0  0
 11 29  1  0  0  0  0
 11 30  1  0  0  0  0
 12 13  1  0  0  0  0
 12 14  1  0  0  0  0
 12 31  1  0  0  0  0
 13 32  1  0  0  0  0
 14 15  1  0  0  0  0
 14 33  1  0  0  0  0
 14 34  1  0  0  0  0
 15 21  1  0  0  0  0
 15 16  1  0  0  0  0
 15 47  1  0  0  0  0
 16 17  1  0  0  0  0
 16 35  1  0  0  0  0
 16 36  1  0  0  0  0
 17 18  1  0  0  0  0
 17 37  1  0  0  0  0
 17 38  1  0  0  0  0
 18 19  1  0  0  0  0
 18 20  1  0  0  0  0
 18 39  1  0  0  0  0
 19 40  1  0  0  0  0
 19 41  1  0  0  0  0
 19 42  1  0  0  0  0
 20 21  1  0  0  0  0
 20 43  1  0  0  0  0
 20 44  1  0  0  0  0
 21 45  1  0  0  0  0
 21 46  1  0  0  0  0
M  CHG  1   3   1
M  CHG  1  15   1
M  END
> <s_m_source_file>
AV-unprocessed.smi

> <i_m_source_file_index>
1868

> <i_lp_mmshare_version>
43012

> <i_f3d_flags>
0

> <s_epik_input>
W2NIXTFbY0hdW2NIXVtjSF1jKGMxMiluKGMobjIpW0NIM10pW0NIMl1bQ0BIXShbT0hdKVtDSDJdTjNbQ0gyXVtDSDJdW0NIXShbQ0gzXSlbQ0gyXVtDSDJdMw==

> <s_epik_cmdline>
J2VwaWtfcHl0aG9uJywgJy1waCcsICc3LjAnLCAnLXRuJywgJzgnLCAnLW1hJywgJzIwMCcsICctbWV0YWxfYmluZGluZycsICctaW1hZScsICc8aW5maWxlLm1hZT4nLCAnLW9tYWUnLCAnPG91dGZpbGUubWFlPic=

> <r_epik_Ionization_Penalty>
1.10901

> <r_epik_Ionization_Penalty_Charging>
1.10901

> <r_epik_Ionization_Penalty_Neutral>
6.90208e-07

> <r_epik_State_Penalty>
1.18788

> <r_epik_Charging_Adjusted_Penalty>
2.29689

> <i_epik_Tot_Q>
2

> <i_epik_Tot_abs_Q>
2

> <r_epik_Metal_State_Penalty>
5.19353

> <b_epik_Metal_Only>
0

> <s_lp_Force_Field>
OPLS_2005

> <r_lp_Energy>
29.1884

> <b_lp_Chiralities_Consistent>
1

> <s_lp_Variant>
AV-unprocessed.smi:1868-6

> <Gold.Version>
5.8.1

> <Gold.Id.Protein>
6NUR|6NUR_protein|mol2

> <Gold.PLP.Fitness>
51.1435

> <Gold.PLP.PLP>
-38.8411

> <Gold.PLP.part.hbond>
-3.0000

> <Gold.PLP.part.metal>
0.0000

> <Gold.PLP.part.buried>
-2.6022

> <Gold.PLP.part.nonpolar>
-33.1462

> <Gold.PLP.part.repulsive>
0.1169

> <Gold.PLP.ligand.clash>
0.0000

> <Gold.PLP.ligand.torsion>
1.2435

> <Gold.PLP.Chemscore.Hbond>
4.9120

> <Gold.PLP.Chemscore.CHOScore>
0.0000

> <Gold.PLP.Chemscore.Metal>
0.0000

> <Gold.Chemscore.Hbonds>
donor molecule, donor type, donor heavy atom, donor atom, acceptor molecule, acceptor atom, score
      L1  H     3    48       P1  8028  1.50
      L1  H    15    47       P1  7948  1.66
      P1  H  7989  7998       L1    13  0.55

> <Gold.PLP.Chemscore.Internal.Correction>
0.0534

> <Gold.Rescore>
     Score         DG    S(hbond)    S(metal)    S(lipo)     H(rot)  DE(clash)    DE(int)     intcor
     19.64     -20.77       2.79        0.00      94.41       1.99       0.02       1.11       ----

> <Gold.Chemscore.Fitness>
19.6431

> <Gold.Chemscore.DG>
-20.7691

> <Gold.Chemscore.ZeroCoef>
-5.4800

> <Gold.Chemscore.Hbond>
2.7929

> <Gold.Chemscore.Metal>
0.0000

> <Gold.Chemscore.Lipo>
94.4088

> <Gold.Chemscore.Internal_Hbond>
0.0000

> <Gold.Chemscore.DEClash>
0.0202

> <Gold.Chemscore.DEInternal>
1.1058

> <Gold.Chemscore.Rot>
1.9863

> <Gold.Chemscore.Internal.Correction>
   9.000000E+99

> <Gold.Chemscore.Hbonds>
donor molecule, donor type, donor heavy atom, donor atom, acceptor molecule, acceptor atom, score
      L1  H     3    48       P1  8028  0.75
      L1  H    15    47       P1  7948  0.24
      P1  H  7989  7998       L1    13  0.03

> <Gold.Chemscore.Hbond.Weighted>
-9.3283

> <Gold.Chemscore.Metal.Weighted>
-0.0000

> <Gold.Chemscore.Lipo.Weighted>
-11.0458

> <Gold.Chemscore.Internal_Hbond.Weighted>
0.0000

> <Gold.Chemscore.DEClash.Weighted>
0.0202

> <Gold.Chemscore.DEInternal.Weighted>
1.1058

> <Gold.Chemscore.Rot.Weighted>
5.0850

> <Gold.Chemscore.Internal.Correction.Weighted>
   9.000000E+99

> <Gold.Protein.RotatedTorsions>
[ 6907 6896 6895 6894 ] final  150.93 input  -60.11 | X-H torsion
[ 7974 7965 7964 7962 ] final  -70.95 input  175.53 | X-H torsion
[ 8008 7997 7996 7995 ] final -139.45 input   59.86 | X-H torsion
[ 10167 10162 10161 10158 ] final -127.19 input  -65.29 | X-H torsion
[ 10718 10713 10712 10709 ] final -135.46 input   66.30 | X-H torsion
[ 10763 10752 10751 10750 ] final  101.88 input  -60.55 | X-H torsion
[ 11005 11000 10999 10996 ] final -131.65 input  -57.11 | X-H torsion

> <Gold.Protein.ActiveResidues>
 VAL166  LYS551  ARG553  GLY616  TRP617  ASP618  TYR619  PRO620  LYS621  CYS622 
 ASP623  PHE694  ASN695  SER759  ASP760  ASP761  ALA762  ILE779  LEU786  VAL792 
 PHE793  MET794  SER795  GLU796  ALA797  LYS798  CYS799  TRP800  GLU811  SER814 

> <Gold.Protein.RotatedAtoms>
  152.1076  133.4283  159.4615 H   0  0  0  0  0  0  0  0  0  0  0  0  # atno 6907 bound_to 6896
  150.6866  134.2686  159.4588 H   0  0  0  0  0  0  0  0  0  0  0  0  # atno 6908 bound_to 6896
  152.0552  134.9628  160.0625 H   0  0  0  0  0  0  0  0  0  0  0  0  # atno 6909 bound_to 6896
  145.6844  140.9176  143.0815 H   0  0  0  0  0  0  0  0  0  0  0  0  # atno 7974 bound_to 7965
  155.4451  140.0534  157.3006 H   0  0  0  0  0  0  0  0  0  0  0  0  # atno 8008 bound_to 7997
  154.4801  140.2078  155.9740 H   0  0  0  0  0  0  0  0  0  0  0  0  # atno 8009 bound_to 7997
  156.1193  140.3191  155.8189 H   0  0  0  0  0  0  0  0  0  0  0  0  # atno 8010 bound_to 7997
  139.9634  143.5924  152.2437 H   0  0  0  0  0  0  0  0  0  0  0  0  # atno 10167 bound_to 10162
  156.2664  130.7240  151.1192 H   0  0  0  0  0  0  0  0  0  0  0  0  # atno 10718 bound_to 10713
  153.3323  135.4029  155.1505 H   0  0  0  0  0  0  0  0  0  0  0  0  # atno 10763 bound_to 10752
  154.8626  135.3613  154.5454 H   0  0  0  0  0  0  0  0  0  0  0  0  # atno 10764 bound_to 10752
  153.5894  135.7074  153.5489 H   0  0  0  0  0  0  0  0  0  0  0  0  # atno 10765 bound_to 10752
  140.9240  134.1407  157.4291 H   0  0  0  0  0  0  0  0  0  0  0  0  # atno 11005 bound_to 11000
  144.7016  139.8738  143.7442 LP  0  0  0  0  0  0  0  0  0  0  0  0  # atno 17320 bound_to 7965
  146.0937  139.3928  143.0390 LP  0  0  0  0  0  0  0  0  0  0  0  0  # atno 17321 bound_to 7965
  139.6536  144.7661  151.2099 LP  0  0  0  0  0  0  0  0  0  0  0  0  # atno 17342 bound_to 10162
  140.7545  143.6121  150.8595 LP  0  0  0  0  0  0  0  0  0  0  0  0  # atno 17343 bound_to 10162
  157.7269  131.0643  150.5890 LP  0  0  0  0  0  0  0  0  0  0  0  0  # atno 17370 bound_to 10713
  156.5982  130.4347  149.5908 LP  0  0  0  0  0  0  0  0  0  0  0  0  # atno 17371 bound_to 10713
  139.8781  134.9981  156.5884 LP  0  0  0  0  0  0  0  0  0  0  0  0  # atno 17394 bound_to 11000
  140.7951  133.8551  155.8679 LP  0  0  0  0  0  0  0  0  0  0  0  0  # atno 17395 bound_to 11000

$$$$
