AV-unprocessed.smi:1830|AV-procd|sdf|7442|dock7
  -GOLD-   22720 9133D 1   1.00000     0.00000
 Structure written by MMmdl.
 52 55  0  0  0  0  0  0  0  0  1 V2000
  154.2493  141.6173  161.4917 O   0  0  0  0  0  0  0  0  0  0  0  0
  153.8774  140.6743  160.7941 C   0  0  0  0  0  0  0  0  0  0  0  0
  154.2120  139.3981  161.0295 N   0  0  0  0  0  0  0  0  0  0  0  0
  155.1079  138.9408  162.0866 C   0  0  0  0  0  0  0  0  0  0  0  0
  154.3429  138.1087  163.1356 C   0  0  2  0  0  0  0  0  0  0  0  0
  155.2514  137.6100  164.2846 C   0  0  0  0  0  0  0  0  0  0  0  0
  156.0777  136.5025  163.8413 N   0  0  0  0  0  0  0  0  0  0  0  0
  156.9111  135.8724  164.8386 C   0  0  0  0  0  0  0  0  0  0  0  0
  157.3224  134.5343  164.2002 C   0  0  0  0  0  0  0  0  0  0  0  0
  156.2629  134.2896  163.1032 C   0  0  0  0  0  0  0  0  0  0  0  0
  155.2687  135.4301  163.3296 C   0  0  2  0  0  0  0  0  0  0  0  0
  154.4479  135.8995  162.1221 C   0  0  0  0  0  0  0  0  0  0  0  0
  153.6423  137.0090  162.5313 O   0  0  0  0  0  0  0  0  0  0  0  0
  153.0846  140.7711  159.7138 N   0  0  0  0  0  0  0  0  0  0  0  0
  152.4689  141.9295  159.1573 C   0  0  0  0  0  0  0  0  0  0  0  0
  152.6307  143.2237  159.7110 C   0  0  0  0  0  0  0  0  0  0  0  0
  152.0139  144.3215  159.0854 C   0  0  0  0  0  0  0  0  0  0  0  0
  151.2632  144.0899  157.9202 C   0  0  0  0  0  0  0  0  0  0  0  0
  151.1125  142.8679  157.3716 N   0  0  0  0  0  0  0  0  0  0  0  0
  151.7060  141.8031  157.9641 C   0  0  0  0  0  0  0  0  0  0  0  0
  151.5097  140.5350  157.3765 N   0  0  0  0  0  0  0  0  0  0  0  0
  150.1296  140.0618  157.4388 C   0  0  0  0  0  0  0  0  0  0  0  0
  149.8855  139.2732  156.1511 C   0  0  0  0  0  0  0  0  0  0  0  0
  150.8450  139.9255  155.1638 C   0  0  0  0  0  0  0  0  0  0  0  0
  152.0474  140.2626  156.0438 C   0  0  0  0  0  0  0  0  0  0  0  0
  153.8508  138.6911  160.4063 H   0  0  0  0  0  0  0  0  0  0  0  0
  155.9538  138.3828  161.6830 H   0  0  0  0  0  0  0  0  0  0  0  0
  155.5339  139.8240  162.5629 H   0  0  0  0  0  0  0  0  0  0  0  0
  153.5830  138.7577  163.5727 H   0  0  0  0  0  0  0  0  0  0  0  0
  155.8769  138.4216  164.6577 H   0  0  0  0  0  0  0  0  0  0  0  0
  154.6275  137.2881  165.1196 H   0  0  0  0  0  0  0  0  0  0  0  0
  157.7677  136.4945  165.0999 H   0  0  0  0  0  0  0  0  0  0  0  0
  156.3360  135.6880  165.7476 H   0  0  0  0  0  0  0  0  0  0  0  0
  158.3167  134.6021  163.7574 H   0  0  0  0  0  0  0  0  0  0  0  0
  157.3382  133.7337  164.9400 H   0  0  0  0  0  0  0  0  0  0  0  0
  156.7197  134.3651  162.1154 H   0  0  0  0  0  0  0  0  0  0  0  0
  155.7900  133.3106  163.1853 H   0  0  0  0  0  0  0  0  0  0  0  0
  154.5721  135.1119  164.1083 H   0  0  0  0  0  0  0  0  0  0  0  0
  155.0963  136.1835  161.2930 H   0  0  0  0  0  0  0  0  0  0  0  0
  153.7995  135.1002  161.7630 H   0  0  0  0  0  0  0  0  0  0  0  0
  152.8134  139.8974  159.2868 H   0  0  0  0  0  0  0  0  0  0  0  0
  153.2275  143.4003  160.5919 H   0  0  0  0  0  0  0  0  0  0  0  0
  152.1193  145.3183  159.4871 H   0  0  0  0  0  0  0  0  0  0  0  0
  150.7751  144.9082  157.4116 H   0  0  0  0  0  0  0  0  0  0  0  0
  149.9634  139.4416  158.3200 H   0  0  0  0  0  0  0  0  0  0  0  0
  149.4449  140.9099  157.4927 H   0  0  0  0  0  0  0  0  0  0  0  0
  150.1619  138.2281  156.2979 H   0  0  0  0  0  0  0  0  0  0  0  0
  148.8461  139.3060  155.8239 H   0  0  0  0  0  0  0  0  0  0  0  0
  151.1004  139.2799  154.3233 H   0  0  0  0  0  0  0  0  0  0  0  0
  150.4052  140.8422  154.7684 H   0  0  0  0  0  0  0  0  0  0  0  0
  152.6448  141.0695  155.6196 H   0  0  0  0  0  0  0  0  0  0  0  0
  152.7024  139.3946  156.1243 H   0  0  0  0  0  0  0  0  0  0  0  0
  1  2  2  0  0  0  0
  2  3  1  0  0  0  0
  2 14  1  0  0  0  0
  3  4  1  0  0  0  0
  3 26  1  0  0  0  0
  4  5  1  0  0  0  0
  4 27  1  0  0  0  0
  4 28  1  0  0  0  0
  5 13  1  0  0  0  0
  5  6  1  0  0  0  0
  5 29  1  0  0  0  0
  6  7  1  0  0  0  0
  6 30  1  0  0  0  0
  6 31  1  0  0  0  0
  7 11  1  0  0  0  0
  7  8  1  0  0  0  0
  8  9  1  0  0  0  0
  8 32  1  0  0  0  0
  8 33  1  0  0  0  0
  9 10  1  0  0  0  0
  9 34  1  0  0  0  0
  9 35  1  0  0  0  0
 10 11  1  0  0  0  0
 10 36  1  0  0  0  0
 10 37  1  0  0  0  0
 11 12  1  0  0  0  0
 11 38  1  0  0  0  0
 12 13  1  0  0  0  0
 12 39  1  0  0  0  0
 12 40  1  0  0  0  0
 14 15  1  0  0  0  0
 14 41  1  0  0  0  0
 15 20  1  0  0  0  0
 15 16  2  0  0  0  0
 16 17  1  0  0  0  0
 16 42  1  0  0  0  0
 17 18  2  0  0  0  0
 17 43  1  0  0  0  0
 18 19  1  0  0  0  0
 18 44  1  0  0  0  0
 19 20  2  0  0  0  0
 20 21  1  0  0  0  0
 21 25  1  0  0  0  0
 21 22  1  0  0  0  0
 22 23  1  0  0  0  0
 22 45  1  0  0  0  0
 22 46  1  0  0  0  0
 23 24  1  0  0  0  0
 23 47  1  0  0  0  0
 23 48  1  0  0  0  0
 24 25  1  0  0  0  0
 24 49  1  0  0  0  0
 24 50  1  0  0  0  0
 25 51  1  0  0  0  0
 25 52  1  0  0  0  0
M  END
> <s_m_source_file>
AV-unprocessed.smi

> <i_m_source_file_index>
1830

> <i_lp_mmshare_version>
43012

> <i_f3d_flags>
0

> <s_epik_input>
W0NIMl0xW0NIMl1bQ0gyXVtDQEhdKE4xMilbQ0gyXU9bQ0BASF0oW0NIMl0yKVtDSDJdW05IXUMoPU8pW05IXWMzW2NIXVtjSF1bY0hdbmMzTjRbQ0gyXVtDSDJdW0NIMl1bQ0gyXTQ=

> <s_epik_cmdline>
J2VwaWtfcHl0aG9uJywgJy1waCcsICc3LjAnLCAnLXRuJywgJzgnLCAnLW1hJywgJzIwMCcsICctbWV0YWxfYmluZGluZycsICctaW1hZScsICc8aW5maWxlLm1hZT4nLCAnLW9tYWUnLCAnPG91dGZpbGUubWFlPic=

> <r_lp_tautomer_probability>
1

> <r_epik_Ionization_Penalty>
1.16487

> <r_epik_Ionization_Penalty_Charging>
0

> <r_epik_Ionization_Penalty_Neutral>
1.16487

> <r_epik_State_Penalty>
1.21807

> <r_epik_Charging_Adjusted_Penalty>
1.21807

> <i_epik_Tot_Q>
0

> <i_epik_Tot_abs_Q>
0

> <r_epik_Metal_State_Penalty>
1.19922

> <b_epik_Metal_Only>
0

> <s_lp_Force_Field>
OPLS_2005

> <r_lp_Energy>
77.9026

> <b_lp_Chiralities_Consistent>
1

> <s_lp_Variant>
AV-unprocessed.smi:1830-11

> <Gold.Version>
5.8.1

> <Gold.Id.Protein>
6NUR|6NUR_protein|mol2

> <Gold.PLP.Fitness>
39.0518

> <Gold.PLP.PLP>
-36.1879

> <Gold.PLP.part.hbond>
-1.0000

> <Gold.PLP.part.metal>
0.0000

> <Gold.PLP.part.buried>
-5.2613

> <Gold.PLP.part.nonpolar>
-30.3364

> <Gold.PLP.part.repulsive>
0.2666

> <Gold.PLP.ligand.clash>
0.0000

> <Gold.PLP.ligand.torsion>
0.0990

> <Gold.PLP.Chemscore.Hbond>
0.0000

> <Gold.PLP.Chemscore.CHOScore>
0.9677

> <Gold.PLP.Chemscore.Metal>
0.0000

> <Gold.Chemscore.Hbonds>
donor molecule, donor type, donor heavy atom, donor atom, acceptor molecule, acceptor atom, score
      L1  C    18    44       P1  8028  0.94

> <Gold.PLP.Chemscore.Internal.Correction>
0.1588

> <Gold.Rescore>
     Score         DG    S(hbond)    S(metal)    S(lipo)     H(rot)  DE(clash)    DE(int)     intcor
     12.77     -14.30       0.00        0.00     105.48       1.37       0.18       1.35       ----

> <Gold.Chemscore.Fitness>
12.7720

> <Gold.Chemscore.DG>
-14.3026

> <Gold.Chemscore.ZeroCoef>
-5.4800

> <Gold.Chemscore.Hbond>
0.0000

> <Gold.Chemscore.Metal>
0.0000

> <Gold.Chemscore.Lipo>
105.4825

> <Gold.Chemscore.Internal_Hbond>
0.0000

> <Gold.Chemscore.DEClash>
0.1765

> <Gold.Chemscore.DEInternal>
1.3541

> <Gold.Chemscore.Rot>
1.3746

> <Gold.Chemscore.Internal.Correction>
   9.000000E+99

> <Gold.Chemscore.Hbond.Weighted>
-0.0000

> <Gold.Chemscore.Metal.Weighted>
-0.0000

> <Gold.Chemscore.Lipo.Weighted>
-12.3415

> <Gold.Chemscore.Internal_Hbond.Weighted>
0.0000

> <Gold.Chemscore.DEClash.Weighted>
0.1765

> <Gold.Chemscore.DEInternal.Weighted>
1.3541

> <Gold.Chemscore.Rot.Weighted>
3.5189

> <Gold.Chemscore.Internal.Correction.Weighted>
   9.000000E+99

> <Gold.Protein.RotatedTorsions>
[ 6907 6896 6895 6894 ] final -108.56 input  -60.11 | X-H torsion
[ 7974 7965 7964 7962 ] final  -77.83 input  175.53 | X-H torsion
[ 8008 7997 7996 7995 ] final   44.20 input   59.86 | X-H torsion
[ 10167 10162 10161 10158 ] final  -31.28 input  -65.29 | X-H torsion
[ 10718 10713 10712 10709 ] final    4.32 input   66.30 | X-H torsion
[ 10763 10752 10751 10750 ] final  113.54 input  -60.55 | X-H torsion
[ 11005 11000 10999 10996 ] final  129.47 input  -57.11 | X-H torsion

> <Gold.Protein.ActiveResidues>
 VAL166  LYS551  ARG553  GLY616  TRP617  ASP618  TYR619  PRO620  LYS621  CYS622 
 ASP623  PHE694  ASN695  SER759  ASP760  ASP761  ALA762  ILE779  LEU786  VAL792 
 PHE793  MET794  SER795  GLU796  ALA797  LYS798  CYS799  TRP800  GLU811  SER814 

> <Gold.Protein.RotatedAtoms>
  150.7509  133.9659  159.3530 H   0  0  0  0  0  0  0  0  0  0  0  0  # atno 6907 bound_to 6896
  151.7589  135.0813  160.0352 H   0  0  0  0  0  0  0  0  0  0  0  0  # atno 6908 bound_to 6896
  152.3417  133.6037  159.5917 H   0  0  0  0  0  0  0  0  0  0  0  0  # atno 6909 bound_to 6896
  145.5945  140.9422  143.1274 H   0  0  0  0  0  0  0  0  0  0  0  0  # atno 7974 bound_to 7965
  155.3153  140.3393  155.4242 H   0  0  0  0  0  0  0  0  0  0  0  0  # atno 8008 bound_to 7997
  156.1936  140.1706  156.8081 H   0  0  0  0  0  0  0  0  0  0  0  0  # atno 8009 bound_to 7997
  154.5471  140.0713  156.8591 H   0  0  0  0  0  0  0  0  0  0  0  0  # atno 8010 bound_to 7997
  140.7238  143.3783  151.1648 H   0  0  0  0  0  0  0  0  0  0  0  0  # atno 10167 bound_to 10162
  156.8909  130.5687  149.5650 H   0  0  0  0  0  0  0  0  0  0  0  0  # atno 10718 bound_to 10713
  153.4940  135.3652  155.2506 H   0  0  0  0  0  0  0  0  0  0  0  0  # atno 10763 bound_to 10752
  154.8751  135.3984  154.3556 H   0  0  0  0  0  0  0  0  0  0  0  0  # atno 10764 bound_to 10752
  153.4180  135.7079  153.6379 H   0  0  0  0  0  0  0  0  0  0  0  0  # atno 10765 bound_to 10752
  139.9617  134.9600  156.9153 H   0  0  0  0  0  0  0  0  0  0  0  0  # atno 11005 bound_to 11000
  144.7337  139.7650  143.7337 LP  0  0  0  0  0  0  0  0  0  0  0  0  # atno 17320 bound_to 7965
  146.1622  139.4740  142.9981 LP  0  0  0  0  0  0  0  0  0  0  0  0  # atno 17321 bound_to 7965
  139.7367  143.8987  152.3037 LP  0  0  0  0  0  0  0  0  0  0  0  0  # atno 17342 bound_to 10162
  139.8795  144.7025  150.8894 LP  0  0  0  0  0  0  0  0  0  0  0  0  # atno 17343 bound_to 10162
  156.0629  130.5678  150.9230 LP  0  0  0  0  0  0  0  0  0  0  0  0  # atno 17370 bound_to 10713
  157.6084  131.0938  150.8838 LP  0  0  0  0  0  0  0  0  0  0  0  0  # atno 17371 bound_to 10713
  140.5485  134.0650  155.7362 LP  0  0  0  0  0  0  0  0  0  0  0  0  # atno 17394 bound_to 11000
  141.1295  133.9326  157.2566 LP  0  0  0  0  0  0  0  0  0  0  0  0  # atno 17395 bound_to 11000

$$$$
