AV-unprocessed.smi:2975|AV-procd|sdf|11357|dock2
  -GOLD-   2272016273D 1   1.00000     0.00000
 Structure written by MMmdl.
 40 42  0  0  0  0  0  0  0  0  2 V2000
  152.9858  138.2715  154.3993 C   0  0  0  0  0  0  0  0  0  0  0  0
  151.6561  137.6223  154.8038 C   0  0  2  0  0  0  0  0  0  0  0  0
  151.4753  136.4465  154.0420 O   0  0  0  0  0  0  0  0  0  0  0  0
  150.5202  138.5840  154.6381 C   0  0  0  0  0  0  0  0  0  0  0  0
  149.4077  138.3878  153.8736 N   0  3  0  0  0  0  0  0  0  0  0  0
  148.5712  139.5012  153.9591 C   0  0  0  0  0  0  0  0  0  0  0  0
  147.3383  139.7624  153.3695 C   0  0  0  0  0  0  0  0  0  0  0  0
  146.7442  141.0057  153.6698 C   0  0  0  0  0  0  0  0  0  0  0  0
  147.3733  141.9323  154.5269 C   0  0  0  0  0  0  0  0  0  0  0  0
  148.6240  141.6565  155.1181 C   0  0  0  0  0  0  0  0  0  0  0  0
  149.2062  140.4264  154.8127 C   0  0  0  0  0  0  0  0  0  0  0  0
  150.4095  139.8240  155.1962 N   0  0  0  0  0  0  0  0  0  0  0  0
  151.3241  140.5470  156.0891 C   0  0  0  0  0  0  0  0  0  0  0  0
  150.5965  141.1109  157.3151 C   0  0  0  0  0  0  0  0  0  0  0  0
  151.5395  141.2563  158.3663 O   0  0  0  0  0  0  0  0  0  0  0  0
  151.5776  142.4529  159.0501 C   0  0  0  0  0  0  0  0  0  0  0  0
  150.8647  143.6155  158.6598 C   0  0  0  0  0  0  0  0  0  0  0  0
  150.9593  144.7985  159.4183 C   0  0  0  0  0  0  0  0  0  0  0  0
  151.7637  144.8360  160.5723 C   0  0  0  0  0  0  0  0  0  0  0  0
  152.4750  143.6882  160.9670 C   0  0  0  0  0  0  0  0  0  0  0  0
  152.3821  142.5050  160.2087 C   0  0  0  0  0  0  0  0  0  0  0  0
  153.0715  141.4066  160.5998 F   0  0  0  0  0  0  0  0  0  0  0  0
  153.1877  139.1585  155.0008 H   0  0  0  0  0  0  0  0  0  0  0  0
  152.9786  138.5744  153.3515 H   0  0  0  0  0  0  0  0  0  0  0  0
  153.8184  137.5818  154.5413 H   0  0  0  0  0  0  0  0  0  0  0  0
  151.7102  137.3212  155.8504 H   0  0  0  0  0  0  0  0  0  0  0  0
  151.4080  136.6866  153.1302 H   0  0  0  0  0  0  0  0  0  0  0  0
  146.8536  139.0533  152.7140 H   0  0  0  0  0  0  0  0  0  0  0  0
  145.7865  141.2533  153.2349 H   0  0  0  0  0  0  0  0  0  0  0  0
  146.8868  142.8744  154.7346 H   0  0  0  0  0  0  0  0  0  0  0  0
  149.0960  142.3730  155.7741 H   0  0  0  0  0  0  0  0  0  0  0  0
  152.1023  139.8501  156.4012 H   0  0  0  0  0  0  0  0  0  0  0  0
  151.8263  141.3361  155.5288 H   0  0  0  0  0  0  0  0  0  0  0  0
  150.1469  142.0751  157.0729 H   0  0  0  0  0  0  0  0  0  0  0  0
  149.8011  140.4268  157.6154 H   0  0  0  0  0  0  0  0  0  0  0  0
  150.2382  143.6267  157.7810 H   0  0  0  0  0  0  0  0  0  0  0  0
  150.4128  145.6791  159.1139 H   0  0  0  0  0  0  0  0  0  0  0  0
  151.8349  145.7435  161.1536 H   0  0  0  0  0  0  0  0  0  0  0  0
  153.0927  143.7138  161.8528 H   0  0  0  0  0  0  0  0  0  0  0  0
  149.2384  137.5475  153.3358 H   0  0  0  0  0  0  0  0  0  0  0  0
  1  2  1  0  0  0  0
  1 23  1  0  0  0  0
  1 24  1  0  0  0  0
  1 25  1  0  0  0  0
  2  3  1  0  0  0  0
  2  4  1  0  0  0  0
  2 26  1  0  0  0  0
  3 27  1  0  0  0  0
  4 12  1  0  0  0  0
  4  5  2  0  0  0  0
  5  6  1  0  0  0  0
  5 40  1  0  0  0  0
  6 11  2  0  0  0  0
  6  7  1  0  0  0  0
  7  8  2  0  0  0  0
  7 28  1  0  0  0  0
  8  9  1  0  0  0  0
  8 29  1  0  0  0  0
  9 10  2  0  0  0  0
  9 30  1  0  0  0  0
 10 11  1  0  0  0  0
 10 31  1  0  0  0  0
 11 12  1  0  0  0  0
 12 13  1  0  0  0  0
 13 14  1  0  0  0  0
 13 32  1  0  0  0  0
 13 33  1  0  0  0  0
 14 15  1  0  0  0  0
 14 34  1  0  0  0  0
 14 35  1  0  0  0  0
 15 16  1  0  0  0  0
 16 21  1  0  0  0  0
 16 17  2  0  0  0  0
 17 18  1  0  0  0  0
 17 36  1  0  0  0  0
 18 19  2  0  0  0  0
 18 37  1  0  0  0  0
 19 20  1  0  0  0  0
 19 38  1  0  0  0  0
 20 21  2  0  0  0  0
 20 39  1  0  0  0  0
 21 22  1  0  0  0  0
M  CHG  1   5   1
M  END
> <s_m_source_file>
AV-unprocessed.smi

> <i_m_source_file_index>
2975

> <i_lp_mmshare_version>
43012

> <i_f3d_flags>
0

> <s_epik_input>
W2NIXTFbY0hdW2NIXVtjSF1jKGMxMiluKGMobjIpW0NASF0oW0NIM10pW09IXSlbQ0gyXVtDSDJdT2MzW2NIXVtjSF1bY0hdW2NIXWMzRg==

> <s_epik_cmdline>
J2VwaWtfcHl0aG9uJywgJy1waCcsICc3LjAnLCAnLXRuJywgJzgnLCAnLW1hJywgJzIwMCcsICctbWV0YWxfYmluZGluZycsICctaW1hZScsICc8aW5maWxlLm1hZT4nLCAnLW9tYWUnLCAnPG91dGZpbGUubWFlPic=

> <r_lp_tautomer_probability>
1

> <r_epik_Ionization_Penalty>
1.61121

> <r_epik_Ionization_Penalty_Charging>
1.61119

> <r_epik_Ionization_Penalty_Neutral>
2.92192e-05

> <r_epik_State_Penalty>
1.71016

> <r_epik_Charging_Adjusted_Penalty>
3.32134

> <i_epik_Tot_Q>
1

> <i_epik_Tot_abs_Q>
1

> <r_epik_Metal_State_Penalty>
5.76893

> <b_epik_Metal_Only>
0

> <s_lp_Force_Field>
OPLS_2005

> <r_lp_Energy>
21.0124

> <b_lp_Chiralities_Consistent>
1

> <s_lp_Variant>
AV-unprocessed.smi:2975-3

> <Gold.Version>
5.8.1

> <Gold.Id.Protein>
6NUR|6NUR_protein|mol2

> <Gold.PLP.Fitness>
65.8904

> <Gold.PLP.PLP>
-55.3236

> <Gold.PLP.part.hbond>
-3.6667

> <Gold.PLP.part.metal>
0.0000

> <Gold.PLP.part.buried>
-1.7251

> <Gold.PLP.part.nonpolar>
-50.7227

> <Gold.PLP.part.repulsive>
0.0542

> <Gold.PLP.ligand.clash>
0.0000

> <Gold.PLP.ligand.torsion>
0.6856

> <Gold.PLP.Chemscore.Hbond>
3.9600

> <Gold.PLP.Chemscore.CHOScore>
0.0000

> <Gold.PLP.Chemscore.Metal>
0.0000

> <Gold.Chemscore.Hbonds>
donor molecule, donor type, donor heavy atom, donor atom, acceptor molecule, acceptor atom, score
      L1  H     3    27       P1  7949  0.85
      L1  H     5    40       P1  7948  2.00
      P1  H 10752 10763       L1     3  1.00

> <Gold.PLP.Chemscore.Internal.Correction>
0.0580

> <Gold.Rescore>
     Score         DG    S(hbond)    S(metal)    S(lipo)     H(rot)  DE(clash)    DE(int)     intcor
     20.90     -21.68       2.00        0.00     131.18       2.28       0.27       0.50       ----

> <Gold.Chemscore.Fitness>
20.9050

> <Gold.Chemscore.DG>
-21.6822

> <Gold.Chemscore.ZeroCoef>
-5.4800

> <Gold.Chemscore.Hbond>
2.0015

> <Gold.Chemscore.Metal>
0.0000

> <Gold.Chemscore.Lipo>
131.1750

> <Gold.Chemscore.Internal_Hbond>
0.0000

> <Gold.Chemscore.DEClash>
0.2724

> <Gold.Chemscore.DEInternal>
0.5048

> <Gold.Chemscore.Rot>
2.2774

> <Gold.Chemscore.Internal.Correction>
   9.000000E+99

> <Gold.Chemscore.Hbonds>
donor molecule, donor type, donor heavy atom, donor atom, acceptor molecule, acceptor atom, score
      L1  H     3    27       P1  7949  0.68
      L1  H     5    40       P1  7948  0.97
      P1  H 10752 10763       L1     3  0.23

> <Gold.Chemscore.Hbond.Weighted>
-6.6849

> <Gold.Chemscore.Metal.Weighted>
-0.0000

> <Gold.Chemscore.Lipo.Weighted>
-15.3475

> <Gold.Chemscore.Internal_Hbond.Weighted>
0.0000

> <Gold.Chemscore.DEClash.Weighted>
0.2724

> <Gold.Chemscore.DEInternal.Weighted>
0.5048

> <Gold.Chemscore.Rot.Weighted>
5.8302

> <Gold.Chemscore.Internal.Correction.Weighted>
   9.000000E+99

> <Gold.Protein.RotatedTorsions>
[ 6907 6896 6895 6894 ] final -168.43 input  -60.11 | X-H torsion
[ 7974 7965 7964 7962 ] final  -73.27 input  175.53 | X-H torsion
[ 8008 7997 7996 7995 ] final  -41.65 input   59.86 | X-H torsion
[ 10167 10162 10161 10158 ] final -131.62 input  -65.29 | X-H torsion
[ 10718 10713 10712 10709 ] final   -3.99 input   66.30 | X-H torsion
[ 10763 10752 10751 10750 ] final   40.35 input  -60.55 | X-H torsion
[ 11005 11000 10999 10996 ] final  -65.69 input  -57.11 | X-H torsion

> <Gold.Protein.ActiveResidues>
 VAL166  LYS551  ARG553  GLY616  TRP617  ASP618  TYR619  PRO620  LYS621  CYS622 
 ASP623  PHE694  ASN695  SER759  ASP760  ASP761  ALA762  ILE779  LEU786  VAL792 
 PHE793  MET794  SER795  GLU796  ALA797  LYS798  CYS799  TRP800  GLU811  SER814 

> <Gold.Protein.RotatedAtoms>
  151.4755  133.3559  159.2829 H   0  0  0  0  0  0  0  0  0  0  0  0  # atno 6907 bound_to 6896
  150.8932  134.8340  159.7319 H   0  0  0  0  0  0  0  0  0  0  0  0  # atno 6908 bound_to 6896
  152.4835  134.4667  159.9674 H   0  0  0  0  0  0  0  0  0  0  0  0  # atno 6909 bound_to 6896
  145.6543  140.9273  143.0968 H   0  0  0  0  0  0  0  0  0  0  0  0  # atno 7974 bound_to 7965
  154.4003  140.1494  156.3226 H   0  0  0  0  0  0  0  0  0  0  0  0  # atno 8008 bound_to 7997
  155.8516  140.3457  155.5675 H   0  0  0  0  0  0  0  0  0  0  0  0  # atno 8009 bound_to 7997
  155.7978  140.0866  157.1964 H   0  0  0  0  0  0  0  0  0  0  0  0  # atno 8010 bound_to 7997
  139.9170  143.6427  152.2562 H   0  0  0  0  0  0  0  0  0  0  0  0  # atno 10167 bound_to 10162
  156.7679  130.5290  149.5773 H   0  0  0  0  0  0  0  0  0  0  0  0  # atno 10718 bound_to 10713
  152.9939  135.6194  154.2611 H   0  0  0  0  0  0  0  0  0  0  0  0  # atno 10763 bound_to 10752
  154.2347  135.2791  155.2878 H   0  0  0  0  0  0  0  0  0  0  0  0  # atno 10764 bound_to 10752
  154.5420  135.5758  153.6905 H   0  0  0  0  0  0  0  0  0  0  0  0  # atno 10765 bound_to 10752
  141.1461  133.6686  156.6025 H   0  0  0  0  0  0  0  0  0  0  0  0  # atno 11005 bound_to 11000
  144.7111  139.8367  143.7414 LP  0  0  0  0  0  0  0  0  0  0  0  0  # atno 17320 bound_to 7965
  146.1178  139.4191  143.0247 LP  0  0  0  0  0  0  0  0  0  0  0  0  # atno 17321 bound_to 7965
  139.6894  144.7648  151.1466 LP  0  0  0  0  0  0  0  0  0  0  0  0  # atno 17342 bound_to 10162
  140.7671  143.5611  150.9098 LP  0  0  0  0  0  0  0  0  0  0  0  0  # atno 17343 bound_to 10162
  156.1297  130.6169  151.0315 LP  0  0  0  0  0  0  0  0  0  0  0  0  # atno 17370 bound_to 10713
  157.6705  131.0862  150.7624 LP  0  0  0  0  0  0  0  0  0  0  0  0  # atno 17371 bound_to 10713
  140.3677  134.7633  157.4577 LP  0  0  0  0  0  0  0  0  0  0  0  0  # atno 17394 bound_to 11000
  140.0735  134.5830  155.8616 LP  0  0  0  0  0  0  0  0  0  0  0  0  # atno 17395 bound_to 11000

$$$$
