#       Name:                AV-unprocessed.smi:2778
#       Creating user name   scv26
#       Creation time:       Fri Mar 27 15:14:42 2020


#       File generated by GOLD software.
#

@<TRIPOS>MOLECULE
AV-unprocessed.smi:2778
    42    43     1
SMALL
NO_CHARGES


@<TRIPOS>ATOM
      1 ****        -1.3585   3.3612   0.5317 C.3            1 S1                 0.0000
      2 ****        -0.6319   2.1494   0.3914 O.3            1 S1                 0.0000
      3 ****         0.7317   2.2250   0.1832 C.ar           1 S1                 0.0000
      4 ****         1.4484   3.4466   0.1104 C.ar           1 S1                 0.0000
      5 ****         2.8372   3.4210  -0.1052 C.ar           1 S1                 0.0000
      6 ****         3.4654   2.1704  -0.2423 C.ar           1 S1                 0.0000
      7 ****         4.9579   2.0668  -0.4764 C.3            1 S1                 0.0000
      8 ****         2.7951   1.0027  -0.1745 N.ar           1 S1                 0.0000
      9 ****         1.4551   1.0137   0.0337 C.ar           1 S1                 0.0000
     10 ****         0.6773  -0.1727   0.1204 N.am           1 S1                 0.0000
     11 ****         1.0736  -1.4544  -0.0079 C.2            1 S1                 0.0000
     12 ****         2.2247  -1.8126  -0.2506 O.2            1 S1                 0.0000
     13 ****         0.0809  -2.3516   0.1366 N.am           1 S1                 0.0000
     14 ****         0.1657  -3.8125   0.0581 C.3            1 S1                 0.0000
     15 ****        -1.2315  -4.4291  -0.1426 C.3            1 S1                 0.0000
     16 ****        -1.3239  -5.5949   0.8426 C.3            1 S1                 0.0000
     17 ****        -0.4496  -5.1638   2.0152 C.3            1 S1                 0.0000
     18 ****         0.7198  -4.4272   1.3607 C.3            1 S1                 0.0000
     19 ****        -2.4133   3.1320   0.6831 H              1 S1                 0.0000
     20 ****        -1.2812   3.9791  -0.3639 H              1 S1                 0.0000
     21 ****        -1.0182   3.9323   1.3965 H              1 S1                 0.0000
     22 ****         0.9614   4.4040   0.2162 H              1 S1                 0.0000
     23 ****         3.4015   4.3401  -0.1627 H              1 S1                 0.0000
     24 ****         5.4099   3.0522  -0.5932 H              1 S1                 0.0000
     25 ****         5.1620   1.4906  -1.3794 H              1 S1                 0.0000
     26 ****         5.4389   1.5685   0.3656 H              1 S1                 0.0000
     27 ****        -0.3050  -0.0279   0.3024 H              1 S1                 0.0000
     28 ****        -0.8440  -1.9751   0.2869 H              1 S1                 0.0000
     29 ****         0.8010  -4.1023  -0.7811 H              1 S1                 0.0000
     30 ****        -2.0100  -3.7030   0.0973 H              1 S1                 0.0000
     31 ****        -1.3968  -4.7494  -1.1717 H              1 S1                 0.0000
     32 ****        -2.3499  -5.8128   1.1400 H              1 S1                 0.0000
     33 ****        -0.9093  -6.4956   0.3878 H              1 S1                 0.0000
     34 ****        -1.0058  -4.4760   2.6536 H              1 S1                 0.0000
     35 ****        -0.1261  -6.0037   2.6308 H              1 S1                 0.0000
     36 ****         1.5041  -5.1436   1.1121 H              1 S1                 0.0000
     37 ****         1.1620  -3.6933   2.0357 H              1 S1                 0.0000
     38 ****        -1.0236   1.6574  -0.3862 LP             1 S1                 0.0000
     39 ****        -0.7751   1.6196   1.2274 LP             1 S1                 0.0000
     40 ****         3.2821   0.1353  -0.2769 LP             1 S1                 0.0000
     41 ****         2.9464  -1.1304  -0.3677 LP             1 S1                 0.0000
     42 ****         2.4390  -2.7861  -0.3308 LP             1 S1                 0.0000
@<TRIPOS>BOND
    1    1    2 1     
    2    1   19 1     
    3    1   20 1     
    4    1   21 1     
    5    2    3 1     
    6    3    9 ar    
    7    3    4 ar    
    8    4    5 ar    
    9    4   22 1     
   10    5    6 ar    
   11    5   23 1     
   12    6    7 1     
   13    6    8 ar    
   14    7   24 1     
   15    7   25 1     
   16    7   26 1     
   17    8    9 ar    
   18    9   10 1     
   19   10   11 am    
   20   10   27 1     
   21   11   12 2     
   22   11   13 am    
   23   13   14 1     
   24   13   28 1     
   25   14   18 1     
   26   14   15 1     
   27   14   29 1     
   28   15   16 1     
   29   15   30 1     
   30   15   31 1     
   31   16   17 1     
   32   16   32 1     
   33   16   33 1     
   34   17   18 1     
   35   17   34 1     
   36   17   35 1     
   37   18   36 1     
   38   18   37 1     
   39    2   38 1     
   40    2   39 1     
   41    8   40 1     
   42   12   41 1     
   43   12   42 1     
@<TRIPOS>SUBSTRUCTURE
      1 S1             1
@<TRIPOS>SET
LONE_PAIRS      STATIC     ATOMS    <user>   **** ""
5 38 39 40 41 42
DONOR_HYDROGENS      STATIC     ATOMS    <user>   **** ""
2 27 28
ATOM$BLUE        STATIC     ATOMS    COLORGROUP SYSTEM
5 38 39 40 41 42
ATOM$RED        STATIC     ATOMS    COLORGROUP SYSTEM
2 27 28
