#       Name:                AV-unprocessed.smi:1553
#       Creating user name   scv26
#       Creation time:       Fri Mar 27 06:42:15 2020


#       File generated by GOLD software.
#

@<TRIPOS>MOLECULE
AV-unprocessed.smi:1553
    42    43     1
SMALL
NO_CHARGES


@<TRIPOS>ATOM
      1 ****        -4.0585   4.8871   0.7479 C.3            1 S1                 0.0000
      2 ****        -3.0615   4.3390  -0.2147 C.2            1 S1                 0.0000
      3 ****        -2.4771   3.1465  -0.0739 N.2            1 S1                 0.0000
      4 ****        -1.5806   2.8602  -1.1081 C.2            1 S1                 0.0000
      5 ****        -0.8298   1.5634  -1.1089 C.3            1 S1                 0.0000
      6 ****         0.3797   1.5928  -0.1600 C.3            1 S1                 0.0000
      7 ****         1.1207   0.3374  -0.1960 N.am           1 S1                 0.0000
      8 ****         0.7821  -0.7821   0.4661 C.2            1 S1                 0.0000
      9 ****        -0.1879  -0.8304   1.2225 O.2            1 S1                 0.0000
     10 ****         1.6757  -1.7908   0.3103 N.am           1 S1                 0.0000
     11 ****         2.1705  -2.1720  -1.0215 C.3            1 S1                 0.0000
     12 ****         1.3138  -3.3434  -1.5409 C.3            1 S1                 0.0000
     13 ****         1.3801  -4.4356  -0.6268 O.3            1 S1                 0.0000
     14 ****         0.9599  -4.0958   0.6931 C.3            1 S1                 0.0000
     15 ****         1.8324  -2.9405   1.2237 C.3            1 S1                 0.0000
     16 ****         1.5848  -2.6468   2.7184 C.3            1 S1                 0.0000
     17 ****        -1.4911   3.8643  -2.0397 C.2            1 S1                 0.0000
     18 ****        -2.5339   5.2052  -1.6521 S.3            1 S1                 0.0000
     19 ****        -4.4064   4.1070   1.4259 H              1 S1                 0.0000
     20 ****        -4.9168   5.2883   0.2088 H              1 S1                 0.0000
     21 ****        -3.6077   5.6866   1.3357 H              1 S1                 0.0000
     22 ****        -1.5006   0.7512  -0.8252 H              1 S1                 0.0000
     23 ****        -0.4924   1.3311  -2.1199 H              1 S1                 0.0000
     24 ****         1.0598   2.3933  -0.4523 H              1 S1                 0.0000
     25 ****         0.0628   1.8126   0.8612 H              1 S1                 0.0000
     26 ****         1.9555   0.3162  -0.7635 H              1 S1                 0.0000
     27 ****         2.1424  -1.3558  -1.7442 H              1 S1                 0.0000
     28 ****         3.2178  -2.4700  -0.9552 H              1 S1                 0.0000
     29 ****         0.2756  -3.0360  -1.6760 H              1 S1                 0.0000
     30 ****         1.6776  -3.6752  -2.5134 H              1 S1                 0.0000
     31 ****        -0.0974  -3.8257   0.6938 H              1 S1                 0.0000
     32 ****         1.0664  -4.9764   1.3269 H              1 S1                 0.0000
     33 ****         2.8754  -3.2560   1.1627 H              1 S1                 0.0000
     34 ****         1.9236  -3.4829   3.3306 H              1 S1                 0.0000
     35 ****         0.5293  -2.5013   2.9464 H              1 S1                 0.0000
     36 ****         2.1320  -1.7622   3.0458 H              1 S1                 0.0000
     37 ****        -0.8759   3.8973  -2.9266 H              1 S1                 0.0000
     38 ****        -2.6607   2.5257   0.6883 LP             1 S1                 0.0000
     39 ****        -0.7548  -0.0183   1.3611 LP             1 S1                 0.0000
     40 ****        -0.4090  -1.6817   1.6983 LP             1 S1                 0.0000
     41 ****         2.3260  -4.7573  -0.5854 LP             1 S1                 0.0000
     42 ****         0.7929  -5.1700  -0.9672 LP             1 S1                 0.0000
@<TRIPOS>BOND
    1    1    2 1     
    2    1   19 1     
    3    1   20 1     
    4    1   21 1     
    5    2   18 1     
    6    2    3 2     
    7    3    4 1     
    8    4    5 1     
    9    4   17 2     
   10    5    6 1     
   11    5   22 1     
   12    5   23 1     
   13    6    7 1     
   14    6   24 1     
   15    6   25 1     
   16    7    8 am    
   17    7   26 1     
   18    8    9 2     
   19    8   10 am    
   20   10   15 1     
   21   10   11 1     
   22   11   12 1     
   23   11   27 1     
   24   11   28 1     
   25   12   13 1     
   26   12   29 1     
   27   12   30 1     
   28   13   14 1     
   29   14   15 1     
   30   14   31 1     
   31   14   32 1     
   32   15   16 1     
   33   15   33 1     
   34   16   34 1     
   35   16   35 1     
   36   16   36 1     
   37   17   18 1     
   38   17   37 1     
   39    3   38 1     
   40    9   39 1     
   41    9   40 1     
   42   13   41 1     
   43   13   42 1     
@<TRIPOS>SUBSTRUCTURE
      1 S1             1
@<TRIPOS>SET
LONE_PAIRS      STATIC     ATOMS    <user>   **** ""
5 38 39 40 41 42
DONOR_HYDROGENS      STATIC     ATOMS    <user>   **** ""
1 26
ATOM$BLUE        STATIC     ATOMS    COLORGROUP SYSTEM
5 38 39 40 41 42
ATOM$RED        STATIC     ATOMS    COLORGROUP SYSTEM
1 26
