AV-unprocessed.smi:102|AV-procd|sdf|960|dock4
  -GOLD-   2262017503D 1   1.00000     0.00000
 Structure written by MMmdl.
 44 45  0  0  0  0  0  0  0  0  1 V2000
  151.0456  141.8857  156.7544 C   0  0  0  0  0  0  0  0  0  0  0  0
  151.6510  140.4884  156.7615 C   0  0  0  0  0  0  0  0  0  0  0  0
  152.4268  140.1289  157.6475 O   0  0  0  0  0  0  0  0  0  0  0  0
  151.2393  139.7457  155.7176 O   0  0  0  0  0  0  0  0  0  0  0  0
  151.6550  138.3931  155.5891 C   0  0  0  0  0  0  0  0  0  0  0  0
  150.6053  137.5628  154.8253 C   0  0  1  0  0  0  0  0  0  0  0  0
  151.0151  136.2009  154.7521 O   0  0  0  0  0  0  0  0  0  0  0  0
  150.5754  135.5040  155.8783 C   0  0  2  0  0  0  0  0  0  0  0  0
  150.0576  134.1541  155.4318 N   0  0  0  0  0  0  0  0  0  0  0  0
  149.2995  134.0244  154.2757 C   0  0  0  0  0  0  0  0  0  0  0  0
  148.8000  132.8398  153.8520 C   0  0  0  0  0  0  0  0  0  0  0  0
  148.0718  132.7922  152.7235 F   0  0  0  0  0  0  0  0  0  0  0  0
  149.0398  131.6164  154.6120 C   0  0  0  0  0  0  0  0  0  0  0  0
  148.6328  130.4972  154.3075 O   0  0  0  0  0  0  0  0  0  0  0  0
  149.7967  131.7972  155.7735 N   0  0  0  0  0  0  0  0  0  0  0  0
  150.3129  133.0132  156.2244 C   0  0  0  0  0  0  0  0  0  0  0  0
  150.9474  133.0589  157.2772 O   0  0  0  0  0  0  0  0  0  0  0  0
  149.4945  136.3588  156.5709 C   0  0  2  0  0  0  0  0  0  0  0  0
  148.3067  135.6293  156.8713 O   0  0  0  0  0  0  0  0  0  0  0  0
  148.0966  135.1597  158.1104 C   0  0  0  0  0  0  0  0  0  0  0  0
  146.8986  134.2224  158.1782 C   0  0  0  0  0  0  0  0  0  0  0  0
  148.7609  135.4306  159.1105 O   0  0  0  0  0  0  0  0  0  0  0  0
  149.2695  137.4906  155.5723 C   0  0  2  0  0  0  0  0  0  0  0  0
  148.2287  137.1636  154.6551 O   0  0  0  0  0  0  0  0  0  0  0  0
  147.5920  138.1281  153.9707 C   0  0  0  0  0  0  0  0  0  0  0  0
  146.4068  137.5897  153.1810 C   0  0  0  0  0  0  0  0  0  0  0  0
  147.8945  139.3210  153.9467 O   0  0  0  0  0  0  0  0  0  0  0  0
  149.9801  130.9795  156.3365 H   0  0  0  0  0  0  0  0  0  0  0  0
  149.9637  141.8310  156.6329 H   0  0  0  0  0  0  0  0  0  0  0  0
  151.4581  142.4718  155.9332 H   0  0  0  0  0  0  0  0  0  0  0  0
  151.2622  142.4016  157.6900 H   0  0  0  0  0  0  0  0  0  0  0  0
  152.6419  138.3163  155.1301 H   0  0  0  0  0  0  0  0  0  0  0  0
  151.7557  137.9947  156.5989 H   0  0  0  0  0  0  0  0  0  0  0  0
  150.4804  137.9763  153.8236 H   0  0  0  0  0  0  0  0  0  0  0  0
  151.4404  135.3211  156.5178 H   0  0  0  0  0  0  0  0  0  0  0  0
  149.0866  134.8997  153.6802 H   0  0  0  0  0  0  0  0  0  0  0  0
  149.9448  136.7561  157.4821 H   0  0  0  0  0  0  0  0  0  0  0  0
  146.9095  133.5282  157.3377 H   0  0  0  0  0  0  0  0  0  0  0  0
  145.9710  134.7939  158.1445 H   0  0  0  0  0  0  0  0  0  0  0  0
  146.9166  133.6451  159.1029 H   0  0  0  0  0  0  0  0  0  0  0  0
  149.0352  138.4203  156.0936 H   0  0  0  0  0  0  0  0  0  0  0  0
  145.6799  137.1339  153.8534 H   0  0  0  0  0  0  0  0  0  0  0  0
  146.7388  136.8362  152.4665 H   0  0  0  0  0  0  0  0  0  0  0  0
  145.9146  138.3932  152.6327 H   0  0  0  0  0  0  0  0  0  0  0  0
  1  2  1  0  0  0  0
  1 29  1  0  0  0  0
  1 30  1  0  0  0  0
  1 31  1  0  0  0  0
  2  3  2  0  0  0  0
  2  4  1  0  0  0  0
  4  5  1  0  0  0  0
  5  6  1  0  0  0  0
  5 32  1  0  0  0  0
  5 33  1  0  0  0  0
  6 23  1  0  0  0  0
  6  7  1  0  0  0  0
  6 34  1  0  0  0  0
  7  8  1  0  0  0  0
  8  9  1  0  0  0  0
  8 18  1  0  0  0  0
  8 35  1  0  0  0  0
  9 16  1  0  0  0  0
  9 10  1  0  0  0  0
 10 11  2  0  0  0  0
 10 36  1  0  0  0  0
 11 12  1  0  0  0  0
 11 13  1  0  0  0  0
 13 14  2  0  0  0  0
 13 15  1  0  0  0  0
 15 28  1  0  0  0  0
 15 16  1  0  0  0  0
 16 17  2  0  0  0  0
 18 19  1  0  0  0  0
 18 23  1  0  0  0  0
 18 37  1  0  0  0  0
 19 20  1  0  0  0  0
 20 21  1  0  0  0  0
 20 22  2  0  0  0  0
 21 38  1  0  0  0  0
 21 39  1  0  0  0  0
 21 40  1  0  0  0  0
 23 24  1  0  0  0  0
 23 41  1  0  0  0  0
 24 25  1  0  0  0  0
 25 26  1  0  0  0  0
 25 27  2  0  0  0  0
 26 42  1  0  0  0  0
 26 43  1  0  0  0  0
 26 44  1  0  0  0  0
M  END
> <s_m_source_file>
AV-unprocessed.smi

> <i_m_source_file_index>
102

> <i_lp_mmshare_version>
43012

> <i_f3d_flags>
0

> <s_epik_input>
W0NIM11DKD1PKU9bQ0gyXVtDQEBIXTFPW0NASF0oW0NAQEhdKE9DKD1PKVtDSDNdKVtDQEhdMU9DKD1PKVtDSDNdKW4yW2NIXWMoRiljKD1PKVtuSF1jMj1P

> <s_epik_cmdline>
J2VwaWtfcHl0aG9uJywgJy1waCcsICc3LjAnLCAnLXRuJywgJzgnLCAnLW1hJywgJzIwMCcsICctbWV0YWxfYmluZGluZycsICctaW1hZScsICc8aW5maWxlLm1hZT4nLCAnLW9tYWUnLCAnPG91dGZpbGUubWFlPic=

> <r_lp_tautomer_probability>
0.999537

> <r_epik_Ionization_Penalty>
0.058267

> <r_epik_Ionization_Penalty_Charging>
0.058267

> <r_epik_Ionization_Penalty_Neutral>
6.57791e-16

> <r_epik_State_Penalty>
0.0503774

> <r_epik_Charging_Adjusted_Penalty>
0.108644

> <i_epik_Tot_Q>
0

> <i_epik_Tot_abs_Q>
0

> <r_epik_Metal_State_Penalty>
2.6644

> <b_epik_Metal_Only>
0

> <s_epik_Chemistry_Notes>
This compound has an ester and may undergo hydrolysis at high or low pH. This compound contains an acetal/aminal-like group ( X-CH(R)-Y where X, Y are N, S, or O) that may be acid/base labile, releasing an aldehyde.

> <s_lp_Force_Field>
OPLS_2005

> <r_lp_Energy>
13.3238

> <b_lp_Chiralities_Consistent>
1

> <s_lp_Variant>
AV-unprocessed.smi:102-16

> <Gold.Version>
5.8.1

> <Gold.Id.Protein>
6NUR|6NUR_protein|mol2

> <Gold.PLP.Fitness>
44.6351

> <Gold.PLP.PLP>
-33.4147

> <Gold.PLP.part.hbond>
-4.1899

> <Gold.PLP.part.metal>
0.0000

> <Gold.PLP.part.buried>
-5.5642

> <Gold.PLP.part.nonpolar>
-25.3409

> <Gold.PLP.part.repulsive>
0.9300

> <Gold.PLP.ligand.clash>
0.0000

> <Gold.PLP.ligand.torsion>
1.6561

> <Gold.PLP.Chemscore.Hbond>
3.7930

> <Gold.PLP.Chemscore.CHOScore>
1.0000

> <Gold.PLP.Chemscore.Metal>
0.0000

> <Gold.Chemscore.Hbonds>
donor molecule, donor type, donor heavy atom, donor atom, acceptor molecule, acceptor atom, score
      P1  H  6896  6908       L1    17  0.82
      P1  H  6896  6909       L1    22  0.45
      P1  H  7997  8010       L1     3  0.60
      P1  H 10752 10763       L1     7  0.94
      L1  C    10    36       P1  7948  1.00

> <Gold.PLP.Chemscore.Internal.Correction>
0.1536

> <Gold.Rescore>
     Score         DG    S(hbond)    S(metal)    S(lipo)     H(rot)  DE(clash)    DE(int)     intcor
      9.35     -10.95       3.33        0.00      40.40       4.05       0.13       1.47       ----

> <Gold.Chemscore.Fitness>
9.3483

> <Gold.Chemscore.DG>
-10.9514

> <Gold.Chemscore.ZeroCoef>
-5.4800

> <Gold.Chemscore.Hbond>
3.3286

> <Gold.Chemscore.Metal>
0.0000

> <Gold.Chemscore.Lipo>
40.4017

> <Gold.Chemscore.Internal_Hbond>
0.0000

> <Gold.Chemscore.DEClash>
0.1283

> <Gold.Chemscore.DEInternal>
1.4747

> <Gold.Chemscore.Rot>
4.0520

> <Gold.Chemscore.Internal.Correction>
   9.000000E+99

> <Gold.Chemscore.Hbonds>
donor molecule, donor type, donor heavy atom, donor atom, acceptor molecule, acceptor atom, score
      P1  H  6896  6908       L1    17  0.77
      P1  H  6896  6909       L1    22  0.43
      P1  H  7997  8010       L1     3  0.23
      P1  H 10752 10763       L1     7  0.66

> <Gold.Chemscore.Hbond.Weighted>
-11.1175

> <Gold.Chemscore.Metal.Weighted>
-0.0000

> <Gold.Chemscore.Lipo.Weighted>
-4.7270

> <Gold.Chemscore.Internal_Hbond.Weighted>
0.0000

> <Gold.Chemscore.DEClash.Weighted>
0.1283

> <Gold.Chemscore.DEInternal.Weighted>
1.4747

> <Gold.Chemscore.Rot.Weighted>
10.3732

> <Gold.Chemscore.Internal.Correction.Weighted>
   9.000000E+99

> <Gold.Protein.RotatedTorsions>
[ 6907 6896 6895 6894 ] final   72.81 input  -60.11 | X-H torsion
[ 7974 7965 7964 7962 ] final  -29.45 input  175.53 | X-H torsion
[ 8008 7997 7996 7995 ] final   61.10 input   59.86 | X-H torsion
[ 10167 10162 10161 10158 ] final  -44.32 input  -65.29 | X-H torsion
[ 10718 10713 10712 10709 ] final   -9.06 input   66.30 | X-H torsion
[ 10763 10752 10751 10750 ] final   39.63 input  -60.55 | X-H torsion
[ 11005 11000 10999 10996 ] final  118.80 input  -57.11 | X-H torsion

> <Gold.Protein.ActiveResidues>
 VAL166  LYS551  ARG553  GLY616  TRP617  ASP618  TYR619  PRO620  LYS621  CYS622 
 ASP623  PHE694  ASN695  SER759  ASP760  ASP761  ALA762  ILE779  LEU786  VAL792 
 PHE793  MET794  SER795  GLU796  ALA797  LYS798  CYS799  TRP800  GLU811  SER814 

> <Gold.Protein.RotatedAtoms>
  152.4889  134.4515  159.9575 H   0  0  0  0  0  0  0  0  0  0  0  0  # atno 6907 bound_to 6896
  151.4506  133.3612  159.2802 H   0  0  0  0  0  0  0  0  0  0  0  0  # atno 6908 bound_to 6896
  150.9024  134.8461  159.7429 H   0  0  0  0  0  0  0  0  0  0  0  0  # atno 6909 bound_to 6896
  146.1215  140.5414  142.8733 H   0  0  0  0  0  0  0  0  0  0  0  0  # atno 7974 bound_to 7965
  155.5930  140.3493  155.4572 H   0  0  0  0  0  0  0  0  0  0  0  0  # atno 8008 bound_to 7997
  156.0287  140.1269  157.0306 H   0  0  0  0  0  0  0  0  0  0  0  0  # atno 8009 bound_to 7997
  154.4343  140.1048  156.6054 H   0  0  0  0  0  0  0  0  0  0  0  0  # atno 8010 bound_to 7997
  140.6901  143.2936  151.3478 H   0  0  0  0  0  0  0  0  0  0  0  0  # atno 10167 bound_to 10162
  156.6935  130.5072  149.5937 H   0  0  0  0  0  0  0  0  0  0  0  0  # atno 10718 bound_to 10713
  152.9961  135.6215  154.2496 H   0  0  0  0  0  0  0  0  0  0  0  0  # atno 10763 bound_to 10752
  154.2235  135.2795  155.2918 H   0  0  0  0  0  0  0  0  0  0  0  0  # atno 10764 bound_to 10752
  154.5509  135.5733  153.6979 H   0  0  0  0  0  0  0  0  0  0  0  0  # atno 10765 bound_to 10752
  139.9122  134.9623  156.7558 H   0  0  0  0  0  0  0  0  0  0  0  0  # atno 11005 bound_to 11000
  144.7602  140.5403  143.6741 LP  0  0  0  0  0  0  0  0  0  0  0  0  # atno 17320 bound_to 7965
  145.5456  139.1476  143.3423 LP  0  0  0  0  0  0  0  0  0  0  0  0  # atno 17321 bound_to 7965
  139.6296  144.0747  152.2464 LP  0  0  0  0  0  0  0  0  0  0  0  0  # atno 17342 bound_to 10162
  140.0217  144.6148  150.7561 LP  0  0  0  0  0  0  0  0  0  0  0  0  # atno 17343 bound_to 10162
  156.1781  130.6481  151.0918 LP  0  0  0  0  0  0  0  0  0  0  0  0  # atno 17370 bound_to 10713
  157.7000  131.0779  150.6850 LP  0  0  0  0  0  0  0  0  0  0  0  0  # atno 17371 bound_to 10713
  140.6737  133.9536  155.7871 LP  0  0  0  0  0  0  0  0  0  0  0  0  # atno 17394 bound_to 11000
  141.0559  134.0417  157.3723 LP  0  0  0  0  0  0  0  0  0  0  0  0  # atno 17395 bound_to 11000

$$$$
