AV-unprocessed.smi:1272|AV-procd|sdf|5335|dock2
  -GOLD-   22720 4463D 1   1.00000     0.00000
 Structure written by MMmdl.
 45 47  0  0  0  0  0  0  0  0  1 V2000
  155.1889  140.6310  160.1556 C   0  0  0  0  0  0  0  0  0  0  0  0
  153.8012  140.9887  160.7021 C   0  0  0  0  0  0  0  0  0  0  0  0
  152.9499  141.5520  159.6570 N   0  0  0  0  0  0  0  0  0  0  0  0
  152.6085  140.9605  158.4879 C   0  0  0  0  0  0  0  0  0  0  0  0
  152.9521  139.8377  158.1178 O   0  0  0  0  0  0  0  0  0  0  0  0
  151.8250  141.8198  157.7944 N   0  0  0  0  0  0  0  0  0  0  0  0
  151.2292  141.5853  156.4794 C   0  0  0  0  0  0  0  0  0  0  0  0
  150.1860  140.4492  156.5180 C   0  0  1  0  0  0  0  0  0  0  0  0
  149.2576  140.6955  155.4796 O   0  0  0  0  0  0  0  0  0  0  0  0
  150.8278  139.0680  156.2596 C   0  0  0  0  0  0  0  0  0  0  0  0
  150.0564  137.9202  156.7390 N   0  0  0  0  0  0  0  0  0  0  0  0
  149.9474  137.9364  158.1943 C   0  0  0  0  0  0  0  0  0  0  0  0
  149.1376  136.7412  158.7256 C   0  0  0  0  0  0  0  0  0  0  0  0
  149.7334  135.5275  158.2793 O   0  0  0  0  0  0  0  0  0  0  0  0
  149.8156  135.4476  156.8603 C   0  0  0  0  0  0  0  0  0  0  0  0
  150.6238  136.6405  156.3199 C   0  0  0  0  0  0  0  0  0  0  0  0
  151.6632  142.9969  158.5397 C   0  0  0  0  0  0  0  0  0  0  0  0
  150.9491  144.1765  158.2656 C   0  0  0  0  0  0  0  0  0  0  0  0
  150.9905  145.1995  159.2417 C   0  0  0  0  0  0  0  0  0  0  0  0
  151.7260  145.0286  160.4433 C   0  0  0  0  0  0  0  0  0  0  0  0
  152.4337  143.8302  160.6953 C   0  0  0  0  0  0  0  0  0  0  0  0
  152.3740  142.8293  159.7100 C   0  0  0  0  0  0  0  0  0  0  0  0
  155.8163  140.2062  160.9394 H   0  0  0  0  0  0  0  0  0  0  0  0
  155.6980  141.5116  159.7629 H   0  0  0  0  0  0  0  0  0  0  0  0
  155.1191  139.8972  159.3521 H   0  0  0  0  0  0  0  0  0  0  0  0
  153.3304  140.1002  161.1255 H   0  0  0  0  0  0  0  0  0  0  0  0
  153.8942  141.7005  161.5227 H   0  0  0  0  0  0  0  0  0  0  0  0
  150.7994  142.5023  156.0746 H   0  0  0  0  0  0  0  0  0  0  0  0
  152.0397  141.3191  155.7992 H   0  0  0  0  0  0  0  0  0  0  0  0
  149.6750  140.4449  157.4819 H   0  0  0  0  0  0  0  0  0  0  0  0
  149.7248  140.7029  154.6582 H   0  0  0  0  0  0  0  0  0  0  0  0
  151.0748  138.9505  155.2030 H   0  0  0  0  0  0  0  0  0  0  0  0
  151.7864  139.0502  156.7794 H   0  0  0  0  0  0  0  0  0  0  0  0
  150.9434  137.9219  158.6400 H   0  0  0  0  0  0  0  0  0  0  0  0
  149.4738  138.8633  158.5203 H   0  0  0  0  0  0  0  0  0  0  0  0
  149.1182  136.7501  159.8154 H   0  0  0  0  0  0  0  0  0  0  0  0
  148.1019  136.7939  158.3856 H   0  0  0  0  0  0  0  0  0  0  0  0
  150.2944  134.5082  156.5832 H   0  0  0  0  0  0  0  0  0  0  0  0
  148.8125  135.4346  156.4309 H   0  0  0  0  0  0  0  0  0  0  0  0
  150.6484  136.5771  155.2324 H   0  0  0  0  0  0  0  0  0  0  0  0
  151.6564  136.5631  156.6635 H   0  0  0  0  0  0  0  0  0  0  0  0
  150.3893  144.3016  157.3507 H   0  0  0  0  0  0  0  0  0  0  0  0
  150.4559  146.1220  159.0699 H   0  0  0  0  0  0  0  0  0  0  0  0
  151.7453  145.8231  161.1748 H   0  0  0  0  0  0  0  0  0  0  0  0
  152.9949  143.6943  161.6078 H   0  0  0  0  0  0  0  0  0  0  0  0
  1  2  1  0  0  0  0
  1 23  1  0  0  0  0
  1 24  1  0  0  0  0
  1 25  1  0  0  0  0
  2  3  1  0  0  0  0
  2 26  1  0  0  0  0
  2 27  1  0  0  0  0
  3 22  1  0  0  0  0
  3  4  1  0  0  0  0
  4  5  2  0  0  0  0
  4  6  1  0  0  0  0
  6  7  1  0  0  0  0
  6 17  1  0  0  0  0
  7  8  1  0  0  0  0
  7 28  1  0  0  0  0
  7 29  1  0  0  0  0
  8  9  1  0  0  0  0
  8 10  1  0  0  0  0
  8 30  1  0  0  0  0
  9 31  1  0  0  0  0
 10 11  1  0  0  0  0
 10 32  1  0  0  0  0
 10 33  1  0  0  0  0
 11 16  1  0  0  0  0
 11 12  1  0  0  0  0
 12 13  1  0  0  0  0
 12 34  1  0  0  0  0
 12 35  1  0  0  0  0
 13 14  1  0  0  0  0
 13 36  1  0  0  0  0
 13 37  1  0  0  0  0
 14 15  1  0  0  0  0
 15 16  1  0  0  0  0
 15 38  1  0  0  0  0
 15 39  1  0  0  0  0
 16 40  1  0  0  0  0
 16 41  1  0  0  0  0
 17 22  2  0  0  0  0
 17 18  1  0  0  0  0
 18 19  2  0  0  0  0
 18 42  1  0  0  0  0
 19 20  1  0  0  0  0
 19 43  1  0  0  0  0
 20 21  2  0  0  0  0
 20 44  1  0  0  0  0
 21 22  1  0  0  0  0
 21 45  1  0  0  0  0
M  END
> <s_m_source_file>
AV-unprocessed.smi

> <i_m_source_file_index>
1272

> <i_lp_mmshare_version>
43012

> <i_f3d_flags>
0

> <s_epik_input>
W2NIXTFbY0hdW2NIXVtjSF1jKGMxMiluKFtDSDJdW0NIM10pYyg9TyluMltDSDJdW0NASF0oW09IXSlbQ0gyXU4zW0NIMl1bQ0gyXU9bQ0gyXVtDSDJdMw==

> <s_epik_cmdline>
J2VwaWtfcHl0aG9uJywgJy1waCcsICc3LjAnLCAnLXRuJywgJzgnLCAnLW1hJywgJzIwMCcsICctbWV0YWxfYmluZGluZycsICctaW1hZScsICc8aW5maWxlLm1hZT4nLCAnLW9tYWUnLCAnPG91dGZpbGUubWFlPic=

> <r_epik_Ionization_Penalty>
0.214359

> <r_epik_Ionization_Penalty_Charging>
2.31431e-09

> <r_epik_Ionization_Penalty_Neutral>
0.214359

> <r_epik_State_Penalty>
0.204533

> <r_epik_Charging_Adjusted_Penalty>
0.204533

> <i_epik_Tot_Q>
0

> <i_epik_Tot_abs_Q>
0

> <r_epik_Metal_State_Penalty>
0.204533

> <b_epik_Metal_Only>
0

> <s_lp_Force_Field>
OPLS_2005

> <r_lp_Energy>
62.2606

> <b_lp_Chiralities_Consistent>
1

> <s_lp_Variant>
AV-unprocessed.smi:1272-2

> <Gold.Version>
5.8.1

> <Gold.Id.Protein>
6NUR|6NUR_protein|mol2

> <Gold.PLP.Fitness>
47.3688

> <Gold.PLP.PLP>
-42.4781

> <Gold.PLP.part.hbond>
-2.0000

> <Gold.PLP.part.metal>
0.0000

> <Gold.PLP.part.buried>
-6.3721

> <Gold.PLP.part.nonpolar>
-34.0649

> <Gold.PLP.part.repulsive>
0.0000

> <Gold.PLP.ligand.clash>
0.0000

> <Gold.PLP.ligand.torsion>
0.6204

> <Gold.PLP.Chemscore.Hbond>
2.0000

> <Gold.PLP.Chemscore.CHOScore>
0.0000

> <Gold.PLP.Chemscore.Metal>
0.0000

> <Gold.Chemscore.Hbonds>
donor molecule, donor type, donor heavy atom, donor atom, acceptor molecule, acceptor atom, score
      P1  H  6896  6908       L1    14  1.00
      P1  H  7997  8008       L1     5  1.00

> <Gold.PLP.Chemscore.Internal.Correction>
0.1315

> <Gold.Rescore>
     Score         DG    S(hbond)    S(metal)    S(lipo)     H(rot)  DE(clash)    DE(int)     intcor
     18.20     -19.84       1.91        0.00     114.94       2.14       0.11       1.53       ----

> <Gold.Chemscore.Fitness>
18.1990

> <Gold.Chemscore.DG>
-19.8384

> <Gold.Chemscore.ZeroCoef>
-5.4800

> <Gold.Chemscore.Hbond>
1.9116

> <Gold.Chemscore.Metal>
0.0000

> <Gold.Chemscore.Lipo>
114.9437

> <Gold.Chemscore.Internal_Hbond>
0.0000

> <Gold.Chemscore.DEClash>
0.1140

> <Gold.Chemscore.DEInternal>
1.5254

> <Gold.Chemscore.Rot>
2.1386

> <Gold.Chemscore.Internal.Correction>
   9.000000E+99

> <Gold.Chemscore.Hbonds>
donor molecule, donor type, donor heavy atom, donor atom, acceptor molecule, acceptor atom, score
      P1  H  6896  6908       L1    14  0.93
      P1  H  7997  8008       L1     5  0.59

> <Gold.Chemscore.Hbond.Weighted>
-6.3848

> <Gold.Chemscore.Metal.Weighted>
-0.0000

> <Gold.Chemscore.Lipo.Weighted>
-13.4484

> <Gold.Chemscore.Internal_Hbond.Weighted>
0.0000

> <Gold.Chemscore.DEClash.Weighted>
0.1140

> <Gold.Chemscore.DEInternal.Weighted>
1.5254

> <Gold.Chemscore.Rot.Weighted>
5.4749

> <Gold.Chemscore.Internal.Correction.Weighted>
   9.000000E+99

> <Gold.Protein.RotatedTorsions>
[ 6907 6896 6895 6894 ] final  168.06 input  -60.11 | X-H torsion
[ 7974 7965 7964 7962 ] final  -38.99 input  175.53 | X-H torsion
[ 8008 7997 7996 7995 ] final  -83.75 input   59.86 | X-H torsion
[ 10167 10162 10161 10158 ] final  124.53 input  -65.29 | X-H torsion
[ 10718 10713 10712 10709 ] final   -1.40 input   66.30 | X-H torsion
[ 10763 10752 10751 10750 ] final -150.16 input  -60.55 | X-H torsion
[ 11005 11000 10999 10996 ] final  -96.56 input  -57.11 | X-H torsion

> <Gold.Protein.ActiveResidues>
 VAL166  LYS551  ARG553  GLY616  TRP617  ASP618  TYR619  PRO620  LYS621  CYS622 
 ASP623  PHE694  ASN695  SER759  ASP760  ASP761  ALA762  ILE779  LEU786  VAL792 
 PHE793  MET794  SER795  GLU796  ALA797  LYS798  CYS799  TRP800  GLU811  SER814 

> <Gold.Protein.RotatedAtoms>
  151.8535  133.3444  159.3680 H   0  0  0  0  0  0  0  0  0  0  0  0  # atno 6907 bound_to 6896
  150.7199  134.5276  159.5693 H   0  0  0  0  0  0  0  0  0  0  0  0  # atno 6908 bound_to 6896
  152.2774  134.7867  160.0454 H   0  0  0  0  0  0  0  0  0  0  0  0  # atno 6909 bound_to 6896
  146.0436  140.6575  142.9075 H   0  0  0  0  0  0  0  0  0  0  0  0  # atno 7974 bound_to 7965
  154.6224  140.0614  156.9632 H   0  0  0  0  0  0  0  0  0  0  0  0  # atno 8008 bound_to 7997
  155.1796  140.3298  155.4359 H   0  0  0  0  0  0  0  0  0  0  0  0  # atno 8009 bound_to 7997
  156.2439  140.1900  156.6893 H   0  0  0  0  0  0  0  0  0  0  0  0  # atno 8010 bound_to 7997
  139.5737  144.6952  151.3711 H   0  0  0  0  0  0  0  0  0  0  0  0  # atno 10167 bound_to 10162
  156.8061  130.5409  149.5715 H   0  0  0  0  0  0  0  0  0  0  0  0  # atno 10718 bound_to 10713
  154.8135  135.3291  154.7239 H   0  0  0  0  0  0  0  0  0  0  0  0  # atno 10763 bound_to 10752
  153.7884  135.6913  153.4880 H   0  0  0  0  0  0  0  0  0  0  0  0  # atno 10764 bound_to 10752
  153.1933  135.4543  155.0123 H   0  0  0  0  0  0  0  0  0  0  0  0  # atno 10765 bound_to 10752
  141.1407  133.8107  157.0588 H   0  0  0  0  0  0  0  0  0  0  0  0  # atno 11005 bound_to 11000
  144.7087  140.3954  143.7098 LP  0  0  0  0  0  0  0  0  0  0  0  0  # atno 17320 bound_to 7965
  145.6843  139.1625  143.2683 LP  0  0  0  0  0  0  0  0  0  0  0  0  # atno 17321 bound_to 7965
  140.7020  143.7608  150.7419 LP  0  0  0  0  0  0  0  0  0  0  0  0  # atno 17342 bound_to 10162
  140.1121  143.4689  152.2364 LP  0  0  0  0  0  0  0  0  0  0  0  0  # atno 17343 bound_to 10162
  156.1072  130.6013  150.9989 LP  0  0  0  0  0  0  0  0  0  0  0  0  # atno 17370 bound_to 10713
  157.6529  131.0894  150.8011 LP  0  0  0  0  0  0  0  0  0  0  0  0  # atno 17371 bound_to 10713
  140.0584  134.9768  157.1262 LP  0  0  0  0  0  0  0  0  0  0  0  0  # atno 17394 bound_to 11000
  140.3884  134.2211  155.7167 LP  0  0  0  0  0  0  0  0  0  0  0  0  # atno 17395 bound_to 11000

$$$$
