AV-unprocessed.smi:1873|AV-procd|sdf|7610|dock8
  -GOLD-   22720 9333D 1   1.00000     0.00000
 Structure written by MMmdl.
 37 39  0  0  0  0  0  0  0  0  2 V2000
  146.2826  138.0421  150.8135 O   0  0  0  0  0  0  0  0  0  0  0  0
  146.0603  138.0024  152.2104 C   0  0  1  0  0  0  0  0  0  0  0  0
  146.0815  136.5454  152.7137 C   0  0  0  0  0  0  0  0  0  0  0  0
  145.1609  135.6693  151.9751 N   0  0  0  0  0  0  0  0  0  0  0  0
  143.9822  135.9670  151.3641 C   0  0  0  0  0  0  0  0  0  0  0  0
  143.4998  134.8170  150.8171 N   0  3  0  0  0  0  0  0  0  0  0  0
  144.3833  133.7684  151.0809 C   0  0  0  0  0  0  0  0  0  0  0  0
  144.3281  132.4221  150.7335 C   0  0  0  0  0  0  0  0  0  0  0  0
  145.4026  131.6139  151.1597 C   0  0  0  0  0  0  0  0  0  0  0  0
  146.4765  132.1502  151.8994 C   0  0  0  0  0  0  0  0  0  0  0  0
  146.5218  133.5165  152.2463 C   0  0  0  0  0  0  0  0  0  0  0  0
  145.4546  134.3089  151.8238 C   0  0  0  0  0  0  0  0  0  0  0  0
  147.0544  138.8597  152.9779 C   0  0  0  0  0  0  0  0  0  0  0  0
  147.1074  140.2506  152.7512 C   0  0  0  0  0  0  0  0  0  0  0  0
  148.0161  141.0527  153.4680 C   0  0  0  0  0  0  0  0  0  0  0  0
  148.8877  140.4797  154.4157 C   0  0  0  0  0  0  0  0  0  0  0  0
  149.7419  141.3201  155.0934 O   0  0  0  0  0  0  0  0  0  0  0  0
  150.7269  140.7889  155.8655 C   0  0  0  0  0  0  0  0  0  0  0  0
  151.6079  140.1173  155.0856 F   0  0  0  0  0  0  0  0  0  0  0  0
  151.4112  141.7711  156.5025 F   0  0  0  0  0  0  0  0  0  0  0  0
  148.8233  139.0856  154.6526 C   0  0  0  0  0  0  0  0  0  0  0  0
  147.9141  138.2828  153.9371 C   0  0  0  0  0  0  0  0  0  0  0  0
  145.4826  138.3168  150.3913 H   0  0  0  0  0  0  0  0  0  0  0  0
  145.0623  138.4114  152.3743 H   0  0  0  0  0  0  0  0  0  0  0  0
  147.0873  136.1266  152.6742 H   0  0  0  0  0  0  0  0  0  0  0  0
  145.7802  136.5128  153.7617 H   0  0  0  0  0  0  0  0  0  0  0  0
  143.5137  136.9397  151.3211 H   0  0  0  0  0  0  0  0  0  0  0  0
  143.5078  132.0093  150.1649 H   0  0  0  0  0  0  0  0  0  0  0  0
  145.4043  130.5622  150.9125 H   0  0  0  0  0  0  0  0  0  0  0  0
  147.2841  131.5012  152.2056 H   0  0  0  0  0  0  0  0  0  0  0  0
  147.3532  133.9172  152.8071 H   0  0  0  0  0  0  0  0  0  0  0  0
  146.4480  140.7100  152.0295 H   0  0  0  0  0  0  0  0  0  0  0  0
  148.0451  142.1173  153.2881 H   0  0  0  0  0  0  0  0  0  0  0  0
  150.3301  140.0869  156.5995 H   0  0  0  0  0  0  0  0  0  0  0  0
  149.4609  138.6178  155.3880 H   0  0  0  0  0  0  0  0  0  0  0  0
  147.8756  137.2213  154.1338 H   0  0  0  0  0  0  0  0  0  0  0  0
  142.6314  134.7552  150.3014 H   0  0  0  0  0  0  0  0  0  0  0  0
  1  2  1  0  0  0  0
  1 23  1  0  0  0  0
  2  3  1  0  0  0  0
  2 13  1  0  0  0  0
  2 24  1  0  0  0  0
  3  4  1  0  0  0  0
  3 25  1  0  0  0  0
  3 26  1  0  0  0  0
  4 12  1  0  0  0  0
  4  5  1  0  0  0  0
  5  6  2  0  0  0  0
  5 27  1  0  0  0  0
  6  7  1  0  0  0  0
  6 37  1  0  0  0  0
  7 12  2  0  0  0  0
  7  8  1  0  0  0  0
  8  9  2  0  0  0  0
  8 28  1  0  0  0  0
  9 10  1  0  0  0  0
  9 29  1  0  0  0  0
 10 11  2  0  0  0  0
 10 30  1  0  0  0  0
 11 12  1  0  0  0  0
 11 31  1  0  0  0  0
 13 22  1  0  0  0  0
 13 14  2  0  0  0  0
 14 15  1  0  0  0  0
 14 32  1  0  0  0  0
 15 16  2  0  0  0  0
 15 33  1  0  0  0  0
 16 17  1  0  0  0  0
 16 21  1  0  0  0  0
 17 18  1  0  0  0  0
 18 19  1  0  0  0  0
 18 20  1  0  0  0  0
 18 34  1  0  0  0  0
 21 22  2  0  0  0  0
 21 35  1  0  0  0  0
 22 36  1  0  0  0  0
M  CHG  1   6   1
M  END
> <s_m_source_file>
AV-unprocessed.smi

> <i_m_source_file_index>
1873

> <i_lp_mmshare_version>
43012

> <i_f3d_flags>
0

> <s_epik_input>
RltDSF0oRilPYyhbY0hdW2NIXTEpW2NIXVtjSF1jMVtDQEhdKFtPSF0pW0NIMl1uKFtjSF1uMiljKGMyMylbY0hdW2NIXVtjSF1bY0hdMw==

> <s_epik_cmdline>
J2VwaWtfcHl0aG9uJywgJy1waCcsICc3LjAnLCAnLXRuJywgJzgnLCAnLW1hJywgJzIwMCcsICctbWV0YWxfYmluZGluZycsICctaW1hZScsICc8aW5maWxlLm1hZT4nLCAnLW9tYWUnLCAnPG91dGZpbGUubWFlPic=

> <r_lp_tautomer_probability>
1

> <r_epik_Ionization_Penalty>
1.3029

> <r_epik_Ionization_Penalty_Charging>
1.3029

> <r_epik_Ionization_Penalty_Neutral>
2.50501e-07

> <r_epik_State_Penalty>
1.377

> <r_epik_Charging_Adjusted_Penalty>
2.6799

> <i_epik_Tot_Q>
1

> <i_epik_Tot_abs_Q>
1

> <r_epik_Metal_State_Penalty>
5.40879

> <b_epik_Metal_Only>
0

> <s_lp_Force_Field>
OPLS_2005

> <r_lp_Energy>
16.5832

> <b_lp_Chiralities_Consistent>
1

> <s_lp_Variant>
AV-unprocessed.smi:1873-4

> <Gold.Version>
5.8.1

> <Gold.Id.Protein>
6NUR|6NUR_protein|mol2

> <Gold.PLP.Fitness>
55.2197

> <Gold.PLP.PLP>
-41.1851

> <Gold.PLP.part.hbond>
-3.6755

> <Gold.PLP.part.metal>
0.0000

> <Gold.PLP.part.buried>
0.0765

> <Gold.PLP.part.nonpolar>
-37.7933

> <Gold.PLP.part.repulsive>
0.1480

> <Gold.PLP.ligand.clash>
0.0000

> <Gold.PLP.ligand.torsion>
0.5235

> <Gold.PLP.Chemscore.Hbond>
4.0000

> <Gold.PLP.Chemscore.CHOScore>
1.0000

> <Gold.PLP.Chemscore.Metal>
0.0000

> <Gold.Chemscore.Hbonds>
donor molecule, donor type, donor heavy atom, donor atom, acceptor molecule, acceptor atom, score
      L1  H     1    23       P1 10171  1.00
      L1  H     6    37       P1 10186  2.00
      P1  H  7954  7966       L1     1  0.83
      L1  C     5    27       P1 10171  0.97

> <Gold.PLP.Chemscore.Internal.Correction>
0.0817

> <Gold.Rescore>
     Score         DG    S(hbond)    S(metal)    S(lipo)     H(rot)  DE(clash)    DE(int)     intcor
     17.98     -19.27       2.76        0.00      93.15       2.47       0.60       0.69       ----

> <Gold.Chemscore.Fitness>
17.9759

> <Gold.Chemscore.DG>
-19.2658

> <Gold.Chemscore.ZeroCoef>
-5.4800

> <Gold.Chemscore.Hbond>
2.7551

> <Gold.Chemscore.Metal>
0.0000

> <Gold.Chemscore.Lipo>
93.1533

> <Gold.Chemscore.Internal_Hbond>
0.0000

> <Gold.Chemscore.DEClash>
0.5972

> <Gold.Chemscore.DEInternal>
0.6927

> <Gold.Chemscore.Rot>
2.4668

> <Gold.Chemscore.Internal.Correction>
   9.000000E+99

> <Gold.Chemscore.Hbonds>
donor molecule, donor type, donor heavy atom, donor atom, acceptor molecule, acceptor atom, score
      L1  H     1    23       P1 10171  1.00
      L1  H     6    37       P1 10186  0.26
      P1  H  7954  7966       L1     1  0.78

> <Gold.Chemscore.Hbond.Weighted>
-9.2019

> <Gold.Chemscore.Metal.Weighted>
-0.0000

> <Gold.Chemscore.Lipo.Weighted>
-10.8989

> <Gold.Chemscore.Internal_Hbond.Weighted>
0.0000

> <Gold.Chemscore.DEClash.Weighted>
0.5972

> <Gold.Chemscore.DEInternal.Weighted>
0.6927

> <Gold.Chemscore.Rot.Weighted>
6.3151

> <Gold.Chemscore.Internal.Correction.Weighted>
   9.000000E+99

> <Gold.Protein.RotatedTorsions>
[ 6907 6896 6895 6894 ] final  155.40 input  -60.11 | X-H torsion
[ 7974 7965 7964 7962 ] final  -34.16 input  175.53 | X-H torsion
[ 8008 7997 7996 7995 ] final   -3.17 input   59.86 | X-H torsion
[ 10167 10162 10161 10158 ] final -100.10 input  -65.29 | X-H torsion
[ 10718 10713 10712 10709 ] final -173.47 input   66.30 | X-H torsion
[ 10763 10752 10751 10750 ] final  140.37 input  -60.55 | X-H torsion
[ 11005 11000 10999 10996 ] final   -3.78 input  -57.11 | X-H torsion

> <Gold.Protein.ActiveResidues>
 VAL166  LYS551  ARG553  GLY616  TRP617  ASP618  TYR619  PRO620  LYS621  CYS622 
 ASP623  PHE694  ASN695  SER759  ASP760  ASP761  ALA762  ILE779  LEU786  VAL792 
 PHE793  MET794  SER795  GLU796  ALA797  LYS798  CYS799  TRP800  GLU811  SER814 

> <Gold.Protein.RotatedAtoms>
  152.0446  133.3992  159.4351 H   0  0  0  0  0  0  0  0  0  0  0  0  # atno 6907 bound_to 6896
  150.6873  134.3376  159.4863 H   0  0  0  0  0  0  0  0  0  0  0  0  # atno 6908 bound_to 6896
  152.1178  134.9227  160.0615 H   0  0  0  0  0  0  0  0  0  0  0  0  # atno 6909 bound_to 6896
  146.0852  140.6004  142.8890 H   0  0  0  0  0  0  0  0  0  0  0  0  # atno 7974 bound_to 7965
  154.6277  140.2516  155.7471 H   0  0  0  0  0  0  0  0  0  0  0  0  # atno 8008 bound_to 7997
  156.2462  140.2913  156.0535 H   0  0  0  0  0  0  0  0  0  0  0  0  # atno 8009 bound_to 7997
  155.1794  140.0388  157.2869 H   0  0  0  0  0  0  0  0  0  0  0  0  # atno 8010 bound_to 7997
  140.2554  143.3443  152.0675 H   0  0  0  0  0  0  0  0  0  0  0  0  # atno 10167 bound_to 10162
  156.7708  130.9448  151.3120 H   0  0  0  0  0  0  0  0  0  0  0  0  # atno 10718 bound_to 10713
  153.9216  135.3000  155.3447 H   0  0  0  0  0  0  0  0  0  0  0  0  # atno 10763 bound_to 10752
  154.7572  135.4951  153.9400 H   0  0  0  0  0  0  0  0  0  0  0  0  # atno 10764 bound_to 10752
  153.1139  135.6766  153.9556 H   0  0  0  0  0  0  0  0  0  0  0  0  # atno 10765 bound_to 10752
  140.6730  133.9220  155.8507 H   0  0  0  0  0  0  0  0  0  0  0  0  # atno 11005 bound_to 11000
  144.7321  140.4702  143.6930 LP  0  0  0  0  0  0  0  0  0  0  0  0  # atno 17320 bound_to 7965
  145.6143  139.1516  143.3058 LP  0  0  0  0  0  0  0  0  0  0  0  0  # atno 17321 bound_to 7965
  139.5033  144.6752  151.6145 LP  0  0  0  0  0  0  0  0  0  0  0  0  # atno 17342 bound_to 10162
  140.6007  143.9614  150.6384 LP  0  0  0  0  0  0  0  0  0  0  0  0  # atno 17343 bound_to 10162
  157.6692  130.9035  150.0001 LP  0  0  0  0  0  0  0  0  0  0  0  0  # atno 17370 bound_to 10713
  156.1279  130.3644  149.9779 LP  0  0  0  0  0  0  0  0  0  0  0  0  # atno 17371 bound_to 10713
  141.0377  134.0666  157.3939 LP  0  0  0  0  0  0  0  0  0  0  0  0  # atno 17394 bound_to 11000
  139.8975  135.0151  156.7105 LP  0  0  0  0  0  0  0  0  0  0  0  0  # atno 17395 bound_to 11000

$$$$
