AV-unprocessed.smi:1360|AV-procd|sdf|5553|dock1
  -GOLD-   22720 5143D 1   1.00000     0.00000
 Structure written by MMmdl.
 36 37  0  0  0  0  0  0  0  0  1 V2000
  147.4292  140.0535  156.1800 C   0  0  0  0  0  0  0  0  0  0  0  0
  148.0544  141.2632  155.4658 C   0  0  2  0  0  0  0  0  0  0  0  0
  148.8097  140.8836  154.1728 C   0  0  0  0  0  0  0  0  0  0  0  0
  149.8659  139.9128  154.3962 N   0  0  0  0  0  0  0  0  0  0  0  0
  149.8678  138.5651  154.1033 C   0  0  0  0  0  0  0  0  0  0  0  0
  151.0764  138.0658  154.4961 C   0  0  0  0  0  0  0  0  0  0  0  0
  151.7522  139.1983  155.0306 C   0  0  0  0  0  0  0  0  0  0  0  0
  151.0243  140.3016  154.9714 N   0  0  0  0  0  0  0  0  0  0  0  0
  148.9531  141.9504  156.3888 N   0  0  0  0  0  0  0  0  0  0  0  0
  149.8142  141.3530  157.2277 C   0  0  0  0  0  0  0  0  0  0  0  0
  149.9327  140.1304  157.3153 O   0  0  0  0  0  0  0  0  0  0  0  0
  150.6744  142.2778  158.0996 C   0  0  1  0  0  0  0  0  0  0  0  0
  151.7120  141.4747  158.9184 C   0  0  0  0  0  0  0  0  0  0  0  0
  152.7393  142.3743  159.5829 C   0  0  0  0  0  0  0  0  0  0  0  0
  152.9335  143.6579  159.2347 C   0  0  0  0  0  0  0  0  0  0  0  0
  152.1504  144.3527  158.1348 C   0  0  0  0  0  0  0  0  0  0  0  0
  151.3764  143.3563  157.2505 C   0  0  0  0  0  0  0  0  0  0  0  0
  146.6779  139.5659  155.5586 H   0  0  0  0  0  0  0  0  0  0  0  0
  146.9340  140.3567  157.1031 H   0  0  0  0  0  0  0  0  0  0  0  0
  148.1845  139.3098  156.4354 H   0  0  0  0  0  0  0  0  0  0  0  0
  147.2390  141.9411  155.2059 H   0  0  0  0  0  0  0  0  0  0  0  0
  148.1203  140.4722  153.4338 H   0  0  0  0  0  0  0  0  0  0  0  0
  149.2530  141.7727  153.7221 H   0  0  0  0  0  0  0  0  0  0  0  0
  149.0202  138.0799  153.6417 H   0  0  0  0  0  0  0  0  0  0  0  0
  151.4245  137.0468  154.4153 H   0  0  0  0  0  0  0  0  0  0  0  0
  152.7429  139.2510  155.4574 H   0  0  0  0  0  0  0  0  0  0  0  0
  148.9222  142.9595  156.3855 H   0  0  0  0  0  0  0  0  0  0  0  0
  150.0159  142.7911  158.8034 H   0  0  0  0  0  0  0  0  0  0  0  0
  151.2042  140.8974  159.6917 H   0  0  0  0  0  0  0  0  0  0  0  0
  152.2488  140.7613  158.2915 H   0  0  0  0  0  0  0  0  0  0  0  0
  153.3409  141.9330  160.3640 H   0  0  0  0  0  0  0  0  0  0  0  0
  153.6716  144.2500  159.7557 H   0  0  0  0  0  0  0  0  0  0  0  0
  151.4605  145.0540  158.6048 H   0  0  0  0  0  0  0  0  0  0  0  0
  152.8331  144.9412  157.5217 H   0  0  0  0  0  0  0  0  0  0  0  0
  152.0718  142.8786  156.5584 H   0  0  0  0  0  0  0  0  0  0  0  0
  150.6546  143.8967  156.6365 H   0  0  0  0  0  0  0  0  0  0  0  0
  1  2  1  0  0  0  0
  1 18  1  0  0  0  0
  1 19  1  0  0  0  0
  1 20  1  0  0  0  0
  2  3  1  0  0  0  0
  2  9  1  0  0  0  0
  2 21  1  0  0  0  0
  3  4  1  0  0  0  0
  3 22  1  0  0  0  0
  3 23  1  0  0  0  0
  4  8  1  0  0  0  0
  4  5  1  0  0  0  0
  5  6  2  0  0  0  0
  5 24  1  0  0  0  0
  6  7  1  0  0  0  0
  6 25  1  0  0  0  0
  7  8  2  0  0  0  0
  7 26  1  0  0  0  0
  9 10  1  0  0  0  0
  9 27  1  0  0  0  0
 10 11  2  0  0  0  0
 10 12  1  0  0  0  0
 12 17  1  0  0  0  0
 12 13  1  0  0  0  0
 12 28  1  0  0  0  0
 13 14  1  0  0  0  0
 13 29  1  0  0  0  0
 13 30  1  0  0  0  0
 14 15  2  0  0  0  0
 14 31  1  0  0  0  0
 15 16  1  0  0  0  0
 15 32  1  0  0  0  0
 16 17  1  0  0  0  0
 16 33  1  0  0  0  0
 16 34  1  0  0  0  0
 17 35  1  0  0  0  0
 17 36  1  0  0  0  0
M  END
> <s_m_source_file>
AV-unprocessed.smi

> <i_m_source_file_index>
1360

> <i_lp_mmshare_version>
43012

> <i_f3d_flags>
0

> <s_epik_input>
bjFbY0hdW2NIXVtjSF1uMVtDSDJdW0NAQEhdKFtDSDNdKVtOSF1DKD1PKVtDQEBIXTJbQ0gyXVtDSF09W0NIXVtDSDJdW0NIMl0y

> <s_epik_cmdline>
J2VwaWtfcHl0aG9uJywgJy1waCcsICc3LjAnLCAnLXRuJywgJzgnLCAnLW1hJywgJzIwMCcsICctbWV0YWxfYmluZGluZycsICctaW1hZScsICc8aW5maWxlLm1hZT4nLCAnLW9tYWUnLCAnPG91dGZpbGUubWFlPic=

> <r_lp_tautomer_probability>
1

> <r_epik_Ionization_Penalty>
0.000315076

> <r_epik_Ionization_Penalty_Charging>
0

> <r_epik_Ionization_Penalty_Neutral>
0.000315076

> <r_epik_State_Penalty>
-0

> <r_epik_Charging_Adjusted_Penalty>
0

> <i_epik_Tot_Q>
0

> <i_epik_Tot_abs_Q>
0

> <r_epik_Metal_State_Penalty>
-0

> <b_epik_Metal_Only>
0

> <s_lp_Force_Field>
OPLS_2005

> <r_lp_Energy>
8.32294

> <b_lp_Chiralities_Consistent>
1

> <s_lp_Variant>
AV-unprocessed.smi:1360-3

> <Gold.Version>
5.8.1

> <Gold.Id.Protein>
6NUR|6NUR_protein|mol2

> <Gold.PLP.Fitness>
45.2836

> <Gold.PLP.PLP>
-38.7765

> <Gold.PLP.part.hbond>
-2.0000

> <Gold.PLP.part.metal>
0.0000

> <Gold.PLP.part.buried>
-1.9490

> <Gold.PLP.part.nonpolar>
-35.0902

> <Gold.PLP.part.repulsive>
0.0844

> <Gold.PLP.ligand.clash>
0.0000

> <Gold.PLP.ligand.torsion>
0.5928

> <Gold.PLP.Chemscore.Hbond>
1.5700

> <Gold.PLP.Chemscore.CHOScore>
0.9769

> <Gold.PLP.Chemscore.Metal>
0.0000

> <Gold.Chemscore.Hbonds>
donor molecule, donor type, donor heavy atom, donor atom, acceptor molecule, acceptor atom, score
      L1  H     9    27       P1  8028  1.00
      P1  H  7989  7998       L1     8  0.51
      L1  C     5    24       P1  7948  0.94

> <Gold.PLP.Chemscore.Internal.Correction>
0.0520

> <Gold.Rescore>
     Score         DG    S(hbond)    S(metal)    S(lipo)     H(rot)  DE(clash)    DE(int)     intcor
     16.61     -19.39       1.85        0.00      99.12       1.51       0.33       2.45       ----

> <Gold.Chemscore.Fitness>
16.6076

> <Gold.Chemscore.DG>
-19.3940

> <Gold.Chemscore.ZeroCoef>
-5.4800

> <Gold.Chemscore.Hbond>
1.8479

> <Gold.Chemscore.Metal>
0.0000

> <Gold.Chemscore.Lipo>
99.1168

> <Gold.Chemscore.Internal_Hbond>
0.0000

> <Gold.Chemscore.DEClash>
0.3316

> <Gold.Chemscore.DEInternal>
2.4547

> <Gold.Chemscore.Rot>
1.5057

> <Gold.Chemscore.Internal.Correction>
   9.000000E+99

> <Gold.Chemscore.Hbonds>
donor molecule, donor type, donor heavy atom, donor atom, acceptor molecule, acceptor atom, score
      L1  H     9    27       P1  8028  0.98
      P1  H  7989  7998       L1     8  0.01

> <Gold.Chemscore.Hbond.Weighted>
-6.1719

> <Gold.Chemscore.Metal.Weighted>
-0.0000

> <Gold.Chemscore.Lipo.Weighted>
-11.5967

> <Gold.Chemscore.Internal_Hbond.Weighted>
0.0000

> <Gold.Chemscore.DEClash.Weighted>
0.3316

> <Gold.Chemscore.DEInternal.Weighted>
2.4547

> <Gold.Chemscore.Rot.Weighted>
3.8546

> <Gold.Chemscore.Internal.Correction.Weighted>
   9.000000E+99

> <Gold.Protein.RotatedTorsions>
[ 6907 6896 6895 6894 ] final  170.73 input  -60.11 | X-H torsion
[ 7974 7965 7964 7962 ] final  -53.69 input  175.53 | X-H torsion
[ 8008 7997 7996 7995 ] final   -1.67 input   59.86 | X-H torsion
[ 10167 10162 10161 10158 ] final   93.23 input  -65.29 | X-H torsion
[ 10718 10713 10712 10709 ] final   70.18 input   66.30 | X-H torsion
[ 10763 10752 10751 10750 ] final    2.50 input  -60.55 | X-H torsion
[ 11005 11000 10999 10996 ] final  -39.19 input  -57.11 | X-H torsion

> <Gold.Protein.ActiveResidues>
 VAL166  LYS551  ARG553  GLY616  TRP617  ASP618  TYR619  PRO620  LYS621  CYS622 
 ASP623  PHE694  ASN695  SER759  ASP760  ASP761  ALA762  ILE779  LEU786  VAL792 
 PHE793  MET794  SER795  GLU796  ALA797  LYS798  CYS799  TRP800  GLU811  SER814 

> <Gold.Protein.RotatedAtoms>
  151.8114  133.3382  159.3556 H   0  0  0  0  0  0  0  0  0  0  0  0  # atno 6907 bound_to 6896
  150.7324  134.5660  159.5875 H   0  0  0  0  0  0  0  0  0  0  0  0  # atno 6908 bound_to 6896
  152.3072  134.7542  160.0396 H   0  0  0  0  0  0  0  0  0  0  0  0  # atno 6909 bound_to 6896
  145.8940  140.8048  142.9777 H   0  0  0  0  0  0  0  0  0  0  0  0  # atno 7974 bound_to 7965
  154.6442  140.2553  155.7287 H   0  0  0  0  0  0  0  0  0  0  0  0  # atno 8008 bound_to 7997
  156.2544  140.2881  156.0769 H   0  0  0  0  0  0  0  0  0  0  0  0  # atno 8009 bound_to 7997
  155.1550  140.0383  157.2820 H   0  0  0  0  0  0  0  0  0  0  0  0  # atno 8010 bound_to 7997
  139.8200  144.6735  150.9531 H   0  0  0  0  0  0  0  0  0  0  0  0  # atno 10167 bound_to 10162
  157.6386  130.9464  150.0615 H   0  0  0  0  0  0  0  0  0  0  0  0  # atno 10718 bound_to 10713
  153.2948  135.6951  153.7259 H   0  0  0  0  0  0  0  0  0  0  0  0  # atno 10763 bound_to 10752
  153.6196  135.3429  155.3007 H   0  0  0  0  0  0  0  0  0  0  0  0  # atno 10764 bound_to 10752
  154.8534  135.4383  154.2041 H   0  0  0  0  0  0  0  0  0  0  0  0  # atno 10765 bound_to 10752
  141.0084  133.6920  156.2154 H   0  0  0  0  0  0  0  0  0  0  0  0  # atno 11005 bound_to 11000
  144.6732  140.1573  143.7425 LP  0  0  0  0  0  0  0  0  0  0  0  0  # atno 17320 bound_to 7965
  145.8873  139.2356  143.1570 LP  0  0  0  0  0  0  0  0  0  0  0  0  # atno 17321 bound_to 7965
  140.7814  143.4101  151.1007 LP  0  0  0  0  0  0  0  0  0  0  0  0  # atno 17342 bound_to 10162
  139.7762  143.8422  152.3130 LP  0  0  0  0  0  0  0  0  0  0  0  0  # atno 17343 bound_to 10162
  156.1646  130.3645  149.9250 LP  0  0  0  0  0  0  0  0  0  0  0  0  # atno 17370 bound_to 10713
  156.7240  130.9017  151.3620 LP  0  0  0  0  0  0  0  0  0  0  0  0  # atno 17371 bound_to 10713
  140.6775  134.4803  157.5588 LP  0  0  0  0  0  0  0  0  0  0  0  0  # atno 17394 bound_to 11000
  139.9076  134.8415  156.1648 LP  0  0  0  0  0  0  0  0  0  0  0  0  # atno 17395 bound_to 11000

$$$$
