AV-unprocessed.smi:1802|AV-procd|sdf|7271|dock5
  -GOLD-   22720 8523D 1   1.00000     0.00000
 Structure written by MMmdl.
 41 42  0  0  0  0  0  0  0  0  2 V2000
  144.1068  133.0712  149.7289 C   0  0  0  0  0  0  0  0  0  0  0  0
  144.0199  133.3540  151.2354 C   0  0  2  0  0  0  0  0  0  0  0  0
  143.8563  134.8573  151.5152 C   0  0  0  0  0  0  0  0  0  0  0  0
  143.7940  135.1112  153.0260 C   0  0  0  0  0  0  0  0  0  0  0  0
  145.0230  134.5185  153.7323 C   0  0  0  0  0  0  0  0  0  0  0  0
  145.1564  133.0656  153.4500 N   0  3  2  0  0  0  0  0  0  0  0  0
  146.2587  132.4472  154.2298 C   0  0  0  0  0  0  0  0  0  0  0  0
  147.5995  133.1803  154.0496 C   0  0  0  0  0  0  0  0  0  0  0  0
  147.7645  134.3376  155.0490 C   0  0  0  0  0  0  0  0  0  0  0  0
  148.2626  135.5467  154.4029 N   0  0  0  0  0  0  0  0  0  0  0  0
  148.4634  136.7191  155.0219 C   0  0  0  0  0  0  0  0  0  0  0  0
  148.2163  136.9049  156.2139 O   0  0  0  0  0  0  0  0  0  0  0  0
  148.9602  137.6395  154.1767 N   0  0  0  0  0  0  0  0  0  0  0  0
  149.3292  138.9820  154.4568 C   0  0  0  0  0  0  0  0  0  0  0  0
  150.5266  139.3377  154.9484 N   0  0  0  0  0  0  0  0  0  0  0  0
  150.6278  140.7113  155.1266 N   0  0  0  0  0  0  0  0  0  0  0  0
  149.5042  141.3365  154.7639 C   0  0  0  0  0  0  0  0  0  0  0  0
  148.2122  140.3084  154.1688 S   0  0  0  0  0  0  0  0  0  0  0  0
  145.2471  132.7999  151.9881 C   0  0  0  0  0  0  0  0  0  0  0  0
  144.9744  133.5581  149.2825 H   0  0  0  0  0  0  0  0  0  0  0  0
  143.2186  133.4330  149.2102 H   0  0  0  0  0  0  0  0  0  0  0  0
  144.1880  132.0016  149.5332 H   0  0  0  0  0  0  0  0  0  0  0  0
  143.1337  132.8418  151.6138 H   0  0  0  0  0  0  0  0  0  0  0  0
  144.6922  135.4105  151.0843 H   0  0  0  0  0  0  0  0  0  0  0  0
  142.9520  135.2363  151.0378 H   0  0  0  0  0  0  0  0  0  0  0  0
  143.7324  136.1822  153.2213 H   0  0  0  0  0  0  0  0  0  0  0  0
  142.8851  134.6688  153.4364 H   0  0  0  0  0  0  0  0  0  0  0  0
  145.9286  135.0371  153.4131 H   0  0  0  0  0  0  0  0  0  0  0  0
  144.9273  134.6799  154.8068 H   0  0  0  0  0  0  0  0  0  0  0  0
  145.9837  132.3948  155.2844 H   0  0  0  0  0  0  0  0  0  0  0  0
  146.3948  131.4174  153.8966 H   0  0  0  0  0  0  0  0  0  0  0  0
  148.4213  132.4740  154.1753 H   0  0  0  0  0  0  0  0  0  0  0  0
  147.6804  133.5717  153.0360 H   0  0  0  0  0  0  0  0  0  0  0  0
  146.8177  134.5481  155.5498 H   0  0  0  0  0  0  0  0  0  0  0  0
  148.4718  134.0573  155.8298 H   0  0  0  0  0  0  0  0  0  0  0  0
  148.4915  135.4792  153.4216 H   0  0  0  0  0  0  0  0  0  0  0  0
  149.1060  137.3418  153.2233 H   0  0  0  0  0  0  0  0  0  0  0  0
  149.4360  142.4109  154.8475 H   0  0  0  0  0  0  0  0  0  0  0  0
  145.3147  131.7280  151.8060 H   0  0  0  0  0  0  0  0  0  0  0  0
  146.1634  133.2435  151.5951 H   0  0  0  0  0  0  0  0  0  0  0  0
  144.3010  132.6375  153.7745 H   0  0  0  0  0  0  0  0  0  0  0  0
  1  2  1  0  0  0  0
  1 20  1  0  0  0  0
  1 21  1  0  0  0  0
  1 22  1  0  0  0  0
  2 19  1  0  0  0  0
  2  3  1  0  0  0  0
  2 23  1  0  0  0  0
  3  4  1  0  0  0  0
  3 24  1  0  0  0  0
  3 25  1  0  0  0  0
  4  5  1  0  0  0  0
  4 26  1  0  0  0  0
  4 27  1  0  0  0  0
  5  6  1  0  0  0  0
  5 28  1  0  0  0  0
  5 29  1  0  0  0  0
  6  7  1  0  0  0  0
  6 19  1  0  0  0  0
  6 41  1  0  0  0  0
  7  8  1  0  0  0  0
  7 30  1  0  0  0  0
  7 31  1  0  0  0  0
  8  9  1  0  0  0  0
  8 32  1  0  0  0  0
  8 33  1  0  0  0  0
  9 10  1  0  0  0  0
  9 34  1  0  0  0  0
  9 35  1  0  0  0  0
 10 11  1  0  0  0  0
 10 36  1  0  0  0  0
 11 12  2  0  0  0  0
 11 13  1  0  0  0  0
 13 14  1  0  0  0  0
 13 37  1  0  0  0  0
 14 18  1  0  0  0  0
 14 15  2  0  0  0  0
 15 16  1  0  0  0  0
 16 17  2  0  0  0  0
 17 18  1  0  0  0  0
 17 38  1  0  0  0  0
 19 39  1  0  0  0  0
 19 40  1  0  0  0  0
M  CHG  1   6   1
M  END
> <s_m_source_file>
AV-unprocessed.smi

> <i_m_source_file_index>
1802

> <i_lp_mmshare_version>
43012

> <i_f3d_flags>
0

> <s_epik_input>
W0NIM11bQ0BASF0xW0NIMl1bQ0gyXVtDSDJdTihbQ0gyXTEpW0NIMl1bQ0gyXVtDSDJdW05IXUMoPU8pW05IXWMybm5bY0hdczI=

> <s_epik_cmdline>
J2VwaWtfcHl0aG9uJywgJy1waCcsICc3LjAnLCAnLXRuJywgJzgnLCAnLW1hJywgJzIwMCcsICctbWV0YWxfYmluZGluZycsICctaW1hZScsICc8aW5maWxlLm1hZT4nLCAnLW9tYWUnLCAnPG91dGZpbGUubWFlPic=

> <r_lp_tautomer_probability>
1

> <r_epik_Ionization_Penalty>
0.00272894

> <r_epik_Ionization_Penalty_Charging>
0.000288442

> <r_epik_Ionization_Penalty_Neutral>
0.0024405

> <r_epik_State_Penalty>
-0

> <r_epik_Charging_Adjusted_Penalty>
0.000288442

> <i_epik_Tot_Q>
1

> <i_epik_Tot_abs_Q>
1

> <r_epik_Metal_State_Penalty>
0.350525

> <b_epik_Metal_Only>
0

> <s_lp_Force_Field>
OPLS_2005

> <r_lp_Energy>
15.5864

> <b_lp_Chiralities_Consistent>
1

> <s_lp_Variant>
AV-unprocessed.smi:1802-1

> <Gold.Version>
5.8.1

> <Gold.Id.Protein>
6NUR|6NUR_protein|mol2

> <Gold.PLP.Fitness>
40.8991

> <Gold.PLP.PLP>
-26.6820

> <Gold.PLP.part.hbond>
-3.9777

> <Gold.PLP.part.metal>
0.0000

> <Gold.PLP.part.buried>
-3.7201

> <Gold.PLP.part.nonpolar>
-18.2654

> <Gold.PLP.part.repulsive>
0.1820

> <Gold.PLP.ligand.clash>
0.0000

> <Gold.PLP.ligand.torsion>
1.2883

> <Gold.PLP.Chemscore.Hbond>
4.5649

> <Gold.PLP.Chemscore.CHOScore>
1.0000

> <Gold.PLP.Chemscore.Metal>
0.0000

> <Gold.Chemscore.Hbonds>
donor molecule, donor type, donor heavy atom, donor atom, acceptor molecule, acceptor atom, score
      L1  H     6    41       P1 10957  1.66
      L1  H    10    36       P1  7948  1.00
      L1  H    13    37       P1  7948  1.00
      P1  H  7989  7998       L1    16  0.46
      L1  C    17    38       P1  8028  1.00

> <Gold.PLP.Chemscore.Internal.Correction>
0.0989

> <Gold.Rescore>
     Score         DG    S(hbond)    S(metal)    S(lipo)     H(rot)  DE(clash)    DE(int)     intcor
     14.76     -16.08       2.89        0.00      51.50       1.98       0.00       1.32       ----

> <Gold.Chemscore.Fitness>
14.7630

> <Gold.Chemscore.DG>
-16.0823

> <Gold.Chemscore.ZeroCoef>
-5.4800

> <Gold.Chemscore.Hbond>
2.8873

> <Gold.Chemscore.Metal>
0.0000

> <Gold.Chemscore.Lipo>
51.5010

> <Gold.Chemscore.Internal_Hbond>
0.0000

> <Gold.Chemscore.DEClash>
0.0000

> <Gold.Chemscore.DEInternal>
1.3193

> <Gold.Chemscore.Rot>
1.9793

> <Gold.Chemscore.Internal.Correction>
   9.000000E+99

> <Gold.Chemscore.Hbonds>
donor molecule, donor type, donor heavy atom, donor atom, acceptor molecule, acceptor atom, score
      L1  H     6    41       P1 10957  0.50
      L1  H    10    36       P1  7948  0.95
      L1  H    13    37       P1  7948  0.98
      P1  H  7989  7998       L1    16  0.01

> <Gold.Chemscore.Hbond.Weighted>
-9.6436

> <Gold.Chemscore.Metal.Weighted>
-0.0000

> <Gold.Chemscore.Lipo.Weighted>
-6.0256

> <Gold.Chemscore.Internal_Hbond.Weighted>
0.0000

> <Gold.Chemscore.DEClash.Weighted>
0.0000

> <Gold.Chemscore.DEInternal.Weighted>
1.3193

> <Gold.Chemscore.Rot.Weighted>
5.0670

> <Gold.Chemscore.Internal.Correction.Weighted>
   9.000000E+99

> <Gold.Protein.RotatedTorsions>
[ 6907 6896 6895 6894 ] final  -92.18 input  -60.11 | X-H torsion
[ 7974 7965 7964 7962 ] final -148.45 input  175.53 | X-H torsion
[ 8008 7997 7996 7995 ] final   95.41 input   59.86 | X-H torsion
[ 10167 10162 10161 10158 ] final -112.81 input  -65.29 | X-H torsion
[ 10718 10713 10712 10709 ] final   60.63 input   66.30 | X-H torsion
[ 10763 10752 10751 10750 ] final  -42.88 input  -60.55 | X-H torsion
[ 11005 11000 10999 10996 ] final  -51.48 input  -57.11 | X-H torsion

> <Gold.Protein.ActiveResidues>
 VAL166  LYS551  ARG553  GLY616  TRP617  ASP618  TYR619  PRO620  LYS621  CYS622 
 ASP623  PHE694  ASN695  SER759  ASP760  ASP761  ALA762  ILE779  LEU786  VAL792 
 PHE793  MET794  SER795  GLU796  ALA797  LYS798  CYS799  TRP800  GLU811  SER814 

> <Gold.Protein.RotatedAtoms>
  150.6902  134.2162  159.4378 H   0  0  0  0  0  0  0  0  0  0  0  0  # atno 6907 bound_to 6896
  152.0121  134.9868  160.0577 H   0  0  0  0  0  0  0  0  0  0  0  0  # atno 6908 bound_to 6896
  152.1479  133.4468  159.4835 H   0  0  0  0  0  0  0  0  0  0  0  0  # atno 6909 bound_to 6896
  144.8028  140.5194  143.5695 H   0  0  0  0  0  0  0  0  0  0  0  0  # atno 7974 bound_to 7965
  156.0685  140.3287  155.7547 H   0  0  0  0  0  0  0  0  0  0  0  0  # atno 8008 bound_to 7997
  155.5342  140.0596  157.2900 H   0  0  0  0  0  0  0  0  0  0  0  0  # atno 8009 bound_to 7997
  154.4518  140.1922  156.0515 H   0  0  0  0  0  0  0  0  0  0  0  0  # atno 8010 bound_to 7997
  140.1187  143.4463  152.1705 H   0  0  0  0  0  0  0  0  0  0  0  0  # atno 10167 bound_to 10162
  157.5768  130.8950  149.9360 H   0  0  0  0  0  0  0  0  0  0  0  0  # atno 10718 bound_to 10713
  153.9864  135.6710  153.4752 H   0  0  0  0  0  0  0  0  0  0  0  0  # atno 10763 bound_to 10752
  153.0725  135.4966  154.8331 H   0  0  0  0  0  0  0  0  0  0  0  0  # atno 10764 bound_to 10752
  154.7135  135.3102  154.9123 H   0  0  0  0  0  0  0  0  0  0  0  0  # atno 10765 bound_to 10752
  141.0873  133.6640  156.3883 H   0  0  0  0  0  0  0  0  0  0  0  0  # atno 11005 bound_to 11000
  145.5510  139.1477  143.3394 LP  0  0  0  0  0  0  0  0  0  0  0  0  # atno 17320 bound_to 7965
  146.2313  140.5648  142.8974 LP  0  0  0  0  0  0  0  0  0  0  0  0  # atno 17321 bound_to 7965
  139.5580  144.7386  151.4237 LP  0  0  0  0  0  0  0  0  0  0  0  0  # atno 17342 bound_to 10162
  140.6884  143.7919  150.7220 LP  0  0  0  0  0  0  0  0  0  0  0  0  # atno 17343 bound_to 10162
  156.0812  130.3673  150.0576 LP  0  0  0  0  0  0  0  0  0  0  0  0  # atno 17370 bound_to 10713
  156.8721  130.9528  151.3608 LP  0  0  0  0  0  0  0  0  0  0  0  0  # atno 17371 bound_to 10713
  140.5334  134.6191  157.5357 LP  0  0  0  0  0  0  0  0  0  0  0  0  # atno 17394 bound_to 11000
  139.9693  134.7320  156.0074 LP  0  0  0  0  0  0  0  0  0  0  0  0  # atno 17395 bound_to 11000

$$$$
