AV-unprocessed.smi:1524|AV-procd|sdf|6139|dock3
  -GOLD-   22720 6283D 1   1.00000     0.00000
 Structure written by MMmdl.
 35 36  0  0  0  0  0  0  0  0  1 V2000
  150.2489  136.0469  158.5896 O   0  0  0  0  0  0  0  0  0  0  0  0
  149.3723  136.8951  158.7402 C   0  0  0  0  0  0  0  0  0  0  0  0
  148.3668  136.8234  159.6367 N   0  0  0  0  0  0  0  0  0  0  0  0
  148.0944  135.8327  160.5936 C   0  0  0  0  0  0  0  0  0  0  0  0
  148.0355  134.5000  160.3364 C   0  0  0  0  0  0  0  0  0  0  0  0
  147.7571  133.5257  161.3783 C   0  0  0  0  0  0  0  0  0  0  0  0
  147.6127  132.0445  161.0652 C   0  0  0  0  0  0  0  0  0  0  0  0
  147.7246  131.8135  159.7565 F   0  0  0  0  0  0  0  0  0  0  0  0
  148.5425  131.3283  161.6977 F   0  0  0  0  0  0  0  0  0  0  0  0
  146.4163  131.6130  161.4620 F   0  0  0  0  0  0  0  0  0  0  0  0
  147.5507  134.0129  162.6160 C   0  0  0  0  0  0  0  0  0  0  0  0
  147.6334  135.3795  162.8926 N   0  0  0  0  0  0  0  0  0  0  0  0
  147.8960  136.3278  161.9655 C   0  0  0  0  0  0  0  0  0  0  0  0
  147.9556  137.5139  162.2887 O   0  0  0  0  0  0  0  0  0  0  0  0
  149.3326  137.9925  157.9624 N   0  0  0  0  0  0  0  0  0  0  0  0
  150.2566  138.3865  156.8960 C   0  0  0  0  0  0  0  0  0  0  0  0
  150.6395  139.8733  157.0149 C   0  0  0  0  0  0  0  0  0  0  0  0
  151.4640  140.3222  155.7973 C   0  0  0  0  0  0  0  0  0  0  0  0
  150.7420  140.0663  154.5975 O   0  0  0  0  0  0  0  0  0  0  0  0
  150.4805  138.6821  154.3934 C   0  0  0  0  0  0  0  0  0  0  0  0
  149.5981  138.1413  155.5301 C   0  0  0  0  0  0  0  0  0  0  0  0
  147.4845  135.6639  163.8501 H   0  0  0  0  0  0  0  0  0  0  0  0
  147.6787  137.5608  159.5912 H   0  0  0  0  0  0  0  0  0  0  0  0
  148.2164  134.1189  159.3446 H   0  0  0  0  0  0  0  0  0  0  0  0
  147.3058  133.4064  163.4755 H   0  0  0  0  0  0  0  0  0  0  0  0
  148.5531  138.6166  158.1133 H   0  0  0  0  0  0  0  0  0  0  0  0
  151.1606  137.7765  156.9448 H   0  0  0  0  0  0  0  0  0  0  0  0
  149.7382  140.4844  157.0807 H   0  0  0  0  0  0  0  0  0  0  0  0
  151.2057  140.0541  157.9292 H   0  0  0  0  0  0  0  0  0  0  0  0
  151.6739  141.3900  155.8605 H   0  0  0  0  0  0  0  0  0  0  0  0
  152.4270  139.8097  155.7702 H   0  0  0  0  0  0  0  0  0  0  0  0
  149.9748  138.5573  153.4358 H   0  0  0  0  0  0  0  0  0  0  0  0
  151.4188  138.1287  154.3322 H   0  0  0  0  0  0  0  0  0  0  0  0
  149.4146  137.0761  155.3847 H   0  0  0  0  0  0  0  0  0  0  0  0
  148.6255  138.6342  155.4918 H   0  0  0  0  0  0  0  0  0  0  0  0
  1  2  2  0  0  0  0
  2  3  1  0  0  0  0
  2 15  1  0  0  0  0
  3  4  1  0  0  0  0
  3 23  1  0  0  0  0
  4 13  1  0  0  0  0
  4  5  2  0  0  0  0
  5  6  1  0  0  0  0
  5 24  1  0  0  0  0
  6  7  1  0  0  0  0
  6 11  2  0  0  0  0
  7  8  1  0  0  0  0
  7  9  1  0  0  0  0
  7 10  1  0  0  0  0
 11 12  1  0  0  0  0
 11 25  1  0  0  0  0
 12 22  1  0  0  0  0
 12 13  1  0  0  0  0
 13 14  2  0  0  0  0
 15 16  1  0  0  0  0
 15 26  1  0  0  0  0
 16 21  1  0  0  0  0
 16 17  1  0  0  0  0
 16 27  1  0  0  0  0
 17 18  1  0  0  0  0
 17 28  1  0  0  0  0
 17 29  1  0  0  0  0
 18 19  1  0  0  0  0
 18 30  1  0  0  0  0
 18 31  1  0  0  0  0
 19 20  1  0  0  0  0
 20 21  1  0  0  0  0
 20 32  1  0  0  0  0
 20 33  1  0  0  0  0
 21 34  1  0  0  0  0
 21 35  1  0  0  0  0
M  END
> <s_m_source_file>
AV-unprocessed.smi

> <i_m_source_file_index>
1524

> <i_lp_mmshare_version>
43012

> <i_f3d_flags>
0

> <s_epik_input>
W0NIMl0xW0NIMl1PW0NIMl1bQ0gyXVtDSF0xW05IXUMoPU8pW05IXWMyW2NIXWMoQyhGKShGKUYpW2NIXVtuSF1jMj1P

> <s_epik_cmdline>
J2VwaWtfcHl0aG9uJywgJy1waCcsICc3LjAnLCAnLXRuJywgJzgnLCAnLW1hJywgJzIwMCcsICctbWV0YWxfYmluZGluZycsICctaW1hZScsICc8aW5maWxlLm1hZT4nLCAnLW9tYWUnLCAnPG91dGZpbGUubWFlPic=

> <r_lp_tautomer_probability>
1

> <r_epik_Ionization_Penalty>
0.00380781

> <r_epik_Ionization_Penalty_Charging>
0.00378827

> <r_epik_Ionization_Penalty_Neutral>
1.95401e-05

> <r_epik_State_Penalty>
-0

> <r_epik_Charging_Adjusted_Penalty>
0.00378827

> <i_epik_Tot_Q>
0

> <i_epik_Tot_abs_Q>
0

> <r_epik_Metal_State_Penalty>
0.371078

> <b_epik_Metal_Only>
0

> <s_lp_Force_Field>
OPLS_2005

> <r_lp_Energy>
30.03

> <b_lp_Chiralities_Consistent>
1

> <s_lp_Variant>
AV-unprocessed.smi:1524-1

> <Gold.Version>
5.8.1

> <Gold.Id.Protein>
6NUR|6NUR_protein|mol2

> <Gold.PLP.Fitness>
43.6116

> <Gold.PLP.PLP>
-34.7129

> <Gold.PLP.part.hbond>
-4.0000

> <Gold.PLP.part.metal>
0.0000

> <Gold.PLP.part.buried>
-5.5322

> <Gold.PLP.part.nonpolar>
-25.0110

> <Gold.PLP.part.repulsive>
0.4672

> <Gold.PLP.ligand.clash>
0.0000

> <Gold.PLP.ligand.torsion>
0.7023

> <Gold.PLP.Chemscore.Hbond>
3.4240

> <Gold.PLP.Chemscore.CHOScore>
0.0000

> <Gold.PLP.Chemscore.Metal>
0.0000

> <Gold.Chemscore.Hbonds>
donor molecule, donor type, donor heavy atom, donor atom, acceptor molecule, acceptor atom, score
      P1  H  6896  6909       L1     1  1.00
      P1  H  6931  6943       L1    14  0.45
      P1  H  6934  6947       L1    14  0.26
      P1  H  7989  7998       L1    19  1.00

> <Gold.PLP.Chemscore.Internal.Correction>
0.0313

> <Gold.Rescore>
     Score         DG    S(hbond)    S(metal)    S(lipo)     H(rot)  DE(clash)    DE(int)     intcor
     20.41     -21.17       3.61        0.00      53.02       1.00       0.00       0.76       ----

> <Gold.Chemscore.Fitness>
20.4065

> <Gold.Chemscore.DG>
-21.1687

> <Gold.Chemscore.ZeroCoef>
-5.4800

> <Gold.Chemscore.Hbond>
3.6064

> <Gold.Chemscore.Metal>
0.0000

> <Gold.Chemscore.Lipo>
53.0203

> <Gold.Chemscore.Internal_Hbond>
0.0000

> <Gold.Chemscore.DEClash>
0.0000

> <Gold.Chemscore.DEInternal>
0.7622

> <Gold.Chemscore.Rot>
1.0000

> <Gold.Chemscore.Internal.Correction>
   9.000000E+99

> <Gold.Chemscore.Hbonds>
donor molecule, donor type, donor heavy atom, donor atom, acceptor molecule, acceptor atom, score
      P1  H  6896  6909       L1     1  0.95
      P1  H  6931  6943       L1    14  0.44
      P1  H  6934  6947       L1    14  0.25
      P1  H  7989  7998       L1    19  0.33

> <Gold.Chemscore.Hbond.Weighted>
-12.0453

> <Gold.Chemscore.Metal.Weighted>
-0.0000

> <Gold.Chemscore.Lipo.Weighted>
-6.2034

> <Gold.Chemscore.Internal_Hbond.Weighted>
0.0000

> <Gold.Chemscore.DEClash.Weighted>
0.0000

> <Gold.Chemscore.DEInternal.Weighted>
0.7622

> <Gold.Chemscore.Rot.Weighted>
2.5600

> <Gold.Chemscore.Internal.Correction.Weighted>
   9.000000E+99

> <Gold.Protein.RotatedTorsions>
[ 6907 6896 6895 6894 ] final   70.59 input  -60.11 | X-H torsion
[ 7974 7965 7964 7962 ] final  156.90 input  175.53 | X-H torsion
[ 8008 7997 7996 7995 ] final   99.32 input   59.86 | X-H torsion
[ 10167 10162 10161 10158 ] final   65.86 input  -65.29 | X-H torsion
[ 10718 10713 10712 10709 ] final  100.97 input   66.30 | X-H torsion
[ 10763 10752 10751 10750 ] final -133.46 input  -60.55 | X-H torsion
[ 11005 11000 10999 10996 ] final  127.98 input  -57.11 | X-H torsion

> <Gold.Protein.ActiveResidues>
 VAL166  LYS551  ARG553  GLY616  TRP617  ASP618  TYR619  PRO620  LYS621  CYS622 
 ASP623  PHE694  ASN695  SER759  ASP760  ASP761  ALA762  ILE779  LEU786  VAL792 
 PHE793  MET794  SER795  GLU796  ALA797  LYS798  CYS799  TRP800  GLU811  SER814 

> <Gold.Protein.RotatedAtoms>
  152.4759  134.4845  159.9675 H   0  0  0  0  0  0  0  0  0  0  0  0  # atno 6907 bound_to 6896
  151.4862  133.3529  159.2854 H   0  0  0  0  0  0  0  0  0  0  0  0  # atno 6908 bound_to 6896
  150.8797  134.8213  159.7277 H   0  0  0  0  0  0  0  0  0  0  0  0  # atno 6909 bound_to 6896
  144.7935  139.7266  143.6211 H   0  0  0  0  0  0  0  0  0  0  0  0  # atno 7974 bound_to 7965
  156.1093  140.3230  155.8050 H   0  0  0  0  0  0  0  0  0  0  0  0  # atno 8008 bound_to 7997
  155.4700  140.0546  157.2998 H   0  0  0  0  0  0  0  0  0  0  0  0  # atno 8009 bound_to 7997
  154.4749  140.2028  155.9917 H   0  0  0  0  0  0  0  0  0  0  0  0  # atno 8010 bound_to 7997
  140.1067  144.4855  150.7003 H   0  0  0  0  0  0  0  0  0  0  0  0  # atno 10167 bound_to 10162
  157.6841  131.0713  150.5182 H   0  0  0  0  0  0  0  0  0  0  0  0  # atno 10718 bound_to 10713
  154.8732  135.3765  154.4576 H   0  0  0  0  0  0  0  0  0  0  0  0  # atno 10763 bound_to 10752
  153.5247  135.7028  153.5718 H   0  0  0  0  0  0  0  0  0  0  0  0  # atno 10764 bound_to 10752
  153.3949  135.3963  155.1914 H   0  0  0  0  0  0  0  0  0  0  0  0  # atno 10765 bound_to 10752
  139.9536  134.9617  156.8935 H   0  0  0  0  0  0  0  0  0  0  0  0  # atno 11005 bound_to 11000
  146.2196  139.5611  142.9627 LP  0  0  0  0  0  0  0  0  0  0  0  0  # atno 17320 bound_to 7965
  145.5732  141.0391  143.2163 LP  0  0  0  0  0  0  0  0  0  0  0  0  # atno 17321 bound_to 7965
  140.6948  143.2397  151.5031 LP  0  0  0  0  0  0  0  0  0  0  0  0  # atno 17342 bound_to 10162
  139.5641  144.2084  152.1738 LP  0  0  0  0  0  0  0  0  0  0  0  0  # atno 17343 bound_to 10162
  156.5496  130.4228  149.6114 LP  0  0  0  0  0  0  0  0  0  0  0  0  # atno 17370 bound_to 10713
  156.2914  130.7126  151.1976 LP  0  0  0  0  0  0  0  0  0  0  0  0  # atno 17371 bound_to 10713
  140.5661  134.0488  155.7414 LP  0  0  0  0  0  0  0  0  0  0  0  0  # atno 17394 bound_to 11000
  141.1204  133.9471  157.2741 LP  0  0  0  0  0  0  0  0  0  0  0  0  # atno 17395 bound_to 11000

$$$$
