AV-unprocessed.smi:1644|AV-procd|sdf|6592|dock9
  -GOLD-   22720 7293D 1   1.00000     0.00000
 Structure written by MMmdl.
 48 50  0  0  0  0  0  0  0  0  2 V2000
  147.2217  131.5439  159.7568 C   0  0  0  0  0  0  0  0  0  0  0  0
  148.3319  131.3511  158.7182 C   0  0  0  0  0  0  0  0  0  0  0  0
  148.2016  132.3294  157.5306 C   0  0  0  0  0  0  0  0  0  0  0  0
  149.4232  132.4203  156.5836 C   0  0  2  0  0  0  0  0  0  0  0  0
  150.5904  132.9472  157.2594 N   0  5  0  0  0  0  0  0  0  0  0  0
  151.0195  134.0387  156.5828 C   0  0  0  0  0  0  0  0  0  0  0  0
  151.9799  134.7519  156.8719 O   0  0  0  0  0  0  0  0  0  0  0  0
  150.2380  134.2855  155.5127 N   0  0  0  0  0  0  0  0  0  0  0  0
  150.4006  135.4149  154.5919 C   0  0  0  0  0  0  0  0  0  0  0  0
  150.3568  136.7646  155.3373 C   0  0  2  0  0  0  0  0  0  0  0  0
  149.0193  137.2256  155.3631 O   0  0  0  0  0  0  0  0  0  0  0  0
  151.2244  137.8297  154.6405 C   0  0  0  0  0  0  0  0  0  0  0  0
  150.8460  139.1816  155.0107 N   0  0  0  0  0  0  0  0  0  0  0  0
  150.0998  140.0449  154.2952 C   0  0  0  0  0  0  0  0  0  0  0  0
  149.8794  141.2444  154.8264 N   0  0  0  0  0  0  0  0  0  0  0  0
  150.5595  141.1456  156.0284 C   0  0  0  0  0  0  0  0  0  0  0  0
  150.7182  142.0838  157.0720 C   0  0  0  0  0  0  0  0  0  0  0  0
  151.4632  141.7616  158.2291 C   0  0  0  0  0  0  0  0  0  0  0  0
  151.6033  142.7982  159.3300 C   0  0  0  0  0  0  0  0  0  0  0  0
  152.0668  140.4842  158.3530 C   0  0  0  0  0  0  0  0  0  0  0  0
  152.8668  140.1127  159.5889 C   0  0  0  0  0  0  0  0  0  0  0  0
  151.9231  139.5376  157.3171 C   0  0  0  0  0  0  0  0  0  0  0  0
  151.1758  139.8686  156.1732 C   0  0  0  0  0  0  0  0  0  0  0  0
  149.2491  133.3906  155.4333 C   0  0  0  0  0  0  0  0  0  0  0  0
  148.3394  133.3403  154.6049 O   0  0  0  0  0  0  0  0  0  0  0  0
  147.3386  130.8433  160.5840 H   0  0  0  0  0  0  0  0  0  0  0  0
  146.2381  131.3780  159.3167 H   0  0  0  0  0  0  0  0  0  0  0  0
  147.2396  132.5531  160.1692 H   0  0  0  0  0  0  0  0  0  0  0  0
  149.2965  131.4780  159.2098 H   0  0  0  0  0  0  0  0  0  0  0  0
  148.3036  130.3225  158.3578 H   0  0  0  0  0  0  0  0  0  0  0  0
  147.3243  132.0573  156.9421 H   0  0  0  0  0  0  0  0  0  0  0  0
  147.9915  133.3261  157.9206 H   0  0  0  0  0  0  0  0  0  0  0  0
  149.6184  131.4327  156.1636 H   0  0  0  0  0  0  0  0  0  0  0  0
  151.3632  135.3024  154.0903 H   0  0  0  0  0  0  0  0  0  0  0  0
  149.6602  135.3848  153.7903 H   0  0  0  0  0  0  0  0  0  0  0  0
  150.7047  136.6408  156.3639 H   0  0  0  0  0  0  0  0  0  0  0  0
  148.5382  136.7079  155.9910 H   0  0  0  0  0  0  0  0  0  0  0  0
  152.2733  137.6923  154.9066 H   0  0  0  0  0  0  0  0  0  0  0  0
  151.1606  137.7275  153.5560 H   0  0  0  0  0  0  0  0  0  0  0  0
  149.6947  139.7768  153.3302 H   0  0  0  0  0  0  0  0  0  0  0  0
  150.2585  143.0567  156.9768 H   0  0  0  0  0  0  0  0  0  0  0  0
  152.6540  143.0289  159.5068 H   0  0  0  0  0  0  0  0  0  0  0  0
  151.1680  142.4290  160.2588 H   0  0  0  0  0  0  0  0  0  0  0  0
  151.0965  143.7279  159.0688 H   0  0  0  0  0  0  0  0  0  0  0  0
  153.2661  139.1007  159.5148 H   0  0  0  0  0  0  0  0  0  0  0  0
  152.2381  140.1595  160.4783 H   0  0  0  0  0  0  0  0  0  0  0  0
  153.7069  140.7946  159.7212 H   0  0  0  0  0  0  0  0  0  0  0  0
  152.3768  138.5605  157.3973 H   0  0  0  0  0  0  0  0  0  0  0  0
  1  2  1  0  0  0  0
  1 26  1  0  0  0  0
  1 27  1  0  0  0  0
  1 28  1  0  0  0  0
  2  3  1  0  0  0  0
  2 29  1  0  0  0  0
  2 30  1  0  0  0  0
  3  4  1  0  0  0  0
  3 31  1  0  0  0  0
  3 32  1  0  0  0  0
  4 24  1  0  0  0  0
  4  5  1  0  0  0  0
  4 33  1  0  0  0  0
  5  6  1  0  0  0  0
  6  7  2  0  0  0  0
  6  8  1  0  0  0  0
  8  9  1  0  0  0  0
  8 24  1  0  0  0  0
  9 10  1  0  0  0  0
  9 34  1  0  0  0  0
  9 35  1  0  0  0  0
 10 11  1  0  0  0  0
 10 12  1  0  0  0  0
 10 36  1  0  0  0  0
 11 37  1  0  0  0  0
 12 13  1  0  0  0  0
 12 38  1  0  0  0  0
 12 39  1  0  0  0  0
 13 23  1  0  0  0  0
 13 14  1  0  0  0  0
 14 15  2  0  0  0  0
 14 40  1  0  0  0  0
 15 16  1  0  0  0  0
 16 23  2  0  0  0  0
 16 17  1  0  0  0  0
 17 18  2  0  0  0  0
 17 41  1  0  0  0  0
 18 19  1  0  0  0  0
 18 20  1  0  0  0  0
 19 42  1  0  0  0  0
 19 43  1  0  0  0  0
 19 44  1  0  0  0  0
 20 21  1  0  0  0  0
 20 22  2  0  0  0  0
 21 45  1  0  0  0  0
 21 46  1  0  0  0  0
 21 47  1  0  0  0  0
 22 23  1  0  0  0  0
 22 48  1  0  0  0  0
 24 25  2  0  0  0  0
M  CHG  1   5  -1
M  END
> <s_m_source_file>
AV-unprocessed.smi

> <i_m_source_file_index>
1644

> <i_lp_mmshare_version>
43012

> <i_f3d_flags>
0

> <s_epik_input>
W0NIM11bQ0gyXVtDSDJdW0NAQEhdMVtOSF1DKD1PKU4oQzE9TylbQ0gyXVtDQEhdKFtPSF0pW0NIMl1uKFtjSF1uMiljKGMyMylbY0hdYyhbQ0gzXSljKFtjSF0zKVtDSDNd

> <s_epik_cmdline>
J2VwaWtfcHl0aG9uJywgJy1waCcsICc3LjAnLCAnLXRuJywgJzgnLCAnLW1hJywgJzIwMCcsICctbWV0YWxfYmluZGluZycsICctaW1hZScsICc8aW5maWxlLm1hZT4nLCAnLW9tYWUnLCAnPG91dGZpbGUubWFlPic=

> <r_lp_tautomer_probability>
1

> <r_epik_Ionization_Penalty>
5.95212

> <r_epik_Ionization_Penalty_Charging>
5.84419

> <r_epik_Ionization_Penalty_Neutral>
0.107924

> <r_epik_State_Penalty>
5.94088

> <r_epik_Charging_Adjusted_Penalty>
11.7851

> <i_epik_Tot_Q>
-1

> <i_epik_Tot_abs_Q>
1

> <r_epik_Metal_State_Penalty>
1.99095

> <b_epik_Metal_Only>
1

> <s_lp_Force_Field>
OPLS_2005

> <r_lp_Energy>
19.2974

> <b_lp_Chiralities_Consistent>
1

> <s_lp_Variant>
AV-unprocessed.smi:1644-9

> <Gold.Version>
5.8.1

> <Gold.Id.Protein>
6NUR|6NUR_protein|mol2

> <Gold.PLP.Fitness>
49.0037

> <Gold.PLP.PLP>
-38.7371

> <Gold.PLP.part.hbond>
-3.2875

> <Gold.PLP.part.metal>
0.0000

> <Gold.PLP.part.buried>
-1.4599

> <Gold.PLP.part.nonpolar>
-34.2918

> <Gold.PLP.part.repulsive>
0.1611

> <Gold.PLP.ligand.clash>
0.0000

> <Gold.PLP.ligand.torsion>
0.8995

> <Gold.PLP.Chemscore.Hbond>
2.9920

> <Gold.PLP.Chemscore.CHOScore>
1.0000

> <Gold.PLP.Chemscore.Metal>
0.0000

> <Gold.Chemscore.Hbonds>
donor molecule, donor type, donor heavy atom, donor atom, acceptor molecule, acceptor atom, score
      P1  H  6896  6908       L1     5  1.72
      P1  H 10752 10764       L1     7  0.53
      L1  C    14    40       P1  7957  1.00

> <Gold.PLP.Chemscore.Internal.Correction>
0.0895

> <Gold.Rescore>
     Score         DG    S(hbond)    S(metal)    S(lipo)     H(rot)  DE(clash)    DE(int)     intcor
     14.53     -15.69       1.77        0.00      94.63       2.65       0.21       0.95       ----

> <Gold.Chemscore.Fitness>
14.5273

> <Gold.Chemscore.DG>
-15.6877

> <Gold.Chemscore.ZeroCoef>
-5.4800

> <Gold.Chemscore.Hbond>
1.7713

> <Gold.Chemscore.Metal>
0.0000

> <Gold.Chemscore.Lipo>
94.6339

> <Gold.Chemscore.Internal_Hbond>
0.0000

> <Gold.Chemscore.DEClash>
0.2133

> <Gold.Chemscore.DEInternal>
0.9472

> <Gold.Chemscore.Rot>
2.6486

> <Gold.Chemscore.Internal.Correction>
   9.000000E+99

> <Gold.Chemscore.Hbonds>
donor molecule, donor type, donor heavy atom, donor atom, acceptor molecule, acceptor atom, score
      P1  H  6896  6908       L1     5  0.24
      P1  H 10752 10764       L1     7  0.48

> <Gold.Chemscore.Hbond.Weighted>
-5.9160

> <Gold.Chemscore.Metal.Weighted>
-0.0000

> <Gold.Chemscore.Lipo.Weighted>
-11.0722

> <Gold.Chemscore.Internal_Hbond.Weighted>
0.0000

> <Gold.Chemscore.DEClash.Weighted>
0.2133

> <Gold.Chemscore.DEInternal.Weighted>
0.9472

> <Gold.Chemscore.Rot.Weighted>
6.7804

> <Gold.Chemscore.Internal.Correction.Weighted>
   9.000000E+99

> <Gold.Protein.RotatedTorsions>
[ 6907 6896 6895 6894 ] final   88.65 input  -60.11 | X-H torsion
[ 7974 7965 7964 7962 ] final   23.05 input  175.53 | X-H torsion
[ 8008 7997 7996 7995 ] final -135.33 input   59.86 | X-H torsion
[ 10167 10162 10161 10158 ] final   -7.93 input  -65.29 | X-H torsion
[ 10718 10713 10712 10709 ] final   14.20 input   66.30 | X-H torsion
[ 10763 10752 10751 10750 ] final  -12.70 input  -60.55 | X-H torsion
[ 11005 11000 10999 10996 ] final -110.34 input  -57.11 | X-H torsion

> <Gold.Protein.ActiveResidues>
 VAL166  LYS551  ARG553  GLY616  TRP617  ASP618  TYR619  PRO620  LYS621  CYS622 
 ASP623  PHE694  ASN695  SER759  ASP760  ASP761  ALA762  ILE779  LEU786  VAL792 
 PHE793  MET794  SER795  GLU796  ALA797  LYS798  CYS799  TRP800  GLU811  SER814 

> <Gold.Protein.RotatedAtoms>
  152.5427  134.2088  159.8741 H   0  0  0  0  0  0  0  0  0  0  0  0  # atno 6907 bound_to 6896
  151.2072  133.4570  159.2605 H   0  0  0  0  0  0  0  0  0  0  0  0  # atno 6908 bound_to 6896
  151.0932  134.9941  159.8468 H   0  0  0  0  0  0  0  0  0  0  0  0  # atno 6909 bound_to 6896
  146.2002  139.7799  142.8767 H   0  0  0  0  0  0  0  0  0  0  0  0  # atno 7974 bound_to 7965
  155.3768  140.0491  157.3044 H   0  0  0  0  0  0  0  0  0  0  0  0  # atno 8008 bound_to 7997
  154.5102  140.2189  155.9133 H   0  0  0  0  0  0  0  0  0  0  0  0  # atno 8009 bound_to 7997
  156.1574  140.3123  155.8754 H   0  0  0  0  0  0  0  0  0  0  0  0  # atno 8010 bound_to 7997
  140.7044  143.6026  150.8783 H   0  0  0  0  0  0  0  0  0  0  0  0  # atno 10167 bound_to 10162
  157.0357  130.6211  149.5742 H   0  0  0  0  0  0  0  0  0  0  0  0  # atno 10718 bound_to 10713
  153.5023  135.7017  153.5825 H   0  0  0  0  0  0  0  0  0  0  0  0  # atno 10763 bound_to 10752
  153.3951  135.3886  155.1950 H   0  0  0  0  0  0  0  0  0  0  0  0  # atno 10764 bound_to 10752
  154.8710  135.3868  154.4495 H   0  0  0  0  0  0  0  0  0  0  0  0  # atno 10765 bound_to 10752
  141.0797  133.9240  157.2314 H   0  0  0  0  0  0  0  0  0  0  0  0  # atno 11005 bound_to 11000
  145.3511  141.0307  143.3338 LP  0  0  0  0  0  0  0  0  0  0  0  0  # atno 17320 bound_to 7965
  144.8666  139.5099  143.6787 LP  0  0  0  0  0  0  0  0  0  0  0  0  # atno 17321 bound_to 7965
  139.9750  143.6015  152.2961 LP  0  0  0  0  0  0  0  0  0  0  0  0  # atno 17342 bound_to 10162
  139.6615  144.7662  151.1954 LP  0  0  0  0  0  0  0  0  0  0  0  0  # atno 17343 bound_to 10162
  156.0054  130.5140  150.7813 LP  0  0  0  0  0  0  0  0  0  0  0  0  # atno 17370 bound_to 10713
  157.5143  131.0927  151.0159 LP  0  0  0  0  0  0  0  0  0  0  0  0  # atno 17371 bound_to 10713
  139.9611  135.0154  156.9262 LP  0  0  0  0  0  0  0  0  0  0  0  0  # atno 17394 bound_to 11000
  140.5495  134.0641  155.7365 LP  0  0  0  0  0  0  0  0  0  0  0  0  # atno 17395 bound_to 11000

$$$$
