AV-unprocessed.smi:1834|AV-procd|sdf|7472|dock4
  -GOLD-   22720 9163D 1   1.00000     0.00000
 Structure written by MMmdl.
 46 47  0  0  0  0  0  0  0  0  2 V2000
  146.5304  138.6409  152.3732 C   0  0  0  0  0  0  0  0  0  0  0  0
  147.5346  139.2099  153.3866 C   0  0  0  0  0  0  0  0  0  0  0  0
  148.5136  138.1957  153.8541 N   0  3  2  0  0  0  0  0  0  0  0  0
  148.0520  137.4999  155.0820 C   0  0  0  0  0  0  0  0  0  0  0  0
  149.0111  136.3634  155.4643 C   0  0  0  0  0  0  0  0  0  0  0  0
  150.4379  136.8930  155.6485 C   0  0  0  0  0  0  0  0  0  0  0  0
  150.9082  137.6368  154.3857 C   0  0  2  0  0  0  0  0  0  0  0  0
  152.3415  138.1785  154.5830 C   0  0  0  0  0  0  0  0  0  0  0  0
  152.5115  138.8914  155.8468 N   0  0  0  0  0  0  0  0  0  0  0  0
  152.1295  140.1551  156.0843 C   0  0  0  0  0  0  0  0  0  0  0  0
  151.6027  140.8733  155.2342 O   0  0  0  0  0  0  0  0  0  0  0  0
  152.4091  140.5181  157.3480 N   0  0  0  0  0  0  0  0  0  0  0  0
  152.2177  141.7235  157.9471 C   0  0  0  0  0  0  0  0  0  0  0  0
  151.4356  142.7712  157.5432 C   0  0  0  0  0  0  0  0  0  0  0  0
  151.6497  143.7363  158.5698 C   0  0  0  0  0  0  0  0  0  0  0  0
  151.0562  145.1092  158.6853 C   0  0  0  0  0  0  0  0  0  0  0  0
  152.4867  143.3089  159.5084 N   0  0  0  0  0  0  0  0  0  0  0  0
  152.8415  142.0630  159.1268 N   0  0  0  0  0  0  0  0  0  0  0  0
  153.7602  141.2897  159.9394 C   0  0  0  0  0  0  0  0  0  0  0  0
  149.8885  138.7403  154.0167 C   0  0  0  0  0  0  0  0  0  0  0  0
  145.7685  139.3830  152.1337 H   0  0  0  0  0  0  0  0  0  0  0  0
  146.0209  137.7635  152.7728 H   0  0  0  0  0  0  0  0  0  0  0  0
  147.0067  138.3575  151.4350 H   0  0  0  0  0  0  0  0  0  0  0  0
  148.0574  140.0715  152.9689 H   0  0  0  0  0  0  0  0  0  0  0  0
  146.9661  139.5792  154.2414 H   0  0  0  0  0  0  0  0  0  0  0  0
  147.9702  138.2171  155.9006 H   0  0  0  0  0  0  0  0  0  0  0  0
  147.0555  137.0862  154.9215 H   0  0  0  0  0  0  0  0  0  0  0  0
  148.6716  135.8825  156.3821 H   0  0  0  0  0  0  0  0  0  0  0  0
  149.0000  135.5953  154.6897 H   0  0  0  0  0  0  0  0  0  0  0  0
  150.4709  137.5629  156.5090 H   0  0  0  0  0  0  0  0  0  0  0  0
  151.1112  136.0650  155.8732 H   0  0  0  0  0  0  0  0  0  0  0  0
  150.9354  136.9164  153.5663 H   0  0  0  0  0  0  0  0  0  0  0  0
  153.0705  137.3711  154.4923 H   0  0  0  0  0  0  0  0  0  0  0  0
  152.5764  138.8839  153.7854 H   0  0  0  0  0  0  0  0  0  0  0  0
  152.9354  138.3751  156.6040 H   0  0  0  0  0  0  0  0  0  0  0  0
  152.8333  139.8121  157.9315 H   0  0  0  0  0  0  0  0  0  0  0  0
  150.8092  142.8552  156.6681 H   0  0  0  0  0  0  0  0  0  0  0  0
  150.3826  145.3184  157.8540 H   0  0  0  0  0  0  0  0  0  0  0  0
  151.8331  145.8742  158.6829 H   0  0  0  0  0  0  0  0  0  0  0  0
  150.4856  145.2143  159.6083 H   0  0  0  0  0  0  0  0  0  0  0  0
  154.5631  140.8966  159.3145 H   0  0  0  0  0  0  0  0  0  0  0  0
  153.2272  140.4581  160.4011 H   0  0  0  0  0  0  0  0  0  0  0  0
  154.1958  141.9110  160.7232 H   0  0  0  0  0  0  0  0  0  0  0  0
  150.1924  139.2116  153.0843 H   0  0  0  0  0  0  0  0  0  0  0  0
  149.8848  139.5210  154.7792 H   0  0  0  0  0  0  0  0  0  0  0  0
  148.5597  137.4902  153.1329 H   0  0  0  0  0  0  0  0  0  0  0  0
  1  2  1  0  0  0  0
  1 21  1  0  0  0  0
  1 22  1  0  0  0  0
  1 23  1  0  0  0  0
  2  3  1  0  0  0  0
  2 24  1  0  0  0  0
  2 25  1  0  0  0  0
  3 20  1  0  0  0  0
  3  4  1  0  0  0  0
  3 46  1  0  0  0  0
  4  5  1  0  0  0  0
  4 26  1  0  0  0  0
  4 27  1  0  0  0  0
  5  6  1  0  0  0  0
  5 28  1  0  0  0  0
  5 29  1  0  0  0  0
  6  7  1  0  0  0  0
  6 30  1  0  0  0  0
  6 31  1  0  0  0  0
  7  8  1  0  0  0  0
  7 20  1  0  0  0  0
  7 32  1  0  0  0  0
  8  9  1  0  0  0  0
  8 33  1  0  0  0  0
  8 34  1  0  0  0  0
  9 10  1  0  0  0  0
  9 35  1  0  0  0  0
 10 11  2  0  0  0  0
 10 12  1  0  0  0  0
 12 13  1  0  0  0  0
 12 36  1  0  0  0  0
 13 18  1  0  0  0  0
 13 14  2  0  0  0  0
 14 15  1  0  0  0  0
 14 37  1  0  0  0  0
 15 16  1  0  0  0  0
 15 17  2  0  0  0  0
 16 38  1  0  0  0  0
 16 39  1  0  0  0  0
 16 40  1  0  0  0  0
 17 18  1  0  0  0  0
 18 19  1  0  0  0  0
 19 41  1  0  0  0  0
 19 42  1  0  0  0  0
 19 43  1  0  0  0  0
 20 44  1  0  0  0  0
 20 45  1  0  0  0  0
M  CHG  1   3   1
M  END
> <s_m_source_file>
AV-unprocessed.smi

> <i_m_source_file_index>
1834

> <i_lp_mmshare_version>
43012

> <i_f3d_flags>
0

> <s_epik_input>
W0NIM11bQ0gyXU4xW0NIMl1bQ0gyXVtDSDJdW0NASF0oW0NIMl0xKVtDSDJdW05IXUMoPU8pW05IXWMyW2NIXWMoW0NIM10pbm4yW0NIM10=

> <s_epik_cmdline>
J2VwaWtfcHl0aG9uJywgJy1waCcsICc3LjAnLCAnLXRuJywgJzgnLCAnLW1hJywgJzIwMCcsICctbWV0YWxfYmluZGluZycsICctaW1hZScsICc8aW5maWxlLm1hZT4nLCAnLW9tYWUnLCAnPG91dGZpbGUubWFlPic=

> <r_lp_tautomer_probability>
1

> <r_epik_Ionization_Penalty>
0.000466842

> <r_epik_Ionization_Penalty_Charging>
0.000378984

> <r_epik_Ionization_Penalty_Neutral>
8.78572e-05

> <r_epik_State_Penalty>
0.000231434

> <r_epik_Charging_Adjusted_Penalty>
0.000610418

> <i_epik_Tot_Q>
1

> <i_epik_Tot_abs_Q>
1

> <r_epik_Metal_State_Penalty>
-0

> <b_epik_Metal_Only>
0

> <s_lp_Force_Field>
OPLS_2005

> <r_lp_Energy>
19.5344

> <b_lp_Chiralities_Consistent>
1

> <s_lp_Variant>
AV-unprocessed.smi:1834-4

> <Gold.Version>
5.8.1

> <Gold.Id.Protein>
6NUR|6NUR_protein|mol2

> <Gold.PLP.Fitness>
43.5929

> <Gold.PLP.PLP>
-36.9652

> <Gold.PLP.part.hbond>
-2.0000

> <Gold.PLP.part.metal>
0.0000

> <Gold.PLP.part.buried>
-4.0642

> <Gold.PLP.part.nonpolar>
-31.8152

> <Gold.PLP.part.repulsive>
0.2886

> <Gold.PLP.ligand.clash>
0.0000

> <Gold.PLP.ligand.torsion>
0.7604

> <Gold.PLP.Chemscore.Hbond>
2.7040

> <Gold.PLP.Chemscore.CHOScore>
0.0000

> <Gold.PLP.Chemscore.Metal>
0.0000

> <Gold.Chemscore.Hbonds>
donor molecule, donor type, donor heavy atom, donor atom, acceptor molecule, acceptor atom, score
      L1  H     3    46       P1  7948  2.00
      P1  H  7989  7998       L1    11  0.62

> <Gold.PLP.Chemscore.Internal.Correction>
0.0364

> <Gold.Rescore>
     Score         DG    S(hbond)    S(metal)    S(lipo)     H(rot)  DE(clash)    DE(int)     intcor
     15.97     -17.24       1.65        0.00      84.56       1.43       0.37       0.89       ----

> <Gold.Chemscore.Fitness>
15.9741

> <Gold.Chemscore.DG>
-17.2361

> <Gold.Chemscore.ZeroCoef>
-5.4800

> <Gold.Chemscore.Hbond>
1.6529

> <Gold.Chemscore.Metal>
0.0000

> <Gold.Chemscore.Lipo>
84.5614

> <Gold.Chemscore.Internal_Hbond>
0.0000

> <Gold.Chemscore.DEClash>
0.3736

> <Gold.Chemscore.DEInternal>
0.8884

> <Gold.Chemscore.Rot>
1.4291

> <Gold.Chemscore.Internal.Correction>
   9.000000E+99

> <Gold.Chemscore.Hbonds>
donor molecule, donor type, donor heavy atom, donor atom, acceptor molecule, acceptor atom, score
      L1  H     3    46       P1  7948  1.00
      P1  H  7989  7998       L1    11  0.62

> <Gold.Chemscore.Hbond.Weighted>
-5.5208

> <Gold.Chemscore.Metal.Weighted>
-0.0000

> <Gold.Chemscore.Lipo.Weighted>
-9.8937

> <Gold.Chemscore.Internal_Hbond.Weighted>
0.0000

> <Gold.Chemscore.DEClash.Weighted>
0.3736

> <Gold.Chemscore.DEInternal.Weighted>
0.8884

> <Gold.Chemscore.Rot.Weighted>
3.6584

> <Gold.Chemscore.Internal.Correction.Weighted>
   9.000000E+99

> <Gold.Protein.RotatedTorsions>
[ 6907 6896 6895 6894 ] final  157.91 input  -60.11 | X-H torsion
[ 7974 7965 7964 7962 ] final   56.87 input  175.53 | X-H torsion
[ 8008 7997 7996 7995 ] final   50.71 input   59.86 | X-H torsion
[ 10167 10162 10161 10158 ] final  145.58 input  -65.29 | X-H torsion
[ 10718 10713 10712 10709 ] final  119.06 input   66.30 | X-H torsion
[ 10763 10752 10751 10750 ] final  -23.20 input  -60.55 | X-H torsion
[ 11005 11000 10999 10996 ] final  148.23 input  -57.11 | X-H torsion

> <Gold.Protein.ActiveResidues>
 VAL166  LYS551  ARG553  GLY616  TRP617  ASP618  TYR619  PRO620  LYS621  CYS622 
 ASP623  PHE694  ASN695  SER759  ASP760  ASP761  ALA762  ILE779  LEU786  VAL792 
 PHE793  MET794  SER795  GLU796  ALA797  LYS798  CYS799  TRP800  GLU811  SER814 

> <Gold.Protein.RotatedAtoms>
  152.0082  133.3851  159.4208 H   0  0  0  0  0  0  0  0  0  0  0  0  # atno 6907 bound_to 6896
  150.6902  134.3759  159.5022 H   0  0  0  0  0  0  0  0  0  0  0  0  # atno 6908 bound_to 6896
  152.1516  134.8983  160.0598 H   0  0  0  0  0  0  0  0  0  0  0  0  # atno 6909 bound_to 6896
  145.9351  139.3841  143.0397 H   0  0  0  0  0  0  0  0  0  0  0  0  # atno 7974 bound_to 7965
  155.4233  140.3447  155.4273 H   0  0  0  0  0  0  0  0  0  0  0  0  # atno 8008 bound_to 7997
  156.1380  140.1533  156.8995 H   0  0  0  0  0  0  0  0  0  0  0  0  # atno 8009 bound_to 7997
  154.4948  140.0831  156.7652 H   0  0  0  0  0  0  0  0  0  0  0  0  # atno 8010 bound_to 7997
  139.4923  144.5891  151.6717 H   0  0  0  0  0  0  0  0  0  0  0  0  # atno 10167 bound_to 10162
  157.5987  131.1054  150.7844 H   0  0  0  0  0  0  0  0  0  0  0  0  # atno 10718 bound_to 10713
  153.6641  135.6975  153.5168 H   0  0  0  0  0  0  0  0  0  0  0  0  # atno 10763 bound_to 10752
  153.2608  135.4245  155.0892 H   0  0  0  0  0  0  0  0  0  0  0  0  # atno 10764 bound_to 10752
  154.8444  135.3554  154.6186 H   0  0  0  0  0  0  0  0  0  0  0  0  # atno 10765 bound_to 10752
  140.0942  134.9022  157.1698 H   0  0  0  0  0  0  0  0  0  0  0  0  # atno 11005 bound_to 11000
  145.8374  140.9599  143.0817 LP  0  0  0  0  0  0  0  0  0  0  0  0  # atno 17320 bound_to 7965
  144.6770  140.0240  143.7483 LP  0  0  0  0  0  0  0  0  0  0  0  0  # atno 17321 bound_to 7965
  140.5514  144.0419  150.6129 LP  0  0  0  0  0  0  0  0  0  0  0  0  # atno 17342 bound_to 10162
  140.3474  143.2983  152.0524 LP  0  0  0  0  0  0  0  0  0  0  0  0  # atno 17343 bound_to 10162
  156.8248  130.4996  149.5338 LP  0  0  0  0  0  0  0  0  0  0  0  0  # atno 17370 bound_to 10713
  156.1056  130.6001  150.9964 LP  0  0  0  0  0  0  0  0  0  0  0  0  # atno 17371 bound_to 10713
  140.3309  134.2811  155.7228 LP  0  0  0  0  0  0  0  0  0  0  0  0  # atno 17394 bound_to 11000
  141.2087  133.7770  157.0042 LP  0  0  0  0  0  0  0  0  0  0  0  0  # atno 17395 bound_to 11000

$$$$
