AV-unprocessed.smi:3116|AV-procd|sdf|11877|dock2
  -GOLD-   2272017263D 1   1.00000     0.00000
 Structure written by MMmdl.
 33 33  0  0  0  0  0  0  0  0  1 V2000
  146.6568  138.2544  154.4774 C   0  0  0  0  0  0  0  0  0  0  0  0
  147.2217  138.9819  153.2465 C   0  0  1  0  0  0  0  0  0  0  0  0
  148.6843  138.7865  153.1899 N   0  0  0  0  0  0  0  0  0  0  0  0
  149.4400  138.9565  154.4342 C   0  0  1  0  0  0  0  0  0  0  0  0
  150.6574  138.0063  154.4229 C   0  0  0  0  0  0  0  0  0  0  0  0
  149.8307  140.4560  154.5457 C   0  0  1  0  0  0  0  0  0  0  0  0
  148.6191  141.3931  154.3687 C   0  0  0  0  0  0  0  0  0  0  0  0
  150.5192  140.7591  155.7951 N   0  0  0  0  0  0  0  0  0  0  0  0
  150.2149  141.7374  156.7195 C   0  0  0  0  0  0  0  0  0  0  0  0
  151.1360  141.6532  157.7237 C   0  0  0  0  0  0  0  0  0  0  0  0
  151.9763  140.5781  157.3216 C   0  0  0  0  0  0  0  0  0  0  0  0
  151.6071  140.0463  156.1679 N   0  0  0  0  0  0  0  0  0  0  0  0
  146.4886  138.5268  151.9738 C   0  0  0  0  0  0  0  0  0  0  0  0
  145.1553  138.6006  151.9800 N   0  0  0  0  0  0  0  0  0  0  0  0
  147.1173  138.1345  150.9926 O   0  0  0  0  0  0  0  0  0  0  0  0
  145.5770  138.3865  154.5561 H   0  0  0  0  0  0  0  0  0  0  0  0
  147.0986  138.6413  155.3962 H   0  0  0  0  0  0  0  0  0  0  0  0
  146.8592  137.1830  154.4405 H   0  0  0  0  0  0  0  0  0  0  0  0
  147.0222  140.0439  153.3932 H   0  0  0  0  0  0  0  0  0  0  0  0
  148.9296  137.9077  152.7575 H   0  0  0  0  0  0  0  0  0  0  0  0
  148.8244  138.7155  155.3007 H   0  0  0  0  0  0  0  0  0  0  0  0
  151.2415  138.0884  155.3392 H   0  0  0  0  0  0  0  0  0  0  0  0
  151.3227  138.2236  153.5867 H   0  0  0  0  0  0  0  0  0  0  0  0
  150.3576  136.9616  154.3484 H   0  0  0  0  0  0  0  0  0  0  0  0
  150.5384  140.6819  153.7460 H   0  0  0  0  0  0  0  0  0  0  0  0
  148.1614  141.2737  153.3866 H   0  0  0  0  0  0  0  0  0  0  0  0
  148.9158  142.4380  154.4629 H   0  0  0  0  0  0  0  0  0  0  0  0
  147.8490  141.1974  155.1155 H   0  0  0  0  0  0  0  0  0  0  0  0
  149.3777  142.4065  156.5863 H   0  0  0  0  0  0  0  0  0  0  0  0
  151.1995  142.2663  158.6103 H   0  0  0  0  0  0  0  0  0  0  0  0
  152.8380  140.1715  157.8299 H   0  0  0  0  0  0  0  0  0  0  0  0
  144.6305  138.3096  151.1682 H   0  0  0  0  0  0  0  0  0  0  0  0
  144.6772  138.9446  152.8000 H   0  0  0  0  0  0  0  0  0  0  0  0
  1  2  1  0  0  0  0
  1 16  1  0  0  0  0
  1 17  1  0  0  0  0
  1 18  1  0  0  0  0
  2  3  1  0  0  0  0
  2 13  1  0  0  0  0
  2 19  1  0  0  0  0
  3  4  1  0  0  0  0
  3 20  1  0  0  0  0
  4  5  1  0  0  0  0
  4  6  1  0  0  0  0
  4 21  1  0  0  0  0
  5 22  1  0  0  0  0
  5 23  1  0  0  0  0
  5 24  1  0  0  0  0
  6  7  1  0  0  0  0
  6  8  1  0  0  0  0
  6 25  1  0  0  0  0
  7 26  1  0  0  0  0
  7 27  1  0  0  0  0
  7 28  1  0  0  0  0
  8 12  1  0  0  0  0
  8  9  1  0  0  0  0
  9 10  2  0  0  0  0
  9 29  1  0  0  0  0
 10 11  1  0  0  0  0
 10 30  1  0  0  0  0
 11 12  2  0  0  0  0
 11 31  1  0  0  0  0
 13 14  1  0  0  0  0
 13 15  2  0  0  0  0
 14 32  1  0  0  0  0
 14 33  1  0  0  0  0
M  END
> <s_m_source_file>
AV-unprocessed.smi

> <i_m_source_file_index>
3116

> <i_lp_mmshare_version>
43012

> <i_f3d_flags>
0

> <s_epik_input>
W05IMl1DKD1PKVtDQEhdKFtDSDNdKVtOSF1bQ0BIXShbQ0gzXSlbQ0BIXShbQ0gzXSluMVtjSF1bY0hdW2NIXW4x

> <s_epik_cmdline>
J2VwaWtfcHl0aG9uJywgJy1waCcsICc3LjAnLCAnLXRuJywgJzgnLCAnLW1hJywgJzIwMCcsICctbWV0YWxfYmluZGluZycsICctaW1hZScsICc8aW5maWxlLm1hZT4nLCAnLW9tYWUnLCAnPG91dGZpbGUubWFlPic=

> <r_lp_tautomer_probability>
1

> <r_epik_Ionization_Penalty>
0.865977

> <r_epik_Ionization_Penalty_Charging>
0

> <r_epik_Ionization_Penalty_Neutral>
0.865977

> <r_epik_State_Penalty>
0.901888

> <r_epik_Charging_Adjusted_Penalty>
0.901888

> <i_epik_Tot_Q>
0

> <i_epik_Tot_abs_Q>
0

> <r_epik_Metal_State_Penalty>
0.901181

> <b_epik_Metal_Only>
0

> <s_lp_Force_Field>
OPLS_2005

> <r_lp_Energy>
8.45698

> <b_lp_Chiralities_Consistent>
1

> <s_lp_Variant>
AV-unprocessed.smi:3116-16

> <Gold.Version>
5.8.1

> <Gold.Id.Protein>
6NUR|6NUR_protein|mol2

> <Gold.PLP.Fitness>
40.6005

> <Gold.PLP.PLP>
-29.0284

> <Gold.PLP.part.hbond>
-4.4993

> <Gold.PLP.part.metal>
0.0000

> <Gold.PLP.part.buried>
-4.0301

> <Gold.PLP.part.nonpolar>
-24.9867

> <Gold.PLP.part.repulsive>
3.0901

> <Gold.PLP.ligand.clash>
0.0000

> <Gold.PLP.ligand.torsion>
0.6307

> <Gold.PLP.Chemscore.Hbond>
3.2560

> <Gold.PLP.Chemscore.CHOScore>
0.9953

> <Gold.PLP.Chemscore.Metal>
0.0000

> <Gold.Chemscore.Hbonds>
donor molecule, donor type, donor heavy atom, donor atom, acceptor molecule, acceptor atom, score
      L1  H     3    20       P1  7948  1.00
      L1  H    14    32       P1 10171  1.00
      L1  H    14    33       P1 10175  0.26
      P1  H  7954  7966       L1    15  1.00
      L1  C     9    29       P1  8028  0.98

> <Gold.PLP.Chemscore.Internal.Correction>
0.0794

> <Gold.Rescore>
     Score         DG    S(hbond)    S(metal)    S(lipo)     H(rot)  DE(clash)    DE(int)     intcor
     13.20     -16.49       3.25        0.00      53.58       2.38       1.30       1.98       ----

> <Gold.Chemscore.Fitness>
13.2025

> <Gold.Chemscore.DG>
-16.4895

> <Gold.Chemscore.ZeroCoef>
-5.4800

> <Gold.Chemscore.Hbond>
3.2464

> <Gold.Chemscore.Metal>
0.0000

> <Gold.Chemscore.Lipo>
53.5780

> <Gold.Chemscore.Internal_Hbond>
0.0000

> <Gold.Chemscore.DEClash>
1.3031

> <Gold.Chemscore.DEInternal>
1.9840

> <Gold.Chemscore.Rot>
2.3836

> <Gold.Chemscore.Internal.Correction>
   9.000000E+99

> <Gold.Chemscore.Hbonds>
donor molecule, donor type, donor heavy atom, donor atom, acceptor molecule, acceptor atom, score
      L1  H     3    20       P1  7948  1.00
      L1  H    14    32       P1 10171  0.94
      L1  H    14    33       P1 10175  0.26
      P1  H  7954  7966       L1    15  0.94

> <Gold.Chemscore.Hbond.Weighted>
-10.8429

> <Gold.Chemscore.Metal.Weighted>
-0.0000

> <Gold.Chemscore.Lipo.Weighted>
-6.2686

> <Gold.Chemscore.Internal_Hbond.Weighted>
0.0000

> <Gold.Chemscore.DEClash.Weighted>
1.3031

> <Gold.Chemscore.DEInternal.Weighted>
1.9840

> <Gold.Chemscore.Rot.Weighted>
6.1020

> <Gold.Chemscore.Internal.Correction.Weighted>
   9.000000E+99

> <Gold.Protein.RotatedTorsions>
[ 6907 6896 6895 6894 ] final  166.73 input  -60.11 | X-H torsion
[ 7974 7965 7964 7962 ] final  161.53 input  175.53 | X-H torsion
[ 8008 7997 7996 7995 ] final   74.20 input   59.86 | X-H torsion
[ 10167 10162 10161 10158 ] final   80.73 input  -65.29 | X-H torsion
[ 10718 10713 10712 10709 ] final   82.74 input   66.30 | X-H torsion
[ 10763 10752 10751 10750 ] final  -49.78 input  -60.55 | X-H torsion
[ 11005 11000 10999 10996 ] final -140.84 input  -57.11 | X-H torsion

> <Gold.Protein.ActiveResidues>
 VAL166  LYS551  ARG553  GLY616  TRP617  ASP618  TYR619  PRO620  LYS621  CYS622 
 ASP623  PHE694  ASN695  SER759  ASP760  ASP761  ALA762  ILE779  LEU786  VAL792 
 PHE793  MET794  SER795  GLU796  ALA797  LYS798  CYS799  TRP800  GLU811  SER814 

> <Gold.Protein.RotatedAtoms>
  151.8743  133.3482  159.3744 H   0  0  0  0  0  0  0  0  0  0  0  0  # atno 6907 bound_to 6896
  150.7144  134.5081  159.5603 H   0  0  0  0  0  0  0  0  0  0  0  0  # atno 6908 bound_to 6896
  152.2620  134.8024  160.0480 H   0  0  0  0  0  0  0  0  0  0  0  0  # atno 6909 bound_to 6896
  144.7681  139.7911  143.6307 H   0  0  0  0  0  0  0  0  0  0  0  0  # atno 7974 bound_to 7965
  155.7949  140.3478  155.5370 H   0  0  0  0  0  0  0  0  0  0  0  0  # atno 8008 bound_to 7997
  155.8597  140.0969  157.1642 H   0  0  0  0  0  0  0  0  0  0  0  0  # atno 8009 bound_to 7997
  154.4011  140.1361  156.3932 H   0  0  0  0  0  0  0  0  0  0  0  0  # atno 8010 bound_to 7997
  139.9466  144.6054  150.8200 H   0  0  0  0  0  0  0  0  0  0  0  0  # atno 10167 bound_to 10162
  157.6864  131.0061  150.2419 H   0  0  0  0  0  0  0  0  0  0  0  0  # atno 10718 bound_to 10713
  154.0997  135.6565  153.4866 H   0  0  0  0  0  0  0  0  0  0  0  0  # atno 10763 bound_to 10752
  153.0293  135.5222  154.7299 H   0  0  0  0  0  0  0  0  0  0  0  0  # atno 10764 bound_to 10752
  154.6447  135.2993  155.0030 H   0  0  0  0  0  0  0  0  0  0  0  0  # atno 10765 bound_to 10752
  140.8383  134.2433  157.4823 H   0  0  0  0  0  0  0  0  0  0  0  0  # atno 11005 bound_to 11000
  146.1806  139.4996  142.9869 LP  0  0  0  0  0  0  0  0  0  0  0  0  # atno 17320 bound_to 7965
  145.6407  141.0285  143.1813 LP  0  0  0  0  0  0  0  0  0  0  0  0  # atno 17321 bound_to 7965
  140.7595  143.3131  151.2798 LP  0  0  0  0  0  0  0  0  0  0  0  0  # atno 17342 bound_to 10162
  139.6661  144.0102  152.2724 LP  0  0  0  0  0  0  0  0  0  0  0  0  # atno 17343 bound_to 10162
  156.3032  130.3761  149.7731 LP  0  0  0  0  0  0  0  0  0  0  0  0  # atno 17370 bound_to 10713
  156.5354  130.8276  151.3251 LP  0  0  0  0  0  0  0  0  0  0  0  0  # atno 17371 bound_to 10713
  139.8703  134.9622  156.4422 LP  0  0  0  0  0  0  0  0  0  0  0  0  # atno 17394 bound_to 11000
  140.8923  133.7839  155.9586 LP  0  0  0  0  0  0  0  0  0  0  0  0  # atno 17395 bound_to 11000

$$$$
