AV-unprocessed.smi:1564|AV-procd|sdf|6294|dock1
  -GOLD-   22720 6493D 1   1.00000     0.00000
 Structure written by MMmdl.
 43 44  0  0  0  0  0  0  0  0  2 V2000
  150.8976  141.7499  157.8389 C   0  0  0  0  0  0  0  0  0  0  0  0
  150.9267  141.5591  156.4288 O   0  0  0  0  0  0  0  0  0  0  0  0
  150.2392  140.4868  155.8983 C   0  0  0  0  0  0  0  0  0  0  0  0
  149.2853  139.8334  156.7031 C   0  0  0  0  0  0  0  0  0  0  0  0
  148.5790  138.7382  156.1703 C   0  0  0  0  0  0  0  0  0  0  0  0
  148.8444  138.3343  154.8398 C   0  0  0  0  0  0  0  0  0  0  0  0
  148.2139  137.2367  154.1929 N   0  0  0  0  0  0  0  0  0  0  0  0
  147.0096  136.6950  154.4440 C   0  0  0  0  0  0  0  0  0  0  0  0
  146.2100  137.0921  155.2909 O   0  0  0  0  0  0  0  0  0  0  0  0
  146.7634  135.6580  153.6312 N   0  0  0  0  0  0  0  0  0  0  0  0
  145.5351  134.8707  153.6459 C   0  0  1  0  0  0  0  0  0  0  0  0
  144.3168  135.5910  153.0662 C   0  0  0  0  0  0  0  0  0  0  0  0
  143.4533  134.4687  152.4673 C   0  0  0  0  0  0  0  0  0  0  0  0
  144.2408  133.2124  152.5581 N   0  3  1  0  0  0  0  0  0  0  0  0
  144.0133  132.2416  151.4508 C   0  0  0  0  0  0  0  0  0  0  0  0
  144.9720  131.0411  151.5602 C   0  0  0  0  0  0  0  0  0  0  0  0
  144.1739  132.9058  150.0703 C   0  0  0  0  0  0  0  0  0  0  0  0
  145.6425  133.6298  152.7663 C   0  0  0  0  0  0  0  0  0  0  0  0
  149.8281  139.0469  154.1230 C   0  0  0  0  0  0  0  0  0  0  0  0
  150.5085  140.0977  154.6275 N   0  0  0  0  0  0  0  0  0  0  0  0
  151.4800  142.6348  158.0949 H   0  0  0  0  0  0  0  0  0  0  0  0
  151.3370  140.9013  158.3654 H   0  0  0  0  0  0  0  0  0  0  0  0
  149.8801  141.9080  158.1995 H   0  0  0  0  0  0  0  0  0  0  0  0
  149.1017  140.1633  157.7150 H   0  0  0  0  0  0  0  0  0  0  0  0
  147.8642  138.2275  156.7962 H   0  0  0  0  0  0  0  0  0  0  0  0
  148.7216  136.8487  153.4113 H   0  0  0  0  0  0  0  0  0  0  0  0
  147.4703  135.3990  152.9585 H   0  0  0  0  0  0  0  0  0  0  0  0
  145.3142  134.5537  154.6675 H   0  0  0  0  0  0  0  0  0  0  0  0
  143.7839  136.1686  153.8225 H   0  0  0  0  0  0  0  0  0  0  0  0
  144.6193  136.2805  152.2764 H   0  0  0  0  0  0  0  0  0  0  0  0
  142.5158  134.3521  153.0119 H   0  0  0  0  0  0  0  0  0  0  0  0
  143.2092  134.7090  151.4313 H   0  0  0  0  0  0  0  0  0  0  0  0
  142.9905  131.8696  151.5284 H   0  0  0  0  0  0  0  0  0  0  0  0
  144.8259  130.3467  150.7322 H   0  0  0  0  0  0  0  0  0  0  0  0
  144.8164  130.4744  152.4783 H   0  0  0  0  0  0  0  0  0  0  0  0
  146.0138  131.3630  151.5392 H   0  0  0  0  0  0  0  0  0  0  0  0
  144.0662  132.1731  149.2698 H   0  0  0  0  0  0  0  0  0  0  0  0
  145.1562  133.3672  149.9635 H   0  0  0  0  0  0  0  0  0  0  0  0
  143.4201  133.6736  149.8963 H   0  0  0  0  0  0  0  0  0  0  0  0
  146.1021  133.8751  151.8067 H   0  0  0  0  0  0  0  0  0  0  0  0
  146.2347  132.8477  153.2424 H   0  0  0  0  0  0  0  0  0  0  0  0
  150.0762  138.7691  153.1090 H   0  0  0  0  0  0  0  0  0  0  0  0
  143.9554  132.7615  153.4159 H   0  0  0  0  0  0  0  0  0  0  0  0
  1  2  1  0  0  0  0
  1 21  1  0  0  0  0
  1 22  1  0  0  0  0
  1 23  1  0  0  0  0
  2  3  1  0  0  0  0
  3 20  1  0  0  0  0
  3  4  2  0  0  0  0
  4  5  1  0  0  0  0
  4 24  1  0  0  0  0
  5  6  2  0  0  0  0
  5 25  1  0  0  0  0
  6  7  1  0  0  0  0
  6 19  1  0  0  0  0
  7  8  1  0  0  0  0
  7 26  1  0  0  0  0
  8  9  2  0  0  0  0
  8 10  1  0  0  0  0
 10 11  1  0  0  0  0
 10 27  1  0  0  0  0
 11 18  1  0  0  0  0
 11 12  1  0  0  0  0
 11 28  1  0  0  0  0
 12 13  1  0  0  0  0
 12 29  1  0  0  0  0
 12 30  1  0  0  0  0
 13 14  1  0  0  0  0
 13 31  1  0  0  0  0
 13 32  1  0  0  0  0
 14 15  1  0  0  0  0
 14 18  1  0  0  0  0
 14 43  1  0  0  0  0
 15 16  1  0  0  0  0
 15 17  1  0  0  0  0
 15 33  1  0  0  0  0
 16 34  1  0  0  0  0
 16 35  1  0  0  0  0
 16 36  1  0  0  0  0
 17 37  1  0  0  0  0
 17 38  1  0  0  0  0
 17 39  1  0  0  0  0
 18 40  1  0  0  0  0
 18 41  1  0  0  0  0
 19 20  2  0  0  0  0
 19 42  1  0  0  0  0
M  CHG  1  14   1
M  END
> <s_m_source_file>
AV-unprocessed.smi

> <i_m_source_file_index>
1564

> <i_lp_mmshare_version>
43012

> <i_f3d_flags>
0

> <s_epik_input>
W0NIM11PYzFbY0hdW2NIXWMoW2NIXW4xKVtOSF1DKD1PKVtOSF1bQ0BASF0yW0NIMl1bQ0gyXU4oW0NIMl0yKVtDSF0oW0NIM10pW0NIM10=

> <s_epik_cmdline>
J2VwaWtfcHl0aG9uJywgJy1waCcsICc3LjAnLCAnLXRuJywgJzgnLCAnLW1hJywgJzIwMCcsICctbWV0YWxfYmluZGluZycsICctaW1hZScsICc8aW5maWxlLm1hZT4nLCAnLW9tYWUnLCAnPG91dGZpbGUubWFlPic=

> <r_lp_tautomer_probability>
1

> <r_epik_Ionization_Penalty>
0.000679474

> <r_epik_Ionization_Penalty_Charging>
0.000606352

> <r_epik_Ionization_Penalty_Neutral>
7.31222e-05

> <r_epik_State_Penalty>
0.000382168

> <r_epik_Charging_Adjusted_Penalty>
0.00098852

> <i_epik_Tot_Q>
1

> <i_epik_Tot_abs_Q>
1

> <r_epik_Metal_State_Penalty>
-0

> <b_epik_Metal_Only>
0

> <s_lp_Force_Field>
OPLS_2005

> <r_lp_Energy>
32.3031

> <b_lp_Chiralities_Consistent>
1

> <s_lp_Variant>
AV-unprocessed.smi:1564-2

> <Gold.Version>
5.8.1

> <Gold.Id.Protein>
6NUR|6NUR_protein|mol2

> <Gold.PLP.Fitness>
41.1427

> <Gold.PLP.PLP>
-26.3276

> <Gold.PLP.part.hbond>
-3.7467

> <Gold.PLP.part.metal>
0.0000

> <Gold.PLP.part.buried>
-5.2150

> <Gold.PLP.part.nonpolar>
-18.3785

> <Gold.PLP.part.repulsive>
0.1641

> <Gold.PLP.ligand.clash>
0.0006

> <Gold.PLP.ligand.torsion>
0.5322

> <Gold.PLP.Chemscore.Hbond>
4.2940

> <Gold.PLP.Chemscore.CHOScore>
0.9907

> <Gold.PLP.Chemscore.Metal>
0.0000

> <Gold.Chemscore.Hbonds>
donor molecule, donor type, donor heavy atom, donor atom, acceptor molecule, acceptor atom, score
      L1  H     7    26       P1  7948  1.00
      L1  H    10    27       P1  7948  0.83
      L1  H    14    43       P1 10957  1.56
      P1  H  7989  7998       L1    20  1.00
      L1  C    19    42       P1  7957  0.94

> <Gold.PLP.Chemscore.Internal.Correction>
0.0258

> <Gold.Rescore>
     Score         DG    S(hbond)    S(metal)    S(lipo)     H(rot)  DE(clash)    DE(int)     intcor
     18.82     -20.32       3.51        0.00      58.34       1.44       0.00       1.50       ----

> <Gold.Chemscore.Fitness>
18.8226

> <Gold.Chemscore.DG>
-20.3243

> <Gold.Chemscore.ZeroCoef>
-5.4800

> <Gold.Chemscore.Hbond>
3.5079

> <Gold.Chemscore.Metal>
0.0000

> <Gold.Chemscore.Lipo>
58.3414

> <Gold.Chemscore.Internal_Hbond>
0.0000

> <Gold.Chemscore.DEClash>
0.0004

> <Gold.Chemscore.DEInternal>
1.5013

> <Gold.Chemscore.Rot>
1.4445

> <Gold.Chemscore.Internal.Correction>
   9.000000E+99

> <Gold.Chemscore.Hbonds>
donor molecule, donor type, donor heavy atom, donor atom, acceptor molecule, acceptor atom, score
      L1  H     7    26       P1  7948  0.99
      L1  H    10    27       P1  7948  0.78
      L1  H    14    43       P1 10957  0.42
      P1  H  7989  7998       L1    20  0.90

> <Gold.Chemscore.Hbond.Weighted>
-11.7162

> <Gold.Chemscore.Metal.Weighted>
-0.0000

> <Gold.Chemscore.Lipo.Weighted>
-6.8259

> <Gold.Chemscore.Internal_Hbond.Weighted>
0.0000

> <Gold.Chemscore.DEClash.Weighted>
0.0004

> <Gold.Chemscore.DEInternal.Weighted>
1.5013

> <Gold.Chemscore.Rot.Weighted>
3.6979

> <Gold.Chemscore.Internal.Correction.Weighted>
   9.000000E+99

> <Gold.Protein.RotatedTorsions>
[ 6907 6896 6895 6894 ] final  -16.17 input  -60.11 | X-H torsion
[ 7974 7965 7964 7962 ] final  150.31 input  175.53 | X-H torsion
[ 8008 7997 7996 7995 ] final  -81.07 input   59.86 | X-H torsion
[ 10167 10162 10161 10158 ] final   63.25 input  -65.29 | X-H torsion
[ 10718 10713 10712 10709 ] final  -62.88 input   66.30 | X-H torsion
[ 10763 10752 10751 10750 ] final  -90.55 input  -60.55 | X-H torsion
[ 11005 11000 10999 10996 ] final  -51.90 input  -57.11 | X-H torsion

> <Gold.Protein.ActiveResidues>
 VAL166  LYS551  ARG553  GLY616  TRP617  ASP618  TYR619  PRO620  LYS621  CYS622 
 ASP623  PHE694  ASN695  SER759  ASP760  ASP761  ALA762  ILE779  LEU786  VAL792 
 PHE793  MET794  SER795  GLU796  ALA797  LYS798  CYS799  TRP800  GLU811  SER814 

> <Gold.Protein.RotatedAtoms>
  151.3128  135.0798  159.9277 H   0  0  0  0  0  0  0  0  0  0  0  0  # atno 6907 bound_to 6896
  152.5274  133.9719  159.7776 H   0  0  0  0  0  0  0  0  0  0  0  0  # atno 6908 bound_to 6896
  151.0025  133.5990  159.2723 H   0  0  0  0  0  0  0  0  0  0  0  0  # atno 6909 bound_to 6896
  144.8373  139.6392  143.6032 H   0  0  0  0  0  0  0  0  0  0  0  0  # atno 7974 bound_to 7965
  154.5946  140.0653  156.9286 H   0  0  0  0  0  0  0  0  0  0  0  0  # atno 8008 bound_to 7997
  155.2236  140.3332  155.4294 H   0  0  0  0  0  0  0  0  0  0  0  0  # atno 8009 bound_to 7997
  156.2279  140.1827  156.7301 H   0  0  0  0  0  0  0  0  0  0  0  0  # atno 8010 bound_to 7997
  140.1350  144.4607  150.6843 H   0  0  0  0  0  0  0  0  0  0  0  0  # atno 10167 bound_to 10162
  156.0827  130.4214  150.1197 H   0  0  0  0  0  0  0  0  0  0  0  0  # atno 10718 bound_to 10713
  154.6669  135.5300  153.8089 H   0  0  0  0  0  0  0  0  0  0  0  0  # atno 10763 bound_to 10752
  153.0477  135.6519  154.0785 H   0  0  0  0  0  0  0  0  0  0  0  0  # atno 10764 bound_to 10752
  154.0688  135.2956  155.3292 H   0  0  0  0  0  0  0  0  0  0  0  0  # atno 10765 bound_to 10752
  141.0896  133.6635  156.3946 H   0  0  0  0  0  0  0  0  0  0  0  0  # atno 11005 bound_to 11000
  146.2670  139.6544  142.9322 LP  0  0  0  0  0  0  0  0  0  0  0  0  # atno 17320 bound_to 7965
  145.4767  141.0437  143.2668 LP  0  0  0  0  0  0  0  0  0  0  0  0  # atno 17321 bound_to 7965
  140.6794  143.2320  151.5423 LP  0  0  0  0  0  0  0  0  0  0  0  0  # atno 17342 bound_to 10162
  139.5500  144.2420  152.1513 LP  0  0  0  0  0  0  0  0  0  0  0  0  # atno 17343 bound_to 10162
  156.9225  130.9687  151.3546 LP  0  0  0  0  0  0  0  0  0  0  0  0  # atno 17370 bound_to 10713
  157.5950  130.8471  149.8715 LP  0  0  0  0  0  0  0  0  0  0  0  0  # atno 17371 bound_to 10713
  140.5283  134.6237  157.5341 LP  0  0  0  0  0  0  0  0  0  0  0  0  # atno 17394 bound_to 11000
  139.9719  134.7278  156.0024 LP  0  0  0  0  0  0  0  0  0  0  0  0  # atno 17395 bound_to 11000

$$$$
