AV-unprocessed.smi:1433|AV-procd|sdf|5841|dock5
  -GOLD-   22720 5503D 1   1.00000     0.00000
 Structure written by MMmdl.
 45 46  0  0  0  0  0  0  0  0  2 V2000
  144.2353  135.1814  151.6583 C   0  0  0  0  0  0  0  0  0  0  0  0
  145.4366  135.9640  152.2001 C   0  0  2  0  0  0  0  0  0  0  0  0
  146.1466  135.2112  153.3405 C   0  0  0  0  0  0  0  0  0  0  0  0
  147.2510  136.0279  153.9113 N   0  3  2  0  0  0  0  0  0  0  0  0
  148.0806  135.3703  154.9736 C   0  0  2  0  0  0  0  0  0  0  0  0
  148.7738  134.1185  154.3918 C   0  0  0  0  0  0  0  0  0  0  0  0
  147.2908  135.0029  156.2619 C   0  0  0  0  0  0  0  0  0  0  0  0
  147.5807  135.8867  157.3873 N   0  0  0  0  0  0  0  0  0  0  0  0
  148.2767  135.5399  158.4816 C   0  0  0  0  0  0  0  0  0  0  0  0
  148.7323  134.4115  158.6662 O   0  0  0  0  0  0  0  0  0  0  0  0
  148.4980  136.6350  159.5252 C   0  0  0  0  0  0  0  0  0  0  0  0
  147.8655  136.2865  160.7842 N   0  0  0  0  0  0  0  0  0  0  0  0
  147.3972  135.0558  161.1956 C   0  0  0  0  0  0  0  0  0  0  0  0
  146.8943  135.2127  162.4554 C   0  0  0  0  0  0  0  0  0  0  0  0
  147.1038  136.5924  162.7336 C   0  0  0  0  0  0  0  0  0  0  0  0
  147.6854  137.2329  161.7320 N   0  0  0  0  0  0  0  0  0  0  0  0
  146.7161  137.3449  154.3501 C   0  0  0  0  0  0  0  0  0  0  0  0
  145.9726  138.0692  153.2120 C   0  0  1  0  0  0  0  0  0  0  0  0
  146.9061  138.6398  152.1295 C   0  0  0  0  0  0  0  0  0  0  0  0
  144.9627  137.2206  152.6713 O   0  0  0  0  0  0  0  0  0  0  0  0
  144.5420  134.2097  151.2701 H   0  0  0  0  0  0  0  0  0  0  0  0
  143.7507  135.7244  150.8465 H   0  0  0  0  0  0  0  0  0  0  0  0
  143.4905  135.0113  152.4363 H   0  0  0  0  0  0  0  0  0  0  0  0
  146.1333  136.1197  151.3761 H   0  0  0  0  0  0  0  0  0  0  0  0
  145.4376  134.9519  154.1288 H   0  0  0  0  0  0  0  0  0  0  0  0
  146.5300  134.2810  152.9225 H   0  0  0  0  0  0  0  0  0  0  0  0
  148.8535  136.0824  155.2664 H   0  0  0  0  0  0  0  0  0  0  0  0
  149.4446  133.6550  155.1150 H   0  0  0  0  0  0  0  0  0  0  0  0
  149.3814  134.3467  153.5177 H   0  0  0  0  0  0  0  0  0  0  0  0
  148.0410  133.3676  154.0949 H   0  0  0  0  0  0  0  0  0  0  0  0
  146.2136  135.0385  156.0926 H   0  0  0  0  0  0  0  0  0  0  0  0
  147.5286  133.9843  156.5705 H   0  0  0  0  0  0  0  0  0  0  0  0
  147.2511  136.8391  157.3189 H   0  0  0  0  0  0  0  0  0  0  0  0
  149.5645  136.8012  159.6868 H   0  0  0  0  0  0  0  0  0  0  0  0
  148.0775  137.5764  159.1687 H   0  0  0  0  0  0  0  0  0  0  0  0
  147.4622  134.1812  160.5649 H   0  0  0  0  0  0  0  0  0  0  0  0
  146.4462  134.4569  163.0833 H   0  0  0  0  0  0  0  0  0  0  0  0
  146.8531  137.1434  163.6280 H   0  0  0  0  0  0  0  0  0  0  0  0
  146.0286  137.1855  155.1827 H   0  0  0  0  0  0  0  0  0  0  0  0
  147.5092  137.9897  154.7257 H   0  0  0  0  0  0  0  0  0  0  0  0
  145.4459  138.9178  153.6499 H   0  0  0  0  0  0  0  0  0  0  0  0
  147.5774  139.3868  152.5538 H   0  0  0  0  0  0  0  0  0  0  0  0
  146.3330  139.1252  151.3392 H   0  0  0  0  0  0  0  0  0  0  0  0
  147.5278  137.8723  151.6695 H   0  0  0  0  0  0  0  0  0  0  0  0
  147.8793  136.2077  153.1411 H   0  0  0  0  0  0  0  0  0  0  0  0
  1  2  1  0  0  0  0
  1 21  1  0  0  0  0
  1 22  1  0  0  0  0
  1 23  1  0  0  0  0
  2 20  1  0  0  0  0
  2  3  1  0  0  0  0
  2 24  1  0  0  0  0
  3  4  1  0  0  0  0
  3 25  1  0  0  0  0
  3 26  1  0  0  0  0
  4  5  1  0  0  0  0
  4 17  1  0  0  0  0
  4 45  1  0  0  0  0
  5  6  1  0  0  0  0
  5  7  1  0  0  0  0
  5 27  1  0  0  0  0
  6 28  1  0  0  0  0
  6 29  1  0  0  0  0
  6 30  1  0  0  0  0
  7  8  1  0  0  0  0
  7 31  1  0  0  0  0
  7 32  1  0  0  0  0
  8  9  1  0  0  0  0
  8 33  1  0  0  0  0
  9 10  2  0  0  0  0
  9 11  1  0  0  0  0
 11 12  1  0  0  0  0
 11 34  1  0  0  0  0
 11 35  1  0  0  0  0
 12 16  1  0  0  0  0
 12 13  1  0  0  0  0
 13 14  2  0  0  0  0
 13 36  1  0  0  0  0
 14 15  1  0  0  0  0
 14 37  1  0  0  0  0
 15 16  2  0  0  0  0
 15 38  1  0  0  0  0
 17 18  1  0  0  0  0
 17 39  1  0  0  0  0
 17 40  1  0  0  0  0
 18 19  1  0  0  0  0
 18 20  1  0  0  0  0
 18 41  1  0  0  0  0
 19 42  1  0  0  0  0
 19 43  1  0  0  0  0
 19 44  1  0  0  0  0
M  CHG  1   4   1
M  END
> <s_m_source_file>
AV-unprocessed.smi

> <i_m_source_file_index>
1433

> <i_lp_mmshare_version>
43012

> <i_f3d_flags>
0

> <s_epik_input>
W0NIM11bQ0BASF0xW0NIMl1OKFtDSDJdW0NASF0oTzEpW0NIM10pW0NASF0oW0NIM10pW0NIMl1bTkhdQyg9TylbQ0gyXW4yW2NIXVtjSF1bY0hdbjI=

> <s_epik_cmdline>
J2VwaWtfcHl0aG9uJywgJy1waCcsICc3LjAnLCAnLXRuJywgJzgnLCAnLW1hJywgJzIwMCcsICctbWV0YWxfYmluZGluZycsICctaW1hZScsICc8aW5maWxlLm1hZT4nLCAnLW9tYWUnLCAnPG91dGZpbGUubWFlPic=

> <r_lp_tautomer_probability>
1

> <r_epik_Ionization_Penalty>
0.748405

> <r_epik_Ionization_Penalty_Charging>
0.748396

> <r_epik_Ionization_Penalty_Neutral>
8.54426e-06

> <r_epik_State_Penalty>
0.775162

> <r_epik_Charging_Adjusted_Penalty>
1.52356

> <i_epik_Tot_Q>
1

> <i_epik_Tot_abs_Q>
1

> <r_epik_Metal_State_Penalty>
0.775167

> <b_epik_Metal_Only>
0

> <s_lp_Force_Field>
OPLS_2005

> <r_lp_Energy>
22.7015

> <b_lp_Chiralities_Consistent>
1

> <s_lp_Variant>
AV-unprocessed.smi:1433-7

> <Gold.Version>
5.8.1

> <Gold.Id.Protein>
6NUR|6NUR_protein|mol2

> <Gold.PLP.Fitness>
44.3701

> <Gold.PLP.PLP>
-32.3049

> <Gold.PLP.part.hbond>
-4.0000

> <Gold.PLP.part.metal>
0.0000

> <Gold.PLP.part.buried>
-2.1209

> <Gold.PLP.part.nonpolar>
-25.3266

> <Gold.PLP.part.repulsive>
0.2024

> <Gold.PLP.ligand.clash>
0.0000

> <Gold.PLP.ligand.torsion>
0.9492

> <Gold.PLP.Chemscore.Hbond>
4.6261

> <Gold.PLP.Chemscore.CHOScore>
0.0000

> <Gold.PLP.Chemscore.Metal>
0.0000

> <Gold.Chemscore.Hbonds>
donor molecule, donor type, donor heavy atom, donor atom, acceptor molecule, acceptor atom, score
      L1  H     4    45       P1  7948  2.00
      P1  H  6896  6909       L1    10  0.78
      P1  H  6931  6943       L1    16  0.99
      P1  H  6934  6947       L1    16  0.70

> <Gold.PLP.Chemscore.Internal.Correction>
0.0854

> <Gold.Rescore>
     Score         DG    S(hbond)    S(metal)    S(lipo)     H(rot)  DE(clash)    DE(int)     intcor
     17.62     -19.85       3.45        0.00      65.22       1.87       0.10       2.13       ----

> <Gold.Chemscore.Fitness>
17.6174

> <Gold.Chemscore.DG>
-19.8511

> <Gold.Chemscore.ZeroCoef>
-5.4800

> <Gold.Chemscore.Hbond>
3.4479

> <Gold.Chemscore.Metal>
0.0000

> <Gold.Chemscore.Lipo>
65.2241

> <Gold.Chemscore.Internal_Hbond>
0.0000

> <Gold.Chemscore.DEClash>
0.1001

> <Gold.Chemscore.DEInternal>
2.1336

> <Gold.Chemscore.Rot>
1.8657

> <Gold.Chemscore.Internal.Correction>
   9.000000E+99

> <Gold.Chemscore.Hbonds>
donor molecule, donor type, donor heavy atom, donor atom, acceptor molecule, acceptor atom, score
      L1  H     4    45       P1  7948  1.00
      P1  H  6896  6909       L1    10  0.74
      P1  H  6931  6943       L1    16  0.80
      P1  H  6934  6947       L1    16  0.56

> <Gold.Chemscore.Hbond.Weighted>
-11.5160

> <Gold.Chemscore.Metal.Weighted>
-0.0000

> <Gold.Chemscore.Lipo.Weighted>
-7.6312

> <Gold.Chemscore.Internal_Hbond.Weighted>
0.0000

> <Gold.Chemscore.DEClash.Weighted>
0.1001

> <Gold.Chemscore.DEInternal.Weighted>
2.1336

> <Gold.Chemscore.Rot.Weighted>
4.7761

> <Gold.Chemscore.Internal.Correction.Weighted>
   9.000000E+99

> <Gold.Protein.RotatedTorsions>
[ 6907 6896 6895 6894 ] final    9.97 input  -60.11 | X-H torsion
[ 7974 7965 7964 7962 ] final -113.86 input  175.53 | X-H torsion
[ 8008 7997 7996 7995 ] final   71.16 input   59.86 | X-H torsion
[ 10167 10162 10161 10158 ] final   61.48 input  -65.29 | X-H torsion
[ 10718 10713 10712 10709 ] final  -57.48 input   66.30 | X-H torsion
[ 10763 10752 10751 10750 ] final -148.66 input  -60.55 | X-H torsion
[ 11005 11000 10999 10996 ] final  117.99 input  -57.11 | X-H torsion

> <Gold.Protein.ActiveResidues>
 VAL166  LYS551  ARG553  GLY616  TRP617  ASP618  TYR619  PRO620  LYS621  CYS622 
 ASP623  PHE694  ASN695  SER759  ASP760  ASP761  ALA762  ILE779  LEU786  VAL792 
 PHE793  MET794  SER795  GLU796  ALA797  LYS798  CYS799  TRP800  GLU811  SER814 

> <Gold.Protein.RotatedAtoms>
  151.7307  135.0875  160.0299 H   0  0  0  0  0  0  0  0  0  0  0  0  # atno 6907 bound_to 6896
  152.3543  133.6213  159.5976 H   0  0  0  0  0  0  0  0  0  0  0  0  # atno 6908 bound_to 6896
  150.7561  133.9441  159.3507 H   0  0  0  0  0  0  0  0  0  0  0  0  # atno 6909 bound_to 6896
  145.1270  140.8702  143.3780 H   0  0  0  0  0  0  0  0  0  0  0  0  # atno 7974 bound_to 7965
  155.7497  140.3489  155.5144 H   0  0  0  0  0  0  0  0  0  0  0  0  # atno 8008 bound_to 7997
  155.9016  140.1035  157.1367 H   0  0  0  0  0  0  0  0  0  0  0  0  # atno 8009 bound_to 7997
  154.4044  140.1285  156.4430 H   0  0  0  0  0  0  0  0  0  0  0  0  # atno 8010 bound_to 7997
  140.1543  144.4433  150.6743 H   0  0  0  0  0  0  0  0  0  0  0  0  # atno 10167 bound_to 10162
  156.1207  130.4166  150.0447 H   0  0  0  0  0  0  0  0  0  0  0  0  # atno 10718 bound_to 10713
  154.8221  135.3329  154.7008 H   0  0  0  0  0  0  0  0  0  0  0  0  # atno 10763 bound_to 10752
  153.7640  135.6930  153.4924 H   0  0  0  0  0  0  0  0  0  0  0  0  # atno 10764 bound_to 10752
  153.2091  135.4489  155.0307 H   0  0  0  0  0  0  0  0  0  0  0  0  # atno 10765 bound_to 10752
  139.9094  134.9616  156.7435 H   0  0  0  0  0  0  0  0  0  0  0  0  # atno 11005 bound_to 11000
  145.0677  139.3056  143.5848 LP  0  0  0  0  0  0  0  0  0  0  0  0  # atno 17320 bound_to 7965
  146.3517  140.0141  142.8664 LP  0  0  0  0  0  0  0  0  0  0  0  0  # atno 17321 bound_to 7965
  140.6683  143.2276  151.5688 LP  0  0  0  0  0  0  0  0  0  0  0  0  # atno 17342 bound_to 10162
  139.5411  144.2645  152.1352 LP  0  0  0  0  0  0  0  0  0  0  0  0  # atno 17343 bound_to 10162
  156.8386  130.9417  151.3633 LP  0  0  0  0  0  0  0  0  0  0  0  0  # atno 17370 bound_to 10713
  157.6390  130.8790  149.9413 LP  0  0  0  0  0  0  0  0  0  0  0  0  # atno 17371 bound_to 10713
  140.6830  133.9457  155.7921 LP  0  0  0  0  0  0  0  0  0  0  0  0  # atno 17394 bound_to 11000
  141.0496  134.0503  157.3800 LP  0  0  0  0  0  0  0  0  0  0  0  0  # atno 17395 bound_to 11000

$$$$
