#       Name:                AV-unprocessed.smi:160
#       Creating user name   scv26
#       Creation time:       Thu Mar 26 19:07:23 2020


#       File generated by GOLD software.
#

@<TRIPOS>MOLECULE
AV-unprocessed.smi:160
    41    42     1
SMALL
NO_CHARGES


@<TRIPOS>ATOM
      1 ****        -3.9962   0.9739   0.1632 N.pl3          1 S1                -1.0000
      2 ****        -4.0290  -0.0374  -0.7320 C.2            1 S1                 0.0000
      3 ****        -5.0321  -0.4869  -1.2853 O.2            1 S1                 0.0000
      4 ****        -2.6804  -0.6398  -1.0477 C.2            1 S1                 0.0000
      5 ****        -2.5700  -1.6744  -1.9360 N.2            1 S1                 0.0000
      6 ****        -1.2577  -1.8581  -1.8859 C.2            1 S1                 0.0000
      7 ****        -0.6206  -1.0336  -1.0500 N.pl3          1 S1                 0.0000
      8 ****         0.8375  -0.9292  -0.7300 C.3            1 S1                 0.0000
      9 ****         1.2110   0.4059  -0.8939 O.3            1 S1                 0.0000
     10 ****         1.9563   0.8567   0.2348 C.3            1 S1                 0.0000
     11 ****         1.8283   2.3807   0.4063 C.3            1 S1                 0.0000
     12 ****         2.7475   3.0446  -0.4349 O.3            1 S1                 0.0000
     13 ****         1.4215   0.0108   1.3992 C.3            1 S1                 0.0000
     14 ****         0.2447   0.5801   1.9464 O.3            1 S1                 0.0000
     15 ****         1.1689  -1.3306   0.7219 C.3            1 S1                 0.0000
     16 ****         0.2017  -2.1273   1.3862 O.3            1 S1                 0.0000
     17 ****        -1.5427  -0.2120  -0.4915 N.2            1 S1                 0.0000
     18 ****         1.3245  -1.5652  -1.4701 H              1 S1                 0.0000
     19 ****         3.0019   0.5840   0.0788 H              1 S1                 0.0000
     20 ****         2.1538  -0.0802   2.2019 H              1 S1                 0.0000
     21 ****         2.1066  -1.8870   0.6890 H              1 S1                 0.0000
     22 ****        -3.0872   1.2527   0.5514 H              1 S1                 0.0000
     23 ****        -0.7504  -2.6135  -2.4677 H              1 S1                 0.0000
     24 ****         0.8123   2.7186   0.1989 H              1 S1                 0.0000
     25 ****         2.0636   2.6654   1.4323 H              1 S1                 0.0000
     26 ****         2.6305   3.9761  -0.3282 H              1 S1                 0.0000
     27 ****        -0.1853  -0.0747   2.4755 H              1 S1                 0.0000
     28 ****         0.0406  -2.9009   0.8684 H              1 S1                 0.0000
     29 ****        -4.8364   1.4396   0.4410 LP             1 S1                 0.0000
     30 ****        -5.9309  -0.0976  -1.0841 LP             1 S1                 0.0000
     31 ****        -4.9483  -1.2414  -1.9362 LP             1 S1                 0.0000
     32 ****        -3.2713  -2.1510  -2.4662 LP             1 S1                 0.0000
     33 ****         0.3898   0.9680  -0.9921 LP             1 S1                 0.0000
     34 ****         1.7739   0.4919  -1.7160 LP             1 S1                 0.0000
     35 ****         2.5788   2.7900  -1.3871 LP             1 S1                 0.0000
     36 ****         3.6811   2.7904  -0.1823 LP             1 S1                 0.0000
     37 ****        -0.3642   0.8714   1.2085 LP             1 S1                 0.0000
     38 ****         0.4830   1.3690   2.5129 LP             1 S1                 0.0000
     39 ****        -0.6472  -1.6091   1.4906 LP             1 S1                 0.0000
     40 ****         0.5444  -2.3909   2.2879 LP             1 S1                 0.0000
     41 ****        -1.4065   0.5266   0.1688 LP             1 S1                 0.0000
@<TRIPOS>BOND
    1    1    2 1     
    2    1   22 1     
    3    2    3 2     
    4    2    4 1     
    5    4   17 2     
    6    4    5 1     
    7    5    6 2     
    8    6    7 1     
    9    6   23 1     
   10    7    8 1     
   11    7   17 1     
   12    8   18 1     
   13    8   15 1     
   14    8    9 1     
   15    9   10 1     
   16   10   19 1     
   17   10   11 1     
   18   10   13 1     
   19   11   12 1     
   20   11   24 1     
   21   11   25 1     
   22   12   26 1     
   23   13   20 1     
   24   13   14 1     
   25   13   15 1     
   26   14   27 1     
   27   15   21 1     
   28   15   16 1     
   29   16   28 1     
   30    1   29 1     
   31    3   30 1     
   32    3   31 1     
   33    5   32 1     
   34    9   33 1     
   35    9   34 1     
   36   12   35 1     
   37   12   36 1     
   38   14   37 1     
   39   14   38 1     
   40   16   39 1     
   41   16   40 1     
   42   17   41 1     
@<TRIPOS>SUBSTRUCTURE
      1 S1             1
@<TRIPOS>SET
LONE_PAIRS      STATIC     ATOMS    <user>   **** ""
13 29 30 31 32 33 34 35 36 37 38 39 40 41
DONOR_HYDROGENS      STATIC     ATOMS    <user>   **** ""
4 22 26 27 28
ATOM$BLUE        STATIC     ATOMS    COLORGROUP SYSTEM
13 29 30 31 32 33 34 35 36 37 38 39 40 41
ATOM$RED        STATIC     ATOMS    COLORGROUP SYSTEM
4 22 26 27 28
