AV-unprocessed.smi:2829|AV-procd|sdf|10898|dock8
  -GOLD-   2272015343D 1   1.00000     0.00000
 Structure written by MMmdl.
 50 53  0  0  0  0  0  0  0  0  1 V2000
  151.0029  142.7067  156.4350 C   0  0  0  0  0  0  0  0  0  0  0  0
  150.6307  141.4483  157.2515 C   0  0  0  0  0  0  0  0  0  0  0  0
  151.9147  140.9517  157.9484 C   0  0  0  0  0  0  0  0  0  0  0  0
  149.5900  141.8727  158.3086 C   0  0  0  0  0  0  0  0  0  0  0  0
  150.0501  140.3272  156.3708 C   0  0  0  0  0  0  0  0  0  0  0  0
  150.7396  139.7744  155.2680 C   0  0  0  0  0  0  0  0  0  0  0  0
  150.1016  138.7551  154.5414 C   0  0  0  0  0  0  0  0  0  0  0  0
  148.8175  138.3421  154.9493 C   0  0  0  0  0  0  0  0  0  0  0  0
  148.2346  137.3108  154.1684 N   0  0  0  0  0  0  0  0  0  0  0  0
  147.0975  136.6271  154.4044 C   0  0  0  0  0  0  0  0  0  0  0  0
  146.3742  136.7843  155.3862 O   0  0  0  0  0  0  0  0  0  0  0  0
  146.7941  135.7287  153.4516 N   0  0  0  0  0  0  0  0  0  0  0  0
  145.6312  134.8312  153.4117 C   0  0  2  0  0  0  0  0  0  0  0  0
  145.7290  133.7261  152.3511 C   0  0  2  0  0  0  0  0  0  0  0  0
  146.8359  133.0334  151.6423 C   0  0  0  0  0  0  0  0  0  0  0  0
  146.1551  132.9609  150.2516 C   0  0  0  0  0  0  0  0  0  0  0  0
  144.9567  133.7714  150.3546 O   0  0  0  0  0  0  0  0  0  0  0  0
  145.2719  134.7519  151.3265 C   0  0  1  0  0  0  0  0  0  0  0  0
  144.4680  135.3429  152.4974 C   0  0  0  0  0  0  0  0  0  0  0  0
  143.0063  134.9396  152.7513 C   0  0  0  0  0  0  0  0  0  0  0  0
  142.7591  136.3589  153.2718 C   0  0  0  0  0  0  0  0  0  0  0  0
  144.0111  136.8082  152.5116 C   0  0  0  0  0  0  0  0  0  0  0  0
  148.2132  138.9176  156.0190 N   0  0  0  0  0  0  0  0  0  0  0  0
  148.8145  139.8876  156.7141 N   0  0  0  0  0  0  0  0  0  0  0  0
  151.4133  143.4871  157.0769 H   0  0  0  0  0  0  0  0  0  0  0  0
  150.1339  143.1330  155.9322 H   0  0  0  0  0  0  0  0  0  0  0  0
  151.7576  142.4875  155.6786 H   0  0  0  0  0  0  0  0  0  0  0  0
  152.6651  140.6415  157.2201 H   0  0  0  0  0  0  0  0  0  0  0  0
  151.7191  140.1000  158.6006 H   0  0  0  0  0  0  0  0  0  0  0  0
  152.3599  141.7324  158.5663 H   0  0  0  0  0  0  0  0  0  0  0  0
  149.9667  142.6814  158.9359 H   0  0  0  0  0  0  0  0  0  0  0  0
  149.3265  141.0485  158.9725 H   0  0  0  0  0  0  0  0  0  0  0  0
  148.6700  142.2226  157.8388 H   0  0  0  0  0  0  0  0  0  0  0  0
  151.7229  140.1020  154.9682 H   0  0  0  0  0  0  0  0  0  0  0  0
  150.5903  138.3032  153.6904 H   0  0  0  0  0  0  0  0  0  0  0  0
  148.7302  137.0725  153.3221 H   0  0  0  0  0  0  0  0  0  0  0  0
  147.4302  135.6636  152.6698 H   0  0  0  0  0  0  0  0  0  0  0  0
  145.2923  134.4867  154.3900 H   0  0  0  0  0  0  0  0  0  0  0  0
  144.9425  132.9945  152.5713 H   0  0  0  0  0  0  0  0  0  0  0  0
  147.7499  133.6281  151.6180 H   0  0  0  0  0  0  0  0  0  0  0  0
  147.0562  132.0496  152.0570 H   0  0  0  0  0  0  0  0  0  0  0  0
  146.8139  133.3551  149.4767 H   0  0  0  0  0  0  0  0  0  0  0  0
  145.8860  131.9396  149.9810 H   0  0  0  0  0  0  0  0  0  0  0  0
  146.0648  135.4202  150.9778 H   0  0  0  0  0  0  0  0  0  0  0  0
  142.4621  134.7273  151.8297 H   0  0  0  0  0  0  0  0  0  0  0  0
  142.8666  134.1534  153.4939 H   0  0  0  0  0  0  0  0  0  0  0  0
  141.8294  136.8149  152.9301 H   0  0  0  0  0  0  0  0  0  0  0  0
  142.8743  136.4358  154.3538 H   0  0  0  0  0  0  0  0  0  0  0  0
  144.6546  137.4919  153.0658 H   0  0  0  0  0  0  0  0  0  0  0  0
  143.7838  137.1873  151.5140 H   0  0  0  0  0  0  0  0  0  0  0  0
  1  2  1  0  0  0  0
  1 25  1  0  0  0  0
  1 26  1  0  0  0  0
  1 27  1  0  0  0  0
  2  3  1  0  0  0  0
  2  4  1  0  0  0  0
  2  5  1  0  0  0  0
  3 28  1  0  0  0  0
  3 29  1  0  0  0  0
  3 30  1  0  0  0  0
  4 31  1  0  0  0  0
  4 32  1  0  0  0  0
  4 33  1  0  0  0  0
  5 24  1  0  0  0  0
  5  6  2  0  0  0  0
  6  7  1  0  0  0  0
  6 34  1  0  0  0  0
  7  8  2  0  0  0  0
  7 35  1  0  0  0  0
  8  9  1  0  0  0  0
  8 23  1  0  0  0  0
  9 10  1  0  0  0  0
  9 36  1  0  0  0  0
 10 11  2  0  0  0  0
 10 12  1  0  0  0  0
 12 13  1  0  0  0  0
 12 37  1  0  0  0  0
 13 19  1  0  0  0  0
 13 14  1  0  0  0  0
 13 38  1  0  0  0  0
 14 18  1  0  0  0  0
 14 15  1  0  0  0  0
 14 39  1  0  0  0  0
 15 16  1  0  0  0  0
 15 40  1  0  0  0  0
 15 41  1  0  0  0  0
 16 17  1  0  0  0  0
 16 42  1  0  0  0  0
 16 43  1  0  0  0  0
 17 18  1  0  0  0  0
 18 19  1  0  0  0  0
 18 44  1  0  0  0  0
 19 22  1  0  0  0  0
 19 20  1  0  0  0  0
 20 21  1  0  0  0  0
 20 45  1  0  0  0  0
 20 46  1  0  0  0  0
 21 22  1  0  0  0  0
 21 47  1  0  0  0  0
 21 48  1  0  0  0  0
 22 49  1  0  0  0  0
 22 50  1  0  0  0  0
 23 24  2  0  0  0  0
M  END
> <s_m_source_file>
AV-unprocessed.smi

> <i_m_source_file_index>
2829

> <i_lp_mmshare_version>
43012

> <i_f3d_flags>
0

> <s_epik_input>
W0NIM11DKFtDSDNdKShbQ0gzXSljMVtjSF1bY0hdYyhubjEpW05IXUMoPU8pW05IXVtDQEBIXTJbQ0BIXShbQ0gyXVtDSDJdTzMpW0NAQEhdM0MyNFtDSDJdW0NIMl1bQ0gyXTQ=

> <s_epik_cmdline>
J2VwaWtfcHl0aG9uJywgJy1waCcsICc3LjAnLCAnLXRuJywgJzgnLCAnLW1hJywgJzIwMCcsICctbWV0YWxfYmluZGluZycsICctaW1hZScsICc8aW5maWxlLm1hZT4nLCAnLW9tYWUnLCAnPG91dGZpbGUubWFlPic=

> <r_lp_tautomer_probability>
1

> <r_epik_Ionization_Penalty>
0.011915

> <r_epik_Ionization_Penalty_Charging>
0

> <r_epik_Ionization_Penalty_Neutral>
0.011915

> <r_epik_State_Penalty>
0.00486223

> <r_epik_Charging_Adjusted_Penalty>
0.00486223

> <i_epik_Tot_Q>
0

> <i_epik_Tot_abs_Q>
0

> <r_epik_Metal_State_Penalty>
-0

> <b_epik_Metal_Only>
0

> <s_lp_Force_Field>
OPLS_2005

> <r_lp_Energy>
85.5181

> <b_lp_Chiralities_Consistent>
1

> <s_lp_Variant>
AV-unprocessed.smi:2829-1

> <Gold.Version>
5.8.1

> <Gold.Id.Protein>
6NUR|6NUR_protein|mol2

> <Gold.PLP.Fitness>
38.0196

> <Gold.PLP.PLP>
-32.2086

> <Gold.PLP.part.hbond>
-2.0000

> <Gold.PLP.part.metal>
0.0000

> <Gold.PLP.part.buried>
-2.3561

> <Gold.PLP.part.nonpolar>
-27.1090

> <Gold.PLP.part.repulsive>
0.3680

> <Gold.PLP.ligand.clash>
0.0000

> <Gold.PLP.ligand.torsion>
0.2533

> <Gold.PLP.Chemscore.Hbond>
2.0000

> <Gold.PLP.Chemscore.CHOScore>
0.0000

> <Gold.PLP.Chemscore.Metal>
0.0000

> <Gold.Chemscore.Hbonds>
donor molecule, donor type, donor heavy atom, donor atom, acceptor molecule, acceptor atom, score
      L1  H     9    36       P1  7948  1.00
      L1  H    12    37       P1  7948  0.99

> <Gold.PLP.Chemscore.Internal.Correction>
0.3176

> <Gold.Rescore>
     Score         DG    S(hbond)    S(metal)    S(lipo)     H(rot)  DE(clash)    DE(int)     intcor
     17.17     -18.71       1.95        0.00      82.79       1.16       0.03       1.50       ----

> <Gold.Chemscore.Fitness>
17.1661

> <Gold.Chemscore.DG>
-18.7050

> <Gold.Chemscore.ZeroCoef>
-5.4800

> <Gold.Chemscore.Hbond>
1.9499

> <Gold.Chemscore.Metal>
0.0000

> <Gold.Chemscore.Lipo>
82.7895

> <Gold.Chemscore.Internal_Hbond>
0.0000

> <Gold.Chemscore.DEClash>
0.0345

> <Gold.Chemscore.DEInternal>
1.5044

> <Gold.Chemscore.Rot>
1.1618

> <Gold.Chemscore.Internal.Correction>
   9.000000E+99

> <Gold.Chemscore.Hbonds>
donor molecule, donor type, donor heavy atom, donor atom, acceptor molecule, acceptor atom, score
      L1  H     9    36       P1  7948  0.98
      L1  H    12    37       P1  7948  0.94

> <Gold.Chemscore.Hbond.Weighted>
-6.5128

> <Gold.Chemscore.Metal.Weighted>
-0.0000

> <Gold.Chemscore.Lipo.Weighted>
-9.6864

> <Gold.Chemscore.Internal_Hbond.Weighted>
0.0000

> <Gold.Chemscore.DEClash.Weighted>
0.0345

> <Gold.Chemscore.DEInternal.Weighted>
1.5044

> <Gold.Chemscore.Rot.Weighted>
2.9741

> <Gold.Chemscore.Internal.Correction.Weighted>
   9.000000E+99

> <Gold.Protein.RotatedTorsions>
[ 6907 6896 6895 6894 ] final -124.76 input  -60.11 | X-H torsion
[ 7974 7965 7964 7962 ] final   12.49 input  175.53 | X-H torsion
[ 8008 7997 7996 7995 ] final  -40.54 input   59.86 | X-H torsion
[ 10167 10162 10161 10158 ] final   74.62 input  -65.29 | X-H torsion
[ 10718 10713 10712 10709 ] final   75.82 input   66.30 | X-H torsion
[ 10763 10752 10751 10750 ] final -149.70 input  -60.55 | X-H torsion
[ 11005 11000 10999 10996 ] final  -89.87 input  -57.11 | X-H torsion

> <Gold.Protein.ActiveResidues>
 VAL166  LYS551  ARG553  GLY616  TRP617  ASP618  TYR619  PRO620  LYS621  CYS622 
 ASP623  PHE694  ASN695  SER759  ASP760  ASP761  ALA762  ILE779  LEU786  VAL792 
 PHE793  MET794  SER795  GLU796  ALA797  LYS798  CYS799  TRP800  GLU811  SER814 

> <Gold.Protein.RotatedAtoms>
  150.8799  133.7386  159.2934 H   0  0  0  0  0  0  0  0  0  0  0  0  # atno 6907 bound_to 6896
  151.4970  135.1058  159.9828 H   0  0  0  0  0  0  0  0  0  0  0  0  # atno 6908 bound_to 6896
  152.4753  133.8078  159.7043 H   0  0  0  0  0  0  0  0  0  0  0  0  # atno 6909 bound_to 6896
  146.2350  139.9330  142.8494 H   0  0  0  0  0  0  0  0  0  0  0  0  # atno 7974 bound_to 7965
  154.4011  140.1522  156.3045 H   0  0  0  0  0  0  0  0  0  0  0  0  # atno 8008 bound_to 7997
  155.8671  140.3450  155.5774 H   0  0  0  0  0  0  0  0  0  0  0  0  # atno 8009 bound_to 7997
  155.7816  140.0844  157.2047 H   0  0  0  0  0  0  0  0  0  0  0  0  # atno 8010 bound_to 7997
  140.0117  144.5609  150.7653 H   0  0  0  0  0  0  0  0  0  0  0  0  # atno 10167 bound_to 10162
  157.6649  130.9745  150.1408 H   0  0  0  0  0  0  0  0  0  0  0  0  # atno 10718 bound_to 10713
  154.8162  135.3302  154.7169 H   0  0  0  0  0  0  0  0  0  0  0  0  # atno 10763 bound_to 10752
  153.7810  135.6918  153.4893 H   0  0  0  0  0  0  0  0  0  0  0  0  # atno 10764 bound_to 10752
  153.1980  135.4526  155.0179 H   0  0  0  0  0  0  0  0  0  0  0  0  # atno 10765 bound_to 10752
  141.1576  133.7657  156.9657 H   0  0  0  0  0  0  0  0  0  0  0  0  # atno 11005 bound_to 11000
  145.2026  140.9861  143.4147 LP  0  0  0  0  0  0  0  0  0  0  0  0  # atno 17320 bound_to 7965
  144.9760  139.3831  143.6285 LP  0  0  0  0  0  0  0  0  0  0  0  0  # atno 17321 bound_to 7965
  140.7378  143.2771  151.3710 LP  0  0  0  0  0  0  0  0  0  0  0  0  # atno 17342 bound_to 10162
  139.6200  144.0925  152.2382 LP  0  0  0  0  0  0  0  0  0  0  0  0  # atno 17343 bound_to 10162
  156.2232  130.3675  149.8532 LP  0  0  0  0  0  0  0  0  0  0  0  0  # atno 17370 bound_to 10713
  156.6379  130.8693  151.3508 LP  0  0  0  0  0  0  0  0  0  0  0  0  # atno 17371 bound_to 10713
  140.1163  134.9445  157.2139 LP  0  0  0  0  0  0  0  0  0  0  0  0  # atno 17394 bound_to 11000
  140.3129  134.3003  155.7263 LP  0  0  0  0  0  0  0  0  0  0  0  0  # atno 17395 bound_to 11000

$$$$
