AV-unprocessed.smi:3338|AV-procd|sdf|12873|dock4
  -GOLD-   2272019273D 1   1.00000     0.00000
 Structure written by MMmdl.
 44 45  0  0  0  0  0  0  0  0  2 V2000
  144.6628  134.0755  150.9985 C   0  0  0  0  0  0  0  0  0  0  0  0
  146.0430  134.1962  151.6602 C   0  0  2  0  0  0  0  0  0  0  0  0
  146.7256  132.8238  151.7891 C   0  0  0  0  0  0  0  0  0  0  0  0
  148.0864  132.9679  152.4825 C   0  0  0  0  0  0  0  0  0  0  0  0
  147.9422  133.6801  153.8368 C   0  0  0  0  0  0  0  0  0  0  0  0
  147.2894  135.0048  153.6758 N   0  3  2  0  0  0  0  0  0  0  0  0
  147.2593  135.7775  154.9425 C   0  0  0  0  0  0  0  0  0  0  0  0
  147.0756  134.8704  156.1745 C   0  0  0  0  0  0  0  0  0  0  0  0
  147.9446  135.2850  157.2689 N   0  0  0  0  0  0  0  0  0  0  0  0
  147.5552  135.4108  158.5477 C   0  0  0  0  0  0  0  0  0  0  0  0
  146.3968  135.2115  158.9158 O   0  0  0  0  0  0  0  0  0  0  0  0
  148.6437  135.8114  159.5566 C   0  0  1  0  0  0  0  0  0  0  0  0
  149.3353  137.1403  159.1922 C   0  0  0  0  0  0  0  0  0  0  0  0
  148.1001  135.8357  160.9098 N   0  0  0  0  0  0  0  0  0  0  0  0
  147.6517  134.7710  161.6651 C   0  0  0  0  0  0  0  0  0  0  0  0
  147.2124  135.2692  162.8581 C   0  0  0  0  0  0  0  0  0  0  0  0
  147.4259  136.6703  162.7383 C   0  0  0  0  0  0  0  0  0  0  0  0
  147.9495  137.0072  161.5712 N   0  0  0  0  0  0  0  0  0  0  0  0
  145.9500  134.8784  153.0400 C   0  0  0  0  0  0  0  0  0  0  0  0
  143.9901  133.4558  151.5926 H   0  0  0  0  0  0  0  0  0  0  0  0
  144.7402  133.6266  150.0078 H   0  0  0  0  0  0  0  0  0  0  0  0
  144.1964  135.0539  150.8807 H   0  0  0  0  0  0  0  0  0  0  0  0
  146.6622  134.8231  151.0165 H   0  0  0  0  0  0  0  0  0  0  0  0
  146.0927  132.1452  152.3630 H   0  0  0  0  0  0  0  0  0  0  0  0
  146.8564  132.3712  150.8051 H   0  0  0  0  0  0  0  0  0  0  0  0
  148.5377  131.9852  152.6241 H   0  0  0  0  0  0  0  0  0  0  0  0
  148.7662  133.5318  151.8422 H   0  0  0  0  0  0  0  0  0  0  0  0
  147.3604  133.0669  154.5268 H   0  0  0  0  0  0  0  0  0  0  0  0
  148.9312  133.8060  154.2795 H   0  0  0  0  0  0  0  0  0  0  0  0
  148.1655  136.3799  155.0247 H   0  0  0  0  0  0  0  0  0  0  0  0
  146.4264  136.4820  154.9200 H   0  0  0  0  0  0  0  0  0  0  0  0
  146.0434  134.9206  156.5225 H   0  0  0  0  0  0  0  0  0  0  0  0
  147.2699  133.8241  155.9360 H   0  0  0  0  0  0  0  0  0  0  0  0
  148.9115  135.4720  157.0444 H   0  0  0  0  0  0  0  0  0  0  0  0
  149.4093  135.0341  159.5301 H   0  0  0  0  0  0  0  0  0  0  0  0
  149.7762  137.0949  158.1957 H   0  0  0  0  0  0  0  0  0  0  0  0
  150.1392  137.3639  159.8942 H   0  0  0  0  0  0  0  0  0  0  0  0
  148.6414  137.9818  159.2087 H   0  0  0  0  0  0  0  0  0  0  0  0
  147.6839  133.7565  161.2962 H   0  0  0  0  0  0  0  0  0  0  0  0
  146.8006  134.7169  163.6899 H   0  0  0  0  0  0  0  0  0  0  0  0
  147.2154  137.4477  163.4581 H   0  0  0  0  0  0  0  0  0  0  0  0
  145.4994  135.8633  152.9195 H   0  0  0  0  0  0  0  0  0  0  0  0
  145.2885  134.3111  153.6971 H   0  0  0  0  0  0  0  0  0  0  0  0
  147.8717  135.5270  153.0370 H   0  0  0  0  0  0  0  0  0  0  0  0
  1  2  1  0  0  0  0
  1 20  1  0  0  0  0
  1 21  1  0  0  0  0
  1 22  1  0  0  0  0
  2 19  1  0  0  0  0
  2  3  1  0  0  0  0
  2 23  1  0  0  0  0
  3  4  1  0  0  0  0
  3 24  1  0  0  0  0
  3 25  1  0  0  0  0
  4  5  1  0  0  0  0
  4 26  1  0  0  0  0
  4 27  1  0  0  0  0
  5  6  1  0  0  0  0
  5 28  1  0  0  0  0
  5 29  1  0  0  0  0
  6  7  1  0  0  0  0
  6 19  1  0  0  0  0
  6 44  1  0  0  0  0
  7  8  1  0  0  0  0
  7 30  1  0  0  0  0
  7 31  1  0  0  0  0
  8  9  1  0  0  0  0
  8 32  1  0  0  0  0
  8 33  1  0  0  0  0
  9 10  1  0  0  0  0
  9 34  1  0  0  0  0
 10 11  2  0  0  0  0
 10 12  1  0  0  0  0
 12 13  1  0  0  0  0
 12 14  1  0  0  0  0
 12 35  1  0  0  0  0
 13 36  1  0  0  0  0
 13 37  1  0  0  0  0
 13 38  1  0  0  0  0
 14 18  1  0  0  0  0
 14 15  1  0  0  0  0
 15 16  2  0  0  0  0
 15 39  1  0  0  0  0
 16 17  1  0  0  0  0
 16 40  1  0  0  0  0
 17 18  2  0  0  0  0
 17 41  1  0  0  0  0
 19 42  1  0  0  0  0
 19 43  1  0  0  0  0
M  CHG  1   6   1
M  END
> <s_m_source_file>
AV-unprocessed.smi

> <i_m_source_file_index>
3338

> <i_lp_mmshare_version>
43012

> <i_f3d_flags>
0

> <s_epik_input>
W0NIM11bQ0BASF0xW0NIMl1bQ0gyXVtDSDJdTihbQ0gyXTEpW0NIMl1bQ0gyXVtOSF1DKD1PKVtDQEhdKFtDSDNdKW4yW2NIXVtjSF1bY0hdbjI=

> <s_epik_cmdline>
J2VwaWtfcHl0aG9uJywgJy1waCcsICc3LjAnLCAnLXRuJywgJzgnLCAnLW1hJywgJzIwMCcsICctbWV0YWxfYmluZGluZycsICctaW1hZScsICc8aW5maWxlLm1hZT4nLCAnLW9tYWUnLCAnPG91dGZpbGUubWFlPic=

> <r_lp_tautomer_probability>
1

> <r_epik_Ionization_Penalty>
0.00225707

> <r_epik_Ionization_Penalty_Charging>
0.00223709

> <r_epik_Ionization_Penalty_Neutral>
1.99775e-05

> <r_epik_State_Penalty>
0.00153978

> <r_epik_Charging_Adjusted_Penalty>
0.00377687

> <i_epik_Tot_Q>
1

> <i_epik_Tot_abs_Q>
1

> <r_epik_Metal_State_Penalty>
-0

> <b_epik_Metal_Only>
0

> <s_lp_Force_Field>
OPLS_2005

> <r_lp_Energy>
19.822

> <b_lp_Chiralities_Consistent>
1

> <s_lp_Variant>
AV-unprocessed.smi:3338-5

> <Gold.Version>
5.8.1

> <Gold.Id.Protein>
6NUR|6NUR_protein|mol2

> <Gold.PLP.Fitness>
42.0651

> <Gold.PLP.PLP>
-32.8309

> <Gold.PLP.part.hbond>
-3.0000

> <Gold.PLP.part.metal>
0.0000

> <Gold.PLP.part.buried>
-2.6484

> <Gold.PLP.part.nonpolar>
-27.3804

> <Gold.PLP.part.repulsive>
0.0159

> <Gold.PLP.ligand.clash>
0.0000

> <Gold.PLP.ligand.torsion>
0.9952

> <Gold.PLP.Chemscore.Hbond>
3.7040

> <Gold.PLP.Chemscore.CHOScore>
0.0000

> <Gold.PLP.Chemscore.Metal>
0.0000

> <Gold.Chemscore.Hbonds>
donor molecule, donor type, donor heavy atom, donor atom, acceptor molecule, acceptor atom, score
      L1  H     6    44       P1  7948  2.00
      P1  H  6931  6943       L1    18  1.00
      P1  H  6934  6947       L1    18  0.32

> <Gold.PLP.Chemscore.Internal.Correction>
0.1125

> <Gold.Rescore>
     Score         DG    S(hbond)    S(metal)    S(lipo)     H(rot)  DE(clash)    DE(int)     intcor
     16.35     -17.36       2.51        0.00      68.18       1.76       0.00       1.01       ----

> <Gold.Chemscore.Fitness>
16.3472

> <Gold.Chemscore.DG>
-17.3578

> <Gold.Chemscore.ZeroCoef>
-5.4800

> <Gold.Chemscore.Hbond>
2.5146

> <Gold.Chemscore.Metal>
0.0000

> <Gold.Chemscore.Lipo>
68.1782

> <Gold.Chemscore.Internal_Hbond>
0.0000

> <Gold.Chemscore.DEClash>
0.0000

> <Gold.Chemscore.DEInternal>
1.0106

> <Gold.Chemscore.Rot>
1.7570

> <Gold.Chemscore.Internal.Correction>
   9.000000E+99

> <Gold.Chemscore.Hbonds>
donor molecule, donor type, donor heavy atom, donor atom, acceptor molecule, acceptor atom, score
      L1  H     6    44       P1  7948  1.00
      P1  H  6931  6943       L1    18  0.50
      P1  H  6934  6947       L1    18  0.24

> <Gold.Chemscore.Hbond.Weighted>
-8.3989

> <Gold.Chemscore.Metal.Weighted>
-0.0000

> <Gold.Chemscore.Lipo.Weighted>
-7.9768

> <Gold.Chemscore.Internal_Hbond.Weighted>
0.0000

> <Gold.Chemscore.DEClash.Weighted>
0.0000

> <Gold.Chemscore.DEInternal.Weighted>
1.0106

> <Gold.Chemscore.Rot.Weighted>
4.4979

> <Gold.Chemscore.Internal.Correction.Weighted>
   9.000000E+99

> <Gold.Protein.RotatedTorsions>
[ 6907 6896 6895 6894 ] final   62.61 input  -60.11 | X-H torsion
[ 7974 7965 7964 7962 ] final  -29.09 input  175.53 | X-H torsion
[ 8008 7997 7996 7995 ] final    9.50 input   59.86 | X-H torsion
[ 10167 10162 10161 10158 ] final   61.63 input  -65.29 | X-H torsion
[ 10718 10713 10712 10709 ] final   42.23 input   66.30 | X-H torsion
[ 10763 10752 10751 10750 ] final  -44.22 input  -60.55 | X-H torsion
[ 11005 11000 10999 10996 ] final  -61.16 input  -57.11 | X-H torsion

> <Gold.Protein.ActiveResidues>
 VAL166  LYS551  ARG553  GLY616  TRP617  ASP618  TYR619  PRO620  LYS621  CYS622 
 ASP623  PHE694  ASN695  SER759  ASP760  ASP761  ALA762  ILE779  LEU786  VAL792 
 PHE793  MET794  SER795  GLU796  ALA797  LYS798  CYS799  TRP800  GLU811  SER814 

> <Gold.Protein.RotatedAtoms>
  152.4186  134.5997  159.9996 H   0  0  0  0  0  0  0  0  0  0  0  0  # atno 6907 bound_to 6896
  151.6153  133.3338  159.3084 H   0  0  0  0  0  0  0  0  0  0  0  0  # atno 6908 bound_to 6896
  150.8074  134.7246  159.6722 H   0  0  0  0  0  0  0  0  0  0  0  0  # atno 6909 bound_to 6896
  146.1241  140.5367  142.8722 H   0  0  0  0  0  0  0  0  0  0  0  0  # atno 7974 bound_to 7965
  154.7809  140.2818  155.6065 H   0  0  0  0  0  0  0  0  0  0  0  0  # atno 8008 bound_to 7997
  156.2949  140.2623  156.2562 H   0  0  0  0  0  0  0  0  0  0  0  0  # atno 8009 bound_to 7997
  154.9786  140.0375  157.2257 H   0  0  0  0  0  0  0  0  0  0  0  0  # atno 8010 bound_to 7997
  140.1527  144.4447  150.6751 H   0  0  0  0  0  0  0  0  0  0  0  0  # atno 10167 bound_to 10162
  157.4024  130.7868  149.7360 H   0  0  0  0  0  0  0  0  0  0  0  0  # atno 10718 bound_to 10713
  154.0085  135.6684  153.4763 H   0  0  0  0  0  0  0  0  0  0  0  0  # atno 10763 bound_to 10752
  153.0631  135.5016  154.8135 H   0  0  0  0  0  0  0  0  0  0  0  0  # atno 10764 bound_to 10752
  154.7010  135.3079  154.9304 H   0  0  0  0  0  0  0  0  0  0  0  0  # atno 10765 bound_to 10752
  141.1314  133.6628  156.5332 H   0  0  0  0  0  0  0  0  0  0  0  0  # atno 11005 bound_to 11000
  144.7625  140.5456  143.6725 LP  0  0  0  0  0  0  0  0  0  0  0  0  # atno 17320 bound_to 7965
  145.5402  139.1475  143.3451 LP  0  0  0  0  0  0  0  0  0  0  0  0  # atno 17321 bound_to 7965
  140.6692  143.2279  151.5666 LP  0  0  0  0  0  0  0  0  0  0  0  0  # atno 17342 bound_to 10162
  139.5418  144.2627  152.1366 LP  0  0  0  0  0  0  0  0  0  0  0  0  # atno 17343 bound_to 10162
  155.9827  130.4007  150.3402 LP  0  0  0  0  0  0  0  0  0  0  0  0  # atno 17370 bound_to 10713
  157.1532  131.0326  151.2875 LP  0  0  0  0  0  0  0  0  0  0  0  0  # atno 17371 bound_to 10713
  140.4199  134.7197  157.4884 LP  0  0  0  0  0  0  0  0  0  0  0  0  # atno 17394 bound_to 11000
  140.0367  134.6326  155.9034 LP  0  0  0  0  0  0  0  0  0  0  0  0  # atno 17395 bound_to 11000

$$$$
