AV-unprocessed.smi:2818|AV-procd|sdf|10848|dock4
  -GOLD-   2272015293D 1   1.00000     0.00000
 Structure written by MMmdl.
 25 26  0  0  0  0  0  0  0  0  2 V2000
  153.6754  138.4798  155.1732 O   0  0  0  0  0  0  0  0  0  0  0  0
  152.4606  138.2559  154.9729 C   0  0  0  0  0  0  0  0  0  0  0  0
  152.0618  137.2808  154.2976 O   0  5  0  0  0  0  0  0  0  0  0  0
  151.4441  139.1921  155.5657 C   0  0  0  0  0  0  0  0  0  0  0  0
  150.0746  138.8471  155.6095 C   0  0  0  0  0  0  0  0  0  0  0  0
  149.1650  139.7605  156.1747 C   0  0  0  0  0  0  0  0  0  0  0  0
  149.5313  140.9563  156.6806 N   0  0  0  0  0  0  0  0  0  0  0  0
  150.8442  141.2931  156.6398 C   0  0  0  0  0  0  0  0  0  0  0  0
  151.2407  142.5128  157.1520 O   0  0  0  0  0  0  0  0  0  0  0  0
  150.9908  142.8166  158.5257 C   0  0  2  0  0  0  0  0  0  0  0  0
  151.0938  144.3147  158.7821 C   0  0  0  0  0  0  0  0  0  0  0  0
  152.5769  144.4968  159.0666 C   0  0  0  0  0  0  0  0  0  0  0  0
  152.8908  143.3577  159.8495 O   0  0  0  0  0  0  0  0  0  0  0  0
  152.1508  142.2453  159.3553 C   0  0  0  0  0  0  0  0  0  0  0  0
  151.8289  140.4448  156.0955 C   0  0  0  0  0  0  0  0  0  0  0  0
  149.7200  137.9038  155.2202 H   0  0  0  0  0  0  0  0  0  0  0  0
  148.1125  139.5234  156.2218 H   0  0  0  0  0  0  0  0  0  0  0  0
  150.0413  142.3990  158.8645 H   0  0  0  0  0  0  0  0  0  0  0  0
  150.7418  144.9320  157.9552 H   0  0  0  0  0  0  0  0  0  0  0  0
  150.5158  144.5786  159.6687 H   0  0  0  0  0  0  0  0  0  0  0  0
  153.1570  144.4789  158.1426 H   0  0  0  0  0  0  0  0  0  0  0  0
  152.7958  145.4236  159.5971 H   0  0  0  0  0  0  0  0  0  0  0  0
  151.7890  141.6540  160.1969 H   0  0  0  0  0  0  0  0  0  0  0  0
  152.7972  141.6047  158.7539 H   0  0  0  0  0  0  0  0  0  0  0  0
  152.8624  140.7596  156.0874 H   0  0  0  0  0  0  0  0  0  0  0  0
  1  2  2  0  0  0  0
  2  3  1  0  0  0  0
  2  4  1  0  0  0  0
  4 15  1  0  0  0  0
  4  5  2  0  0  0  0
  5  6  1  0  0  0  0
  5 16  1  0  0  0  0
  6  7  2  0  0  0  0
  6 17  1  0  0  0  0
  7  8  1  0  0  0  0
  8  9  1  0  0  0  0
  8 15  2  0  0  0  0
  9 10  1  0  0  0  0
 10 14  1  0  0  0  0
 10 11  1  0  0  0  0
 10 18  1  0  0  0  0
 11 12  1  0  0  0  0
 11 19  1  0  0  0  0
 11 20  1  0  0  0  0
 12 13  1  0  0  0  0
 12 21  1  0  0  0  0
 12 22  1  0  0  0  0
 13 14  1  0  0  0  0
 14 23  1  0  0  0  0
 14 24  1  0  0  0  0
 15 25  1  0  0  0  0
M  CHG  1   3  -1
M  END
> <s_m_source_file>
AV-unprocessed.smi

> <i_m_source_file_index>
2818

> <i_lp_mmshare_version>
43012

> <i_f3d_flags>
0

> <s_epik_input>
Tz1DKFtPSF0pYzFbY0hdW2NIXW5jKFtjSF0xKU9bQ0BASF0yW0NIMl1bQ0gyXU9bQ0gyXTI=

> <s_epik_cmdline>
J2VwaWtfcHl0aG9uJywgJy1waCcsICc3LjAnLCAnLXRuJywgJzgnLCAnLW1hJywgJzIwMCcsICctbWV0YWxfYmluZGluZycsICctaW1hZScsICc8aW5maWxlLm1hZT4nLCAnLW9tYWUnLCAnPG91dGZpbGUubWFlPic=

> <r_lp_tautomer_probability>
1

> <r_epik_Ionization_Penalty>
0.000147497

> <r_epik_Ionization_Penalty_Charging>
0.00010957

> <r_epik_Ionization_Penalty_Neutral>
3.79274e-05

> <r_epik_State_Penalty>
-0

> <r_epik_Charging_Adjusted_Penalty>
0.00010957

> <i_epik_Tot_Q>
-1

> <i_epik_Tot_abs_Q>
1

> <r_epik_Metal_State_Penalty>
-0

> <b_epik_Metal_Only>
0

> <s_lp_Force_Field>
OPLS_2005

> <r_lp_Energy>
14.7061

> <b_lp_Chiralities_Consistent>
1

> <s_lp_Variant>
AV-unprocessed.smi:2818-1

> <Gold.Version>
5.8.1

> <Gold.Id.Protein>
6NUR|6NUR_protein|mol2

> <Gold.PLP.Fitness>
39.9665

> <Gold.PLP.PLP>
-28.9743

> <Gold.PLP.part.hbond>
-2.0000

> <Gold.PLP.part.metal>
0.0000

> <Gold.PLP.part.buried>
-6.2277

> <Gold.PLP.part.nonpolar>
-21.9991

> <Gold.PLP.part.repulsive>
0.4375

> <Gold.PLP.ligand.clash>
0.0000

> <Gold.PLP.ligand.torsion>
0.2970

> <Gold.PLP.Chemscore.Hbond>
3.8560

> <Gold.PLP.Chemscore.CHOScore>
0.0000

> <Gold.PLP.Chemscore.Metal>
0.0000

> <Gold.Chemscore.Hbonds>
donor molecule, donor type, donor heavy atom, donor atom, acceptor molecule, acceptor atom, score
      P1  H  7997  8010       L1     1  1.44
      P1  H 10752 10763       L1     3  1.76

> <Gold.PLP.Chemscore.Internal.Correction>
0.0183

> <Gold.Rescore>
     Score         DG    S(hbond)    S(metal)    S(lipo)     H(rot)  DE(clash)    DE(int)     intcor
     15.71     -16.03       1.82        0.00      66.28       1.28       0.21       0.12       ----

> <Gold.Chemscore.Fitness>
15.7070

> <Gold.Chemscore.DG>
-16.0349

> <Gold.Chemscore.ZeroCoef>
-5.4800

> <Gold.Chemscore.Hbond>
1.8184

> <Gold.Chemscore.Metal>
0.0000

> <Gold.Chemscore.Lipo>
66.2841

> <Gold.Chemscore.Internal_Hbond>
0.0000

> <Gold.Chemscore.DEClash>
0.2062

> <Gold.Chemscore.DEInternal>
0.1217

> <Gold.Chemscore.Rot>
1.2788

> <Gold.Chemscore.Internal.Correction>
   9.000000E+99

> <Gold.Chemscore.Hbonds>
donor molecule, donor type, donor heavy atom, donor atom, acceptor molecule, acceptor atom, score
      P1  H  7997  8010       L1     1  0.67
      P1  H 10752 10763       L1     3  0.86

> <Gold.Chemscore.Hbond.Weighted>
-6.0735

> <Gold.Chemscore.Metal.Weighted>
-0.0000

> <Gold.Chemscore.Lipo.Weighted>
-7.7552

> <Gold.Chemscore.Internal_Hbond.Weighted>
0.0000

> <Gold.Chemscore.DEClash.Weighted>
0.2062

> <Gold.Chemscore.DEInternal.Weighted>
0.1217

> <Gold.Chemscore.Rot.Weighted>
3.2738

> <Gold.Chemscore.Internal.Correction.Weighted>
   9.000000E+99

> <Gold.Protein.RotatedTorsions>
[ 6907 6896 6895 6894 ] final -118.83 input  -60.11 | X-H torsion
[ 7974 7965 7964 7962 ] final  144.97 input  175.53 | X-H torsion
[ 8008 7997 7996 7995 ] final  119.15 input   59.86 | X-H torsion
[ 10167 10162 10161 10158 ] final -158.39 input  -65.29 | X-H torsion
[ 10718 10713 10712 10709 ] final  162.01 input   66.30 | X-H torsion
[ 10763 10752 10751 10750 ] final   28.70 input  -60.55 | X-H torsion
[ 11005 11000 10999 10996 ] final   18.38 input  -57.11 | X-H torsion

> <Gold.Protein.ActiveResidues>
 VAL166  LYS551  ARG553  GLY616  TRP617  ASP618  TYR619  PRO620  LYS621  CYS622 
 ASP623  PHE694  ASN695  SER759  ASP760  ASP761  ALA762  ILE779  LEU786  VAL792 
 PHE793  MET794  SER795  GLU796  ALA797  LYS798  CYS799  TRP800  GLU811  SER814 

> <Gold.Protein.RotatedAtoms>
  150.8253  133.8183  159.3121 H   0  0  0  0  0  0  0  0  0  0  0  0  # atno 6907 bound_to 6896
  151.5929  135.1050  160.0052 H   0  0  0  0  0  0  0  0  0  0  0  0  # atno 6908 bound_to 6896
  152.4338  133.7283  159.6629 H   0  0  0  0  0  0  0  0  0  0  0  0  # atno 6909 bound_to 6896
  144.8791  139.5727  143.5851 H   0  0  0  0  0  0  0  0  0  0  0  0  # atno 7974 bound_to 7965
  156.2582  140.2859  156.0946 H   0  0  0  0  0  0  0  0  0  0  0  0  # atno 8008 bound_to 7997
  155.1426  140.0396  157.2819 H   0  0  0  0  0  0  0  0  0  0  0  0  # atno 8009 bound_to 7997
  154.6519  140.2546  155.7211 H   0  0  0  0  0  0  0  0  0  0  0  0  # atno 8010 bound_to 7997
  139.6696  143.9769  152.2275 H   0  0  0  0  0  0  0  0  0  0  0  0  # atno 10167 bound_to 10162
  157.1285  131.0510  151.2382 H   0  0  0  0  0  0  0  0  0  0  0  0  # atno 10718 bound_to 10713
  153.0476  135.6507  154.0777 H   0  0  0  0  0  0  0  0  0  0  0  0  # atno 10763 bound_to 10752
  154.0472  135.2898  155.3347 H   0  0  0  0  0  0  0  0  0  0  0  0  # atno 10764 bound_to 10752
  154.6743  135.5344  153.8245 H   0  0  0  0  0  0  0  0  0  0  0  0  # atno 10765 bound_to 10752
  140.4254  134.1475  155.7676 H   0  0  0  0  0  0  0  0  0  0  0  0  # atno 11005 bound_to 11000
  146.2982  139.7345  142.9111 LP  0  0  0  0  0  0  0  0  0  0  0  0  # atno 17320 bound_to 7965
  145.3987  141.0382  143.3082 LP  0  0  0  0  0  0  0  0  0  0  0  0  # atno 17321 bound_to 7965
  139.9529  144.6608  150.8154 LP  0  0  0  0  0  0  0  0  0  0  0  0  # atno 17342 bound_to 10162
  140.7613  143.3170  151.2709 LP  0  0  0  0  0  0  0  0  0  0  0  0  # atno 17343 bound_to 10162
  157.4413  130.7546  149.7072 LP  0  0  0  0  0  0  0  0  0  0  0  0  # atno 17370 bound_to 10713
  155.9813  130.4021  150.3480 LP  0  0  0  0  0  0  0  0  0  0  0  0  # atno 17371 bound_to 10713
  141.1767  133.8499  157.1397 LP  0  0  0  0  0  0  0  0  0  0  0  0  # atno 17394 bound_to 11000
  140.0171  134.9962  157.0515 LP  0  0  0  0  0  0  0  0  0  0  0  0  # atno 17395 bound_to 11000

$$$$
