AV-unprocessed.smi:1814|AV-procd|sdf|7348|dock2
  -GOLD-   22720 9 13D 1   1.00000     0.00000
 Structure written by MMmdl.
 31 32  0  0  0  0  0  0  0  0  1 V2000
  151.0522  141.0452  156.4313 O   0  0  0  0  0  0  0  0  0  0  0  0
  150.3653  142.0600  156.3102 C   0  0  0  0  0  0  0  0  0  0  0  0
  150.4581  143.1580  157.0811 N   0  0  0  0  0  0  0  0  0  0  0  0
  151.3246  143.3865  158.1823 C   0  0  0  0  0  0  0  0  0  0  0  0
  152.2046  142.4926  158.6489 N   0  0  0  0  0  0  0  0  0  0  0  0
  152.9219  142.9841  159.7425 C   0  0  0  0  0  0  0  0  0  0  0  0
  152.5741  144.2639  160.0965 C   0  0  0  0  0  0  0  0  0  0  0  0
  151.3229  144.9058  159.0658 S   0  0  0  0  0  0  0  0  0  0  0  0
  149.4170  142.2039  155.3727 N   0  0  0  0  0  0  0  0  0  0  0  0
  149.0546  141.1963  154.3801 C   0  0  2  0  0  0  0  0  0  0  0  0
  147.6912  141.5282  153.7378 C   0  0  0  0  0  0  0  0  0  0  0  0
  147.2606  140.4399  152.7412 C   0  0  0  0  0  0  0  0  0  0  0  0
  147.2337  139.0544  153.4092 C   0  0  1  0  0  0  0  0  0  0  0  0
  146.9050  138.0736  152.4483 O   0  0  0  0  0  0  0  0  0  0  0  0
  148.5948  138.7183  154.0423 C   0  0  0  0  0  0  0  0  0  0  0  0
  149.0231  139.8053  155.0415 C   0  0  0  0  0  0  0  0  0  0  0  0
  149.8311  143.9169  156.8586 H   0  0  0  0  0  0  0  0  0  0  0  0
  153.6634  142.3532  160.2104 H   0  0  0  0  0  0  0  0  0  0  0  0
  152.9761  144.8648  160.8987 H   0  0  0  0  0  0  0  0  0  0  0  0
  148.9030  143.0722  155.3457 H   0  0  0  0  0  0  0  0  0  0  0  0
  149.8172  141.1799  153.5987 H   0  0  0  0  0  0  0  0  0  0  0  0
  146.9312  141.6286  154.5140 H   0  0  0  0  0  0  0  0  0  0  0  0
  147.7385  142.4904  153.2265 H   0  0  0  0  0  0  0  0  0  0  0  0
  146.2774  140.6801  152.3352 H   0  0  0  0  0  0  0  0  0  0  0  0
  147.9515  140.4323  151.8967 H   0  0  0  0  0  0  0  0  0  0  0  0
  146.4625  139.0393  154.1805 H   0  0  0  0  0  0  0  0  0  0  0  0
  147.5696  137.4018  152.4650 H   0  0  0  0  0  0  0  0  0  0  0  0
  148.5463  137.7523  154.5466 H   0  0  0  0  0  0  0  0  0  0  0  0
  149.3540  138.6244  153.2644 H   0  0  0  0  0  0  0  0  0  0  0  0
  150.0054  139.5618  155.4483 H   0  0  0  0  0  0  0  0  0  0  0  0
  148.3316  139.8113  155.8855 H   0  0  0  0  0  0  0  0  0  0  0  0
  1  2  2  0  0  0  0
  2  3  1  0  0  0  0
  2  9  1  0  0  0  0
  3  4  1  0  0  0  0
  3 17  1  0  0  0  0
  4  8  1  0  0  0  0
  4  5  2  0  0  0  0
  5  6  1  0  0  0  0
  6  7  2  0  0  0  0
  6 18  1  0  0  0  0
  7  8  1  0  0  0  0
  7 19  1  0  0  0  0
  9 10  1  0  0  0  0
  9 20  1  0  0  0  0
 10 16  1  0  0  0  0
 10 11  1  0  0  0  0
 10 21  1  0  0  0  0
 11 12  1  0  0  0  0
 11 22  1  0  0  0  0
 11 23  1  0  0  0  0
 12 13  1  0  0  0  0
 12 24  1  0  0  0  0
 12 25  1  0  0  0  0
 13 14  1  0  0  0  0
 13 15  1  0  0  0  0
 13 26  1  0  0  0  0
 14 27  1  0  0  0  0
 15 16  1  0  0  0  0
 15 28  1  0  0  0  0
 15 29  1  0  0  0  0
 16 30  1  0  0  0  0
 16 31  1  0  0  0  0
M  END
> <s_m_source_file>
AV-unprocessed.smi

> <i_m_source_file_index>
1814

> <i_lp_mmshare_version>
43012

> <i_f3d_flags>
0

> <s_epik_input>
czFbY0hdW2NIXW5jMVtOSF1DKD1PKVtOSF1bQ0BASF0yW0NIMl1bQ0gyXVtDQEBIXShbT0hdKVtDSDJdW0NIMl0y

> <s_epik_cmdline>
J2VwaWtfcHl0aG9uJywgJy1waCcsICc3LjAnLCAnLXRuJywgJzgnLCAnLW1hJywgJzIwMCcsICctbWV0YWxfYmluZGluZycsICctaW1hZScsICc8aW5maWxlLm1hZT4nLCAnLW9tYWUnLCAnPG91dGZpbGUubWFlPic=

> <r_lp_tautomer_probability>
0.999

> <r_epik_Ionization_Penalty>
0.000428518

> <r_epik_Ionization_Penalty_Charging>
0

> <r_epik_Ionization_Penalty_Neutral>
0.000428518

> <r_epik_State_Penalty>
0.000177984

> <r_epik_Charging_Adjusted_Penalty>
0.000177984

> <i_epik_Tot_Q>
0

> <i_epik_Tot_abs_Q>
0

> <r_epik_Metal_State_Penalty>
-0

> <b_epik_Metal_Only>
0

> <s_lp_Force_Field>
OPLS_2005

> <r_lp_Energy>
5.88149

> <b_lp_Chiralities_Consistent>
1

> <s_lp_Variant>
AV-unprocessed.smi:1814-1

> <Gold.Version>
5.8.1

> <Gold.Id.Protein>
6NUR|6NUR_protein|mol2

> <Gold.PLP.Fitness>
41.4764

> <Gold.PLP.PLP>
-32.9326

> <Gold.PLP.part.hbond>
-3.0000

> <Gold.PLP.part.metal>
0.0000

> <Gold.PLP.part.buried>
-3.4965

> <Gold.PLP.part.nonpolar>
-26.5097

> <Gold.PLP.part.repulsive>
0.2243

> <Gold.PLP.ligand.clash>
0.0000

> <Gold.PLP.ligand.torsion>
0.2298

> <Gold.PLP.Chemscore.Hbond>
3.0000

> <Gold.PLP.Chemscore.CHOScore>
0.0000

> <Gold.PLP.Chemscore.Metal>
0.0000

> <Gold.Chemscore.Hbonds>
donor molecule, donor type, donor heavy atom, donor atom, acceptor molecule, acceptor atom, score
      L1  H     3    17       P1  8028  0.98
      L1  H     9    20       P1  8028  0.98
      L1  H    14    27       P1  7948  1.00

> <Gold.PLP.Chemscore.Internal.Correction>
0.0033

> <Gold.Rescore>
     Score         DG    S(hbond)    S(metal)    S(lipo)     H(rot)  DE(clash)    DE(int)     intcor
     16.37     -20.47       2.89        0.00      78.32       1.50       1.16       2.94       ----

> <Gold.Chemscore.Fitness>
16.3653

> <Gold.Chemscore.DG>
-20.4656

> <Gold.Chemscore.ZeroCoef>
-5.4800

> <Gold.Chemscore.Hbond>
2.8933

> <Gold.Chemscore.Metal>
0.0000

> <Gold.Chemscore.Lipo>
78.3198

> <Gold.Chemscore.Internal_Hbond>
0.0000

> <Gold.Chemscore.DEClash>
1.1627

> <Gold.Chemscore.DEInternal>
2.9376

> <Gold.Chemscore.Rot>
1.5006

> <Gold.Chemscore.Internal.Correction>
   9.000000E+99

> <Gold.Chemscore.Hbonds>
donor molecule, donor type, donor heavy atom, donor atom, acceptor molecule, acceptor atom, score
      L1  H     3    17       P1  8028  0.90
      L1  H     9    20       P1  8028  0.93
      L1  H    14    27       P1  7948  0.99

> <Gold.Chemscore.Hbond.Weighted>
-9.6637

> <Gold.Chemscore.Metal.Weighted>
-0.0000

> <Gold.Chemscore.Lipo.Weighted>
-9.1634

> <Gold.Chemscore.Internal_Hbond.Weighted>
0.0000

> <Gold.Chemscore.DEClash.Weighted>
1.1627

> <Gold.Chemscore.DEInternal.Weighted>
2.9376

> <Gold.Chemscore.Rot.Weighted>
3.8415

> <Gold.Chemscore.Internal.Correction.Weighted>
   9.000000E+99

> <Gold.Protein.RotatedTorsions>
[ 6907 6896 6895 6894 ] final  108.96 input  -60.11 | X-H torsion
[ 7974 7965 7964 7962 ] final -126.30 input  175.53 | X-H torsion
[ 8008 7997 7996 7995 ] final  105.09 input   59.86 | X-H torsion
[ 10167 10162 10161 10158 ] final   37.63 input  -65.29 | X-H torsion
[ 10718 10713 10712 10709 ] final   54.67 input   66.30 | X-H torsion
[ 10763 10752 10751 10750 ] final  108.58 input  -60.55 | X-H torsion
[ 11005 11000 10999 10996 ] final  -19.84 input  -57.11 | X-H torsion

> <Gold.Protein.ActiveResidues>
 VAL166  LYS551  ARG553  GLY616  TRP617  ASP618  TYR619  PRO620  LYS621  CYS622 
 ASP623  PHE694  ASN695  SER759  ASP760  ASP761  ALA762  ILE779  LEU786  VAL792 
 PHE793  MET794  SER795  GLU796  ALA797  LYS798  CYS799  TRP800  GLU811  SER814 

> <Gold.Protein.RotatedAtoms>
  152.5089  133.9013  159.7442 H   0  0  0  0  0  0  0  0  0  0  0  0  # atno 6907 bound_to 6896
  150.9428  133.6628  159.2794 H   0  0  0  0  0  0  0  0  0  0  0  0  # atno 6908 bound_to 6896
  151.3933  135.0964  159.9586 H   0  0  0  0  0  0  0  0  0  0  0  0  # atno 6909 bound_to 6896
  144.9887  140.7711  143.4567 H   0  0  0  0  0  0  0  0  0  0  0  0  # atno 7974 bound_to 7965
  156.1629  140.3136  155.8838 H   0  0  0  0  0  0  0  0  0  0  0  0  # atno 8008 bound_to 7997
  155.3745  140.0484  157.3062 H   0  0  0  0  0  0  0  0  0  0  0  0  # atno 8009 bound_to 7997
  154.5164  140.2183  155.9069 H   0  0  0  0  0  0  0  0  0  0  0  0  # atno 8010 bound_to 7997
  140.4014  144.1719  150.6134 H   0  0  0  0  0  0  0  0  0  0  0  0  # atno 10167 bound_to 10162
  157.5278  130.8609  149.8645 H   0  0  0  0  0  0  0  0  0  0  0  0  # atno 10718 bound_to 10713
  153.4227  135.3807  155.2121 H   0  0  0  0  0  0  0  0  0  0  0  0  # atno 10763 bound_to 10752
  154.8745  135.3821  154.4365 H   0  0  0  0  0  0  0  0  0  0  0  0  # atno 10764 bound_to 10752
  153.4887  135.7088  153.5959 H   0  0  0  0  0  0  0  0  0  0  0  0  # atno 10765 bound_to 10752
  140.8406  133.7929  155.9856 H   0  0  0  0  0  0  0  0  0  0  0  0  # atno 11005 bound_to 11000
  145.2317  139.2112  143.5039 LP  0  0  0  0  0  0  0  0  0  0  0  0  # atno 17320 bound_to 7965
  146.3426  140.2195  142.8591 LP  0  0  0  0  0  0  0  0  0  0  0  0  # atno 17321 bound_to 7965
  140.4736  143.2404  151.9054 LP  0  0  0  0  0  0  0  0  0  0  0  0  # atno 17342 bound_to 10162
  139.4784  144.5344  151.8620 LP  0  0  0  0  0  0  0  0  0  0  0  0  # atno 17343 bound_to 10162
  156.0400  130.3741  150.1461 LP  0  0  0  0  0  0  0  0  0  0  0  0  # atno 17370 bound_to 10713
  156.9647  130.9816  151.3472 LP  0  0  0  0  0  0  0  0  0  0  0  0  # atno 17371 bound_to 10713
  140.8900  134.2507  157.5099 LP  0  0  0  0  0  0  0  0  0  0  0  0  # atno 17394 bound_to 11000
  139.8703  134.9657  156.4536 LP  0  0  0  0  0  0  0  0  0  0  0  0  # atno 17395 bound_to 11000

$$$$
