AV-unprocessed.smi:1360|AV-procd|sdf|5552|dock2
  -GOLD-   22720 5143D 1   1.00000     0.00000
 Structure written by MMmdl.
 36 37  0  0  0  0  0  0  0  0  1 V2000
  153.7818  140.1553  161.0827 C   0  0  0  0  0  0  0  0  0  0  0  0
  152.8543  141.2059  160.4502 C   0  0  1  0  0  0  0  0  0  0  0  0
  153.5583  142.5525  160.1741 C   0  0  0  0  0  0  0  0  0  0  0  0
  152.6598  143.5530  159.6267 N   0  0  0  0  0  0  0  0  0  0  0  0
  152.1229  144.6551  160.2582 C   0  0  0  0  0  0  0  0  0  0  0  0
  151.3381  145.3028  159.3477 C   0  0  0  0  0  0  0  0  0  0  0  0
  151.4570  144.5084  158.1732 C   0  0  0  0  0  0  0  0  0  0  0  0
  152.2480  143.4612  158.3432 N   0  0  0  0  0  0  0  0  0  0  0  0
  152.2965  140.6672  159.2132 N   0  0  0  0  0  0  0  0  0  0  0  0
  152.9743  139.9618  158.2939 C   0  0  0  0  0  0  0  0  0  0  0  0
  154.1693  139.6843  158.4017 O   0  0  0  0  0  0  0  0  0  0  0  0
  152.1794  139.4992  157.0655 C   0  0  2  0  0  0  0  0  0  0  0  0
  153.0287  138.5773  156.1596 C   0  0  0  0  0  0  0  0  0  0  0  0
  152.3588  138.3141  154.8223 C   0  0  0  0  0  0  0  0  0  0  0  0
  151.3386  139.0500  154.3488 C   0  0  0  0  0  0  0  0  0  0  0  0
  150.7440  140.2318  155.0944 C   0  0  0  0  0  0  0  0  0  0  0  0
  151.6390  140.6970  156.2589 C   0  0  0  0  0  0  0  0  0  0  0  0
  154.1474  140.4790  162.0572 H   0  0  0  0  0  0  0  0  0  0  0  0
  154.6481  139.9596  160.4500 H   0  0  0  0  0  0  0  0  0  0  0  0
  153.2584  139.2104  161.2325 H   0  0  0  0  0  0  0  0  0  0  0  0
  152.0365  141.3800  161.1523 H   0  0  0  0  0  0  0  0  0  0  0  0
  154.0049  142.9414  161.0909 H   0  0  0  0  0  0  0  0  0  0  0  0
  154.3763  142.4154  159.4655 H   0  0  0  0  0  0  0  0  0  0  0  0
  152.3445  144.8842  161.2903 H   0  0  0  0  0  0  0  0  0  0  0  0
  150.7655  146.2060  159.4978 H   0  0  0  0  0  0  0  0  0  0  0  0
  150.9948  144.6602  157.2088 H   0  0  0  0  0  0  0  0  0  0  0  0
  151.3182  140.8476  159.0408 H   0  0  0  0  0  0  0  0  0  0  0  0
  151.3192  138.9248  157.4151 H   0  0  0  0  0  0  0  0  0  0  0  0
  154.0117  139.0077  155.9628 H   0  0  0  0  0  0  0  0  0  0  0  0
  153.1951  137.6222  156.6589 H   0  0  0  0  0  0  0  0  0  0  0  0
  152.7485  137.4956  154.2350 H   0  0  0  0  0  0  0  0  0  0  0  0
  150.8954  138.8031  153.3953 H   0  0  0  0  0  0  0  0  0  0  0  0
  150.5842  141.0544  154.3971 H   0  0  0  0  0  0  0  0  0  0  0  0
  149.7629  139.9365  155.4676 H   0  0  0  0  0  0  0  0  0  0  0  0
  151.0781  141.3763  156.9023 H   0  0  0  0  0  0  0  0  0  0  0  0
  152.4750  141.2729  155.8583 H   0  0  0  0  0  0  0  0  0  0  0  0
  1  2  1  0  0  0  0
  1 18  1  0  0  0  0
  1 19  1  0  0  0  0
  1 20  1  0  0  0  0
  2  3  1  0  0  0  0
  2  9  1  0  0  0  0
  2 21  1  0  0  0  0
  3  4  1  0  0  0  0
  3 22  1  0  0  0  0
  3 23  1  0  0  0  0
  4  8  1  0  0  0  0
  4  5  1  0  0  0  0
  5  6  2  0  0  0  0
  5 24  1  0  0  0  0
  6  7  1  0  0  0  0
  6 25  1  0  0  0  0
  7  8  2  0  0  0  0
  7 26  1  0  0  0  0
  9 10  1  0  0  0  0
  9 27  1  0  0  0  0
 10 11  2  0  0  0  0
 10 12  1  0  0  0  0
 12 17  1  0  0  0  0
 12 13  1  0  0  0  0
 12 28  1  0  0  0  0
 13 14  1  0  0  0  0
 13 29  1  0  0  0  0
 13 30  1  0  0  0  0
 14 15  2  0  0  0  0
 14 31  1  0  0  0  0
 15 16  1  0  0  0  0
 15 32  1  0  0  0  0
 16 17  1  0  0  0  0
 16 33  1  0  0  0  0
 16 34  1  0  0  0  0
 17 35  1  0  0  0  0
 17 36  1  0  0  0  0
M  END
> <s_m_source_file>
AV-unprocessed.smi

> <i_m_source_file_index>
1360

> <i_lp_mmshare_version>
43012

> <i_f3d_flags>
0

> <s_epik_input>
bjFbY0hdW2NIXVtjSF1uMVtDSDJdW0NAQEhdKFtDSDNdKVtOSF1DKD1PKVtDQEBIXTJbQ0gyXVtDSF09W0NIXVtDSDJdW0NIMl0y

> <s_epik_cmdline>
J2VwaWtfcHl0aG9uJywgJy1waCcsICc3LjAnLCAnLXRuJywgJzgnLCAnLW1hJywgJzIwMCcsICctbWV0YWxfYmluZGluZycsICctaW1hZScsICc8aW5maWxlLm1hZT4nLCAnLW9tYWUnLCAnPG91dGZpbGUubWFlPic=

> <r_lp_tautomer_probability>
1

> <r_epik_Ionization_Penalty>
0.000315076

> <r_epik_Ionization_Penalty_Charging>
0

> <r_epik_Ionization_Penalty_Neutral>
0.000315076

> <r_epik_State_Penalty>
-0

> <r_epik_Charging_Adjusted_Penalty>
0

> <i_epik_Tot_Q>
0

> <i_epik_Tot_abs_Q>
0

> <r_epik_Metal_State_Penalty>
-0

> <b_epik_Metal_Only>
0

> <s_lp_Force_Field>
OPLS_2005

> <r_lp_Energy>
7.97441

> <b_lp_Chiralities_Consistent>
1

> <s_lp_Variant>
AV-unprocessed.smi:1360-2

> <Gold.Version>
5.8.1

> <Gold.Id.Protein>
6NUR|6NUR_protein|mol2

> <Gold.PLP.Fitness>
44.9861

> <Gold.PLP.PLP>
-39.9576

> <Gold.PLP.part.hbond>
-0.7902

> <Gold.PLP.part.metal>
0.0000

> <Gold.PLP.part.buried>
-2.3468

> <Gold.PLP.part.nonpolar>
-36.8901

> <Gold.PLP.part.repulsive>
0.1707

> <Gold.PLP.ligand.clash>
0.0189

> <Gold.PLP.ligand.torsion>
0.4957

> <Gold.PLP.Chemscore.Hbond>
1.0000

> <Gold.PLP.Chemscore.CHOScore>
1.0000

> <Gold.PLP.Chemscore.Metal>
0.0000

> <Gold.Chemscore.Hbonds>
donor molecule, donor type, donor heavy atom, donor atom, acceptor molecule, acceptor atom, score
      P1  H  7997  8010       L1    11  0.76
      L1  C     7    26       P1  8028  0.88

> <Gold.PLP.Chemscore.Internal.Correction>
0.0389

> <Gold.Rescore>
     Score         DG    S(hbond)    S(metal)    S(lipo)     H(rot)  DE(clash)    DE(int)     intcor
     15.35     -17.27       0.96        0.00     106.44       1.51       0.04       1.89       ----

> <Gold.Chemscore.Fitness>
15.3489

> <Gold.Chemscore.DG>
-17.2732

> <Gold.Chemscore.ZeroCoef>
-5.4800

> <Gold.Chemscore.Hbond>
0.9563

> <Gold.Chemscore.Metal>
0.0000

> <Gold.Chemscore.Lipo>
106.4437

> <Gold.Chemscore.Internal_Hbond>
0.0000

> <Gold.Chemscore.DEClash>
0.0359

> <Gold.Chemscore.DEInternal>
1.8884

> <Gold.Chemscore.Rot>
1.5057

> <Gold.Chemscore.Internal.Correction>
   9.000000E+99

> <Gold.Chemscore.Hbonds>
donor molecule, donor type, donor heavy atom, donor atom, acceptor molecule, acceptor atom, score
      P1  H  7997  8010       L1    11  0.69

> <Gold.Chemscore.Hbond.Weighted>
-3.1939

> <Gold.Chemscore.Metal.Weighted>
-0.0000

> <Gold.Chemscore.Lipo.Weighted>
-12.4539

> <Gold.Chemscore.Internal_Hbond.Weighted>
0.0000

> <Gold.Chemscore.DEClash.Weighted>
0.0359

> <Gold.Chemscore.DEInternal.Weighted>
1.8884

> <Gold.Chemscore.Rot.Weighted>
3.8546

> <Gold.Chemscore.Internal.Correction.Weighted>
   9.000000E+99

> <Gold.Protein.RotatedTorsions>
[ 6907 6896 6895 6894 ] final  167.28 input  -60.11 | X-H torsion
[ 7974 7965 7964 7962 ] final -150.19 input  175.53 | X-H torsion
[ 8008 7997 7996 7995 ] final    2.21 input   59.86 | X-H torsion
[ 10167 10162 10161 10158 ] final  178.04 input  -65.29 | X-H torsion
[ 10718 10713 10712 10709 ] final  -54.31 input   66.30 | X-H torsion
[ 10763 10752 10751 10750 ] final  -39.12 input  -60.55 | X-H torsion
[ 11005 11000 10999 10996 ] final -141.64 input  -57.11 | X-H torsion

> <Gold.Protein.ActiveResidues>
 VAL166  LYS551  ARG553  GLY616  TRP617  ASP618  TYR619  PRO620  LYS621  CYS622 
 ASP623  PHE694  ASN695  SER759  ASP760  ASP761  ALA762  ILE779  LEU786  VAL792 
 PHE793  MET794  SER795  GLU796  ALA797  LYS798  CYS799  TRP800  GLU811  SER814 

> <Gold.Protein.RotatedAtoms>
  151.8658  133.3466  159.3718 H   0  0  0  0  0  0  0  0  0  0  0  0  # atno 6907 bound_to 6896
  150.7166  134.5161  159.5640 H   0  0  0  0  0  0  0  0  0  0  0  0  # atno 6908 bound_to 6896
  152.2684  134.7960  160.0469 H   0  0  0  0  0  0  0  0  0  0  0  0  # atno 6909 bound_to 6896
  144.7922  140.4965  143.5765 H   0  0  0  0  0  0  0  0  0  0  0  0  # atno 7974 bound_to 7965
  154.6889  140.2649  155.6832 H   0  0  0  0  0  0  0  0  0  0  0  0  # atno 8008 bound_to 7997
  156.2725  140.2795  156.1383 H   0  0  0  0  0  0  0  0  0  0  0  0  # atno 8009 bound_to 7997
  155.0925  140.0373  157.2663 H   0  0  0  0  0  0  0  0  0  0  0  0  # atno 8010 bound_to 7997
  139.5278  144.2727  152.0614 H   0  0  0  0  0  0  0  0  0  0  0  0  # atno 10167 bound_to 10162
  156.1461  130.4153  150.0021 H   0  0  0  0  0  0  0  0  0  0  0  0  # atno 10718 bound_to 10713
  153.9242  135.6779  153.4747 H   0  0  0  0  0  0  0  0  0  0  0  0  # atno 10763 bound_to 10752
  153.1013  135.4827  154.8869 H   0  0  0  0  0  0  0  0  0  0  0  0  # atno 10764 bound_to 10752
  154.7462  135.3173  154.8597 H   0  0  0  0  0  0  0  0  0  0  0  0  # atno 10765 bound_to 10752
  140.8304  134.2524  157.4859 H   0  0  0  0  0  0  0  0  0  0  0  0  # atno 11005 bound_to 11000
  145.5764  139.1486  143.3259 LP  0  0  0  0  0  0  0  0  0  0  0  0  # atno 17320 bound_to 7965
  146.2178  140.5896  142.9030 LP  0  0  0  0  0  0  0  0  0  0  0  0  # atno 17321 bound_to 7965
  140.2186  144.4490  150.6352 LP  0  0  0  0  0  0  0  0  0  0  0  0  # atno 17342 bound_to 10162
  140.6433  143.2208  151.6241 LP  0  0  0  0  0  0  0  0  0  0  0  0  # atno 17343 bound_to 10162
  156.7892  130.9250  151.3646 LP  0  0  0  0  0  0  0  0  0  0  0  0  # atno 17370 bound_to 10713
  157.6618  130.8972  149.9846 LP  0  0  0  0  0  0  0  0  0  0  0  0  # atno 17371 bound_to 10713
  139.8705  134.9583  156.4295 LP  0  0  0  0  0  0  0  0  0  0  0  0  # atno 17394 bound_to 11000
  140.9004  133.7783  155.9674 LP  0  0  0  0  0  0  0  0  0  0  0  0  # atno 17395 bound_to 11000

$$$$
