AV-unprocessed.smi:2510|AV-procd|sdf|9871|dock10
  -GOLD-   2272013503D 1   1.00000     0.00000
 Structure written by MMmdl.
 48 49  0  0  0  0  0  0  0  0  1 V2000
  151.8577  144.8044  159.0220 C   0  0  0  0  0  0  0  0  0  0  0  0
  152.2826  143.6200  158.1424 C   0  0  0  0  0  0  0  0  0  0  0  0
  151.4785  142.3160  158.3414 C   0  0  0  0  0  0  0  0  0  0  0  0
  149.9864  142.6123  157.9946 C   0  0  0  0  0  0  0  0  0  0  0  0
  149.0433  141.3974  157.9451 C   0  0  0  0  0  0  0  0  0  0  0  0
  152.1176  141.0775  157.6481 C   0  0  2  0  0  0  0  0  0  0  0  0
  151.5131  140.6938  156.3771 N   0  0  0  0  0  0  0  0  0  0  0  0
  151.4055  139.4302  155.9410 C   0  0  0  0  0  0  0  0  0  0  0  0
  151.7462  138.4521  156.6061 O   0  0  0  0  0  0  0  0  0  0  0  0
  150.8502  139.2417  154.5294 C   0  0  0  0  0  0  0  0  0  0  0  0
  149.4759  139.8500  154.4394 C   0  0  0  0  0  0  0  0  0  0  0  0
  149.1208  141.2314  154.4845 C   0  0  0  0  0  0  0  0  0  0  0  0
  147.7618  141.2370  154.3435 C   0  0  0  0  0  0  0  0  0  0  0  0
  146.7792  142.3572  154.2970 C   0  0  0  0  0  0  0  0  0  0  0  0
  147.3814  139.9191  154.2396 N   0  0  0  0  0  0  0  0  0  0  0  0
  148.4181  139.0631  154.2985 N   0  0  0  0  0  0  0  0  0  0  0  0
  151.6472  140.2182  158.8263 C   0  0  1  0  0  0  0  0  0  0  0  0
  152.4359  138.9746  159.2166 C   0  0  0  0  0  0  0  0  0  0  0  0
  151.7478  141.5165  159.6520 C   0  0  1  0  0  0  0  0  0  0  0  0
  153.0616  141.7478  160.1532 O   0  0  0  0  0  0  0  0  0  0  0  0
  153.1083  142.7372  161.1673 C   0  0  0  0  0  0  0  0  0  0  0  0
  146.4314  139.5936  154.1286 H   0  0  0  0  0  0  0  0  0  0  0  0
  152.5836  145.6139  158.9463 H   0  0  0  0  0  0  0  0  0  0  0  0
  151.7892  144.5211  160.0725 H   0  0  0  0  0  0  0  0  0  0  0  0
  150.8972  145.2119  158.7099 H   0  0  0  0  0  0  0  0  0  0  0  0
  152.2554  143.9268  157.0963 H   0  0  0  0  0  0  0  0  0  0  0  0
  153.3377  143.4300  158.3413 H   0  0  0  0  0  0  0  0  0  0  0  0
  149.5733  143.3424  158.6917 H   0  0  0  0  0  0  0  0  0  0  0  0
  149.8978  143.0918  157.0208 H   0  0  0  0  0  0  0  0  0  0  0  0
  148.0074  141.7264  157.8606 H   0  0  0  0  0  0  0  0  0  0  0  0
  149.1154  140.7690  158.8301 H   0  0  0  0  0  0  0  0  0  0  0  0
  149.2468  140.7722  157.0760 H   0  0  0  0  0  0  0  0  0  0  0  0
  153.2088  141.1292  157.6081 H   0  0  0  0  0  0  0  0  0  0  0  0
  151.2048  141.4390  155.7697 H   0  0  0  0  0  0  0  0  0  0  0  0
  151.5316  139.7011  153.8118 H   0  0  0  0  0  0  0  0  0  0  0  0
  150.8125  138.1795  154.2846 H   0  0  0  0  0  0  0  0  0  0  0  0
  149.7692  142.0879  154.5938 H   0  0  0  0  0  0  0  0  0  0  0  0
  147.2829  143.3099  154.1324 H   0  0  0  0  0  0  0  0  0  0  0  0
  146.2257  142.4249  155.2337 H   0  0  0  0  0  0  0  0  0  0  0  0
  146.0618  142.2127  153.4886 H   0  0  0  0  0  0  0  0  0  0  0  0
  150.5921  139.9637  158.7050 H   0  0  0  0  0  0  0  0  0  0  0  0
  153.4984  139.1914  159.3288 H   0  0  0  0  0  0  0  0  0  0  0  0
  152.3402  138.1972  158.4587 H   0  0  0  0  0  0  0  0  0  0  0  0
  152.0793  138.5602  160.1594 H   0  0  0  0  0  0  0  0  0  0  0  0
  150.9806  141.6243  160.4182 H   0  0  0  0  0  0  0  0  0  0  0  0
  154.1295  142.8357  161.5350 H   0  0  0  0  0  0  0  0  0  0  0  0
  152.4700  142.4795  162.0123 H   0  0  0  0  0  0  0  0  0  0  0  0
  152.7968  143.7075  160.7789 H   0  0  0  0  0  0  0  0  0  0  0  0
  1  2  1  0  0  0  0
  1 23  1  0  0  0  0
  1 24  1  0  0  0  0
  1 25  1  0  0  0  0
  2  3  1  0  0  0  0
  2 26  1  0  0  0  0
  2 27  1  0  0  0  0
  3 19  1  0  0  0  0
  3  4  1  0  0  0  0
  3  6  1  0  0  0  0
  4  5  1  0  0  0  0
  4 28  1  0  0  0  0
  4 29  1  0  0  0  0
  5 30  1  0  0  0  0
  5 31  1  0  0  0  0
  5 32  1  0  0  0  0
  6  7  1  0  0  0  0
  6 17  1  0  0  0  0
  6 33  1  0  0  0  0
  7  8  1  0  0  0  0
  7 34  1  0  0  0  0
  8  9  2  0  0  0  0
  8 10  1  0  0  0  0
 10 11  1  0  0  0  0
 10 35  1  0  0  0  0
 10 36  1  0  0  0  0
 11 16  2  0  0  0  0
 11 12  1  0  0  0  0
 12 13  2  0  0  0  0
 12 37  1  0  0  0  0
 13 14  1  0  0  0  0
 13 15  1  0  0  0  0
 14 38  1  0  0  0  0
 14 39  1  0  0  0  0
 14 40  1  0  0  0  0
 15 22  1  0  0  0  0
 15 16  1  0  0  0  0
 17 18  1  0  0  0  0
 17 19  1  0  0  0  0
 17 41  1  0  0  0  0
 18 42  1  0  0  0  0
 18 43  1  0  0  0  0
 18 44  1  0  0  0  0
 19 20  1  0  0  0  0
 19 45  1  0  0  0  0
 20 21  1  0  0  0  0
 21 46  1  0  0  0  0
 21 47  1  0  0  0  0
 21 48  1  0  0  0  0
M  END
> <s_m_source_file>
AV-unprocessed.smi

> <i_m_source_file_index>
2510

> <i_lp_mmshare_version>
43012

> <i_f3d_flags>
0

> <s_epik_input>
W0NIM11PW0NAQEhdMVtDQEhdKFtDSDNdKVtDQEBIXShDMShbQ0gyXVtDSDNdKVtDSDJdW0NIM10pW05IXUMoPU8pW0NIMl1jMltjSF1jKFtDSDNdKVtuSF1uMg==

> <s_epik_cmdline>
J2VwaWtfcHl0aG9uJywgJy1waCcsICc3LjAnLCAnLXRuJywgJzgnLCAnLW1hJywgJzIwMCcsICctbWV0YWxfYmluZGluZycsICctaW1hZScsICc8aW5maWxlLm1hZT4nLCAnLW9tYWUnLCAnPG91dGZpbGUubWFlPic=

> <r_lp_tautomer_probability>
0.5

> <r_epik_Ionization_Penalty>
9.73156e-05

> <r_epik_Ionization_Penalty_Charging>
0

> <r_epik_Ionization_Penalty_Neutral>
9.73156e-05

> <r_epik_State_Penalty>
0.41068

> <r_epik_Charging_Adjusted_Penalty>
0.41068

> <i_epik_Tot_Q>
0

> <i_epik_Tot_abs_Q>
0

> <r_epik_Metal_State_Penalty>
0.410699

> <b_epik_Metal_Only>
0

> <s_lp_Force_Field>
OPLS_2005

> <r_lp_Energy>
28.8176

> <b_lp_Chiralities_Consistent>
1

> <s_lp_Variant>
AV-unprocessed.smi:2510-2

> <Gold.Version>
5.8.1

> <Gold.Id.Protein>
6NUR|6NUR_protein|mol2

> <Gold.PLP.Fitness>
39.4363

> <Gold.PLP.PLP>
-40.6931

> <Gold.PLP.part.hbond>
0.0000

> <Gold.PLP.part.metal>
0.0000

> <Gold.PLP.part.buried>
-3.5784

> <Gold.PLP.part.nonpolar>
-35.8984

> <Gold.PLP.part.repulsive>
0.3025

> <Gold.PLP.ligand.clash>
0.2917

> <Gold.PLP.ligand.torsion>
0.8204

> <Gold.PLP.Chemscore.Hbond>
0.0000

> <Gold.PLP.Chemscore.CHOScore>
0.0000

> <Gold.PLP.Chemscore.Metal>
0.0000

> <Gold.PLP.Chemscore.Internal.Correction>
0.6757

> <Gold.Rescore>
     Score         DG    S(hbond)    S(metal)    S(lipo)     H(rot)  DE(clash)    DE(int)     intcor
      9.09     -14.94       0.00        0.00     120.46       1.81       0.15       5.69       ----

> <Gold.Chemscore.Fitness>
9.0939

> <Gold.Chemscore.DG>
-14.9401

> <Gold.Chemscore.ZeroCoef>
-5.4800

> <Gold.Chemscore.Hbond>
0.0000

> <Gold.Chemscore.Metal>
0.0000

> <Gold.Chemscore.Lipo>
120.4630

> <Gold.Chemscore.Internal_Hbond>
0.0000

> <Gold.Chemscore.DEClash>
0.1542

> <Gold.Chemscore.DEInternal>
5.6919

> <Gold.Chemscore.Rot>
1.8102

> <Gold.Chemscore.Internal.Correction>
   9.000000E+99

> <Gold.Chemscore.Hbond.Weighted>
-0.0000

> <Gold.Chemscore.Metal.Weighted>
-0.0000

> <Gold.Chemscore.Lipo.Weighted>
-14.0942

> <Gold.Chemscore.Internal_Hbond.Weighted>
0.0000

> <Gold.Chemscore.DEClash.Weighted>
0.1542

> <Gold.Chemscore.DEInternal.Weighted>
5.6919

> <Gold.Chemscore.Rot.Weighted>
4.6341

> <Gold.Chemscore.Internal.Correction.Weighted>
   9.000000E+99

> <Gold.Protein.RotatedTorsions>
[ 6907 6896 6895 6894 ] final   35.24 input  -60.11 | X-H torsion
[ 7974 7965 7964 7962 ] final   66.10 input  175.53 | X-H torsion
[ 8008 7997 7996 7995 ] final   26.35 input   59.86 | X-H torsion
[ 10167 10162 10161 10158 ] final   32.34 input  -65.29 | X-H torsion
[ 10718 10713 10712 10709 ] final    9.41 input   66.30 | X-H torsion
[ 10763 10752 10751 10750 ] final -149.98 input  -60.55 | X-H torsion
[ 11005 11000 10999 10996 ] final  -18.83 input  -57.11 | X-H torsion

> <Gold.Protein.ActiveResidues>
 VAL166  LYS551  ARG553  GLY616  TRP617  ASP618  TYR619  PRO620  LYS621  CYS622 
 ASP623  PHE694  ASN695  SER759  ASP760  ASP761  ALA762  ILE779  LEU786  VAL792 
 PHE793  MET794  SER795  GLU796  ALA797  LYS798  CYS799  TRP800  GLU811  SER814 

> <Gold.Protein.RotatedAtoms>
  152.1135  134.9257  160.0565 H   0  0  0  0  0  0  0  0  0  0  0  0  # atno 6907 bound_to 6896
  152.0426  133.3979  159.4351 H   0  0  0  0  0  0  0  0  0  0  0  0  # atno 6908 bound_to 6896
  150.6845  134.3319  159.4874 H   0  0  0  0  0  0  0  0  0  0  0  0  # atno 6909 bound_to 6896
  145.8306  139.3136  143.0990 H   0  0  0  0  0  0  0  0  0  0  0  0  # atno 7974 bound_to 7965
  155.0259  140.3153  155.4776 H   0  0  0  0  0  0  0  0  0  0  0  0  # atno 8008 bound_to 7997
  156.2883  140.2189  156.5321 H   0  0  0  0  0  0  0  0  0  0  0  0  # atno 8009 bound_to 7997
  154.7412  140.0473  157.0800 H   0  0  0  0  0  0  0  0  0  0  0  0  # atno 8010 bound_to 7997
  140.4507  144.1052  150.6191 H   0  0  0  0  0  0  0  0  0  0  0  0  # atno 10167 bound_to 10162
  156.9659  130.5950  149.5665 H   0  0  0  0  0  0  0  0  0  0  0  0  # atno 10718 bound_to 10713
  154.8146  135.3295  154.7212 H   0  0  0  0  0  0  0  0  0  0  0  0  # atno 10763 bound_to 10752
  153.7855  135.6915  153.4885 H   0  0  0  0  0  0  0  0  0  0  0  0  # atno 10764 bound_to 10752
  153.1951  135.4536  155.0145 H   0  0  0  0  0  0  0  0  0  0  0  0  # atno 10765 bound_to 10752
  140.8307  133.7999  155.9755 H   0  0  0  0  0  0  0  0  0  0  0  0  # atno 11005 bound_to 11000
  145.9575  140.8861  143.0227 LP  0  0  0  0  0  0  0  0  0  0  0  0  # atno 17320 bound_to 7965
  144.6740  140.1766  143.7409 LP  0  0  0  0  0  0  0  0  0  0  0  0  # atno 17321 bound_to 7965
  140.4210  143.2611  151.9715 LP  0  0  0  0  0  0  0  0  0  0  0  0  # atno 17342 bound_to 10162
  139.4796  144.5831  151.7900 LP  0  0  0  0  0  0  0  0  0  0  0  0  # atno 17343 bound_to 10162
  156.0303  130.5394  150.8516 LP  0  0  0  0  0  0  0  0  0  0  0  0  # atno 17370 bound_to 10713
  157.5626  131.0946  150.9537 LP  0  0  0  0  0  0  0  0  0  0  0  0  # atno 17371 bound_to 10713
  140.9001  134.2388  157.5046 LP  0  0  0  0  0  0  0  0  0  0  0  0  # atno 17394 bound_to 11000
  139.8705  134.9702  156.4695 LP  0  0  0  0  0  0  0  0  0  0  0  0  # atno 17395 bound_to 11000

$$$$
