AV-unprocessed.smi:511|AV-procd|sdf|2767|dock1
  -GOLD-   2262023233D 1   1.00000     0.00000
 Structure written by MMmdl.
 44 46  0  0  0  0  0  0  0  0  2 V2000
  151.3651  137.9553  154.2680 C   0  0  0  0  0  0  0  0  0  0  0  0
  152.5337  138.6982  154.5614 O   0  0  0  0  0  0  0  0  0  0  0  0
  152.2903  139.7669  155.4614 C   0  0  0  0  0  0  0  0  0  0  0  0
  151.5611  139.2344  156.7023 C   0  0  0  0  0  0  0  0  0  0  0  0
  151.4119  140.2619  157.7327 N   0  0  0  0  0  0  0  0  0  0  0  0
  150.4036  141.1622  157.9025 C   0  0  0  0  0  0  0  0  0  0  0  0
  149.2815  141.2037  157.0732 N   0  0  0  0  0  0  0  0  0  0  0  0
  149.1950  140.7828  155.6768 C   0  0  0  0  0  0  0  0  0  0  0  0
  148.5100  141.8646  154.8189 C   0  0  0  0  0  0  0  0  0  0  0  0
  147.1461  142.0713  155.3051 N   0  0  0  0  0  0  0  0  0  0  0  0
  146.4954  143.1021  154.5099 C   0  0  0  0  0  0  0  0  0  0  0  0
  147.2052  142.4960  156.7041 C   0  0  0  0  0  0  0  0  0  0  0  0
  147.9167  141.4172  157.5454 C   0  0  0  0  0  0  0  0  0  0  0  0
  150.5960  142.0300  158.8979 N   0  0  0  0  0  0  0  0  0  0  0  0
  151.8148  141.6357  159.4262 C   0  0  0  0  0  0  0  0  0  0  0  0
  152.3306  140.5821  158.7387 C   0  0  0  0  0  0  0  0  0  0  0  0
  153.6409  139.9649  159.0447 C   0  0  0  0  0  0  0  0  0  0  0  0
  154.0807  139.0368  158.3688 O   0  0  0  0  0  0  0  0  0  0  0  0
  154.2501  140.5514  160.1235 N   0  5  0  0  0  0  0  0  0  0  0  0
  153.7571  141.6097  160.8559 C   0  0  0  0  0  0  0  0  0  0  0  0
  154.3682  142.0741  161.8193 O   0  0  0  0  0  0  0  0  0  0  0  0
  152.5543  142.1710  160.5161 N   0  0  0  0  0  0  0  0  0  0  0  0
  152.0095  143.3035  161.2704 C   0  0  0  0  0  0  0  0  0  0  0  0
  151.6076  137.1548  153.5691 H   0  0  0  0  0  0  0  0  0  0  0  0
  150.6026  138.5851  153.8077 H   0  0  0  0  0  0  0  0  0  0  0  0
  150.9498  137.5024  155.1690 H   0  0  0  0  0  0  0  0  0  0  0  0
  153.2349  140.2240  155.7588 H   0  0  0  0  0  0  0  0  0  0  0  0
  151.6930  140.5391  154.9744 H   0  0  0  0  0  0  0  0  0  0  0  0
  150.5932  138.8431  156.4082 H   0  0  0  0  0  0  0  0  0  0  0  0
  152.0892  138.3795  157.1210 H   0  0  0  0  0  0  0  0  0  0  0  0
  150.1846  140.5475  155.2877 H   0  0  0  0  0  0  0  0  0  0  0  0
  148.6312  139.8504  155.6204 H   0  0  0  0  0  0  0  0  0  0  0  0
  149.0752  142.7975  154.8539 H   0  0  0  0  0  0  0  0  0  0  0  0
  148.4794  141.5435  153.7772 H   0  0  0  0  0  0  0  0  0  0  0  0
  145.4770  143.2702  154.8618 H   0  0  0  0  0  0  0  0  0  0  0  0
  146.4399  142.7991  153.4637 H   0  0  0  0  0  0  0  0  0  0  0  0
  147.0365  144.0481  154.5638 H   0  0  0  0  0  0  0  0  0  0  0  0
  147.7271  143.4499  156.7915 H   0  0  0  0  0  0  0  0  0  0  0  0
  146.1930  142.6477  157.0805 H   0  0  0  0  0  0  0  0  0  0  0  0
  147.3644  140.4768  157.5144 H   0  0  0  0  0  0  0  0  0  0  0  0
  147.9403  141.7307  158.5896 H   0  0  0  0  0  0  0  0  0  0  0  0
  152.7210  144.1307  161.2908 H   0  0  0  0  0  0  0  0  0  0  0  0
  151.7997  143.0082  162.2994 H   0  0  0  0  0  0  0  0  0  0  0  0
  151.0825  143.6858  160.8436 H   0  0  0  0  0  0  0  0  0  0  0  0
  1  2  1  0  0  0  0
  1 24  1  0  0  0  0
  1 25  1  0  0  0  0
  1 26  1  0  0  0  0
  2  3  1  0  0  0  0
  3  4  1  0  0  0  0
  3 27  1  0  0  0  0
  3 28  1  0  0  0  0
  4  5  1  0  0  0  0
  4 29  1  0  0  0  0
  4 30  1  0  0  0  0
  5 16  1  0  0  0  0
  5  6  1  0  0  0  0
  6  7  1  0  0  0  0
  6 14  2  0  0  0  0
  7 13  1  0  0  0  0
  7  8  1  0  0  0  0
  8  9  1  0  0  0  0
  8 31  1  0  0  0  0
  8 32  1  0  0  0  0
  9 10  1  0  0  0  0
  9 33  1  0  0  0  0
  9 34  1  0  0  0  0
 10 11  1  0  0  0  0
 10 12  1  0  0  0  0
 11 35  1  0  0  0  0
 11 36  1  0  0  0  0
 11 37  1  0  0  0  0
 12 13  1  0  0  0  0
 12 38  1  0  0  0  0
 12 39  1  0  0  0  0
 13 40  1  0  0  0  0
 13 41  1  0  0  0  0
 14 15  1  0  0  0  0
 15 22  1  0  0  0  0
 15 16  2  0  0  0  0
 16 17  1  0  0  0  0
 17 18  2  0  0  0  0
 17 19  1  0  0  0  0
 19 20  1  0  0  0  0
 20 21  2  0  0  0  0
 20 22  1  0  0  0  0
 22 23  1  0  0  0  0
 23 42  1  0  0  0  0
 23 43  1  0  0  0  0
 23 44  1  0  0  0  0
M  CHG  1  19  -1
M  END
> <s_m_source_file>
AV-unprocessed.smi

> <i_m_source_file_index>
511

> <i_lp_mmshare_version>
43012

> <i_f3d_flags>
0

> <s_epik_input>
W0NIM11uMWMoPU8pW25IXWMoPU8pYyhjMTIpbihbQ0gyXVtDSDJdT1tDSDNdKWMobjIpTjNbQ0gyXVtDSDJdTihbQ0gzXSlbQ0gyXVtDSDJdMw==

> <s_epik_cmdline>
J2VwaWtfcHl0aG9uJywgJy1waCcsICc3LjAnLCAnLXRuJywgJzgnLCAnLW1hJywgJzIwMCcsICctbWV0YWxfYmluZGluZycsICctaW1hZScsICc8aW5maWxlLm1hZT4nLCAnLW9tYWUnLCAnPG91dGZpbGUubWFlPic=

> <r_epik_Ionization_Penalty>
7.66215

> <r_epik_Ionization_Penalty_Charging>
0.0825427

> <r_epik_Ionization_Penalty_Neutral>
7.5796

> <r_epik_State_Penalty>
7.65676

> <r_epik_Charging_Adjusted_Penalty>
7.73931

> <i_epik_Tot_Q>
-1

> <i_epik_Tot_abs_Q>
1

> <r_epik_Metal_State_Penalty>
3.6066

> <b_epik_Metal_Only>
1

> <s_lp_Force_Field>
OPLS_2005

> <r_lp_Energy>
52.5947

> <b_lp_Chiralities_Consistent>
1

> <s_lp_Variant>
AV-unprocessed.smi:511-4

> <Gold.Version>
5.8.1

> <Gold.Id.Protein>
6NUR|6NUR_protein|mol2

> <Gold.PLP.Fitness>
37.8412

> <Gold.PLP.PLP>
-36.9321

> <Gold.PLP.part.hbond>
-2.5106

> <Gold.PLP.part.metal>
0.0000

> <Gold.PLP.part.buried>
-1.2405

> <Gold.PLP.part.nonpolar>
-33.4015

> <Gold.PLP.part.repulsive>
0.1931

> <Gold.PLP.ligand.clash>
0.0000

> <Gold.PLP.ligand.torsion>
0.9072

> <Gold.PLP.Chemscore.Hbond>
0.8000

> <Gold.PLP.Chemscore.CHOScore>
0.0000

> <Gold.PLP.Chemscore.Metal>
0.0000

> <Gold.Chemscore.Hbonds>
donor molecule, donor type, donor heavy atom, donor atom, acceptor molecule, acceptor atom, score
      P1  H  7997  8009       L1    18  0.85

> <Gold.PLP.Chemscore.Internal.Correction>
0.3236

> <Gold.Rescore>
     Score         DG    S(hbond)    S(metal)    S(lipo)     H(rot)  DE(clash)    DE(int)     intcor
      7.69     -11.01       0.56        0.00      63.39       1.47       1.50       1.82       ----

> <Gold.Chemscore.Fitness>
7.6919

> <Gold.Chemscore.DG>
-11.0055

> <Gold.Chemscore.ZeroCoef>
-5.4800

> <Gold.Chemscore.Hbond>
0.5631

> <Gold.Chemscore.Metal>
0.0000

> <Gold.Chemscore.Lipo>
63.3919

> <Gold.Chemscore.Internal_Hbond>
0.0000

> <Gold.Chemscore.DEClash>
1.4974

> <Gold.Chemscore.DEInternal>
1.8162

> <Gold.Chemscore.Rot>
1.4735

> <Gold.Chemscore.Internal.Correction>
   9.000000E+99

> <Gold.Chemscore.Hbonds>
donor molecule, donor type, donor heavy atom, donor atom, acceptor molecule, acceptor atom, score
      P1  H  7997  8009       L1    18  0.14

> <Gold.Chemscore.Hbond.Weighted>
-1.8809

> <Gold.Chemscore.Metal.Weighted>
-0.0000

> <Gold.Chemscore.Lipo.Weighted>
-7.4169

> <Gold.Chemscore.Internal_Hbond.Weighted>
0.0000

> <Gold.Chemscore.DEClash.Weighted>
1.4974

> <Gold.Chemscore.DEInternal.Weighted>
1.8162

> <Gold.Chemscore.Rot.Weighted>
3.7722

> <Gold.Chemscore.Internal.Correction.Weighted>
   9.000000E+99

> <Gold.Protein.RotatedTorsions>
[ 6907 6896 6895 6894 ] final  -77.22 input  -60.11 | X-H torsion
[ 7974 7965 7964 7962 ] final  -41.38 input  175.53 | X-H torsion
[ 8008 7997 7996 7995 ] final  117.66 input   59.86 | X-H torsion
[ 10167 10162 10161 10158 ] final   58.13 input  -65.29 | X-H torsion
[ 10718 10713 10712 10709 ] final  -50.96 input   66.30 | X-H torsion
[ 10763 10752 10751 10750 ] final -177.86 input  -60.55 | X-H torsion
[ 11005 11000 10999 10996 ] final  -43.67 input  -57.11 | X-H torsion

> <Gold.Protein.ActiveResidues>
 VAL166  LYS551  ARG553  GLY616  TRP617  ASP618  TYR619  PRO620  LYS621  CYS622 
 ASP623  PHE694  ASN695  SER759  ASP760  ASP761  ALA762  ILE779  LEU786  VAL792 
 PHE793  MET794  SER795  GLU796  ALA797  LYS798  CYS799  TRP800  GLU811  SER814 

> <Gold.Protein.RotatedAtoms>
  150.7005  134.4456  159.5311 H   0  0  0  0  0  0  0  0  0  0  0  0  # atno 6907 bound_to 6896
  152.2157  134.8457  160.0501 H   0  0  0  0  0  0  0  0  0  0  0  0  # atno 6908 bound_to 6896
  151.9325  133.3580  159.3973 H   0  0  0  0  0  0  0  0  0  0  0  0  # atno 6909 bound_to 6896
  146.0216  140.6843  142.9175 H   0  0  0  0  0  0  0  0  0  0  0  0  # atno 7974 bound_to 7965
  156.2506  140.2891  156.0713 H   0  0  0  0  0  0  0  0  0  0  0  0  # atno 8008 bound_to 7997
  155.1668  140.0401  157.2871 H   0  0  0  0  0  0  0  0  0  0  0  0  # atno 8009 bound_to 7997
  154.6354  140.2509  155.7391 H   0  0  0  0  0  0  0  0  0  0  0  0  # atno 8010 bound_to 7997
  140.1905  144.4091  150.6573 H   0  0  0  0  0  0  0  0  0  0  0  0  # atno 10167 bound_to 10162
  156.1753  130.4150  149.9586 H   0  0  0  0  0  0  0  0  0  0  0  0  # atno 10718 bound_to 10713
  154.5549  135.2815  155.0974 H   0  0  0  0  0  0  0  0  0  0  0  0  # atno 10763 bound_to 10752
  154.2406  135.6357  153.5209 H   0  0  0  0  0  0  0  0  0  0  0  0  # atno 10764 bound_to 10752
  153.0013  135.5559  154.6125 H   0  0  0  0  0  0  0  0  0  0  0  0  # atno 10765 bound_to 10752
  141.0399  133.6784  156.2765 H   0  0  0  0  0  0  0  0  0  0  0  0  # atno 11005 bound_to 11000
  144.6992  140.3576  143.7170 LP  0  0  0  0  0  0  0  0  0  0  0  0  # atno 17320 bound_to 7965
  145.7184  139.1703  143.2499 LP  0  0  0  0  0  0  0  0  0  0  0  0  # atno 17321 bound_to 7965
  140.6459  143.2213  151.6187 LP  0  0  0  0  0  0  0  0  0  0  0  0  # atno 17342 bound_to 10162
  139.5258  144.3064  152.1030 LP  0  0  0  0  0  0  0  0  0  0  0  0  # atno 17343 bound_to 10162
  156.7373  130.9066  151.3630 LP  0  0  0  0  0  0  0  0  0  0  0  0  # atno 17370 bound_to 10713
  157.6832  130.9159  150.0318 LP  0  0  0  0  0  0  0  0  0  0  0  0  # atno 17371 bound_to 10713
  140.6253  134.5319  157.5553 LP  0  0  0  0  0  0  0  0  0  0  0  0  # atno 17394 bound_to 11000
  139.9268  134.8040  156.1046 LP  0  0  0  0  0  0  0  0  0  0  0  0  # atno 17395 bound_to 11000

$$$$
