AV-unprocessed.smi:2637|AV-procd|sdf|10261|dock8
  -GOLD-   2272014273D 1   1.00000     0.00000
 Structure written by MMmdl.
 40 41  0  0  0  0  0  0  0  0  1 V2000
  145.7194  129.3802  152.0621 C   0  0  0  0  0  0  0  0  0  0  0  0
  146.2313  130.7898  152.1062 C   0  0  0  0  0  0  0  0  0  0  0  0
  147.3499  131.2949  152.8307 C   0  0  0  0  0  0  0  0  0  0  0  0
  147.3460  132.6234  152.5033 C   0  0  0  0  0  0  0  0  0  0  0  0
  148.1954  133.6060  152.9053 N   0  0  0  0  0  0  0  0  0  0  0  0
  149.1885  133.5414  153.8092 C   0  0  0  0  0  0  0  0  0  0  0  0
  149.5154  132.5361  154.4405 O   0  0  0  0  0  0  0  0  0  0  0  0
  149.7904  134.7316  153.9500 N   0  0  0  0  0  0  0  0  0  0  0  0
  150.8960  135.0209  154.8588 C   0  0  0  0  0  0  0  0  0  0  0  0
  150.8269  136.4535  155.4153 C   0  0  0  0  0  0  0  0  0  0  0  0
  151.2707  137.5367  154.4135 C   0  0  0  0  0  0  0  0  0  0  0  0
  151.0415  138.8844  154.9432 N   0  0  0  0  0  0  0  0  0  0  0  0
  149.8763  139.5409  154.8535 C   0  0  0  0  0  0  0  0  0  0  0  0
  148.8455  139.1284  154.3228 O   0  0  0  0  0  0  0  0  0  0  0  0
  149.9684  140.9096  155.5149 C   0  0  0  0  0  0  0  0  0  0  0  0
  151.4092  140.9472  156.0341 C   0  0  0  0  0  0  0  0  0  0  0  0
  151.9662  139.5977  155.6016 C   0  0  0  0  0  0  0  0  0  0  0  0
  153.1186  139.2444  155.8505 O   0  0  0  0  0  0  0  0  0  0  0  0
  146.2934  132.8680  151.6493 N   0  0  0  0  0  0  0  0  0  0  0  0
  145.8784  134.1111  151.0290 C   0  0  0  0  0  0  0  0  0  0  0  0
  145.6080  131.7301  151.4050 N   0  0  0  0  0  0  0  0  0  0  0  0
  146.3557  128.7116  152.6423 H   0  0  0  0  0  0  0  0  0  0  0  0
  145.6894  129.0043  151.0391 H   0  0  0  0  0  0  0  0  0  0  0  0
  144.7110  129.3166  152.4716 H   0  0  0  0  0  0  0  0  0  0  0  0
  148.0269  130.7552  153.4755 H   0  0  0  0  0  0  0  0  0  0  0  0
  148.0503  134.5040  152.4683 H   0  0  0  0  0  0  0  0  0  0  0  0
  149.4529  135.5016  153.3911 H   0  0  0  0  0  0  0  0  0  0  0  0
  150.9408  134.2973  155.6744 H   0  0  0  0  0  0  0  0  0  0  0  0
  151.8221  134.8986  154.2969 H   0  0  0  0  0  0  0  0  0  0  0  0
  149.8003  136.6550  155.7241 H   0  0  0  0  0  0  0  0  0  0  0  0
  151.4323  136.5184  156.3205 H   0  0  0  0  0  0  0  0  0  0  0  0
  152.3276  137.4203  154.1703 H   0  0  0  0  0  0  0  0  0  0  0  0
  150.7385  137.4074  153.4695 H   0  0  0  0  0  0  0  0  0  0  0  0
  149.7782  141.6988  154.7868 H   0  0  0  0  0  0  0  0  0  0  0  0
  149.2420  140.9932  156.3242 H   0  0  0  0  0  0  0  0  0  0  0  0
  151.9820  141.7593  155.5853 H   0  0  0  0  0  0  0  0  0  0  0  0
  151.4475  141.0464  157.1193 H   0  0  0  0  0  0  0  0  0  0  0  0
  145.8774  134.9114  151.7696 H   0  0  0  0  0  0  0  0  0  0  0  0
  144.8737  134.0158  150.6149 H   0  0  0  0  0  0  0  0  0  0  0  0
  146.5712  134.3674  150.2269 H   0  0  0  0  0  0  0  0  0  0  0  0
  1  2  1  0  0  0  0
  1 22  1  0  0  0  0
  1 23  1  0  0  0  0
  1 24  1  0  0  0  0
  2 21  2  0  0  0  0
  2  3  1  0  0  0  0
  3  4  2  0  0  0  0
  3 25  1  0  0  0  0
  4  5  1  0  0  0  0
  4 19  1  0  0  0  0
  5  6  1  0  0  0  0
  5 26  1  0  0  0  0
  6  7  2  0  0  0  0
  6  8  1  0  0  0  0
  8  9  1  0  0  0  0
  8 27  1  0  0  0  0
  9 10  1  0  0  0  0
  9 28  1  0  0  0  0
  9 29  1  0  0  0  0
 10 11  1  0  0  0  0
 10 30  1  0  0  0  0
 10 31  1  0  0  0  0
 11 12  1  0  0  0  0
 11 32  1  0  0  0  0
 11 33  1  0  0  0  0
 12 17  1  0  0  0  0
 12 13  1  0  0  0  0
 13 14  2  0  0  0  0
 13 15  1  0  0  0  0
 15 16  1  0  0  0  0
 15 34  1  0  0  0  0
 15 35  1  0  0  0  0
 16 17  1  0  0  0  0
 16 36  1  0  0  0  0
 16 37  1  0  0  0  0
 17 18  2  0  0  0  0
 19 20  1  0  0  0  0
 19 21  1  0  0  0  0
 20 38  1  0  0  0  0
 20 39  1  0  0  0  0
 20 40  1  0  0  0  0
M  END
> <s_m_source_file>
AV-unprocessed.smi

> <i_m_source_file_index>
2637

> <i_lp_mmshare_version>
43012

> <i_f3d_flags>
0

> <s_epik_input>
W0NIM11jMVtjSF1jKG4objEpW0NIM10pW05IXUMoPU8pW05IXVtDSDJdW0NIMl1bQ0gyXU4yQyg9TylbQ0gyXVtDSDJdQzI9Tw==

> <s_epik_cmdline>
J2VwaWtfcHl0aG9uJywgJy1waCcsICc3LjAnLCAnLXRuJywgJzgnLCAnLW1hJywgJzIwMCcsICctbWV0YWxfYmluZGluZycsICctaW1hZScsICc8aW5maWxlLm1hZT4nLCAnLW9tYWUnLCAnPG91dGZpbGUubWFlPic=

> <r_lp_tautomer_probability>
1

> <r_epik_Ionization_Penalty>
9.41646e-05

> <r_epik_Ionization_Penalty_Charging>
0

> <r_epik_Ionization_Penalty_Neutral>
9.41646e-05

> <r_epik_State_Penalty>
-0

> <r_epik_Charging_Adjusted_Penalty>
0

> <i_epik_Tot_Q>
0

> <i_epik_Tot_abs_Q>
0

> <r_epik_Metal_State_Penalty>
-0

> <b_epik_Metal_Only>
0

> <s_lp_Force_Field>
OPLS_2005

> <r_lp_Energy>
13.5658

> <b_lp_Chiralities_Consistent>
1

> <s_lp_Variant>
AV-unprocessed.smi:2637-1

> <Gold.Version>
5.8.1

> <Gold.Id.Protein>
6NUR|6NUR_protein|mol2

> <Gold.PLP.Fitness>
48.4702

> <Gold.PLP.PLP>
-40.8126

> <Gold.PLP.part.hbond>
-3.3469

> <Gold.PLP.part.metal>
0.0000

> <Gold.PLP.part.buried>
-3.8685

> <Gold.PLP.part.nonpolar>
-33.3230

> <Gold.PLP.part.repulsive>
0.4112

> <Gold.PLP.ligand.clash>
0.0000

> <Gold.PLP.ligand.torsion>
0.6183

> <Gold.PLP.Chemscore.Hbond>
2.9440

> <Gold.PLP.Chemscore.CHOScore>
0.0000

> <Gold.PLP.Chemscore.Metal>
0.0000

> <Gold.Chemscore.Hbonds>
donor molecule, donor type, donor heavy atom, donor atom, acceptor molecule, acceptor atom, score
      L1  H     5    26       P1  7948  0.88
      L1  H     8    27       P1  7948  0.85
      P1  H  7997  8009       L1    18  1.00

> <Gold.PLP.Chemscore.Internal.Correction>
0.0623

> <Gold.Rescore>
     Score         DG    S(hbond)    S(metal)    S(lipo)     H(rot)  DE(clash)    DE(int)     intcor
     13.53     -14.98       2.42        0.00      57.26       2.07       0.04       1.41       ----

> <Gold.Chemscore.Fitness>
13.5265

> <Gold.Chemscore.DG>
-14.9757

> <Gold.Chemscore.ZeroCoef>
-5.4800

> <Gold.Chemscore.Hbond>
2.4238

> <Gold.Chemscore.Metal>
0.0000

> <Gold.Chemscore.Lipo>
57.2624

> <Gold.Chemscore.Internal_Hbond>
0.0000

> <Gold.Chemscore.DEClash>
0.0423

> <Gold.Chemscore.DEInternal>
1.4068

> <Gold.Chemscore.Rot>
2.0701

> <Gold.Chemscore.Internal.Correction>
   9.000000E+99

> <Gold.Chemscore.Hbonds>
donor molecule, donor type, donor heavy atom, donor atom, acceptor molecule, acceptor atom, score
      L1  H     5    26       P1  7948  0.33
      L1  H     8    27       P1  7948  0.14
      P1  H  7997  8009       L1    18  0.96

> <Gold.Chemscore.Hbond.Weighted>
-8.0955

> <Gold.Chemscore.Metal.Weighted>
-0.0000

> <Gold.Chemscore.Lipo.Weighted>
-6.6997

> <Gold.Chemscore.Internal_Hbond.Weighted>
0.0000

> <Gold.Chemscore.DEClash.Weighted>
0.0423

> <Gold.Chemscore.DEInternal.Weighted>
1.4068

> <Gold.Chemscore.Rot.Weighted>
5.2995

> <Gold.Chemscore.Internal.Correction.Weighted>
   9.000000E+99

> <Gold.Protein.RotatedTorsions>
[ 6907 6896 6895 6894 ] final    1.99 input  -60.11 | X-H torsion
[ 7974 7965 7964 7962 ] final  -44.32 input  175.53 | X-H torsion
[ 8008 7997 7996 7995 ] final -152.17 input   59.86 | X-H torsion
[ 10167 10162 10161 10158 ] final  114.62 input  -65.29 | X-H torsion
[ 10718 10713 10712 10709 ] final  127.77 input   66.30 | X-H torsion
[ 10763 10752 10751 10750 ] final  157.17 input  -60.55 | X-H torsion
[ 11005 11000 10999 10996 ] final   57.66 input  -57.11 | X-H torsion

> <Gold.Protein.ActiveResidues>
 VAL166  LYS551  ARG553  GLY616  TRP617  ASP618  TYR619  PRO620  LYS621  CYS622 
 ASP623  PHE694  ASN695  SER759  ASP760  ASP761  ALA762  ILE779  LEU786  VAL792 
 PHE793  MET794  SER795  GLU796  ALA797  LYS798  CYS799  TRP800  GLU811  SER814 

> <Gold.Protein.RotatedAtoms>
  151.6016  135.1047  160.0061 H   0  0  0  0  0  0  0  0  0  0  0  0  # atno 6907 bound_to 6896
  152.4255  133.7183  159.6529 H   0  0  0  0  0  0  0  0  0  0  0  0  # atno 6908 bound_to 6896
  150.8143  133.8292  159.3190 H   0  0  0  0  0  0  0  0  0  0  0  0  # atno 6909 bound_to 6896
  145.9932  140.7157  142.9306 H   0  0  0  0  0  0  0  0  0  0  0  0  # atno 7974 bound_to 7965
  155.6509  140.0712  157.2587 H   0  0  0  0  0  0  0  0  0  0  0  0  # atno 8008 bound_to 7997
  154.4163  140.1733  156.1723 H   0  0  0  0  0  0  0  0  0  0  0  0  # atno 8009 bound_to 7997
  155.9778  140.3356  155.6638 H   0  0  0  0  0  0  0  0  0  0  0  0  # atno 8010 bound_to 7997
  139.6375  144.7121  151.2304 H   0  0  0  0  0  0  0  0  0  0  0  0  # atno 10167 bound_to 10162
  157.5304  131.1098  150.9018 H   0  0  0  0  0  0  0  0  0  0  0  0  # atno 10718 bound_to 10713
  154.1959  135.2792  155.3007 H   0  0  0  0  0  0  0  0  0  0  0  0  # atno 10763 bound_to 10752
  154.5892  135.5565  153.7265 H   0  0  0  0  0  0  0  0  0  0  0  0  # atno 10764 bound_to 10752
  153.0100  135.6364  154.2098 H   0  0  0  0  0  0  0  0  0  0  0  0  # atno 10765 bound_to 10752
  140.0436  134.5838  155.9351 H   0  0  0  0  0  0  0  0  0  0  0  0  # atno 11005 bound_to 11000
  144.6895  140.3106  143.7248 LP  0  0  0  0  0  0  0  0  0  0  0  0  # atno 17320 bound_to 7965
  145.7598  139.1821  143.2273 LP  0  0  0  0  0  0  0  0  0  0  0  0  # atno 17321 bound_to 7965
  140.7473  143.6370  150.8370 LP  0  0  0  0  0  0  0  0  0  0  0  0  # atno 17342 bound_to 10162
  140.0003  143.5751  152.2878 LP  0  0  0  0  0  0  0  0  0  0  0  0  # atno 17343 bound_to 10162
  156.9601  130.5452  149.5285 LP  0  0  0  0  0  0  0  0  0  0  0  0  # atno 17370 bound_to 10713
  156.0418  130.5499  150.8788 LP  0  0  0  0  0  0  0  0  0  0  0  0  # atno 17371 bound_to 10713
  141.1895  133.6566  156.5373 LP  0  0  0  0  0  0  0  0  0  0  0  0  # atno 17394 bound_to 11000
  140.4030  134.7340  157.4791 LP  0  0  0  0  0  0  0  0  0  0  0  0  # atno 17395 bound_to 11000

$$$$
