AV-unprocessed.smi:2822|AV-procd|sdf|10863|dock1
  -GOLD-   2272015303D 1   1.00000     0.00000
 Structure written by MMmdl.
 41 43  0  0  0  0  0  0  0  0  3 V2000
  150.1500  138.3826  154.6479 Cl  0  0  0  0  0  0  0  0  0  0  0  0
  148.9979  139.6632  154.4950 C   0  0  0  0  0  0  0  0  0  0  0  0
  149.3253  140.9477  154.9763 C   0  0  0  0  0  0  0  0  0  0  0  0
  148.4372  141.9579  154.8632 N   0  3  0  0  0  0  0  0  0  0  0  0
  147.2213  141.8000  154.2988 C   0  0  0  0  0  0  0  0  0  0  0  0
  146.8363  140.5395  153.7981 C   0  0  0  0  0  0  0  0  0  0  0  0
  147.7337  139.4467  153.8934 C   0  0  0  0  0  0  0  0  0  0  0  0
  147.4140  138.1671  153.4151 N   0  0  0  0  0  0  0  0  0  0  0  0
  146.0426  137.6778  153.3879 C   0  0  0  0  0  0  0  0  0  0  0  0
  145.7614  136.8013  152.1552 C   0  0  1  0  0  0  0  0  0  0  0  0
  146.4910  135.4428  152.1860 C   0  0  0  0  0  0  0  0  0  0  0  0
  146.1281  134.6288  150.9995 N   0  3  1  0  0  0  0  0  0  0  0  0
  146.8199  133.3143  150.9390 C   0  0  0  0  0  0  0  0  0  0  0  0
  146.2326  132.2991  151.9389 C   0  0  0  0  0  0  0  0  0  0  0  0
  144.7160  132.1532  151.7534 C   0  0  0  0  0  0  0  0  0  0  0  0
  144.0313  133.5254  151.8288 C   0  0  0  0  0  0  0  0  0  0  0  0
  144.6547  134.5119  150.8169 C   0  0  1  0  0  0  0  0  0  0  0  0
  143.9982  135.9059  150.8602 C   0  0  0  0  0  0  0  0  0  0  0  0
  144.3574  136.5900  152.0546 O   0  0  0  0  0  0  0  0  0  0  0  0
  150.2662  141.1952  155.4459 H   0  0  0  0  0  0  0  0  0  0  0  0
  146.5960  142.6805  154.2650 H   0  0  0  0  0  0  0  0  0  0  0  0
  145.8592  140.4325  153.3513 H   0  0  0  0  0  0  0  0  0  0  0  0
  148.1540  137.5541  153.1022 H   0  0  0  0  0  0  0  0  0  0  0  0
  145.8498  137.1042  154.2951 H   0  0  0  0  0  0  0  0  0  0  0  0
  145.3588  138.5275  153.3923 H   0  0  0  0  0  0  0  0  0  0  0  0
  146.0902  137.3580  151.2756 H   0  0  0  0  0  0  0  0  0  0  0  0
  147.5697  135.6022  152.1995 H   0  0  0  0  0  0  0  0  0  0  0  0
  146.2427  134.9007  153.0980 H   0  0  0  0  0  0  0  0  0  0  0  0
  146.7201  132.9225  149.9259 H   0  0  0  0  0  0  0  0  0  0  0  0
  147.8884  133.4473  151.1121 H   0  0  0  0  0  0  0  0  0  0  0  0
  146.7154  131.3305  151.8069 H   0  0  0  0  0  0  0  0  0  0  0  0
  146.4499  132.6074  152.9619 H   0  0  0  0  0  0  0  0  0  0  0  0
  144.5079  131.6923  150.7869 H   0  0  0  0  0  0  0  0  0  0  0  0
  144.3060  131.4855  152.5117 H   0  0  0  0  0  0  0  0  0  0  0  0
  142.9656  133.4119  151.6277 H   0  0  0  0  0  0  0  0  0  0  0  0
  144.1076  133.9192  152.8429 H   0  0  0  0  0  0  0  0  0  0  0  0
  144.4871  134.1042  149.8187 H   0  0  0  0  0  0  0  0  0  0  0  0
  144.2989  136.4977  149.9941 H   0  0  0  0  0  0  0  0  0  0  0  0
  142.9125  135.8174  150.8139 H   0  0  0  0  0  0  0  0  0  0  0  0
  146.4641  135.1549  150.2052 H   0  0  0  0  0  0  0  0  0  0  0  0
  148.6961  142.8784  155.2195 H   0  0  0  0  0  0  0  0  0  0  0  0
  1  2  1  0  0  0  0
  2  7  1  0  0  0  0
  2  3  2  0  0  0  0
  3  4  1  0  0  0  0
  3 20  1  0  0  0  0
  4  5  2  0  0  0  0
  4 41  1  0  0  0  0
  5  6  1  0  0  0  0
  5 21  1  0  0  0  0
  6  7  2  0  0  0  0
  6 22  1  0  0  0  0
  7  8  1  0  0  0  0
  8  9  1  0  0  0  0
  8 23  1  0  0  0  0
  9 10  1  0  0  0  0
  9 24  1  0  0  0  0
  9 25  1  0  0  0  0
 10 19  1  0  0  0  0
 10 11  1  0  0  0  0
 10 26  1  0  0  0  0
 11 12  1  0  0  0  0
 11 27  1  0  0  0  0
 11 28  1  0  0  0  0
 12 17  1  0  0  0  0
 12 13  1  0  0  0  0
 12 40  1  0  0  0  0
 13 14  1  0  0  0  0
 13 29  1  0  0  0  0
 13 30  1  0  0  0  0
 14 15  1  0  0  0  0
 14 31  1  0  0  0  0
 14 32  1  0  0  0  0
 15 16  1  0  0  0  0
 15 33  1  0  0  0  0
 15 34  1  0  0  0  0
 16 17  1  0  0  0  0
 16 35  1  0  0  0  0
 16 36  1  0  0  0  0
 17 18  1  0  0  0  0
 17 37  1  0  0  0  0
 18 19  1  0  0  0  0
 18 38  1  0  0  0  0
 18 39  1  0  0  0  0
M  CHG  1   4   1
M  CHG  1  12   1
M  END
> <s_m_source_file>
AV-unprocessed.smi

> <i_m_source_file_index>
2822

> <i_lp_mmshare_version>
43012

> <i_f3d_flags>
0

> <s_epik_input>
Q2xjMVtjSF1uW2NIXVtjSF1jMVtOSF1bQ0gyXVtDQEhdKFtDSDJdMilPW0NIMl1bQ0BASF0oTjIzKVtDSDJdW0NIMl1bQ0gyXVtDSDJdMw==

> <s_epik_cmdline>
J2VwaWtfcHl0aG9uJywgJy1waCcsICc3LjAnLCAnLXRuJywgJzgnLCAnLW1hJywgJzIwMCcsICctbWV0YWxfYmluZGluZycsICctaW1hZScsICc8aW5maWxlLm1hZT4nLCAnLW9tYWUnLCAnPG91dGZpbGUubWFlPic=

> <r_lp_tautomer_probability>
1

> <r_epik_Ionization_Penalty>
0.254999

> <r_epik_Ionization_Penalty_Charging>
0.254956

> <r_epik_Ionization_Penalty_Neutral>
4.33524e-05

> <r_epik_State_Penalty>
0.230978

> <r_epik_Charging_Adjusted_Penalty>
0.485934

> <i_epik_Tot_Q>
2

> <i_epik_Tot_abs_Q>
2

> <r_epik_Metal_State_Penalty>
3.47007

> <b_epik_Metal_Only>
0

> <s_lp_Force_Field>
OPLS_2005

> <r_lp_Energy>
41.3986

> <b_lp_Chiralities_Consistent>
1

> <s_lp_Variant>
AV-unprocessed.smi:2822-4

> <Gold.Version>
5.8.1

> <Gold.Id.Protein>
6NUR|6NUR_protein|mol2

> <Gold.PLP.Fitness>
37.1032

> <Gold.PLP.PLP>
-28.9250

> <Gold.PLP.part.hbond>
-2.0863

> <Gold.PLP.part.metal>
0.0000

> <Gold.PLP.part.buried>
3.3655

> <Gold.PLP.part.nonpolar>
-29.9332

> <Gold.PLP.part.repulsive>
1.3070

> <Gold.PLP.ligand.clash>
0.0000

> <Gold.PLP.ligand.torsion>
0.4119

> <Gold.PLP.Chemscore.Hbond>
3.0000

> <Gold.PLP.Chemscore.CHOScore>
0.0000

> <Gold.PLP.Chemscore.Metal>
0.0000

> <Gold.Chemscore.Hbonds>
donor molecule, donor type, donor heavy atom, donor atom, acceptor molecule, acceptor atom, score
      L1  H     4    41       P1  8028  2.00
      L1  H     8    23       P1  7948  1.00

> <Gold.PLP.Chemscore.Internal.Correction>
0.0019

> <Gold.Rescore>
     Score         DG    S(hbond)    S(metal)    S(lipo)     H(rot)  DE(clash)    DE(int)     intcor
     17.57     -20.07       1.97        0.00      94.48       1.20       2.05       0.45       ----

> <Gold.Chemscore.Fitness>
17.5651

> <Gold.Chemscore.DG>
-20.0655

> <Gold.Chemscore.ZeroCoef>
-5.4800

> <Gold.Chemscore.Hbond>
1.9743

> <Gold.Chemscore.Metal>
0.0000

> <Gold.Chemscore.Lipo>
94.4769

> <Gold.Chemscore.Internal_Hbond>
0.0000

> <Gold.Chemscore.DEClash>
2.0487

> <Gold.Chemscore.DEInternal>
0.4516

> <Gold.Chemscore.Rot>
1.1962

> <Gold.Chemscore.Internal.Correction>
   9.000000E+99

> <Gold.Chemscore.Hbonds>
donor molecule, donor type, donor heavy atom, donor atom, acceptor molecule, acceptor atom, score
      L1  H     4    41       P1  8028  1.00
      L1  H     8    23       P1  7948  0.95

> <Gold.Chemscore.Hbond.Weighted>
-6.5940

> <Gold.Chemscore.Metal.Weighted>
-0.0000

> <Gold.Chemscore.Lipo.Weighted>
-11.0538

> <Gold.Chemscore.Internal_Hbond.Weighted>
0.0000

> <Gold.Chemscore.DEClash.Weighted>
2.0487

> <Gold.Chemscore.DEInternal.Weighted>
0.4516

> <Gold.Chemscore.Rot.Weighted>
3.0623

> <Gold.Chemscore.Internal.Correction.Weighted>
   9.000000E+99

> <Gold.Protein.RotatedTorsions>
[ 6907 6896 6895 6894 ] final  125.15 input  -60.11 | X-H torsion
[ 7974 7965 7964 7962 ] final   60.69 input  175.53 | X-H torsion
[ 8008 7997 7996 7995 ] final -130.05 input   59.86 | X-H torsion
[ 10167 10162 10161 10158 ] final   55.87 input  -65.29 | X-H torsion
[ 10718 10713 10712 10709 ] final   -0.92 input   66.30 | X-H torsion
[ 10763 10752 10751 10750 ] final  148.00 input  -60.55 | X-H torsion
[ 11005 11000 10999 10996 ] final -145.82 input  -57.11 | X-H torsion

> <Gold.Protein.ActiveResidues>
 VAL166  LYS551  ARG553  GLY616  TRP617  ASP618  TYR619  PRO620  LYS621  CYS622 
 ASP623  PHE694  ASN695  SER759  ASP760  ASP761  ALA762  ILE779  LEU786  VAL792 
 PHE793  MET794  SER795  GLU796  ALA797  LYS798  CYS799  TRP800  GLU811  SER814 

> <Gold.Protein.RotatedAtoms>
  152.4017  133.6828  159.6321 H   0  0  0  0  0  0  0  0  0  0  0  0  # atno 6907 bound_to 6896
  150.7907  133.8779  159.3286 H   0  0  0  0  0  0  0  0  0  0  0  0  # atno 6908 bound_to 6896
  151.6543  135.0999  160.0218 H   0  0  0  0  0  0  0  0  0  0  0  0  # atno 6909 bound_to 6896
  145.8931  139.3526  143.0637 H   0  0  0  0  0  0  0  0  0  0  0  0  # atno 7974 bound_to 7965
  155.2893  140.0447  157.3022 H   0  0  0  0  0  0  0  0  0  0  0  0  # atno 8008 bound_to 7997
  154.5551  140.2329  155.8391 H   0  0  0  0  0  0  0  0  0  0  0  0  # atno 8009 bound_to 7997
  156.2000  140.3028  155.9514 H   0  0  0  0  0  0  0  0  0  0  0  0  # atno 8010 bound_to 7997
  140.2149  144.3850  150.6474 H   0  0  0  0  0  0  0  0  0  0  0  0  # atno 10167 bound_to 10162
  156.8132  130.5431  149.5706 H   0  0  0  0  0  0  0  0  0  0  0  0  # atno 10718 bound_to 10713
  154.0475  135.2884  155.3345 H   0  0  0  0  0  0  0  0  0  0  0  0  # atno 10763 bound_to 10752
  154.6890  135.5234  153.8369 H   0  0  0  0  0  0  0  0  0  0  0  0  # atno 10764 bound_to 10752
  153.0574  135.6600  154.0674 H   0  0  0  0  0  0  0  0  0  0  0  0  # atno 10765 bound_to 10752
  140.7883  134.2998  157.5022 H   0  0  0  0  0  0  0  0  0  0  0  0  # atno 11005 bound_to 11000
  145.8883  140.9320  143.0565 LP  0  0  0  0  0  0  0  0  0  0  0  0  # atno 17320 bound_to 7965
  144.6731  140.0872  143.7467 LP  0  0  0  0  0  0  0  0  0  0  0  0  # atno 17321 bound_to 7965
  140.6297  143.2186  151.6521 LP  0  0  0  0  0  0  0  0  0  0  0  0  # atno 17342 bound_to 10162
  139.5166  144.3342  152.0799 LP  0  0  0  0  0  0  0  0  0  0  0  0  # atno 17343 bound_to 10162
  156.1032  130.5984  150.9928 LP  0  0  0  0  0  0  0  0  0  0  0  0  # atno 17370 bound_to 10713
  157.6495  131.0899  150.8082 LP  0  0  0  0  0  0  0  0  0  0  0  0  # atno 17371 bound_to 10713
  139.8734  134.9360  156.3647 LP  0  0  0  0  0  0  0  0  0  0  0  0  # atno 17394 bound_to 11000
  140.9414  133.7512  156.0152 LP  0  0  0  0  0  0  0  0  0  0  0  0  # atno 17395 bound_to 11000

$$$$
