#       Name:                AV-unprocessed.smi:1090
#       Creating user name   scv26
#       Creation time:       Fri Mar 27 03:27:10 2020


#       File generated by GOLD software.
#

@<TRIPOS>MOLECULE
AV-unprocessed.smi:1090
    41    43     1
SMALL
NO_CHARGES


@<TRIPOS>ATOM
      1 ****        -0.5642   1.6388  -1.3555 O.2            1 S1                 0.0000
      2 ****         0.0803   0.5919  -1.4177 C.2            1 S1                 0.0000
      3 ****         1.6091   0.6251  -1.3509 C.3            1 S1                 0.0000
      4 ****         2.1650   0.6109   0.0915 C.3            1 S1                 0.0000
      5 ****         1.7825   1.8536   0.8854 C.3            1 S1                 0.0000
      6 ****         1.8338   1.8671   2.3954 C.3            1 S1                 0.0000
      7 ****         0.5013   1.9224   1.6851 C.3            1 S1                 0.0000
      8 ****         3.6739   0.4375   0.0705 C.3            1 S1                 0.0000
      9 ****         4.3003  -0.9203  -0.1369 C.3            1 S1                 0.0000
     10 ****         4.4062  -0.2343   1.2073 C.3            1 S1                 0.0000
     11 ****        -0.4859  -0.6168  -1.5527 N.am           1 S1                 0.0000
     12 ****        -1.9215  -0.8646  -1.6027 C.3            1 S1                 0.0000
     13 ****        -2.5436  -0.8542  -0.1972 C.3            1 S1                 0.0000
     14 ****        -4.0121  -1.1139  -0.2247 C.2            1 S1                 0.0000
     15 ****        -4.5459  -2.3384  -0.1965 N.2            1 S1                 0.0000
     16 ****        -5.9411  -2.3139  -0.2669 C.2            1 S1                 0.0000
     17 ****        -6.4621  -1.0485  -0.3632 C.2            1 S1                 0.0000
     18 ****        -5.2125   0.1655  -0.3716 S.3            1 S1                 0.0000
     19 ****         1.9996  -0.2288  -1.9067 H              1 S1                 0.0000
     20 ****         1.9627   1.5124  -1.8778 H              1 S1                 0.0000
     21 ****         1.7452  -0.2543   0.6084 H              1 S1                 0.0000
     22 ****         2.0871   2.7811   0.4039 H              1 S1                 0.0000
     23 ****         2.0864   0.9409   2.9076 H              1 S1                 0.0000
     24 ****         2.1867   2.7771   2.8765 H              1 S1                 0.0000
     25 ****        -0.0356   2.8686   1.6889 H              1 S1                 0.0000
     26 ****        -0.1236   1.0321   1.7216 H              1 S1                 0.0000
     27 ****         4.1969   1.2693  -0.3984 H              1 S1                 0.0000
     28 ****         3.6364  -1.7795  -0.2105 H              1 S1                 0.0000
     29 ****         5.1986  -0.9709  -0.7487 H              1 S1                 0.0000
     30 ****         5.3743   0.1735   1.4903 H              1 S1                 0.0000
     31 ****         3.8161  -0.6450   2.0240 H              1 S1                 0.0000
     32 ****         0.1198  -1.4231  -1.6048 H              1 S1                 0.0000
     33 ****        -2.4076  -0.1261  -2.2425 H              1 S1                 0.0000
     34 ****        -2.0818  -1.8357  -2.0720 H              1 S1                 0.0000
     35 ****        -2.0654  -1.6055   0.4326 H              1 S1                 0.0000
     36 ****        -2.3755   0.1090   0.2861 H              1 S1                 0.0000
     37 ****        -6.4854  -3.2466  -0.2443 H              1 S1                 0.0000
     38 ****        -7.5001  -0.7581  -0.4328 H              1 S1                 0.0000
     39 ****        -0.0890   2.5137  -1.2611 LP             1 S1                 0.0000
     40 ****        -1.5629   1.6145  -1.3994 LP             1 S1                 0.0000
     41 ****        -4.0071  -3.1784  -0.1322 LP             1 S1                 0.0000
@<TRIPOS>BOND
    1    1    2 2     
    2    2    3 1     
    3    2   11 am    
    4    3    4 1     
    5    3   19 1     
    6    3   20 1     
    7    4    5 1     
    8    4    8 1     
    9    4   21 1     
   10    5    7 1     
   11    5    6 1     
   12    5   22 1     
   13    6    7 1     
   14    6   23 1     
   15    6   24 1     
   16    7   25 1     
   17    7   26 1     
   18    8   10 1     
   19    8    9 1     
   20    8   27 1     
   21    9   10 1     
   22    9   28 1     
   23    9   29 1     
   24   10   30 1     
   25   10   31 1     
   26   11   12 1     
   27   11   32 1     
   28   12   13 1     
   29   12   33 1     
   30   12   34 1     
   31   13   14 1     
   32   13   35 1     
   33   13   36 1     
   34   14   18 1     
   35   14   15 2     
   36   15   16 1     
   37   16   17 2     
   38   16   37 1     
   39   17   18 1     
   40   17   38 1     
   41    1   39 1     
   42    1   40 1     
   43   15   41 1     
@<TRIPOS>SUBSTRUCTURE
      1 S1             1
@<TRIPOS>SET
LONE_PAIRS      STATIC     ATOMS    <user>   **** ""
3 39 40 41
DONOR_HYDROGENS      STATIC     ATOMS    <user>   **** ""
1 32
ATOM$BLUE        STATIC     ATOMS    COLORGROUP SYSTEM
3 39 40 41
ATOM$RED        STATIC     ATOMS    COLORGROUP SYSTEM
1 32
