AV-unprocessed.smi:1081|AV-procd|sdf|4711|dock3
  -GOLD-   22720 3233D 1   1.00000     0.00000
 Structure written by MMmdl.
 53 55  0  0  0  0  0  0  0  0  2 V2000
  147.0069  139.7808  153.3721 O   0  0  0  0  0  0  0  0  0  0  0  0
  147.9411  139.1555  152.8719 C   0  0  0  0  0  0  0  0  0  0  0  0
  147.7868  138.2871  151.8613 N   0  0  0  0  0  0  0  0  0  0  0  0
  146.5103  137.9448  151.2349 C   0  0  0  0  0  0  0  0  0  0  0  0
  145.7113  136.8753  152.0054 C   0  0  0  0  0  0  0  0  0  0  0  0
  145.7344  136.8846  153.2380 O   0  0  0  0  0  0  0  0  0  0  0  0
  145.0121  135.9484  151.3056 N   0  0  0  0  0  0  0  0  0  0  0  0
  144.9973  135.8143  149.8417 C   0  0  0  0  0  0  0  0  0  0  0  0
  145.7341  134.5197  149.4527 C   0  0  0  0  0  0  0  0  0  0  0  0
  145.1082  133.2981  150.1516 C   0  0  0  0  0  0  0  0  0  0  0  0
  144.9582  133.5265  151.6672 C   0  0  0  0  0  0  0  0  0  0  0  0
  144.2580  134.8672  151.9549 C   0  0  0  0  0  0  0  0  0  0  0  0
  149.2294  139.2378  153.2490 N   0  0  0  0  0  0  0  0  0  0  0  0
  149.8190  140.0196  154.2814 C   0  0  0  0  0  0  0  0  0  0  0  0
  150.8832  139.4435  155.0056 C   0  0  0  0  0  0  0  0  0  0  0  0
  151.5087  140.1702  156.0395 C   0  0  0  0  0  0  0  0  0  0  0  0
  151.0635  141.4794  156.3509 C   0  0  0  0  0  0  0  0  0  0  0  0
  151.6313  142.2883  157.3613 N   0  0  0  0  0  0  0  0  0  0  0  0
  151.4999  141.8469  158.7513 C   0  0  0  0  0  0  0  0  0  0  0  0
  152.5055  142.5652  159.6679 C   0  0  0  0  0  0  0  0  0  0  0  0
  152.4121  144.0890  159.5119 C   0  0  0  0  0  0  0  0  0  0  0  0
  152.5981  144.4731  158.0378 C   0  0  0  0  0  0  0  0  0  0  0  0
  151.5872  143.7379  157.1417 C   0  0  0  0  0  0  0  0  0  0  0  0
  150.0379  141.9892  155.6273 N   0  3  0  0  0  0  0  0  0  0  0  0
  149.4119  141.3300  154.6291 C   0  0  0  0  0  0  0  0  0  0  0  0
  148.6045  137.8098  151.5114 H   0  0  0  0  0  0  0  0  0  0  0  0
  145.9082  138.8484  151.1255 H   0  0  0  0  0  0  0  0  0  0  0  0
  146.7210  137.5740  150.2314 H   0  0  0  0  0  0  0  0  0  0  0  0
  143.9625  135.7704  149.4990 H   0  0  0  0  0  0  0  0  0  0  0  0
  145.4401  136.6577  149.3153 H   0  0  0  0  0  0  0  0  0  0  0  0
  145.7087  134.3837  148.3713 H   0  0  0  0  0  0  0  0  0  0  0  0
  146.7859  134.6018  149.7306 H   0  0  0  0  0  0  0  0  0  0  0  0
  144.1242  133.1081  149.7213 H   0  0  0  0  0  0  0  0  0  0  0  0
  145.7052  132.4059  149.9610 H   0  0  0  0  0  0  0  0  0  0  0  0
  144.3970  132.7057  152.1146 H   0  0  0  0  0  0  0  0  0  0  0  0
  145.9424  133.5219  152.1375 H   0  0  0  0  0  0  0  0  0  0  0  0
  144.1550  135.0068  153.0316 H   0  0  0  0  0  0  0  0  0  0  0  0
  143.2407  134.8511  151.5613 H   0  0  0  0  0  0  0  0  0  0  0  0
  149.8724  138.6556  152.7322 H   0  0  0  0  0  0  0  0  0  0  0  0
  151.2227  138.4444  154.7737 H   0  0  0  0  0  0  0  0  0  0  0  0
  152.3151  139.7004  156.5818 H   0  0  0  0  0  0  0  0  0  0  0  0
  150.4804  142.0351  159.0907 H   0  0  0  0  0  0  0  0  0  0  0  0
  151.6773  140.7739  158.8268 H   0  0  0  0  0  0  0  0  0  0  0  0
  152.3301  142.2836  160.7064 H   0  0  0  0  0  0  0  0  0  0  0  0
  153.5173  142.2369  159.4259 H   0  0  0  0  0  0  0  0  0  0  0  0
  151.4422  144.4398  159.8672 H   0  0  0  0  0  0  0  0  0  0  0  0
  153.1679  144.5780  160.1271 H   0  0  0  0  0  0  0  0  0  0  0  0
  152.4891  145.5510  157.9151 H   0  0  0  0  0  0  0  0  0  0  0  0
  153.6125  144.2269  157.7214 H   0  0  0  0  0  0  0  0  0  0  0  0
  151.7966  143.9972  156.1041 H   0  0  0  0  0  0  0  0  0  0  0  0
  150.5775  144.0903  157.3548 H   0  0  0  0  0  0  0  0  0  0  0  0
  148.6170  141.8880  154.1601 H   0  0  0  0  0  0  0  0  0  0  0  0
  149.7189  142.9327  155.8475 H   0  0  0  0  0  0  0  0  0  0  0  0
  1  2  2  0  0  0  0
  2  3  1  0  0  0  0
  2 13  1  0  0  0  0
  3  4  1  0  0  0  0
  3 26  1  0  0  0  0
  4  5  1  0  0  0  0
  4 27  1  0  0  0  0
  4 28  1  0  0  0  0
  5  6  2  0  0  0  0
  5  7  1  0  0  0  0
  7 12  1  0  0  0  0
  7  8  1  0  0  0  0
  8  9  1  0  0  0  0
  8 29  1  0  0  0  0
  8 30  1  0  0  0  0
  9 10  1  0  0  0  0
  9 31  1  0  0  0  0
  9 32  1  0  0  0  0
 10 11  1  0  0  0  0
 10 33  1  0  0  0  0
 10 34  1  0  0  0  0
 11 12  1  0  0  0  0
 11 35  1  0  0  0  0
 11 36  1  0  0  0  0
 12 37  1  0  0  0  0
 12 38  1  0  0  0  0
 13 14  1  0  0  0  0
 13 39  1  0  0  0  0
 14 25  1  0  0  0  0
 14 15  2  0  0  0  0
 15 16  1  0  0  0  0
 15 40  1  0  0  0  0
 16 17  2  0  0  0  0
 16 41  1  0  0  0  0
 17 18  1  0  0  0  0
 17 24  1  0  0  0  0
 18 23  1  0  0  0  0
 18 19  1  0  0  0  0
 19 20  1  0  0  0  0
 19 42  1  0  0  0  0
 19 43  1  0  0  0  0
 20 21  1  0  0  0  0
 20 44  1  0  0  0  0
 20 45  1  0  0  0  0
 21 22  1  0  0  0  0
 21 46  1  0  0  0  0
 21 47  1  0  0  0  0
 22 23  1  0  0  0  0
 22 48  1  0  0  0  0
 22 49  1  0  0  0  0
 23 50  1  0  0  0  0
 23 51  1  0  0  0  0
 24 25  2  0  0  0  0
 24 53  1  0  0  0  0
 25 52  1  0  0  0  0
M  CHG  1  24   1
M  END
> <s_m_source_file>
AV-unprocessed.smi

> <i_m_source_file_index>
1081

> <i_lp_mmshare_version>
43012

> <i_f3d_flags>
0

> <s_epik_input>
W0NIMl0xW0NIMl1bQ0gyXVtDSDJdW0NIMl1OMUMoPU8pW0NIMl1bTkhdQyg9TylbTkhdYzJbY0hdW2NIXWMobltjSF0yKU4zW0NIMl1bQ0gyXVtDSDJdW0NIMl1bQ0gyXTM=

> <s_epik_cmdline>
J2VwaWtfcHl0aG9uJywgJy1waCcsICc3LjAnLCAnLXRuJywgJzgnLCAnLW1hJywgJzIwMCcsICctbWV0YWxfYmluZGluZycsICctaW1hZScsICc8aW5maWxlLm1hZT4nLCAnLW9tYWUnLCAnPG91dGZpbGUubWFlPic=

> <r_lp_tautomer_probability>
0.999994

> <r_epik_Ionization_Penalty>
0.629404

> <r_epik_Ionization_Penalty_Charging>
0.629386

> <r_epik_Ionization_Penalty_Neutral>
1.8855e-05

> <r_epik_State_Penalty>
0.646103

> <r_epik_Charging_Adjusted_Penalty>
1.27549

> <i_epik_Tot_Q>
1

> <i_epik_Tot_abs_Q>
1

> <r_epik_Metal_State_Penalty>
0.824278

> <b_epik_Metal_Only>
0

> <s_lp_Force_Field>
OPLS_2005

> <r_lp_Energy>
42.181

> <b_lp_Chiralities_Consistent>
1

> <s_lp_Variant>
AV-unprocessed.smi:1081-2

> <Gold.Version>
5.8.1

> <Gold.Id.Protein>
6NUR|6NUR_protein|mol2

> <Gold.PLP.Fitness>
57.0422

> <Gold.PLP.PLP>
-51.4806

> <Gold.PLP.part.hbond>
-3.9217

> <Gold.PLP.part.metal>
0.0000

> <Gold.PLP.part.buried>
-1.9985

> <Gold.PLP.part.nonpolar>
-46.8132

> <Gold.PLP.part.repulsive>
0.5012

> <Gold.PLP.ligand.clash>
0.0000

> <Gold.PLP.ligand.torsion>
1.5669

> <Gold.PLP.Chemscore.Hbond>
2.8000

> <Gold.PLP.Chemscore.CHOScore>
0.0000

> <Gold.PLP.Chemscore.Metal>
0.0000

> <Gold.Chemscore.Hbonds>
donor molecule, donor type, donor heavy atom, donor atom, acceptor molecule, acceptor atom, score
      L1  H     3    26       P1  7948  0.51
      L1  H    24    53       P1  8028  2.00

> <Gold.PLP.Chemscore.Internal.Correction>
0.2953

> <Gold.Rescore>
     Score         DG    S(hbond)    S(metal)    S(lipo)     H(rot)  DE(clash)    DE(int)     intcor
     20.95     -22.77       1.91        0.00     120.22       1.23       0.33       1.49       ----

> <Gold.Chemscore.Fitness>
20.9536

> <Gold.Chemscore.DG>
-22.7744

> <Gold.Chemscore.ZeroCoef>
-5.4800

> <Gold.Chemscore.Hbond>
1.9072

> <Gold.Chemscore.Metal>
0.0000

> <Gold.Chemscore.Lipo>
120.2156

> <Gold.Chemscore.Internal_Hbond>
0.0000

> <Gold.Chemscore.DEClash>
0.3274

> <Gold.Chemscore.DEInternal>
1.4934

> <Gold.Chemscore.Rot>
1.2269

> <Gold.Chemscore.Internal.Correction>
   9.000000E+99

> <Gold.Chemscore.Hbonds>
donor molecule, donor type, donor heavy atom, donor atom, acceptor molecule, acceptor atom, score
      L1  H     3    26       P1  7948  0.46
      L1  H    24    53       P1  8028  0.97

> <Gold.Chemscore.Hbond.Weighted>
-6.3701

> <Gold.Chemscore.Metal.Weighted>
-0.0000

> <Gold.Chemscore.Lipo.Weighted>
-14.0652

> <Gold.Chemscore.Internal_Hbond.Weighted>
0.0000

> <Gold.Chemscore.DEClash.Weighted>
0.3274

> <Gold.Chemscore.DEInternal.Weighted>
1.4934

> <Gold.Chemscore.Rot.Weighted>
3.1410

> <Gold.Chemscore.Internal.Correction.Weighted>
   9.000000E+99

> <Gold.Protein.RotatedTorsions>
[ 6907 6896 6895 6894 ] final   -8.30 input  -60.11 | X-H torsion
[ 7974 7965 7964 7962 ] final  -99.85 input  175.53 | X-H torsion
[ 8008 7997 7996 7995 ] final  112.97 input   59.86 | X-H torsion
[ 10167 10162 10161 10158 ] final  -27.15 input  -65.29 | X-H torsion
[ 10718 10713 10712 10709 ] final -141.41 input   66.30 | X-H torsion
[ 10763 10752 10751 10750 ] final -112.34 input  -60.55 | X-H torsion
[ 11005 11000 10999 10996 ] final  148.02 input  -57.11 | X-H torsion

> <Gold.Protein.ActiveResidues>
 VAL166  LYS551  ARG553  GLY616  TRP617  ASP618  TYR619  PRO620  LYS621  CYS622 
 ASP623  PHE694  ASN695  SER759  ASP760  ASP761  ALA762  ILE779  LEU786  VAL792 
 PHE793  MET794  SER795  GLU796  ALA797  LYS798  CYS799  TRP800  GLU811  SER814 

> <Gold.Protein.RotatedAtoms>
  151.4359  135.1015  159.9655 H   0  0  0  0  0  0  0  0  0  0  0  0  # atno 6907 bound_to 6896
  152.4940  133.8574  159.7243 H   0  0  0  0  0  0  0  0  0  0  0  0  # atno 6908 bound_to 6896
  150.9122  133.6924  159.2879 H   0  0  0  0  0  0  0  0  0  0  0  0  # atno 6909 bound_to 6896
  145.3022  140.9380  143.2817 H   0  0  0  0  0  0  0  0  0  0  0  0  # atno 7974 bound_to 7965
  156.2228  140.2989  155.9993 H   0  0  0  0  0  0  0  0  0  0  0  0  # atno 8008 bound_to 7997
  155.2437  140.0423  157.2995 H   0  0  0  0  0  0  0  0  0  0  0  0  # atno 8009 bound_to 7997
  154.5867  140.2390  155.7986 H   0  0  0  0  0  0  0  0  0  0  0  0  # atno 8010 bound_to 7997
  140.7279  143.4117  151.1094 H   0  0  0  0  0  0  0  0  0  0  0  0  # atno 10167 bound_to 10162
  156.3337  130.7600  151.1723 H   0  0  0  0  0  0  0  0  0  0  0  0  # atno 10718 bound_to 10713
  154.8345  135.4494  154.1179 H   0  0  0  0  0  0  0  0  0  0  0  0  # atno 10763 bound_to 10752
  153.2423  135.6917  153.7775 H   0  0  0  0  0  0  0  0  0  0  0  0  # atno 10764 bound_to 10752
  153.7118  135.3355  155.3224 H   0  0  0  0  0  0  0  0  0  0  0  0  # atno 10765 bound_to 10752
  140.0924  134.9033  157.1672 H   0  0  0  0  0  0  0  0  0  0  0  0  # atno 11005 bound_to 11000
  144.9084  139.4560  143.6599 LP  0  0  0  0  0  0  0  0  0  0  0  0  # atno 17320 bound_to 7965
  146.3148  139.7878  142.8992 LP  0  0  0  0  0  0  0  0  0  0  0  0  # atno 17321 bound_to 7965
  139.7751  143.8436  152.3128 LP  0  0  0  0  0  0  0  0  0  0  0  0  # atno 17342 bound_to 10162
  139.8368  144.7228  150.9380 LP  0  0  0  0  0  0  0  0  0  0  0  0  # atno 17343 bound_to 10162
  157.7435  131.0474  150.4943 LP  0  0  0  0  0  0  0  0  0  0  0  0  # atno 17370 bound_to 10713
  156.5112  130.4140  149.6300 LP  0  0  0  0  0  0  0  0  0  0  0  0  # atno 17371 bound_to 10713
  140.3333  134.2785  155.7224 LP  0  0  0  0  0  0  0  0  0  0  0  0  # atno 17394 bound_to 11000
  141.2082  133.7784  157.0074 LP  0  0  0  0  0  0  0  0  0  0  0  0  # atno 17395 bound_to 11000

$$$$
