AV-unprocessed.smi:912|AV-procd|sdf|4144|dock4
  -GOLD-   22720 2 53D 1   1.00000     0.00000
 Structure written by MMmdl.
 27 27  0  0  0  0  0  0  0  0  2 V2000
  150.2346  137.8522  158.4520 C   0  0  0  0  0  0  0  0  0  0  0  0
  150.2776  137.4230  157.0550 N   0  0  0  0  0  0  0  0  0  0  0  0
  151.1008  138.2074  156.1143 C   0  0  1  0  0  0  0  0  0  0  0  0
  152.5252  138.2136  156.7301 C   0  0  0  0  0  0  0  0  0  0  0  0
  151.1097  137.5953  154.6863 C   0  0  0  0  0  0  0  0  0  0  0  0
  149.9276  137.3948  154.0928 N   0  0  0  0  0  0  0  0  0  0  0  0
  152.1646  137.3105  154.1216 O   0  0  0  0  0  0  0  0  0  0  0  0
  150.5889  139.6579  155.9858 C   0  0  0  0  0  0  0  0  0  0  0  0
  149.2844  139.9597  155.5125 C   0  0  0  0  0  0  0  0  0  0  0  0
  148.8676  141.3025  155.4098 C   0  0  0  0  0  0  0  0  0  0  0  0
  149.7092  142.2981  155.7568 N   0  3  0  0  0  0  0  0  0  0  0  0
  150.9608  142.0691  156.2052 C   0  0  0  0  0  0  0  0  0  0  0  0
  151.4314  140.7466  156.3281 C   0  0  0  0  0  0  0  0  0  0  0  0
  149.4910  137.2570  158.9817 H   0  0  0  0  0  0  0  0  0  0  0  0
  149.9464  138.8984  158.5511 H   0  0  0  0  0  0  0  0  0  0  0  0
  151.1846  137.7001  158.9636 H   0  0  0  0  0  0  0  0  0  0  0  0
  149.3248  137.4723  156.7230 H   0  0  0  0  0  0  0  0  0  0  0  0
  153.2425  138.7580  156.1159 H   0  0  0  0  0  0  0  0  0  0  0  0
  152.9299  137.2088  156.8531 H   0  0  0  0  0  0  0  0  0  0  0  0
  152.5262  138.6847  157.7140 H   0  0  0  0  0  0  0  0  0  0  0  0
  149.8919  137.0187  153.1565 H   0  0  0  0  0  0  0  0  0  0  0  0
  149.0758  137.6406  154.5764 H   0  0  0  0  0  0  0  0  0  0  0  0
  148.5926  139.1833  155.2218 H   0  0  0  0  0  0  0  0  0  0  0  0
  147.8918  141.6070  155.0604 H   0  0  0  0  0  0  0  0  0  0  0  0
  151.5458  142.9443  156.4476 H   0  0  0  0  0  0  0  0  0  0  0  0
  152.4391  140.5773  156.6777 H   0  0  0  0  0  0  0  0  0  0  0  0
  149.3874  143.2630  155.6737 H   0  0  0  0  0  0  0  0  0  0  0  0
  1  2  1  0  0  0  0
  1 14  1  0  0  0  0
  1 15  1  0  0  0  0
  1 16  1  0  0  0  0
  2  3  1  0  0  0  0
  2 17  1  0  0  0  0
  3  4  1  0  0  0  0
  3  5  1  0  0  0  0
  3  8  1  0  0  0  0
  4 18  1  0  0  0  0
  4 19  1  0  0  0  0
  4 20  1  0  0  0  0
  5  6  1  0  0  0  0
  5  7  2  0  0  0  0
  6 21  1  0  0  0  0
  6 22  1  0  0  0  0
  8 13  1  0  0  0  0
  8  9  2  0  0  0  0
  9 10  1  0  0  0  0
  9 23  1  0  0  0  0
 10 11  2  0  0  0  0
 10 24  1  0  0  0  0
 11 12  1  0  0  0  0
 11 27  1  0  0  0  0
 12 13  2  0  0  0  0
 12 25  1  0  0  0  0
 13 26  1  0  0  0  0
M  CHG  1  11   1
M  END
> <s_m_source_file>
AV-unprocessed.smi

> <i_m_source_file_index>
912

> <i_lp_mmshare_version>
43012

> <i_f3d_flags>
0

> <s_epik_input>
W0NIM11bTkhdW0NAQF0oW0NIM10pKEMoPU8pW05IMl0pYzFbY0hdW2NIXW5bY0hdW2NIXTE=

> <s_epik_cmdline>
J2VwaWtfcHl0aG9uJywgJy1waCcsICc3LjAnLCAnLXRuJywgJzgnLCAnLW1hJywgJzIwMCcsICctbWV0YWxfYmluZGluZycsICctaW1hZScsICc8aW5maWxlLm1hZT4nLCAnLW9tYWUnLCAnPG91dGZpbGUubWFlPic=

> <r_epik_Ionization_Penalty>
0.562542

> <r_epik_Ionization_Penalty_Charging>
0.554844

> <r_epik_Ionization_Penalty_Neutral>
0.00769834

> <r_epik_State_Penalty>
1.39075

> <r_epik_Charging_Adjusted_Penalty>
1.94559

> <i_epik_Tot_Q>
1

> <i_epik_Tot_abs_Q>
1

> <r_epik_Metal_State_Penalty>
1.55563

> <b_epik_Metal_Only>
0

> <s_lp_Force_Field>
OPLS_2005

> <r_lp_Energy>
17.994

> <b_lp_Chiralities_Consistent>
1

> <s_lp_Variant>
AV-unprocessed.smi:912-5

> <Gold.Version>
5.8.1

> <Gold.Id.Protein>
6NUR|6NUR_protein|mol2

> <Gold.PLP.Fitness>
30.0078

> <Gold.PLP.PLP>
-18.5576

> <Gold.PLP.part.hbond>
-3.4222

> <Gold.PLP.part.metal>
0.0000

> <Gold.PLP.part.buried>
-4.8910

> <Gold.PLP.part.nonpolar>
-11.3907

> <Gold.PLP.part.repulsive>
0.4971

> <Gold.PLP.ligand.clash>
0.0000

> <Gold.PLP.ligand.torsion>
0.1586

> <Gold.PLP.Chemscore.Hbond>
3.9120

> <Gold.PLP.Chemscore.CHOScore>
0.0000

> <Gold.PLP.Chemscore.Metal>
0.0000

> <Gold.Chemscore.Hbonds>
donor molecule, donor type, donor heavy atom, donor atom, acceptor molecule, acceptor atom, score
      L1  H     6    21       P1  7948  0.95
      L1  H    11    27       P1  8028  2.00
      P1  H 10752 10765       L1     7  0.91

> <Gold.PLP.Chemscore.Internal.Correction>
0.0313

> <Gold.Rescore>
     Score         DG    S(hbond)    S(metal)    S(lipo)     H(rot)  DE(clash)    DE(int)     intcor
     14.87     -15.38       2.94        0.00      40.42       1.82       0.01       0.50       ----

> <Gold.Chemscore.Fitness>
14.8702

> <Gold.Chemscore.DG>
-15.3763

> <Gold.Chemscore.ZeroCoef>
-5.4800

> <Gold.Chemscore.Hbond>
2.9440

> <Gold.Chemscore.Metal>
0.0000

> <Gold.Chemscore.Lipo>
40.4207

> <Gold.Chemscore.Internal_Hbond>
0.0000

> <Gold.Chemscore.DEClash>
0.0073

> <Gold.Chemscore.DEInternal>
0.4988

> <Gold.Chemscore.Rot>
1.8226

> <Gold.Chemscore.Internal.Correction>
   9.000000E+99

> <Gold.Chemscore.Hbonds>
donor molecule, donor type, donor heavy atom, donor atom, acceptor molecule, acceptor atom, score
      L1  H     6    21       P1  7948  0.21
      L1  H    11    27       P1  8028  0.94
      P1  H 10752 10765       L1     7  0.88

> <Gold.Chemscore.Hbond.Weighted>
-9.8330

> <Gold.Chemscore.Metal.Weighted>
-0.0000

> <Gold.Chemscore.Lipo.Weighted>
-4.7292

> <Gold.Chemscore.Internal_Hbond.Weighted>
0.0000

> <Gold.Chemscore.DEClash.Weighted>
0.0073

> <Gold.Chemscore.DEInternal.Weighted>
0.4988

> <Gold.Chemscore.Rot.Weighted>
4.6659

> <Gold.Chemscore.Internal.Correction.Weighted>
   9.000000E+99

> <Gold.Protein.RotatedTorsions>
[ 6907 6896 6895 6894 ] final -126.26 input  -60.11 | X-H torsion
[ 7974 7965 7964 7962 ] final -142.55 input  175.53 | X-H torsion
[ 8008 7997 7996 7995 ] final  -48.19 input   59.86 | X-H torsion
[ 10167 10162 10161 10158 ] final   35.04 input  -65.29 | X-H torsion
[ 10718 10713 10712 10709 ] final   -9.73 input   66.30 | X-H torsion
[ 10763 10752 10751 10750 ] final  152.62 input  -60.55 | X-H torsion
[ 11005 11000 10999 10996 ] final   95.57 input  -57.11 | X-H torsion

> <Gold.Protein.ActiveResidues>
 VAL166  LYS551  ARG553  GLY616  TRP617  ASP618  TYR619  PRO620  LYS621  CYS622 
 ASP623  PHE694  ASN695  SER759  ASP760  ASP761  ALA762  ILE779  LEU786  VAL792 
 PHE793  MET794  SER795  GLU796  ALA797  LYS798  CYS799  TRP800  GLU811  SER814 

> <Gold.Protein.RotatedAtoms>
  150.8951  133.7191  159.2893 H   0  0  0  0  0  0  0  0  0  0  0  0  # atno 6907 bound_to 6896
  151.4728  135.1045  159.9766 H   0  0  0  0  0  0  0  0  0  0  0  0  # atno 6908 bound_to 6896
  152.4844  133.8287  159.7147 H   0  0  0  0  0  0  0  0  0  0  0  0  # atno 6909 bound_to 6896
  144.8435  140.5944  143.5437 H   0  0  0  0  0  0  0  0  0  0  0  0  # atno 7974 bound_to 7965
  154.4026  140.1327  156.4299 H   0  0  0  0  0  0  0  0  0  0  0  0  # atno 8008 bound_to 7997
  155.7561  140.3487  155.5154 H   0  0  0  0  0  0  0  0  0  0  0  0  # atno 8009 bound_to 7997
  155.8903  140.1002  157.1413 H   0  0  0  0  0  0  0  0  0  0  0  0  # atno 8010 bound_to 7997
  140.4259  144.1393  150.6153 H   0  0  0  0  0  0  0  0  0  0  0  0  # atno 10167 bound_to 10162
  156.6837  130.5044  149.5963 H   0  0  0  0  0  0  0  0  0  0  0  0  # atno 10718 bound_to 10713
  154.1230  135.2831  155.3204 H   0  0  0  0  0  0  0  0  0  0  0  0  # atno 10763 bound_to 10752
  154.6410  135.5402  153.7792 H   0  0  0  0  0  0  0  0  0  0  0  0  # atno 10764 bound_to 10752
  153.0306  135.6486  154.1383 H   0  0  0  0  0  0  0  0  0  0  0  0  # atno 10765 bound_to 10752
  139.8788  134.8905  156.4030 H   0  0  0  0  0  0  0  0  0  0  0  0  # atno 11005 bound_to 11000
  145.4645  139.1509  143.3848 LP  0  0  0  0  0  0  0  0  0  0  0  0  # atno 17320 bound_to 7965
  146.2724  140.4776  142.8809 LP  0  0  0  0  0  0  0  0  0  0  0  0  # atno 17321 bound_to 7965
  140.4481  143.2498  151.9384 LP  0  0  0  0  0  0  0  0  0  0  0  0  # atno 17342 bound_to 10162
  139.4783  144.5589  151.8271 LP  0  0  0  0  0  0  0  0  0  0  0  0  # atno 17343 bound_to 10162
  156.1848  130.6522  151.0994 LP  0  0  0  0  0  0  0  0  0  0  0  0  # atno 17370 bound_to 10713
  157.7034  131.0766  150.6746 LP  0  0  0  0  0  0  0  0  0  0  0  0  # atno 17371 bound_to 10713
  140.9253  133.7616  155.9957 LP  0  0  0  0  0  0  0  0  0  0  0  0  # atno 17394 bound_to 11000
  140.8392  134.3086  157.5320 LP  0  0  0  0  0  0  0  0  0  0  0  0  # atno 17395 bound_to 11000

$$$$
