#       Name:                AV-unprocessed.smi:703
#       Creating user name   scv26
#       Creation time:       Fri Mar 27 00:41:21 2020


#       File generated by GOLD software.
#

@<TRIPOS>MOLECULE
AV-unprocessed.smi:703
    42    43     1
SMALL
NO_CHARGES


@<TRIPOS>ATOM
      1 ****        -2.9621  -3.4472  -1.0597 C.3            1 S1                 0.0000
      2 ****        -2.0601  -2.2190  -1.2416 C.3            1 S1                 0.0000
      3 ****        -2.1763  -1.2653  -0.1133 N.4            1 S1                 1.0000
      4 ****        -1.6808  -1.7676   1.1854 C.3            1 S1                 0.0000
      5 ****        -1.3149  -0.5257   2.0027 C.3            1 S1                 0.0000
      6 ****        -2.5231   0.0252   2.7782 C.3            1 S1                 0.0000
      7 ****        -0.8124   0.4558   0.9354 C.3            1 S1                 0.0000
      8 ****         0.6402   0.3237   0.7815 N.3            1 S1                 0.0000
      9 ****         1.5168   1.6623   0.1354 S.o2           1 S1                 0.0000
     10 ****         0.8107   2.1205  -1.0712 O.2            1 S1                 0.0000
     11 ****         1.7632   2.5996   1.2413 O.2            1 S1                 0.0000
     12 ****         3.1111   0.8927  -0.3737 C.3            1 S1                 0.0000
     13 ****         4.0002   1.9401  -0.9794 C.2            1 S1                 0.0000
     14 ****         3.9834   2.4541  -2.3053 C.2            1 S1                 0.0000
     15 ****         4.9929   3.3730  -2.3032 C.2            1 S1                 0.0000
     16 ****         5.5878   3.4225  -1.0848 O.3            1 S1                 0.0000
     17 ****         4.9480   2.5023  -0.2467 N.2            1 S1                 0.0000
     18 ****        -1.5392   0.0487  -0.3601 C.3            1 S1                 0.0000
     19 ****        -2.8999  -4.1016  -1.9294 H              1 S1                 0.0000
     20 ****        -4.0059  -3.1556  -0.9394 H              1 S1                 0.0000
     21 ****        -2.6731  -4.0345  -0.1879 H              1 S1                 0.0000
     22 ****        -1.0203  -2.5252  -1.3659 H              1 S1                 0.0000
     23 ****        -2.3490  -1.7078  -2.1609 H              1 S1                 0.0000
     24 ****        -2.4164  -2.4016   1.6818 H              1 S1                 0.0000
     25 ****        -0.7834  -2.3671   1.0236 H              1 S1                 0.0000
     26 ****        -0.5346  -0.7639   2.7275 H              1 S1                 0.0000
     27 ****        -3.3468   0.2821   2.1113 H              1 S1                 0.0000
     28 ****        -2.2533   0.9244   3.3329 H              1 S1                 0.0000
     29 ****        -2.8931  -0.7051   3.4985 H              1 S1                 0.0000
     30 ****        -1.0368   1.4873   1.2118 H              1 S1                 0.0000
     31 ****         1.0695  -0.0035   1.6471 H              1 S1                 0.0000
     32 ****         3.5711   0.4353   0.5026 H              1 S1                 0.0000
     33 ****         2.8983   0.1007  -1.0912 H              1 S1                 0.0000
     34 ****         3.3315   2.1940  -3.1258 H              1 S1                 0.0000
     35 ****         5.3916   4.0395  -3.0535 H              1 S1                 0.0000
     36 ****        -0.8562   0.0081  -1.2104 H              1 S1                 0.0000
     37 ****        -2.3186   0.7693  -0.6094 H              1 S1                 0.0000
     38 ****        -3.1594  -1.0710   0.0145 H              1 S1                 0.0000
     39 ****         0.7174  -0.3596   0.0555 LP             1 S1                 0.0000
     40 ****         5.5026   4.3432  -0.7038 LP             1 S1                 0.0000
     41 ****         6.5555   3.1857  -1.1709 LP             1 S1                 0.0000
     42 ****         5.1631   2.3090   0.7106 LP             1 S1                 0.0000
@<TRIPOS>BOND
    1    1    2 1     
    2    1   19 1     
    3    1   20 1     
    4    1   21 1     
    5    2    3 1     
    6    2   22 1     
    7    2   23 1     
    8    3   18 1     
    9    3    4 1     
   10    3   38 1     
   11    4    5 1     
   12    4   24 1     
   13    4   25 1     
   14    5    6 1     
   15    5    7 1     
   16    5   26 1     
   17    6   27 1     
   18    6   28 1     
   19    6   29 1     
   20    7    8 1     
   21    7   18 1     
   22    7   30 1     
   23    8    9 1     
   24    8   31 1     
   25    9   10 2     
   26    9   11 2     
   27    9   12 1     
   28   12   13 1     
   29   12   32 1     
   30   12   33 1     
   31   13   17 2     
   32   13   14 1     
   33   14   15 2     
   34   14   34 1     
   35   15   16 1     
   36   15   35 1     
   37   16   17 1     
   38   18   36 1     
   39   18   37 1     
   40    8   39 1     
   41   16   40 1     
   42   16   41 1     
   43   17   42 1     
@<TRIPOS>SUBSTRUCTURE
      1 S1             1
@<TRIPOS>SET
LONE_PAIRS      STATIC     ATOMS    <user>   **** ""
6 39 10 11 40 41 42
DONOR_HYDROGENS      STATIC     ATOMS    <user>   **** ""
2 38 31
ATOM$BLUE        STATIC     ATOMS    COLORGROUP SYSTEM
6 39 10 11 40 41 42
ATOM$RED        STATIC     ATOMS    COLORGROUP SYSTEM
2 38 31
