AV-unprocessed.smi:1843|AV-procd|sdf|7505|dock9
  -GOLD-   22720 9213D 1   1.00000     0.00000
 Structure written by MMmdl.
 36 38  0  0  0  0  0  0  0  0  2 V2000
  146.3487  138.5922  154.7101 O   0  0  0  0  0  0  0  0  0  0  0  0
  146.7393  138.2766  153.5838 C   0  0  0  0  0  0  0  0  0  0  0  0
  145.9836  137.7576  152.5898 N   0  5  0  0  0  0  0  0  0  0  0  0
  145.9667  136.4306  152.3817 C   0  0  0  0  0  0  0  0  0  0  0  0
  146.6966  135.5774  153.1141 N   0  0  0  0  0  0  0  0  0  0  0  0
  146.5349  134.2540  152.7299 N   0  0  0  0  0  0  0  0  0  0  0  0
  145.6890  134.1269  151.7047 C   0  0  0  0  0  0  0  0  0  0  0  0
  145.3475  132.8024  151.1085 C   0  0  0  0  0  0  0  0  0  0  0  0
  144.4700  132.6889  149.8809 C   0  0  0  0  0  0  0  0  0  0  0  0
  143.9489  132.2405  151.2225 C   0  0  0  0  0  0  0  0  0  0  0  0
  145.0213  135.6422  151.1195 S   0  0  0  0  0  0  0  0  0  0  0  0
  148.0258  138.4486  153.2480 N   0  0  0  0  0  0  0  0  0  0  0  0
  149.0729  139.0126  154.0985 C   0  0  1  0  0  0  0  0  0  0  0  0
  150.4527  138.8362  153.4350 C   0  0  0  0  0  0  0  0  0  0  0  0
  151.5722  139.4197  154.3121 C   0  0  0  0  0  0  0  0  0  0  0  0
  151.3102  140.8976  154.6418 C   0  0  0  0  0  0  0  0  0  0  0  0
  149.9311  141.0915  155.2986 C   0  0  0  0  0  0  0  0  0  0  0  0
  148.7916  140.4950  154.4495 C   0  0  1  0  0  0  0  0  0  0  0  0
  148.6342  141.2704  153.2753 O   0  0  0  0  0  0  0  0  0  0  0  0
  146.1838  132.1121  151.2019 H   0  0  0  0  0  0  0  0  0  0  0  0
  144.0467  133.6002  149.4631 H   0  0  0  0  0  0  0  0  0  0  0  0
  144.7216  131.9179  149.1558 H   0  0  0  0  0  0  0  0  0  0  0  0
  143.8507  131.1703  151.3925 H   0  0  0  0  0  0  0  0  0  0  0  0
  143.1926  132.8605  151.7000 H   0  0  0  0  0  0  0  0  0  0  0  0
  148.2992  138.1719  152.3164 H   0  0  0  0  0  0  0  0  0  0  0  0
  149.0894  138.4418  155.0292 H   0  0  0  0  0  0  0  0  0  0  0  0
  150.6454  137.7782  153.2534 H   0  0  0  0  0  0  0  0  0  0  0  0
  150.4638  139.3226  152.4585 H   0  0  0  0  0  0  0  0  0  0  0  0
  151.6477  138.8471  155.2372 H   0  0  0  0  0  0  0  0  0  0  0  0
  152.5321  139.3163  153.8053 H   0  0  0  0  0  0  0  0  0  0  0  0
  152.0908  141.2749  155.3028 H   0  0  0  0  0  0  0  0  0  0  0  0
  151.3695  141.4908  153.7283 H   0  0  0  0  0  0  0  0  0  0  0  0
  149.9342  140.6091  156.2769 H   0  0  0  0  0  0  0  0  0  0  0  0
  149.7499  142.1509  155.4836 H   0  0  0  0  0  0  0  0  0  0  0  0
  147.8602  140.5694  155.0120 H   0  0  0  0  0  0  0  0  0  0  0  0
  148.5771  140.6799  152.5391 H   0  0  0  0  0  0  0  0  0  0  0  0
  1  2  2  0  0  0  0
  2  3  1  0  0  0  0
  2 12  1  0  0  0  0
  3  4  1  0  0  0  0
  4 11  1  0  0  0  0
  4  5  2  0  0  0  0
  5  6  1  0  0  0  0
  6  7  2  0  0  0  0
  7  8  1  0  0  0  0
  7 11  1  0  0  0  0
  8 10  1  0  0  0  0
  8  9  1  0  0  0  0
  8 20  1  0  0  0  0
  9 10  1  0  0  0  0
  9 21  1  0  0  0  0
  9 22  1  0  0  0  0
 10 23  1  0  0  0  0
 10 24  1  0  0  0  0
 12 13  1  0  0  0  0
 12 25  1  0  0  0  0
 13 18  1  0  0  0  0
 13 14  1  0  0  0  0
 13 26  1  0  0  0  0
 14 15  1  0  0  0  0
 14 27  1  0  0  0  0
 14 28  1  0  0  0  0
 15 16  1  0  0  0  0
 15 29  1  0  0  0  0
 15 30  1  0  0  0  0
 16 17  1  0  0  0  0
 16 31  1  0  0  0  0
 16 32  1  0  0  0  0
 17 18  1  0  0  0  0
 17 33  1  0  0  0  0
 17 34  1  0  0  0  0
 18 19  1  0  0  0  0
 18 35  1  0  0  0  0
 19 36  1  0  0  0  0
M  CHG  1   3  -1
M  END
> <s_m_source_file>
AV-unprocessed.smi

> <i_m_source_file_index>
1843

> <i_lp_mmshare_version>
43012

> <i_f3d_flags>
0

> <s_epik_input>
W09IXVtDQEBIXTFbQ0gyXVtDSDJdW0NIMl1bQ0gyXVtDQEhdMVtOSF1DKD1PKVtOSF1jMm5uYyhzMilbQ0hdM1tDSDJdW0NIMl0z

> <s_epik_cmdline>
J2VwaWtfcHl0aG9uJywgJy1waCcsICc3LjAnLCAnLXRuJywgJzgnLCAnLW1hJywgJzIwMCcsICctbWV0YWxfYmluZGluZycsICctaW1hZScsICc8aW5maWxlLm1hZT4nLCAnLW9tYWUnLCAnPG91dGZpbGUubWFlPic=

> <r_lp_tautomer_probability>
1

> <r_epik_Ionization_Penalty>
4.7996

> <r_epik_Ionization_Penalty_Charging>
4.64516

> <r_epik_Ionization_Penalty_Neutral>
0.154442

> <r_epik_State_Penalty>
4.64493

> <r_epik_Charging_Adjusted_Penalty>
9.29009

> <i_epik_Tot_Q>
-1

> <i_epik_Tot_abs_Q>
1

> <r_epik_Metal_State_Penalty>
0.896144

> <b_epik_Metal_Only>
1

> <s_lp_Force_Field>
OPLS_2005

> <r_lp_Energy>
9.18757

> <b_lp_Chiralities_Consistent>
1

> <s_lp_Variant>
AV-unprocessed.smi:1843-6

> <Gold.Version>
5.8.1

> <Gold.Id.Protein>
6NUR|6NUR_protein|mol2

> <Gold.PLP.Fitness>
40.7331

> <Gold.PLP.PLP>
-33.8575

> <Gold.PLP.part.hbond>
-3.8037

> <Gold.PLP.part.metal>
0.0000

> <Gold.PLP.part.buried>
-4.7482

> <Gold.PLP.part.nonpolar>
-27.5857

> <Gold.PLP.part.repulsive>
0.9690

> <Gold.PLP.ligand.clash>
0.0000

> <Gold.PLP.ligand.torsion>
0.8494

> <Gold.PLP.Chemscore.Hbond>
2.8080

> <Gold.PLP.Chemscore.CHOScore>
0.0000

> <Gold.PLP.Chemscore.Metal>
0.0000

> <Gold.Chemscore.Hbonds>
donor molecule, donor type, donor heavy atom, donor atom, acceptor molecule, acceptor atom, score
      L1  H    12    25       P1  7948  0.44
      L1  H    19    36       P1  7957  0.82
      P1  H  8011  8017       L1    19  0.50

> <Gold.PLP.Chemscore.Internal.Correction>
0.1505

> <Gold.Rescore>
     Score         DG    S(hbond)    S(metal)    S(lipo)     H(rot)  DE(clash)    DE(int)     intcor
     15.83     -17.31       2.22        0.00      75.22       1.72       0.56       0.92       ----

> <Gold.Chemscore.Fitness>
15.8258

> <Gold.Chemscore.DG>
-17.3076

> <Gold.Chemscore.ZeroCoef>
-5.4800

> <Gold.Chemscore.Hbond>
2.2213

> <Gold.Chemscore.Metal>
0.0000

> <Gold.Chemscore.Lipo>
75.2249

> <Gold.Chemscore.Internal_Hbond>
0.0000

> <Gold.Chemscore.DEClash>
0.5612

> <Gold.Chemscore.DEInternal>
0.9206

> <Gold.Chemscore.Rot>
1.7160

> <Gold.Chemscore.Internal.Correction>
   9.000000E+99

> <Gold.Chemscore.Hbonds>
donor molecule, donor type, donor heavy atom, donor atom, acceptor molecule, acceptor atom, score
      L1  H    12    25       P1  7948  0.42
      L1  H    19    36       P1  7957  0.80
      P1  H  8011  8017       L1    19  0.03

> <Gold.Chemscore.Hbond.Weighted>
-7.4192

> <Gold.Chemscore.Metal.Weighted>
-0.0000

> <Gold.Chemscore.Lipo.Weighted>
-8.8013

> <Gold.Chemscore.Internal_Hbond.Weighted>
0.0000

> <Gold.Chemscore.DEClash.Weighted>
0.5612

> <Gold.Chemscore.DEInternal.Weighted>
0.9206

> <Gold.Chemscore.Rot.Weighted>
4.3930

> <Gold.Chemscore.Internal.Correction.Weighted>
   9.000000E+99

> <Gold.Protein.RotatedTorsions>
[ 6907 6896 6895 6894 ] final -114.08 input  -60.11 | X-H torsion
[ 7974 7965 7964 7962 ] final  -10.28 input  175.53 | X-H torsion
[ 8008 7997 7996 7995 ] final -168.15 input   59.86 | X-H torsion
[ 10167 10162 10161 10158 ] final -174.93 input  -65.29 | X-H torsion
[ 10718 10713 10712 10709 ] final  -24.48 input   66.30 | X-H torsion
[ 10763 10752 10751 10750 ] final  168.14 input  -60.55 | X-H torsion
[ 11005 11000 10999 10996 ] final -108.50 input  -57.11 | X-H torsion

> <Gold.Protein.ActiveResidues>
 VAL166  LYS551  ARG553  GLY616  TRP617  ASP618  TYR619  PRO620  LYS621  CYS622 
 ASP623  PHE694  ASN695  SER759  ASP760  ASP761  ALA762  ILE779  LEU786  VAL792 
 PHE793  MET794  SER795  GLU796  ALA797  LYS798  CYS799  TRP800  GLU811  SER814 

> <Gold.Protein.RotatedAtoms>
  150.7875  133.8853  159.3297 H   0  0  0  0  0  0  0  0  0  0  0  0  # atno 6907 bound_to 6896
  151.6699  135.0975  160.0205 H   0  0  0  0  0  0  0  0  0  0  0  0  # atno 6908 bound_to 6896
  152.3943  133.6685  159.6298 H   0  0  0  0  0  0  0  0  0  0  0  0  # atno 6909 bound_to 6896
  146.2225  140.2741  142.8358 H   0  0  0  0  0  0  0  0  0  0  0  0  # atno 7974 bound_to 7965
  155.8875  140.1019  157.1442 H   0  0  0  0  0  0  0  0  0  0  0  0  # atno 8008 bound_to 7997
  154.4011  140.1317  156.4338 H   0  0  0  0  0  0  0  0  0  0  0  0  # atno 8009 bound_to 7997
  155.7572  140.3464  155.5182 H   0  0  0  0  0  0  0  0  0  0  0  0  # atno 8010 bound_to 7997
  139.5608  144.1875  152.1235 H   0  0  0  0  0  0  0  0  0  0  0  0  # atno 10167 bound_to 10162
  156.4772  130.4537  149.6833 H   0  0  0  0  0  0  0  0  0  0  0  0  # atno 10718 bound_to 10713
  154.3642  135.2753  155.2303 H   0  0  0  0  0  0  0  0  0  0  0  0  # atno 10763 bound_to 10752
  154.4478  135.5938  153.6175 H   0  0  0  0  0  0  0  0  0  0  0  0  # atno 10764 bound_to 10752
  152.9842  135.6034  154.3865 H   0  0  0  0  0  0  0  0  0  0  0  0  # atno 10765 bound_to 10752
  141.0898  133.9075  157.2101 H   0  0  0  0  0  0  0  0  0  0  0  0  # atno 11005 bound_to 11000
  144.9246  140.7907  143.5727 LP  0  0  0  0  0  0  0  0  0  0  0  0  # atno 17320 bound_to 7965
  145.2680  139.1966  143.4857 LP  0  0  0  0  0  0  0  0  0  0  0  0  # atno 17321 bound_to 7965
  140.1389  144.5221  150.6756 LP  0  0  0  0  0  0  0  0  0  0  0  0  # atno 17342 bound_to 10162
  140.6887  143.2364  151.5190 LP  0  0  0  0  0  0  0  0  0  0  0  0  # atno 17343 bound_to 10162
  156.3559  130.7456  151.2422 LP  0  0  0  0  0  0  0  0  0  0  0  0  # atno 17370 bound_to 10713
  157.7486  131.0364  150.4407 LP  0  0  0  0  0  0  0  0  0  0  0  0  # atno 17371 bound_to 10713
  139.9722  135.0125  156.9541 LP  0  0  0  0  0  0  0  0  0  0  0  0  # atno 17394 bound_to 11000
  140.5278  134.0843  155.7308 LP  0  0  0  0  0  0  0  0  0  0  0  0  # atno 17395 bound_to 11000

$$$$
