AV-unprocessed.smi:1056|AV-procd|sdf|4632|dock3
  -GOLD-   22720 3133D 1   1.00000     0.00000
 Structure written by MMmdl.
 45 47  0  0  0  0  0  0  0  0  2 V2000
  153.0007  141.1892  159.2719 C   0  0  0  0  0  0  0  0  0  0  0  0
  152.0293  141.1325  158.1059 C   0  0  0  0  0  0  0  0  0  0  0  0
  152.1570  140.0949  157.1553 C   0  0  0  0  0  0  0  0  0  0  0  0
  151.2719  140.0038  156.0591 C   0  0  0  0  0  0  0  0  0  0  0  0
  151.2126  139.0843  155.0258 N   0  0  0  0  0  0  0  0  0  0  0  0
  150.1747  139.5331  154.3269 C   0  0  0  0  0  0  0  0  0  0  0  0
  149.5553  140.6388  154.7831 N   0  0  0  0  0  0  0  0  0  0  0  0
  148.4123  141.3081  154.1881 C   0  0  0  0  0  0  0  0  0  0  0  0
  147.3587  140.3174  153.6560 C   0  0  2  0  0  0  0  0  0  0  0  0
  146.5642  140.9534  152.6723 O   0  0  0  0  0  0  0  0  0  0  0  0
  146.4366  139.8053  154.7790 C   0  0  0  0  0  0  0  0  0  0  0  0
  145.2994  139.0075  154.2547 N   0  3  1  0  0  0  0  0  0  0  0  0
  145.7186  137.8063  153.4937 C   0  0  0  0  0  0  0  0  0  0  0  0
  144.5018  137.1612  152.8075 C   0  0  0  0  0  0  0  0  0  0  0  0
  143.3289  137.0893  153.6756 N   0  0  0  0  0  0  0  0  0  0  0  0
  143.1702  137.7609  154.8279 C   0  0  0  0  0  0  0  0  0  0  0  0
  142.1484  137.6573  155.5012 O   0  0  0  0  0  0  0  0  0  0  0  0
  144.3065  138.6765  155.3086 C   0  0  0  0  0  0  0  0  0  0  0  0
  150.2481  140.9885  155.9374 C   0  0  0  0  0  0  0  0  0  0  0  0
  150.1123  142.0273  156.8755 C   0  0  0  0  0  0  0  0  0  0  0  0
  151.0032  142.1012  157.9668 C   0  0  0  0  0  0  0  0  0  0  0  0
  150.8442  143.2226  158.9785 C   0  0  0  0  0  0  0  0  0  0  0  0
  153.7620  140.4124  159.1943 H   0  0  0  0  0  0  0  0  0  0  0  0
  152.4715  141.0473  160.2144 H   0  0  0  0  0  0  0  0  0  0  0  0
  153.5099  142.1528  159.3014 H   0  0  0  0  0  0  0  0  0  0  0  0
  152.9381  139.3564  157.2612 H   0  0  0  0  0  0  0  0  0  0  0  0
  149.8466  139.0307  153.4285 H   0  0  0  0  0  0  0  0  0  0  0  0
  147.9696  141.9600  154.9425 H   0  0  0  0  0  0  0  0  0  0  0  0
  148.7659  141.9581  153.3865 H   0  0  0  0  0  0  0  0  0  0  0  0
  147.8767  139.4840  153.1817 H   0  0  0  0  0  0  0  0  0  0  0  0
  145.6842  140.6116  152.7233 H   0  0  0  0  0  0  0  0  0  0  0  0
  146.9979  139.2016  155.4938 H   0  0  0  0  0  0  0  0  0  0  0  0
  146.0609  140.6639  155.3385 H   0  0  0  0  0  0  0  0  0  0  0  0
  146.4674  138.0548  152.7424 H   0  0  0  0  0  0  0  0  0  0  0  0
  146.1833  137.0946  154.1781 H   0  0  0  0  0  0  0  0  0  0  0  0
  144.2257  137.7451  151.9290 H   0  0  0  0  0  0  0  0  0  0  0  0
  144.7520  136.1609  152.4530 H   0  0  0  0  0  0  0  0  0  0  0  0
  142.5754  136.4866  153.3755 H   0  0  0  0  0  0  0  0  0  0  0  0
  144.8106  138.1809  156.1396 H   0  0  0  0  0  0  0  0  0  0  0  0
  143.8741  139.5987  155.6992 H   0  0  0  0  0  0  0  0  0  0  0  0
  149.3281  142.7602  156.7587 H   0  0  0  0  0  0  0  0  0  0  0  0
  149.9900  143.8567  158.7391 H   0  0  0  0  0  0  0  0  0  0  0  0
  151.7344  143.8520  158.9944 H   0  0  0  0  0  0  0  0  0  0  0  0
  150.6887  142.8164  159.9782 H   0  0  0  0  0  0  0  0  0  0  0  0
  144.8154  139.6062  153.6003 H   0  0  0  0  0  0  0  0  0  0  0  0
  1  2  1  0  0  0  0
  1 23  1  0  0  0  0
  1 24  1  0  0  0  0
  1 25  1  0  0  0  0
  2 21  1  0  0  0  0
  2  3  2  0  0  0  0
  3  4  1  0  0  0  0
  3 26  1  0  0  0  0
  4 19  2  0  0  0  0
  4  5  1  0  0  0  0
  5  6  2  0  0  0  0
  6  7  1  0  0  0  0
  6 27  1  0  0  0  0
  7  8  1  0  0  0  0
  7 19  1  0  0  0  0
  8  9  1  0  0  0  0
  8 28  1  0  0  0  0
  8 29  1  0  0  0  0
  9 10  1  0  0  0  0
  9 11  1  0  0  0  0
  9 30  1  0  0  0  0
 10 31  1  0  0  0  0
 11 12  1  0  0  0  0
 11 32  1  0  0  0  0
 11 33  1  0  0  0  0
 12 18  1  0  0  0  0
 12 13  1  0  0  0  0
 12 45  1  0  0  0  0
 13 14  1  0  0  0  0
 13 34  1  0  0  0  0
 13 35  1  0  0  0  0
 14 15  1  0  0  0  0
 14 36  1  0  0  0  0
 14 37  1  0  0  0  0
 15 16  1  0  0  0  0
 15 38  1  0  0  0  0
 16 17  2  0  0  0  0
 16 18  1  0  0  0  0
 18 39  1  0  0  0  0
 18 40  1  0  0  0  0
 19 20  1  0  0  0  0
 20 21  2  0  0  0  0
 20 41  1  0  0  0  0
 21 22  1  0  0  0  0
 22 42  1  0  0  0  0
 22 43  1  0  0  0  0
 22 44  1  0  0  0  0
M  CHG  1  12   1
M  END
> <s_m_source_file>
AV-unprocessed.smi

> <i_m_source_file_index>
1056

> <i_lp_mmshare_version>
43012

> <i_f3d_flags>
0

> <s_epik_input>
W0NIM11jKFtjSF0xKWMoW0NIM10pW2NIXWMoYzEyKW4oW2NIXW4yKVtDSDJdW0NASF0oW09IXSlbQ0gyXU4zW0NIMl1bQ0gyXVtOSF1DKD1PKVtDSDJdMw==

> <s_epik_cmdline>
J2VwaWtfcHl0aG9uJywgJy1waCcsICc3LjAnLCAnLXRuJywgJzgnLCAnLW1hJywgJzIwMCcsICctbWV0YWxfYmluZGluZycsICctaW1hZScsICc8aW5maWxlLm1hZT4nLCAnLW9tYWUnLCAnPG91dGZpbGUubWFlPic=

> <r_epik_Ionization_Penalty>
0.153633

> <r_epik_Ionization_Penalty_Charging>
0.0674887

> <r_epik_Ionization_Penalty_Neutral>
0.0861443

> <r_epik_State_Penalty>
0.135155

> <r_epik_Charging_Adjusted_Penalty>
0.202644

> <i_epik_Tot_Q>
1

> <i_epik_Tot_abs_Q>
1

> <r_epik_Metal_State_Penalty>
0.190685

> <b_epik_Metal_Only>
0

> <s_lp_Force_Field>
OPLS_2005

> <r_lp_Energy>
24.2633

> <b_lp_Chiralities_Consistent>
1

> <s_lp_Variant>
AV-unprocessed.smi:1056-3

> <Gold.Version>
5.8.1

> <Gold.Id.Protein>
6NUR|6NUR_protein|mol2

> <Gold.PLP.Fitness>
42.7390

> <Gold.PLP.PLP>
-31.9884

> <Gold.PLP.part.hbond>
-2.0000

> <Gold.PLP.part.metal>
0.0000

> <Gold.PLP.part.buried>
-1.3917

> <Gold.PLP.part.nonpolar>
-28.5839

> <Gold.PLP.part.repulsive>
0.0880

> <Gold.PLP.ligand.clash>
0.0000

> <Gold.PLP.ligand.torsion>
0.5512

> <Gold.PLP.Chemscore.Hbond>
3.0000

> <Gold.PLP.Chemscore.CHOScore>
0.9265

> <Gold.PLP.Chemscore.Metal>
0.0000

> <Gold.Chemscore.Hbonds>
donor molecule, donor type, donor heavy atom, donor atom, acceptor molecule, acceptor atom, score
      L1  H    10    31       P1 10175  1.00
      L1  H    12    45       P1 10175  2.00
      L1  C     6    27       P1  7957  0.94

> <Gold.PLP.Chemscore.Internal.Correction>
0.0735

> <Gold.Rescore>
     Score         DG    S(hbond)    S(metal)    S(lipo)     H(rot)  DE(clash)    DE(int)     intcor
     14.51     -15.08       1.82        0.00      82.17       2.38       0.03       0.54       ----

> <Gold.Chemscore.Fitness>
14.5113

> <Gold.Chemscore.DG>
-15.0784

> <Gold.Chemscore.ZeroCoef>
-5.4800

> <Gold.Chemscore.Hbond>
1.8183

> <Gold.Chemscore.Metal>
0.0000

> <Gold.Chemscore.Lipo>
82.1679

> <Gold.Chemscore.Internal_Hbond>
0.0000

> <Gold.Chemscore.DEClash>
0.0270

> <Gold.Chemscore.DEInternal>
0.5401

> <Gold.Chemscore.Rot>
2.3783

> <Gold.Chemscore.Internal.Correction>
   9.000000E+99

> <Gold.Chemscore.Hbonds>
donor molecule, donor type, donor heavy atom, donor atom, acceptor molecule, acceptor atom, score
      L1  H    10    31       P1 10175  0.52
      L1  H    12    45       P1 10175  1.00

> <Gold.Chemscore.Hbond.Weighted>
-6.0731

> <Gold.Chemscore.Metal.Weighted>
-0.0000

> <Gold.Chemscore.Lipo.Weighted>
-9.6136

> <Gold.Chemscore.Internal_Hbond.Weighted>
0.0000

> <Gold.Chemscore.DEClash.Weighted>
0.0270

> <Gold.Chemscore.DEInternal.Weighted>
0.5401

> <Gold.Chemscore.Rot.Weighted>
6.0884

> <Gold.Chemscore.Internal.Correction.Weighted>
   9.000000E+99

> <Gold.Protein.RotatedTorsions>
[ 6907 6896 6895 6894 ] final  -78.36 input  -60.11 | X-H torsion
[ 7974 7965 7964 7962 ] final  161.11 input  175.53 | X-H torsion
[ 8008 7997 7996 7995 ] final  -63.98 input   59.86 | X-H torsion
[ 10167 10162 10161 10158 ] final  117.00 input  -65.29 | X-H torsion
[ 10718 10713 10712 10709 ] final  -14.36 input   66.30 | X-H torsion
[ 10763 10752 10751 10750 ] final   65.81 input  -60.55 | X-H torsion
[ 11005 11000 10999 10996 ] final  -82.77 input  -57.11 | X-H torsion

> <Gold.Protein.ActiveResidues>
 VAL166  LYS551  ARG553  GLY616  TRP617  ASP618  TYR619  PRO620  LYS621  CYS622 
 ASP623  PHE694  ASN695  SER759  ASP760  ASP761  ALA762  ILE779  LEU786  VAL792 
 PHE793  MET794  SER795  GLU796  ALA797  LYS798  CYS799  TRP800  GLU811  SER814 

> <Gold.Protein.RotatedAtoms>
  150.6975  134.4284  159.5236 H   0  0  0  0  0  0  0  0  0  0  0  0  # atno 6907 bound_to 6896
  152.2015  134.8581  160.0516 H   0  0  0  0  0  0  0  0  0  0  0  0  # atno 6908 bound_to 6896
  151.9500  133.3628  159.4033 H   0  0  0  0  0  0  0  0  0  0  0  0  # atno 6909 bound_to 6896
  144.7702  139.7852  143.6300 H   0  0  0  0  0  0  0  0  0  0  0  0  # atno 7974 bound_to 7965
  154.4585  140.0963  156.6827 H   0  0  0  0  0  0  0  0  0  0  0  0  # atno 8008 bound_to 7997
  155.5064  140.3475  155.4362 H   0  0  0  0  0  0  0  0  0  0  0  0  # atno 8009 bound_to 7997
  156.0825  140.1376  156.9683 H   0  0  0  0  0  0  0  0  0  0  0  0  # atno 8010 bound_to 7997
  139.6208  144.7100  151.2638 H   0  0  0  0  0  0  0  0  0  0  0  0  # atno 10167 bound_to 10162
  156.6170  130.4865  149.6179 H   0  0  0  0  0  0  0  0  0  0  0  0  # atno 10718 bound_to 10713
  153.0112  135.5343  154.6725 H   0  0  0  0  0  0  0  0  0  0  0  0  # atno 10763 bound_to 10752
  154.5906  135.2858  155.0641 H   0  0  0  0  0  0  0  0  0  0  0  0  # atno 10764 bound_to 10752
  154.1736  135.6528  153.5068 H   0  0  0  0  0  0  0  0  0  0  0  0  # atno 10765 bound_to 10752
  141.1661  133.7261  156.8621 H   0  0  0  0  0  0  0  0  0  0  0  0  # atno 11005 bound_to 11000
  146.1843  139.5050  142.9846 LP  0  0  0  0  0  0  0  0  0  0  0  0  # atno 17320 bound_to 7965
  145.6347  141.0297  143.1844 LP  0  0  0  0  0  0  0  0  0  0  0  0  # atno 17321 bound_to 7965
  140.7381  143.6659  150.8124 LP  0  0  0  0  0  0  0  0  0  0  0  0  # atno 17342 bound_to 10162
  140.0269  143.5484  152.2777 LP  0  0  0  0  0  0  0  0  0  0  0  0  # atno 17343 bound_to 10162
  156.2343  130.6813  151.1494 LP  0  0  0  0  0  0  0  0  0  0  0  0  # atno 17370 bound_to 10713
  157.7238  131.0664  150.6021 LP  0  0  0  0  0  0  0  0  0  0  0  0  # atno 17371 bound_to 10713
  140.1841  134.9012  157.2983 LP  0  0  0  0  0  0  0  0  0  0  0  0  # atno 17394 bound_to 11000
  140.2362  134.3850  155.7500 LP  0  0  0  0  0  0  0  0  0  0  0  0  # atno 17395 bound_to 11000

$$$$
