AV-unprocessed.smi:2955|AV-procd|sdf|11301|dock6
  -GOLD-   2272016193D 1   1.00000     0.00000
 Structure written by MMmdl.
 45 47  0  0  0  0  0  0  0  0  1 V2000
  153.0643  143.0660  162.5589 C   0  0  0  0  0  0  0  0  0  0  0  0
  152.5284  143.3283  161.1667 C   0  0  0  0  0  0  0  0  0  0  0  0
  152.2479  144.6434  160.7464 C   0  0  0  0  0  0  0  0  0  0  0  0
  151.7494  144.8746  159.4511 C   0  0  0  0  0  0  0  0  0  0  0  0
  151.5318  143.7960  158.5722 C   0  0  0  0  0  0  0  0  0  0  0  0
  151.8148  142.4685  158.9816 C   0  0  0  0  0  0  0  0  0  0  0  0
  151.6393  141.3574  158.1850 O   0  0  0  0  0  0  0  0  0  0  0  0
  151.0122  141.5278  156.9210 C   0  0  0  0  0  0  0  0  0  0  0  0
  151.5437  140.4830  155.9298 C   0  0  0  0  0  0  0  0  0  0  0  0
  150.4689  139.7910  155.2304 N   0  0  0  0  0  0  0  0  0  0  0  0
  150.3262  138.4650  154.9622 C   0  0  0  0  0  0  0  0  0  0  0  0
  151.3374  137.4250  155.3776 C   0  0  2  0  0  0  0  0  0  0  0  0
  150.8822  136.0009  155.0279 C   0  0  0  0  0  0  0  0  0  0  0  0
  151.5625  137.5460  156.8141 N   0  0  0  0  0  0  0  0  0  0  0  0
  152.5024  136.8722  157.4884 C   0  0  0  0  0  0  0  0  0  0  0  0
  153.2721  136.0770  156.9558 O   0  0  0  0  0  0  0  0  0  0  0  0
  149.2034  138.1274  154.3219 N   0  0  0  0  0  0  0  0  0  0  0  0
  148.5782  139.3422  154.1303 C   0  0  0  0  0  0  0  0  0  0  0  0
  147.3545  139.6555  153.4966 C   0  0  0  0  0  0  0  0  0  0  0  0
  146.9134  140.9927  153.4186 C   0  0  0  0  0  0  0  0  0  0  0  0
  147.6870  142.0326  153.9731 C   0  0  0  0  0  0  0  0  0  0  0  0
  148.9082  141.7408  154.6107 C   0  0  0  0  0  0  0  0  0  0  0  0
  149.3449  140.4043  154.6848 C   0  0  0  0  0  0  0  0  0  0  0  0
  152.3114  142.2514  160.2836 C   0  0  0  0  0  0  0  0  0  0  0  0
  153.0331  143.9663  163.1731 H   0  0  0  0  0  0  0  0  0  0  0  0
  154.0979  142.7236  162.5062 H   0  0  0  0  0  0  0  0  0  0  0  0
  152.4717  142.2968  163.0545 H   0  0  0  0  0  0  0  0  0  0  0  0
  152.4129  145.4773  161.4128 H   0  0  0  0  0  0  0  0  0  0  0  0
  151.5340  145.8827  159.1296 H   0  0  0  0  0  0  0  0  0  0  0  0
  151.1494  144.0153  157.5872 H   0  0  0  0  0  0  0  0  0  0  0  0
  149.9323  141.4128  157.0247 H   0  0  0  0  0  0  0  0  0  0  0  0
  151.2081  142.5273  156.5293 H   0  0  0  0  0  0  0  0  0  0  0  0
  152.2317  140.9305  155.2140 H   0  0  0  0  0  0  0  0  0  0  0  0
  152.1313  139.7400  156.4698 H   0  0  0  0  0  0  0  0  0  0  0  0
  152.2847  137.5866  154.8663 H   0  0  0  0  0  0  0  0  0  0  0  0
  150.6873  135.9055  153.9600 H   0  0  0  0  0  0  0  0  0  0  0  0
  149.9659  135.7319  155.5545 H   0  0  0  0  0  0  0  0  0  0  0  0
  151.6448  135.2681  155.2929 H   0  0  0  0  0  0  0  0  0  0  0  0
  150.9711  138.1867  157.3231 H   0  0  0  0  0  0  0  0  0  0  0  0
  152.4936  137.1176  158.5620 H   0  0  0  0  0  0  0  0  0  0  0  0
  146.7553  138.8658  153.0683 H   0  0  0  0  0  0  0  0  0  0  0  0
  145.9773  141.2216  152.9309 H   0  0  0  0  0  0  0  0  0  0  0  0
  147.3424  143.0544  153.9093 H   0  0  0  0  0  0  0  0  0  0  0  0
  149.5026  142.5358  155.0356 H   0  0  0  0  0  0  0  0  0  0  0  0
  152.5269  141.2444  160.6096 H   0  0  0  0  0  0  0  0  0  0  0  0
  1  2  1  0  0  0  0
  1 25  1  0  0  0  0
  1 26  1  0  0  0  0
  1 27  1  0  0  0  0
  2 24  1  0  0  0  0
  2  3  2  0  0  0  0
  3  4  1  0  0  0  0
  3 28  1  0  0  0  0
  4  5  2  0  0  0  0
  4 29  1  0  0  0  0
  5  6  1  0  0  0  0
  5 30  1  0  0  0  0
  6  7  1  0  0  0  0
  6 24  2  0  0  0  0
  7  8  1  0  0  0  0
  8  9  1  0  0  0  0
  8 31  1  0  0  0  0
  8 32  1  0  0  0  0
  9 10  1  0  0  0  0
  9 33  1  0  0  0  0
  9 34  1  0  0  0  0
 10 23  1  0  0  0  0
 10 11  1  0  0  0  0
 11 12  1  0  0  0  0
 11 17  2  0  0  0  0
 12 13  1  0  0  0  0
 12 14  1  0  0  0  0
 12 35  1  0  0  0  0
 13 36  1  0  0  0  0
 13 37  1  0  0  0  0
 13 38  1  0  0  0  0
 14 15  1  0  0  0  0
 14 39  1  0  0  0  0
 15 16  2  0  0  0  0
 15 40  1  0  0  0  0
 17 18  1  0  0  0  0
 18 23  2  0  0  0  0
 18 19  1  0  0  0  0
 19 20  2  0  0  0  0
 19 41  1  0  0  0  0
 20 21  1  0  0  0  0
 20 42  1  0  0  0  0
 21 22  2  0  0  0  0
 21 43  1  0  0  0  0
 22 23  1  0  0  0  0
 22 44  1  0  0  0  0
 24 45  1  0  0  0  0
M  END
> <s_m_source_file>
AV-unprocessed.smi

> <i_m_source_file_index>
2955

> <i_lp_mmshare_version>
43012

> <i_f3d_flags>
0

> <s_epik_input>
W0NIM11jMVtjSF1bY0hdW2NIXWMoW2NIXTEpT1tDSDJdW0NIMl1uKGMobjIpW0NASF0oW0NIM10pW05IXVtDSF09TyljKGMyMylbY0hdW2NIXVtjSF1bY0hdMw==

> <s_epik_cmdline>
J2VwaWtfcHl0aG9uJywgJy1waCcsICc3LjAnLCAnLXRuJywgJzgnLCAnLW1hJywgJzIwMCcsICctbWV0YWxfYmluZGluZycsICctaW1hZScsICc8aW5maWxlLm1hZT4nLCAnLW9tYWUnLCAnPG91dGZpbGUubWFlPic=

> <r_lp_tautomer_probability>
1

> <r_epik_Ionization_Penalty>
0.0917757

> <r_epik_Ionization_Penalty_Charging>
0

> <r_epik_Ionization_Penalty_Neutral>
0.0917757

> <r_epik_State_Penalty>
0.0820948

> <r_epik_Charging_Adjusted_Penalty>
0.0820948

> <i_epik_Tot_Q>
0

> <i_epik_Tot_abs_Q>
0

> <r_epik_Metal_State_Penalty>
0.0709956

> <b_epik_Metal_Only>
0

> <s_lp_Force_Field>
OPLS_2005

> <r_lp_Energy>
12.8811

> <b_lp_Chiralities_Consistent>
1

> <s_lp_Variant>
AV-unprocessed.smi:2955-1

> <Gold.Version>
5.8.1

> <Gold.Id.Protein>
6NUR|6NUR_protein|mol2

> <Gold.PLP.Fitness>
54.2719

> <Gold.PLP.PLP>
-52.8808

> <Gold.PLP.part.hbond>
-1.0000

> <Gold.PLP.part.metal>
0.0000

> <Gold.PLP.part.buried>
-3.3503

> <Gold.PLP.part.nonpolar>
-47.9306

> <Gold.PLP.part.repulsive>
0.6803

> <Gold.PLP.ligand.clash>
0.0000

> <Gold.PLP.ligand.torsion>
0.8523

> <Gold.PLP.Chemscore.Hbond>
1.0000

> <Gold.PLP.Chemscore.CHOScore>
0.0000

> <Gold.PLP.Chemscore.Metal>
0.0000

> <Gold.Chemscore.Hbonds>
donor molecule, donor type, donor heavy atom, donor atom, acceptor molecule, acceptor atom, score
      P1  H 10752 10763       L1    16  1.00

> <Gold.PLP.Chemscore.Internal.Correction>
0.0957

> <Gold.Rescore>
     Score         DG    S(hbond)    S(metal)    S(lipo)     H(rot)  DE(clash)    DE(int)     intcor
     18.97     -20.06       1.00        0.00     145.62       2.26       0.22       0.86       ----

> <Gold.Chemscore.Fitness>
18.9723

> <Gold.Chemscore.DG>
-20.0561

> <Gold.Chemscore.ZeroCoef>
-5.4800

> <Gold.Chemscore.Hbond>
0.9968

> <Gold.Chemscore.Metal>
0.0000

> <Gold.Chemscore.Lipo>
145.6178

> <Gold.Chemscore.Internal_Hbond>
0.0000

> <Gold.Chemscore.DEClash>
0.2238

> <Gold.Chemscore.DEInternal>
0.8600

> <Gold.Chemscore.Rot>
2.2619

> <Gold.Chemscore.Internal.Correction>
   9.000000E+99

> <Gold.Chemscore.Hbonds>
donor molecule, donor type, donor heavy atom, donor atom, acceptor molecule, acceptor atom, score
      P1  H 10752 10763       L1    16  1.00

> <Gold.Chemscore.Hbond.Weighted>
-3.3294

> <Gold.Chemscore.Metal.Weighted>
-0.0000

> <Gold.Chemscore.Lipo.Weighted>
-17.0373

> <Gold.Chemscore.Internal_Hbond.Weighted>
0.0000

> <Gold.Chemscore.DEClash.Weighted>
0.2238

> <Gold.Chemscore.DEInternal.Weighted>
0.8600

> <Gold.Chemscore.Rot.Weighted>
5.7906

> <Gold.Chemscore.Internal.Correction.Weighted>
   9.000000E+99

> <Gold.Protein.RotatedTorsions>
[ 6907 6896 6895 6894 ] final  104.86 input  -60.11 | X-H torsion
[ 7974 7965 7964 7962 ] final  -95.49 input  175.53 | X-H torsion
[ 8008 7997 7996 7995 ] final  174.48 input   59.86 | X-H torsion
[ 10167 10162 10161 10158 ] final   99.94 input  -65.29 | X-H torsion
[ 10718 10713 10712 10709 ] final   36.53 input   66.30 | X-H torsion
[ 10763 10752 10751 10750 ] final  132.56 input  -60.55 | X-H torsion
[ 11005 11000 10999 10996 ] final   12.72 input  -57.11 | X-H torsion

> <Gold.Protein.ActiveResidues>
 VAL166  LYS551  ARG553  GLY616  TRP617  ASP618  TYR619  PRO620  LYS621  CYS622 
 ASP623  PHE694  ASN695  SER759  ASP760  ASP761  ALA762  ILE779  LEU786  VAL792 
 PHE793  MET794  SER795  GLU796  ALA797  LYS798  CYS799  TRP800  GLU811  SER814 

> <Gold.Protein.RotatedAtoms>
  152.5250  133.9614  159.7718 H   0  0  0  0  0  0  0  0  0  0  0  0  # atno 6907 bound_to 6896
  150.9904  133.6147  159.2716 H   0  0  0  0  0  0  0  0  0  0  0  0  # atno 6908 bound_to 6896
  151.3293  135.0844  159.9386 H   0  0  0  0  0  0  0  0  0  0  0  0  # atno 6909 bound_to 6896
  145.3594  140.9489  143.2509 H   0  0  0  0  0  0  0  0  0  0  0  0  # atno 7974 bound_to 7965
  156.0970  140.1433  156.9518 H   0  0  0  0  0  0  0  0  0  0  0  0  # atno 8008 bound_to 7997
  154.4678  140.0920  156.7111 H   0  0  0  0  0  0  0  0  0  0  0  0  # atno 8009 bound_to 7997
  155.4824  140.3445  155.4344 H   0  0  0  0  0  0  0  0  0  0  0  0  # atno 8010 bound_to 7997
  139.7572  144.6966  151.0346 H   0  0  0  0  0  0  0  0  0  0  0  0  # atno 10167 bound_to 10162
  157.3360  130.7523  149.6879 H   0  0  0  0  0  0  0  0  0  0  0  0  # atno 10718 bound_to 10713
  153.7927  135.3153  155.3380 H   0  0  0  0  0  0  0  0  0  0  0  0  # atno 10763 bound_to 10752
  154.8119  135.4661  154.0543 H   0  0  0  0  0  0  0  0  0  0  0  0  # atno 10764 bound_to 10752
  153.1866  135.6902  153.8493 H   0  0  0  0  0  0  0  0  0  0  0  0  # atno 10765 bound_to 10752
  140.4888  134.0862  155.7766 H   0  0  0  0  0  0  0  0  0  0  0  0  # atno 11005 bound_to 11000
  144.8658  139.5110  143.6791 LP  0  0  0  0  0  0  0  0  0  0  0  0  # atno 17320 bound_to 7965
  146.2934  139.7205  142.9144 LP  0  0  0  0  0  0  0  0  0  0  0  0  # atno 17321 bound_to 7965
  140.7804  143.4740  151.0108 LP  0  0  0  0  0  0  0  0  0  0  0  0  # atno 17342 bound_to 10162
  139.8426  143.7543  152.3180 LP  0  0  0  0  0  0  0  0  0  0  0  0  # atno 17343 bound_to 10162
  155.9701  130.4181  150.4313 LP  0  0  0  0  0  0  0  0  0  0  0  0  # atno 17370 bound_to 10713
  157.2353  131.0513  151.2468 LP  0  0  0  0  0  0  0  0  0  0  0  0  # atno 17371 bound_to 10713
  141.1495  133.8995  157.2134 LP  0  0  0  0  0  0  0  0  0  0  0  0  # atno 17394 bound_to 11000
  139.9782  135.0107  156.9684 LP  0  0  0  0  0  0  0  0  0  0  0  0  # atno 17395 bound_to 11000

$$$$
