AV-unprocessed.smi:2682|AV-procd|sdf|10375|dock5
  -GOLD-   2272014403D 1   1.00000     0.00000
 Structure written by MMmdl.
 29 29  0  0  0  0  0  0  0  0  2 V2000
  153.6094  137.4313  155.8174 C   0  0  0  0  0  0  0  0  0  0  0  0
  153.0113  136.1662  156.0379 O   0  0  0  0  0  0  0  0  0  0  0  0
  151.6616  136.1214  155.6054 C   0  0  0  0  0  0  0  0  0  0  0  0
  151.2702  134.6669  155.3283 C   0  0  0  0  0  0  0  0  0  0  0  0
  150.7883  134.0802  156.5254 O   0  0  0  0  0  0  0  0  0  0  0  0
  149.3794  134.1865  156.6587 C   0  0  0  0  0  0  0  0  0  0  0  0
  148.9995  133.9935  158.1262 C   0  0  0  0  0  0  0  0  0  0  0  0
  149.1318  132.8818  158.6358 O   0  0  0  0  0  0  0  0  0  0  0  0
  148.5438  135.0966  158.7522 N   0  0  0  0  0  0  0  0  0  0  0  0
  148.1417  135.2814  160.0868 C   0  0  0  0  0  0  0  0  0  0  0  0
  147.4570  134.3700  160.8334 C   0  0  0  0  0  0  0  0  0  0  0  0
  147.0874  134.6382  162.2126 C   0  0  0  0  0  0  0  0  0  0  0  0
  147.4997  135.8721  162.6641 C   0  0  0  0  0  0  0  0  0  0  0  0
  148.1844  136.8231  161.9928 N   0  5  0  0  0  0  0  0  0  0  0  0
  148.5294  136.5734  160.6962 C   0  0  0  0  0  0  0  0  0  0  0  0
  149.1548  137.3984  160.0285 O   0  0  0  0  0  0  0  0  0  0  0  0
  154.6441  137.4120  156.1593 H   0  0  0  0  0  0  0  0  0  0  0  0
  153.0876  138.2153  156.3678 H   0  0  0  0  0  0  0  0  0  0  0  0
  153.6098  137.6880  154.7572 H   0  0  0  0  0  0  0  0  0  0  0  0
  151.0214  136.5259  156.3907 H   0  0  0  0  0  0  0  0  0  0  0  0
  151.5134  136.7331  154.7140 H   0  0  0  0  0  0  0  0  0  0  0  0
  150.5215  134.6152  154.5361 H   0  0  0  0  0  0  0  0  0  0  0  0
  152.1473  134.1145  154.9882 H   0  0  0  0  0  0  0  0  0  0  0  0
  149.0377  135.1630  156.3106 H   0  0  0  0  0  0  0  0  0  0  0  0
  148.8792  133.4241  156.0595 H   0  0  0  0  0  0  0  0  0  0  0  0
  148.4548  135.9227  158.1782 H   0  0  0  0  0  0  0  0  0  0  0  0
  147.1711  133.4106  160.4366 H   0  0  0  0  0  0  0  0  0  0  0  0
  146.5405  133.9364  162.8243 H   0  0  0  0  0  0  0  0  0  0  0  0
  147.2423  136.1295  163.7137 H   0  0  0  0  0  0  0  0  0  0  0  0
  1  2  1  0  0  0  0
  1 17  1  0  0  0  0
  1 18  1  0  0  0  0
  1 19  1  0  0  0  0
  2  3  1  0  0  0  0
  3  4  1  0  0  0  0
  3 20  1  0  0  0  0
  3 21  1  0  0  0  0
  4  5  1  0  0  0  0
  4 22  1  0  0  0  0
  4 23  1  0  0  0  0
  5  6  1  0  0  0  0
  6  7  1  0  0  0  0
  6 24  1  0  0  0  0
  6 25  1  0  0  0  0
  7  8  2  0  0  0  0
  7  9  1  0  0  0  0
  9 26  1  0  0  0  0
  9 10  1  0  0  0  0
 10 11  2  0  0  0  0
 10 15  1  0  0  0  0
 11 12  1  0  0  0  0
 11 27  1  0  0  0  0
 12 13  2  0  0  0  0
 12 28  1  0  0  0  0
 13 14  1  0  0  0  0
 13 29  1  0  0  0  0
 14 15  1  0  0  0  0
 15 16  2  0  0  0  0
M  CHG  1  14  -1
M  END
> <s_m_source_file>
AV-unprocessed.smi

> <i_m_source_file_index>
2682

> <i_lp_mmshare_version>
43012

> <i_f3d_flags>
0

> <s_epik_input>
W0NIM11PW0NIMl1bQ0gyXU9bQ0gyXUMoPU8pW05IXWMxW2NIXVtjSF1bY0hdbmMxW09IXQ==

> <s_epik_cmdline>
J2VwaWtfcHl0aG9uJywgJy1waCcsICc3LjAnLCAnLXRuJywgJzgnLCAnLW1hJywgJzIwMCcsICctbWV0YWxfYmluZGluZycsICctaW1hZScsICc8aW5maWxlLm1hZT4nLCAnLW9tYWUnLCAnPG91dGZpbGUubWFlPic=

> <r_lp_tautomer_probability>
1

> <r_epik_Ionization_Penalty>
5.6643

> <r_epik_Ionization_Penalty_Charging>
0.525144

> <r_epik_Ionization_Penalty_Neutral>
5.13916

> <r_epik_State_Penalty>
5.13906

> <r_epik_Charging_Adjusted_Penalty>
5.6642

> <i_epik_Tot_Q>
-1

> <i_epik_Tot_abs_Q>
1

> <r_epik_Metal_State_Penalty>
1.22048

> <b_epik_Metal_Only>
1

> <s_lp_Force_Field>
OPLS_2005

> <r_lp_Energy>
18.608

> <b_lp_Chiralities_Consistent>
1

> <s_lp_Variant>
AV-unprocessed.smi:2682-2

> <Gold.Version>
5.8.1

> <Gold.Id.Protein>
6NUR|6NUR_protein|mol2

> <Gold.PLP.Fitness>
38.7655

> <Gold.PLP.PLP>
-28.6386

> <Gold.PLP.part.hbond>
-5.4427

> <Gold.PLP.part.metal>
0.0000

> <Gold.PLP.part.buried>
-4.0613

> <Gold.PLP.part.nonpolar>
-20.2351

> <Gold.PLP.part.repulsive>
0.1876

> <Gold.PLP.ligand.clash>
0.0000

> <Gold.PLP.ligand.torsion>
0.9638

> <Gold.PLP.Chemscore.Hbond>
4.0158

> <Gold.PLP.Chemscore.CHOScore>
0.0000

> <Gold.PLP.Chemscore.Metal>
0.0000

> <Gold.Chemscore.Hbonds>
donor molecule, donor type, donor heavy atom, donor atom, acceptor molecule, acceptor atom, score
      P1  H  6896  6907       L1     8  0.20
      P1  H  6931  6943       L1    14  0.90

> <Gold.PLP.Chemscore.Internal.Correction>
0.0071

> <Gold.Rescore>
     Score         DG    S(hbond)    S(metal)    S(lipo)     H(rot)  DE(clash)    DE(int)     intcor
     13.37     -15.04       2.59        0.00      53.99       2.11       0.56       1.10       ----

> <Gold.Chemscore.Fitness>
13.3732

> <Gold.Chemscore.DG>
-15.0377

> <Gold.Chemscore.ZeroCoef>
-5.4800

> <Gold.Chemscore.Hbond>
2.5912

> <Gold.Chemscore.Metal>
0.0000

> <Gold.Chemscore.Lipo>
53.9868

> <Gold.Chemscore.Internal_Hbond>
0.0000

> <Gold.Chemscore.DEClash>
0.5618

> <Gold.Chemscore.DEInternal>
1.1026

> <Gold.Chemscore.Rot>
2.1146

> <Gold.Chemscore.Internal.Correction>
   9.000000E+99

> <Gold.Chemscore.Hbonds>
donor molecule, donor type, donor heavy atom, donor atom, acceptor molecule, acceptor atom, score
      P1  H  6931  6943       L1    14  0.02

> <Gold.Chemscore.Hbond.Weighted>
-8.6545

> <Gold.Chemscore.Metal.Weighted>
-0.0000

> <Gold.Chemscore.Lipo.Weighted>
-6.3165

> <Gold.Chemscore.Internal_Hbond.Weighted>
0.0000

> <Gold.Chemscore.DEClash.Weighted>
0.5618

> <Gold.Chemscore.DEInternal.Weighted>
1.1026

> <Gold.Chemscore.Rot.Weighted>
5.4133

> <Gold.Chemscore.Internal.Correction.Weighted>
   9.000000E+99

> <Gold.Protein.RotatedTorsions>
[ 6907 6896 6895 6894 ] final -133.39 input  -60.11 | X-H torsion
[ 7974 7965 7964 7962 ] final   10.77 input  175.53 | X-H torsion
[ 8008 7997 7996 7995 ] final  -19.05 input   59.86 | X-H torsion
[ 10167 10162 10161 10158 ] final  104.02 input  -65.29 | X-H torsion
[ 10718 10713 10712 10709 ] final  149.32 input   66.30 | X-H torsion
[ 10763 10752 10751 10750 ] final   54.56 input  -60.55 | X-H torsion
[ 11005 11000 10999 10996 ] final  -65.16 input  -57.11 | X-H torsion

> <Gold.Protein.ActiveResidues>
 VAL166  LYS551  ARG553  GLY616  TRP617  ASP618  TYR619  PRO620  LYS621  CYS622 
 ASP623  PHE694  ASN695  SER759  ASP760  ASP761  ALA762  ILE779  LEU786  VAL792 
 PHE793  MET794  SER795  GLU796  ALA797  LYS798  CYS799  TRP800  GLU811  SER814 

> <Gold.Protein.RotatedAtoms>
  150.9735  133.6319  159.2733 H   0  0  0  0  0  0  0  0  0  0  0  0  # atno 6907 bound_to 6896
  151.3600  135.0901  159.9441 H   0  0  0  0  0  0  0  0  0  0  0  0  # atno 6908 bound_to 6896
  152.5191  133.9310  159.7635 H   0  0  0  0  0  0  0  0  0  0  0  0  # atno 6909 bound_to 6896
  146.2383  139.9585  142.8461 H   0  0  0  0  0  0  0  0  0  0  0  0  # atno 7974 bound_to 7965
  154.4863  140.2099  155.9647 H   0  0  0  0  0  0  0  0  0  0  0  0  # atno 8008 bound_to 7997
  156.1241  140.3208  155.8220 H   0  0  0  0  0  0  0  0  0  0  0  0  # atno 8009 bound_to 7997
  155.4415  140.0510  157.3000 H   0  0  0  0  0  0  0  0  0  0  0  0  # atno 8010 bound_to 7997
  139.7213  144.7057  151.0869 H   0  0  0  0  0  0  0  0  0  0  0  0  # atno 10167 bound_to 10162
  157.2976  131.0865  151.1415 H   0  0  0  0  0  0  0  0  0  0  0  0  # atno 10718 bound_to 10713
  152.9806  135.5741  154.4924 H   0  0  0  0  0  0  0  0  0  0  0  0  # atno 10763 bound_to 10752
  154.4456  135.2777  155.1819 H   0  0  0  0  0  0  0  0  0  0  0  0  # atno 10764 bound_to 10752
  154.3468  135.6217  153.5677 H   0  0  0  0  0  0  0  0  0  0  0  0  # atno 10765 bound_to 10752
  141.1446  133.6677  156.5944 H   0  0  0  0  0  0  0  0  0  0  0  0  # atno 11005 bound_to 11000
  145.1793  140.9759  143.4275 LP  0  0  0  0  0  0  0  0  0  0  0  0  # atno 17320 bound_to 7965
  144.9956  139.3647  143.6193 LP  0  0  0  0  0  0  0  0  0  0  0  0  # atno 17321 bound_to 7965
  140.7754  143.5163  150.9591 LP  0  0  0  0  0  0  0  0  0  0  0  0  # atno 17342 bound_to 10162
  139.8850  143.7024  152.3152 LP  0  0  0  0  0  0  0  0  0  0  0  0  # atno 17343 bound_to 10162
  157.2787  130.6739  149.6055 LP  0  0  0  0  0  0  0  0  0  0  0  0  # atno 17370 bound_to 10713
  155.9670  130.4456  150.5510 LP  0  0  0  0  0  0  0  0  0  0  0  0  # atno 17371 bound_to 10713
  140.3738  134.7583  157.4616 LP  0  0  0  0  0  0  0  0  0  0  0  0  # atno 17394 bound_to 11000
  140.0690  134.5889  155.8663 LP  0  0  0  0  0  0  0  0  0  0  0  0  # atno 17395 bound_to 11000

$$$$
