AV-unprocessed.smi:2610|AV-procd|sdf|10208|dock3
  -GOLD-   2272014213D 1   1.00000     0.00000
 Structure written by MMmdl.
 45 47  0  0  0  0  0  0  0  0  1 V2000
  147.9045  141.3503  153.9835 C   0  0  0  0  0  0  0  0  0  0  0  0
  148.7059  141.1931  155.2802 C   0  0  0  0  0  0  0  0  0  0  0  0
  149.9542  140.3186  155.0975 C   0  0  0  0  0  0  0  0  0  0  0  0
  150.6174  139.9525  156.4332 C   0  0  0  0  0  0  0  0  0  0  0  0
  151.0679  141.1613  157.1987 C   0  0  0  0  0  0  0  0  0  0  0  0
  150.9536  142.3865  156.6855 N   0  0  0  0  0  0  0  0  0  0  0  0
  151.3907  143.1917  157.7172 C   0  0  0  0  0  0  0  0  0  0  0  0
  151.5029  144.5982  157.7967 C   0  0  0  0  0  0  0  0  0  0  0  0
  151.9618  145.2119  158.9802 C   0  0  0  0  0  0  0  0  0  0  0  0
  152.3113  144.4298  160.0995 C   0  0  0  0  0  0  0  0  0  0  0  0
  152.2094  143.0268  160.0399 C   0  0  0  0  0  0  0  0  0  0  0  0
  151.7598  142.4165  158.8529 C   0  0  0  0  0  0  0  0  0  0  0  0
  151.5571  141.0933  158.4651 N   0  0  0  0  0  0  0  0  0  0  0  0
  151.7912  139.9062  159.2846 C   0  0  0  0  0  0  0  0  0  0  0  0
  153.2868  139.5393  159.4868 C   0  0  0  0  0  0  0  0  0  0  0  0
  153.8451  139.2158  158.2261 O   0  0  0  0  0  0  0  0  0  0  0  0
  154.1149  140.6933  160.0922 C   0  0  0  0  0  0  0  0  0  0  0  0
  155.5370  140.2482  160.4771 C   0  0  0  0  0  0  0  0  0  0  0  0
  155.4772  139.1371  161.3629 O   0  0  0  0  0  0  0  0  0  0  0  0
  154.8724  137.9941  160.7709 C   0  0  0  0  0  0  0  0  0  0  0  0
  153.4105  138.3020  160.3995 C   0  0  0  0  0  0  0  0  0  0  0  0
  147.0283  141.9789  154.1426 H   0  0  0  0  0  0  0  0  0  0  0  0
  147.5590  140.3843  153.6142 H   0  0  0  0  0  0  0  0  0  0  0  0
  148.5075  141.8124  153.2013 H   0  0  0  0  0  0  0  0  0  0  0  0
  148.9995  142.1792  155.6416 H   0  0  0  0  0  0  0  0  0  0  0  0
  148.0649  140.7604  156.0492 H   0  0  0  0  0  0  0  0  0  0  0  0
  149.6847  139.4069  154.5626 H   0  0  0  0  0  0  0  0  0  0  0  0
  150.6737  140.8443  154.4685 H   0  0  0  0  0  0  0  0  0  0  0  0
  149.9370  139.3537  157.0354 H   0  0  0  0  0  0  0  0  0  0  0  0
  151.4857  139.3187  156.2485 H   0  0  0  0  0  0  0  0  0  0  0  0
  151.2307  145.2059  156.9465 H   0  0  0  0  0  0  0  0  0  0  0  0
  152.0413  146.2880  159.0311 H   0  0  0  0  0  0  0  0  0  0  0  0
  152.6569  144.9076  161.0046 H   0  0  0  0  0  0  0  0  0  0  0  0
  152.4732  142.4291  160.8991 H   0  0  0  0  0  0  0  0  0  0  0  0
  151.3216  140.0727  160.2548 H   0  0  0  0  0  0  0  0  0  0  0  0
  151.2525  139.0655  158.8469 H   0  0  0  0  0  0  0  0  0  0  0  0
  153.2184  138.6979  157.7443 H   0  0  0  0  0  0  0  0  0  0  0  0
  154.1696  141.5371  159.4038 H   0  0  0  0  0  0  0  0  0  0  0  0
  153.6189  141.0577  160.9919 H   0  0  0  0  0  0  0  0  0  0  0  0
  156.1234  139.9931  159.5932 H   0  0  0  0  0  0  0  0  0  0  0  0
  156.0593  141.0650  160.9754 H   0  0  0  0  0  0  0  0  0  0  0  0
  155.4432  137.6777  159.8966 H   0  0  0  0  0  0  0  0  0  0  0  0
  154.9087  137.1708  161.4844 H   0  0  0  0  0  0  0  0  0  0  0  0
  152.8508  138.4749  161.3198 H   0  0  0  0  0  0  0  0  0  0  0  0
  152.9555  137.4309  159.9260 H   0  0  0  0  0  0  0  0  0  0  0  0
  1  2  1  0  0  0  0
  1 22  1  0  0  0  0
  1 23  1  0  0  0  0
  1 24  1  0  0  0  0
  2  3  1  0  0  0  0
  2 25  1  0  0  0  0
  2 26  1  0  0  0  0
  3  4  1  0  0  0  0
  3 27  1  0  0  0  0
  3 28  1  0  0  0  0
  4  5  1  0  0  0  0
  4 29  1  0  0  0  0
  4 30  1  0  0  0  0
  5 13  1  0  0  0  0
  5  6  2  0  0  0  0
  6  7  1  0  0  0  0
  7 12  2  0  0  0  0
  7  8  1  0  0  0  0
  8  9  2  0  0  0  0
  8 31  1  0  0  0  0
  9 10  1  0  0  0  0
  9 32  1  0  0  0  0
 10 11  2  0  0  0  0
 10 33  1  0  0  0  0
 11 12  1  0  0  0  0
 11 34  1  0  0  0  0
 12 13  1  0  0  0  0
 13 14  1  0  0  0  0
 14 15  1  0  0  0  0
 14 35  1  0  0  0  0
 14 36  1  0  0  0  0
 15 21  1  0  0  0  0
 15 16  1  0  0  0  0
 15 17  1  0  0  0  0
 16 37  1  0  0  0  0
 17 18  1  0  0  0  0
 17 38  1  0  0  0  0
 17 39  1  0  0  0  0
 18 19  1  0  0  0  0
 18 40  1  0  0  0  0
 18 41  1  0  0  0  0
 19 20  1  0  0  0  0
 20 21  1  0  0  0  0
 20 42  1  0  0  0  0
 20 43  1  0  0  0  0
 21 44  1  0  0  0  0
 21 45  1  0  0  0  0
M  END
> <s_m_source_file>
AV-unprocessed.smi

> <i_m_source_file_index>
2610

> <i_lp_mmshare_version>
43012

> <i_f3d_flags>
0

> <s_epik_input>
W0NIM11bQ0gyXVtDSDJdW0NIMl1jKG4xKW4oYyhjMTIpW2NIXVtjSF1bY0hdW2NIXTIpW0NIMl1DMyhbT0hdKVtDSDJdW0NIMl1PW0NIMl1bQ0gyXTM=

> <s_epik_cmdline>
J2VwaWtfcHl0aG9uJywgJy1waCcsICc3LjAnLCAnLXRuJywgJzgnLCAnLW1hJywgJzIwMCcsICctbWV0YWxfYmluZGluZycsICctaW1hZScsICc8aW5maWxlLm1hZT4nLCAnLW9tYWUnLCAnPG91dGZpbGUubWFlPic=

> <r_epik_Ionization_Penalty>
0.224246

> <r_epik_Ionization_Penalty_Charging>
0

> <r_epik_Ionization_Penalty_Neutral>
0.224246

> <r_epik_State_Penalty>
0.214696

> <r_epik_Charging_Adjusted_Penalty>
0.214696

> <i_epik_Tot_Q>
0

> <i_epik_Tot_abs_Q>
0

> <r_epik_Metal_State_Penalty>
0.000258695

> <b_epik_Metal_Only>
0

> <s_lp_Force_Field>
OPLS_2005

> <r_lp_Energy>
13.1565

> <b_lp_Chiralities_Consistent>
1

> <s_lp_Variant>
AV-unprocessed.smi:2610-1

> <Gold.Version>
5.8.1

> <Gold.Id.Protein>
6NUR|6NUR_protein|mol2

> <Gold.PLP.Fitness>
48.5329

> <Gold.PLP.PLP>
-45.6529

> <Gold.PLP.part.hbond>
-1.0000

> <Gold.PLP.part.metal>
0.0000

> <Gold.PLP.part.buried>
-4.1239

> <Gold.PLP.part.nonpolar>
-39.8217

> <Gold.PLP.part.repulsive>
0.1081

> <Gold.PLP.ligand.clash>
0.0000

> <Gold.PLP.ligand.torsion>
0.2160

> <Gold.PLP.Chemscore.Hbond>
1.0000

> <Gold.PLP.Chemscore.CHOScore>
0.0000

> <Gold.PLP.Chemscore.Metal>
0.0000

> <Gold.Chemscore.Hbonds>
donor molecule, donor type, donor heavy atom, donor atom, acceptor molecule, acceptor atom, score
      P1  H  7997  8008       L1    16  1.00

> <Gold.PLP.Chemscore.Internal.Correction>
0.3119

> <Gold.Rescore>
     Score         DG    S(hbond)    S(metal)    S(lipo)     H(rot)  DE(clash)    DE(int)     intcor
     18.86     -19.43       0.98        0.00     133.07       1.91       0.05       0.52       ----

> <Gold.Chemscore.Fitness>
18.8632

> <Gold.Chemscore.DG>
-19.4345

> <Gold.Chemscore.ZeroCoef>
-5.4800

> <Gold.Chemscore.Hbond>
0.9772

> <Gold.Chemscore.Metal>
0.0000

> <Gold.Chemscore.Lipo>
133.0736

> <Gold.Chemscore.Internal_Hbond>
0.0000

> <Gold.Chemscore.DEClash>
0.0480

> <Gold.Chemscore.DEInternal>
0.5233

> <Gold.Chemscore.Rot>
1.9059

> <Gold.Chemscore.Internal.Correction>
   9.000000E+99

> <Gold.Chemscore.Hbonds>
donor molecule, donor type, donor heavy atom, donor atom, acceptor molecule, acceptor atom, score
      P1  H  7997  8008       L1    16  0.49

> <Gold.Chemscore.Hbond.Weighted>
-3.2638

> <Gold.Chemscore.Metal.Weighted>
-0.0000

> <Gold.Chemscore.Lipo.Weighted>
-15.5696

> <Gold.Chemscore.Internal_Hbond.Weighted>
0.0000

> <Gold.Chemscore.DEClash.Weighted>
0.0480

> <Gold.Chemscore.DEInternal.Weighted>
0.5233

> <Gold.Chemscore.Rot.Weighted>
4.8790

> <Gold.Chemscore.Internal.Correction.Weighted>
   9.000000E+99

> <Gold.Protein.RotatedTorsions>
[ 6907 6896 6895 6894 ] final  -99.72 input  -60.11 | X-H torsion
[ 7974 7965 7964 7962 ] final   69.87 input  175.53 | X-H torsion
[ 8008 7997 7996 7995 ] final  -91.15 input   59.86 | X-H torsion
[ 10167 10162 10161 10158 ] final  -42.35 input  -65.29 | X-H torsion
[ 10718 10713 10712 10709 ] final   -2.37 input   66.30 | X-H torsion
[ 10763 10752 10751 10750 ] final -130.25 input  -60.55 | X-H torsion
[ 11005 11000 10999 10996 ] final  121.05 input  -57.11 | X-H torsion

> <Gold.Protein.ActiveResidues>
 VAL166  LYS551  ARG553  GLY616  TRP617  ASP618  TYR619  PRO620  LYS621  CYS622 
 ASP623  PHE694  ASN695  SER759  ASP760  ASP761  ALA762  ILE779  LEU786  VAL792 
 PHE793  MET794  SER795  GLU796  ALA797  LYS798  CYS799  TRP800  GLU811  SER814 

> <Gold.Protein.RotatedAtoms>
  150.7090  134.0997  159.3960 H   0  0  0  0  0  0  0  0  0  0  0  0  # atno 6907 bound_to 6896
  151.8983  135.0386  160.0513 H   0  0  0  0  0  0  0  0  0  0  0  0  # atno 6908 bound_to 6896
  152.2435  133.5120  159.5320 H   0  0  0  0  0  0  0  0  0  0  0  0  # atno 6909 bound_to 6896
  145.7851  139.2906  143.1243 H   0  0  0  0  0  0  0  0  0  0  0  0  # atno 7974 bound_to 7965
  154.7072  140.0522  157.0516 H   0  0  0  0  0  0  0  0  0  0  0  0  # atno 8008 bound_to 7997
  155.0603  140.3189  155.4644 H   0  0  0  0  0  0  0  0  0  0  0  0  # atno 8009 bound_to 7997
  156.2778  140.2100  156.5730 H   0  0  0  0  0  0  0  0  0  0  0  0  # atno 8010 bound_to 7997
  140.6972  143.3042  151.3197 H   0  0  0  0  0  0  0  0  0  0  0  0  # atno 10167 bound_to 10162
  156.7918  130.5364  149.5734 H   0  0  0  0  0  0  0  0  0  0  0  0  # atno 10718 bound_to 10713
  154.8756  135.3869  154.4052 H   0  0  0  0  0  0  0  0  0  0  0  0  # atno 10763 bound_to 10752
  153.4772  135.7030  153.5964 H   0  0  0  0  0  0  0  0  0  0  0  0  # atno 10764 bound_to 10752
  153.4395  135.3859  155.2187 H   0  0  0  0  0  0  0  0  0  0  0  0  # atno 10765 bound_to 10752
  139.9210  134.9637  156.7900 H   0  0  0  0  0  0  0  0  0  0  0  0  # atno 11005 bound_to 11000
  146.0034  140.8500  143.0007 LP  0  0  0  0  0  0  0  0  0  0  0  0  # atno 17320 bound_to 7965
  144.6790  140.2385  143.7346 LP  0  0  0  0  0  0  0  0  0  0  0  0  # atno 17321 bound_to 7965
  139.6442  144.0482  152.2578 LP  0  0  0  0  0  0  0  0  0  0  0  0  # atno 17342 bound_to 10162
  139.9997  144.6302  150.7740 LP  0  0  0  0  0  0  0  0  0  0  0  0  # atno 17343 bound_to 10162
  156.1154  130.6071  151.0112 LP  0  0  0  0  0  0  0  0  0  0  0  0  # atno 17370 bound_to 10713
  157.6597  131.0883  150.7867 LP  0  0  0  0  0  0  0  0  0  0  0  0  # atno 17371 bound_to 10713
  140.6475  133.9762  155.7738 LP  0  0  0  0  0  0  0  0  0  0  0  0  # atno 17394 bound_to 11000
  141.0730  134.0177  157.3498 LP  0  0  0  0  0  0  0  0  0  0  0  0  # atno 17395 bound_to 11000

$$$$
