#       Name:                AV-unprocessed.smi:2330
#       Creating user name   scv26
#       Creation time:       Fri Mar 27 12:53:08 2020


#       File generated by GOLD software.
#

@<TRIPOS>MOLECULE
AV-unprocessed.smi:2330
    45    46     1
SMALL
NO_CHARGES


@<TRIPOS>ATOM
      1 ****        -4.8291  -1.6015  -0.0439 C.3            1 S1                 0.0000
      2 ****        -4.2229  -0.2050  -0.2422 C.3            1 S1                 0.0000
      3 ****        -3.6604  -0.0339  -1.6663 C.3            1 S1                 0.0000
      4 ****        -3.0400   1.3603  -1.8710 C.3            1 S1                 0.0000
      5 ****        -1.9594   1.6773  -0.8195 C.3            1 S1                 0.0000
      6 ****        -0.7767   0.8488  -1.0478 N.am           1 S1                 0.0000
      7 ****         0.4641   1.1316  -0.6281 C.2            1 S1                 0.0000
      8 ****         0.7676   2.1490  -0.0048 O.2            1 S1                 0.0000
      9 ****         1.3293   0.1620  -0.9567 N.am           1 S1                 0.0000
     10 ****         2.7512   0.1471  -0.6257 C.3            1 S1                 0.0000
     11 ****         3.0626  -0.7508   0.5908 C.3            1 S1                 0.0000
     12 ****         2.3728  -0.3227   1.8980 C.3            1 S1                 0.0000
     13 ****         4.5376  -0.9206   0.7821 C.2            1 S1                 0.0000
     14 ****         5.3685   0.0811   1.0886 N.2            1 S1                 0.0000
     15 ****         6.6945  -0.3405   1.2119 C.2            1 S1                 0.0000
     16 ****         6.8637  -1.6841   0.9951 C.2            1 S1                 0.0000
     17 ****         5.3551  -2.4727   0.6249 S.3            1 S1                 0.0000
     18 ****        -2.5161   1.4852   0.6074 C.3            1 S1                 0.0000
     19 ****        -3.1343   0.0902   0.8073 C.3            1 S1                 0.0000
     20 ****        -4.0768  -2.3813  -0.1667 H              1 S1                 0.0000
     21 ****        -5.6250  -1.7899  -0.7649 H              1 S1                 0.0000
     22 ****        -5.2572  -1.7062   0.9534 H              1 S1                 0.0000
     23 ****        -5.0245   0.5231  -0.1081 H              1 S1                 0.0000
     24 ****        -2.9101  -0.8014  -1.8611 H              1 S1                 0.0000
     25 ****        -4.4524  -0.1893  -2.3998 H              1 S1                 0.0000
     26 ****        -2.6237   1.4401  -2.8760 H              1 S1                 0.0000
     27 ****        -3.8282   2.1118  -1.8106 H              1 S1                 0.0000
     28 ****        -1.6683   2.7220  -0.9428 H              1 S1                 0.0000
     29 ****        -0.9214  -0.0146  -1.5506 H              1 S1                 0.0000
     30 ****         0.9759  -0.6334  -1.4682 H              1 S1                 0.0000
     31 ****         3.2800  -0.2314  -1.5012 H              1 S1                 0.0000
     32 ****         3.1263   1.1587  -0.4602 H              1 S1                 0.0000
     33 ****         2.6753  -1.7424   0.3526 H              1 S1                 0.0000
     34 ****         2.6104  -1.0128   2.7084 H              1 S1                 0.0000
     35 ****         1.2880  -0.3076   1.7958 H              1 S1                 0.0000
     36 ****         2.6921   0.6738   2.2048 H              1 S1                 0.0000
     37 ****         7.4565   0.3846   1.4571 H              1 S1                 0.0000
     38 ****         7.7797  -2.2551   1.0304 H              1 S1                 0.0000
     39 ****        -1.7360   1.6571   1.3499 H              1 S1                 0.0000
     40 ****        -3.2796   2.2409   0.7956 H              1 S1                 0.0000
     41 ****        -3.5572   0.0220   1.8101 H              1 S1                 0.0000
     42 ****        -2.3522  -0.6683   0.7533 H              1 S1                 0.0000
     43 ****         0.0668   2.8266   0.2179 LP             1 S1                 0.0000
     44 ****         1.7150   2.2977   0.2787 LP             1 S1                 0.0000
     45 ****         5.0731   1.0280   1.2156 LP             1 S1                 0.0000
@<TRIPOS>BOND
    1    1    2 1     
    2    1   20 1     
    3    1   21 1     
    4    1   22 1     
    5    2   19 1     
    6    2    3 1     
    7    2   23 1     
    8    3    4 1     
    9    3   24 1     
   10    3   25 1     
   11    4    5 1     
   12    4   26 1     
   13    4   27 1     
   14    5    6 1     
   15    5   18 1     
   16    5   28 1     
   17    6    7 am    
   18    6   29 1     
   19    7    8 2     
   20    7    9 am    
   21    9   10 1     
   22    9   30 1     
   23   10   11 1     
   24   10   31 1     
   25   10   32 1     
   26   11   12 1     
   27   11   13 1     
   28   11   33 1     
   29   12   34 1     
   30   12   35 1     
   31   12   36 1     
   32   13   17 1     
   33   13   14 2     
   34   14   15 1     
   35   15   16 2     
   36   15   37 1     
   37   16   17 1     
   38   16   38 1     
   39   18   19 1     
   40   18   39 1     
   41   18   40 1     
   42   19   41 1     
   43   19   42 1     
   44    8   43 1     
   45    8   44 1     
   46   14   45 1     
@<TRIPOS>SUBSTRUCTURE
      1 S1             1
@<TRIPOS>SET
LONE_PAIRS      STATIC     ATOMS    <user>   **** ""
3 43 44 45
DONOR_HYDROGENS      STATIC     ATOMS    <user>   **** ""
2 29 30
ATOM$BLUE        STATIC     ATOMS    COLORGROUP SYSTEM
3 43 44 45
ATOM$RED        STATIC     ATOMS    COLORGROUP SYSTEM
2 29 30
