AV-unprocessed.smi:272|AV-procd|sdf|2053|dock2
  -GOLD-   2262021293D 1   1.00000     0.00000
 Structure written by MMmdl.
 62 65  0  0  0  0  0  0  0  0  1 V2000
  151.8895  145.4709  159.7063 C   0  0  0  0  0  0  0  0  0  0  0  0
  151.7607  143.9515  159.5062 C   0  0  0  0  0  0  0  0  0  0  0  0
  153.1372  143.2783  159.6180 C   0  0  0  0  0  0  0  0  0  0  0  0
  151.0832  143.5896  158.1688 C   0  0  0  0  0  0  0  0  0  0  0  0
  151.0514  142.0784  157.8714 C   0  0  0  0  0  0  0  0  0  0  0  0
  150.6052  141.8191  156.5469 O   0  0  0  0  0  0  0  0  0  0  0  0
  150.2784  140.4614  156.2738 C   0  0  0  0  0  0  0  0  0  0  0  0
  150.1604  140.2794  154.7514 C   0  0  0  0  0  0  0  0  0  0  0  0
  149.6709  138.8629  154.4073 C   0  0  0  0  0  0  0  0  0  0  0  0
  148.4206  138.5645  155.1017 N   0  0  0  0  0  0  0  0  0  0  0  0
  147.8445  137.4128  154.6983 C   0  0  0  0  0  0  0  0  0  0  0  0
  148.4156  136.2552  155.1111 N   0  0  0  0  0  0  0  0  0  0  0  0
  147.8854  135.0833  154.7472 C   0  0  0  0  0  0  0  0  0  0  0  0
  146.8105  134.8516  153.9898 N   0  0  0  0  0  0  0  0  0  0  0  0
  146.2370  136.0162  153.5706 C   0  0  0  0  0  0  0  0  0  0  0  0
  146.6850  137.3318  153.8769 C   0  0  0  0  0  0  0  0  0  0  0  0
  145.8500  138.2688  153.2807 N   0  0  0  0  0  0  0  0  0  0  0  0
  144.9561  137.5482  152.6611 C   0  0  0  0  0  0  0  0  0  0  0  0
  145.1177  136.1849  152.7733 N   0  0  0  0  0  0  0  0  0  0  0  0
  144.2661  135.1594  152.1888 C   0  0  0  0  0  0  0  0  0  0  0  0
  144.7502  134.6354  150.8085 C   0  0  0  0  0  0  0  0  0  0  0  0
  144.6351  135.7013  149.8851 O   0  0  0  0  0  0  0  0  0  0  0  0
  146.2344  134.2191  150.8453 C   0  0  0  0  0  0  0  0  0  0  0  0
  146.4303  132.8740  151.5701 C   0  0  0  0  0  0  0  0  0  0  0  0
  145.6209  131.8681  150.9696 O   0  0  0  0  0  0  0  0  0  0  0  0
  144.2283  132.1568  151.0307 C   0  0  0  0  0  0  0  0  0  0  0  0
  143.9309  133.4503  150.2535 C   0  0  0  0  0  0  0  0  0  0  0  0
  148.4717  138.7098  156.5545 C   0  0  0  0  0  0  0  0  0  0  0  0
  148.9359  140.1231  156.9445 C   0  0  0  0  0  0  0  0  0  0  0  0
  152.4689  145.9284  158.9038 H   0  0  0  0  0  0  0  0  0  0  0  0
  152.3896  145.7007  160.6475 H   0  0  0  0  0  0  0  0  0  0  0  0
  150.9151  145.9580  159.7346 H   0  0  0  0  0  0  0  0  0  0  0  0
  151.1438  143.5588  160.3155 H   0  0  0  0  0  0  0  0  0  0  0  0
  153.8125  143.6236  158.8343 H   0  0  0  0  0  0  0  0  0  0  0  0
  153.0544  142.1945  159.5322 H   0  0  0  0  0  0  0  0  0  0  0  0
  153.6046  143.4951  160.5793 H   0  0  0  0  0  0  0  0  0  0  0  0
  150.0735  144.0007  158.1512 H   0  0  0  0  0  0  0  0  0  0  0  0
  151.6210  144.0805  157.3569 H   0  0  0  0  0  0  0  0  0  0  0  0
  152.0602  141.6743  157.9585 H   0  0  0  0  0  0  0  0  0  0  0  0
  150.4360  141.5335  158.5883 H   0  0  0  0  0  0  0  0  0  0  0  0
  151.0438  139.7778  156.6468 H   0  0  0  0  0  0  0  0  0  0  0  0
  149.4616  141.0127  154.3464 H   0  0  0  0  0  0  0  0  0  0  0  0
  151.1223  140.4690  154.2744 H   0  0  0  0  0  0  0  0  0  0  0  0
  149.5260  138.7729  153.3297 H   0  0  0  0  0  0  0  0  0  0  0  0
  150.4316  138.1339  154.6896 H   0  0  0  0  0  0  0  0  0  0  0  0
  148.3953  134.2052  155.1162 H   0  0  0  0  0  0  0  0  0  0  0  0
  144.1506  137.9958  152.0975 H   0  0  0  0  0  0  0  0  0  0  0  0
  144.1885  134.3351  152.8994 H   0  0  0  0  0  0  0  0  0  0  0  0
  143.2625  135.5765  152.1103 H   0  0  0  0  0  0  0  0  0  0  0  0
  144.8330  135.3737  149.0208 H   0  0  0  0  0  0  0  0  0  0  0  0
  146.6112  134.1145  149.8264 H   0  0  0  0  0  0  0  0  0  0  0  0
  146.8412  134.9936  151.3161 H   0  0  0  0  0  0  0  0  0  0  0  0
  147.4737  132.5658  151.5032 H   0  0  0  0  0  0  0  0  0  0  0  0
  146.1984  132.9552  152.6324 H   0  0  0  0  0  0  0  0  0  0  0  0
  143.6798  131.3240  150.5908 H   0  0  0  0  0  0  0  0  0  0  0  0
  143.9053  132.2336  152.0693 H   0  0  0  0  0  0  0  0  0  0  0  0
  142.8618  133.6629  150.2575 H   0  0  0  0  0  0  0  0  0  0  0  0
  144.1946  133.2849  149.2076 H   0  0  0  0  0  0  0  0  0  0  0  0
  147.4866  138.5132  156.9801 H   0  0  0  0  0  0  0  0  0  0  0  0
  149.1552  137.9708  156.9743 H   0  0  0  0  0  0  0  0  0  0  0  0
  149.0244  140.2003  158.0285 H   0  0  0  0  0  0  0  0  0  0  0  0
  148.1804  140.8498  156.6423 H   0  0  0  0  0  0  0  0  0  0  0  0
  1  2  1  0  0  0  0
  1 30  1  0  0  0  0
  1 31  1  0  0  0  0
  1 32  1  0  0  0  0
  2  3  1  0  0  0  0
  2  4  1  0  0  0  0
  2 33  1  0  0  0  0
  3 34  1  0  0  0  0
  3 35  1  0  0  0  0
  3 36  1  0  0  0  0
  4  5  1  0  0  0  0
  4 37  1  0  0  0  0
  4 38  1  0  0  0  0
  5  6  1  0  0  0  0
  5 39  1  0  0  0  0
  5 40  1  0  0  0  0
  6  7  1  0  0  0  0
  7 29  1  0  0  0  0
  7  8  1  0  0  0  0
  7 41  1  0  0  0  0
  8  9  1  0  0  0  0
  8 42  1  0  0  0  0
  8 43  1  0  0  0  0
  9 10  1  0  0  0  0
  9 44  1  0  0  0  0
  9 45  1  0  0  0  0
 10 11  1  0  0  0  0
 10 28  1  0  0  0  0
 11 16  1  0  0  0  0
 11 12  2  0  0  0  0
 12 13  1  0  0  0  0
 13 14  2  0  0  0  0
 13 46  1  0  0  0  0
 14 15  1  0  0  0  0
 15 19  1  0  0  0  0
 15 16  2  0  0  0  0
 16 17  1  0  0  0  0
 17 18  2  0  0  0  0
 18 19  1  0  0  0  0
 18 47  1  0  0  0  0
 19 20  1  0  0  0  0
 20 21  1  0  0  0  0
 20 48  1  0  0  0  0
 20 49  1  0  0  0  0
 21 27  1  0  0  0  0
 21 22  1  0  0  0  0
 21 23  1  0  0  0  0
 22 50  1  0  0  0  0
 23 24  1  0  0  0  0
 23 51  1  0  0  0  0
 23 52  1  0  0  0  0
 24 25  1  0  0  0  0
 24 53  1  0  0  0  0
 24 54  1  0  0  0  0
 25 26  1  0  0  0  0
 26 27  1  0  0  0  0
 26 55  1  0  0  0  0
 26 56  1  0  0  0  0
 27 57  1  0  0  0  0
 27 58  1  0  0  0  0
 28 29  1  0  0  0  0
 28 59  1  0  0  0  0
 28 60  1  0  0  0  0
 29 61  1  0  0  0  0
 29 62  1  0  0  0  0
M  END
> <s_m_source_file>
AV-unprocessed.smi

> <i_m_source_file_index>
272

> <i_lp_mmshare_version>
43012

> <i_f3d_flags>
0

> <s_epik_input>
W0NIM11bQ0hdKFtDSDNdKVtDSDJdW0NIMl1PW0NIXTFbQ0gyXVtDSDJdTihbQ0gyXVtDSDJdMSljKG5bY0hdbjIpYyhjMjMpbltjSF1uM1tDSDJdQzQoW09IXSlbQ0gyXVtDSDJdT1tDSDJdW0NIMl00

> <s_epik_cmdline>
J2VwaWtfcHl0aG9uJywgJy1waCcsICc3LjAnLCAnLXRuJywgJzgnLCAnLW1hJywgJzIwMCcsICctbWV0YWxfYmluZGluZycsICctaW1hZScsICc8aW5maWxlLm1hZT4nLCAnLW9tYWUnLCAnPG91dGZpbGUubWFlPic=

> <r_lp_tautomer_probability>
1

> <r_epik_Ionization_Penalty>
0.00344734

> <r_epik_Ionization_Penalty_Charging>
0

> <r_epik_Ionization_Penalty_Neutral>
0.00344734

> <r_epik_State_Penalty>
0.0022364

> <r_epik_Charging_Adjusted_Penalty>
0.0022364

> <i_epik_Tot_Q>
0

> <i_epik_Tot_abs_Q>
0

> <r_epik_Metal_State_Penalty>
-0

> <b_epik_Metal_Only>
0

> <s_lp_Force_Field>
OPLS_2005

> <r_lp_Energy>
34.8885

> <b_lp_Chiralities_Consistent>
1

> <s_lp_Variant>
AV-unprocessed.smi:272-1

> <Gold.Version>
5.8.1

> <Gold.Id.Protein>
6NUR|6NUR_protein|mol2

> <Gold.PLP.Fitness>
50.5529

> <Gold.PLP.PLP>
-43.3492

> <Gold.PLP.part.hbond>
-2.0000

> <Gold.PLP.part.metal>
0.0000

> <Gold.PLP.part.buried>
-4.2895

> <Gold.PLP.part.nonpolar>
-37.5533

> <Gold.PLP.part.repulsive>
0.6722

> <Gold.PLP.ligand.clash>
0.0000

> <Gold.PLP.ligand.torsion>
0.7610

> <Gold.PLP.Chemscore.Hbond>
1.0000

> <Gold.PLP.Chemscore.CHOScore>
1.7708

> <Gold.PLP.Chemscore.Metal>
0.0000

> <Gold.Chemscore.Hbonds>
donor molecule, donor type, donor heavy atom, donor atom, acceptor molecule, acceptor atom, score
      L1  H    22    50       P1  7921  1.00
      L1  C    18    47       P1 10171  1.00
      L1  C    18    47       P1 10175  0.78

> <Gold.PLP.Chemscore.Internal.Correction>
0.4133

> <Gold.Rescore>
     Score         DG    S(hbond)    S(metal)    S(lipo)     H(rot)  DE(clash)    DE(int)     intcor
     14.75     -15.57       0.98        0.00     117.24       2.70       0.12       0.71       ----

> <Gold.Chemscore.Fitness>
14.7472

> <Gold.Chemscore.DG>
-15.5718

> <Gold.Chemscore.ZeroCoef>
-5.4800

> <Gold.Chemscore.Hbond>
0.9849

> <Gold.Chemscore.Metal>
0.0000

> <Gold.Chemscore.Lipo>
117.2418

> <Gold.Chemscore.Internal_Hbond>
0.0000

> <Gold.Chemscore.DEClash>
0.1160

> <Gold.Chemscore.DEInternal>
0.7087

> <Gold.Chemscore.Rot>
2.7012

> <Gold.Chemscore.Internal.Correction>
   9.000000E+99

> <Gold.Chemscore.Hbonds>
donor molecule, donor type, donor heavy atom, donor atom, acceptor molecule, acceptor atom, score
      L1  H    22    50       P1  7921  0.93

> <Gold.Chemscore.Hbond.Weighted>
-3.2896

> <Gold.Chemscore.Metal.Weighted>
-0.0000

> <Gold.Chemscore.Lipo.Weighted>
-13.7173

> <Gold.Chemscore.Internal_Hbond.Weighted>
0.0000

> <Gold.Chemscore.DEClash.Weighted>
0.1160

> <Gold.Chemscore.DEInternal.Weighted>
0.7087

> <Gold.Chemscore.Rot.Weighted>
6.9151

> <Gold.Chemscore.Internal.Correction.Weighted>
   9.000000E+99

> <Gold.Protein.RotatedTorsions>
[ 6907 6896 6895 6894 ] final -122.43 input  -60.11 | X-H torsion
[ 7974 7965 7964 7962 ] final -108.18 input  175.53 | X-H torsion
[ 8008 7997 7996 7995 ] final  -45.62 input   59.86 | X-H torsion
[ 10167 10162 10161 10158 ] final  178.40 input  -65.29 | X-H torsion
[ 10718 10713 10712 10709 ] final    8.64 input   66.30 | X-H torsion
[ 10763 10752 10751 10750 ] final   39.07 input  -60.55 | X-H torsion
[ 11005 11000 10999 10996 ] final  151.87 input  -57.11 | X-H torsion

> <Gold.Protein.ActiveResidues>
 VAL166  LYS551  ARG553  GLY616  TRP617  ASP618  TYR619  PRO620  LYS621  CYS622 
 ASP623  PHE694  ASN695  SER759  ASP760  ASP761  ALA762  ILE779  LEU786  VAL792 
 PHE793  MET794  SER795  GLU796  ALA797  LYS798  CYS799  TRP800  GLU811  SER814 

> <Gold.Protein.RotatedAtoms>
  150.8575  133.7693  159.3003 H   0  0  0  0  0  0  0  0  0  0  0  0  # atno 6907 bound_to 6896
  151.5346  135.1067  159.9921 H   0  0  0  0  0  0  0  0  0  0  0  0  # atno 6908 bound_to 6896
  152.4601  133.7760  159.6881 H   0  0  0  0  0  0  0  0  0  0  0  0  # atno 6909 bound_to 6896
  145.1960  140.9036  143.3397 H   0  0  0  0  0  0  0  0  0  0  0  0  # atno 7974 bound_to 7965
  154.4002  140.1392  156.3877 H   0  0  0  0  0  0  0  0  0  0  0  0  # atno 8008 bound_to 7997
  155.7944  140.3478  155.5347 H   0  0  0  0  0  0  0  0  0  0  0  0  # atno 8009 bound_to 7997
  155.8547  140.0947  157.1642 H   0  0  0  0  0  0  0  0  0  0  0  0  # atno 8010 bound_to 7997
  139.5292  144.2685  152.0648 H   0  0  0  0  0  0  0  0  0  0  0  0  # atno 10167 bound_to 10162
  156.9546  130.5910  149.5658 H   0  0  0  0  0  0  0  0  0  0  0  0  # atno 10718 bound_to 10713
  152.9979  135.6231  154.2406 H   0  0  0  0  0  0  0  0  0  0  0  0  # atno 10763 bound_to 10752
  154.2146  135.2798  155.2948 H   0  0  0  0  0  0  0  0  0  0  0  0  # atno 10764 bound_to 10752
  154.5578  135.5714  153.7038 H   0  0  0  0  0  0  0  0  0  0  0  0  # atno 10765 bound_to 10752
  140.1258  134.8834  157.2135 H   0  0  0  0  0  0  0  0  0  0  0  0  # atno 11005 bound_to 11000
  144.9994  139.3613  143.6175 LP  0  0  0  0  0  0  0  0  0  0  0  0  # atno 17320 bound_to 7965
  146.3427  139.9211  142.8766 LP  0  0  0  0  0  0  0  0  0  0  0  0  # atno 17321 bound_to 7965
  140.2146  144.4528  150.6370 LP  0  0  0  0  0  0  0  0  0  0  0  0  # atno 17342 bound_to 10162
  140.6458  143.2213  151.6188 LP  0  0  0  0  0  0  0  0  0  0  0  0  # atno 17343 bound_to 10162
  156.0348  130.5436  150.8625 LP  0  0  0  0  0  0  0  0  0  0  0  0  # atno 17370 bound_to 10713
  157.5699  131.0946  150.9434 LP  0  0  0  0  0  0  0  0  0  0  0  0  # atno 17371 bound_to 10713
  140.2906  134.3244  155.7316 LP  0  0  0  0  0  0  0  0  0  0  0  0  # atno 17394 bound_to 11000
  141.2161  133.7532  156.9498 LP  0  0  0  0  0  0  0  0  0  0  0  0  # atno 17395 bound_to 11000

$$$$
