AV-unprocessed.smi:889|AV-procd|sdf|4056|dock6
  -GOLD-   22720 1543D 1   1.00000     0.00000
 Structure written by MMmdl.
 43 44  0  0  0  0  0  0  0  0  1 V2000
  150.8750  136.5157  155.5556 C   0  0  0  0  0  0  0  0  0  0  0  0
  150.6346  137.9707  155.3374 C   0  0  0  0  0  0  0  0  0  0  0  0
  150.3865  139.0089  156.1891 C   0  0  0  0  0  0  0  0  0  0  0  0
  150.2570  140.1312  155.3244 C   0  0  0  0  0  0  0  0  0  0  0  0
  149.9840  141.5658  155.6890 C   0  0  0  0  0  0  0  0  0  0  0  0
  151.0091  142.0608  156.7099 C   0  0  0  0  0  0  0  0  0  0  0  0
  151.7409  141.2581  157.2890 O   0  0  0  0  0  0  0  0  0  0  0  0
  151.0587  143.3853  156.9128 N   0  0  0  0  0  0  0  0  0  0  0  0
  151.9835  144.0568  157.8185 C   0  0  0  0  0  0  0  0  0  0  0  0
  151.6227  143.8095  159.2980 C   0  0  0  0  0  0  0  0  0  0  0  0
  152.1727  142.4387  159.7590 C   0  0  0  0  0  0  0  0  0  0  0  0
  153.3826  142.4414  160.7273 C   0  0  0  0  0  0  0  0  0  0  0  0
  154.1815  141.1278  160.7177 C   0  0  0  0  0  0  0  0  0  0  0  0
  152.9209  142.7743  162.1545 C   0  0  0  0  0  0  0  0  0  0  0  0
  151.9760  144.9814  160.2436 C   0  0  0  0  0  0  0  0  0  0  0  0
  150.5618  145.5302  160.0780 C   0  0  0  0  0  0  0  0  0  0  0  0
  150.1535  144.1168  159.6719 C   0  0  0  0  0  0  0  0  0  0  0  0
  150.4162  139.7913  154.0545 N   0  0  0  0  0  0  0  0  0  0  0  0
  150.6549  138.4127  154.0532 O   0  0  0  0  0  0  0  0  0  0  0  0
  151.6235  136.3609  156.3329 H   0  0  0  0  0  0  0  0  0  0  0  0
  151.2319  136.0344  154.6447 H   0  0  0  0  0  0  0  0  0  0  0  0
  149.9574  136.0154  155.8652 H   0  0  0  0  0  0  0  0  0  0  0  0
  150.3094  138.9728  157.2656 H   0  0  0  0  0  0  0  0  0  0  0  0
  150.0267  142.1955  154.7995 H   0  0  0  0  0  0  0  0  0  0  0  0
  148.9802  141.6823  156.1009 H   0  0  0  0  0  0  0  0  0  0  0  0
  150.4157  143.9706  156.3991 H   0  0  0  0  0  0  0  0  0  0  0  0
  152.9868  143.6896  157.5992 H   0  0  0  0  0  0  0  0  0  0  0  0
  152.0119  145.1254  157.6020 H   0  0  0  0  0  0  0  0  0  0  0  0
  151.3665  141.8640  160.2168 H   0  0  0  0  0  0  0  0  0  0  0  0
  152.4514  141.8561  158.8798 H   0  0  0  0  0  0  0  0  0  0  0  0
  154.0621  143.2416  160.4337 H   0  0  0  0  0  0  0  0  0  0  0  0
  153.5406  140.2715  160.9294 H   0  0  0  0  0  0  0  0  0  0  0  0
  154.9717  141.1444  161.4686 H   0  0  0  0  0  0  0  0  0  0  0  0
  154.6647  140.9593  159.7565 H   0  0  0  0  0  0  0  0  0  0  0  0
  152.2388  142.0153  162.5386 H   0  0  0  0  0  0  0  0  0  0  0  0
  152.4044  143.7342  162.1872 H   0  0  0  0  0  0  0  0  0  0  0  0
  153.7681  142.8368  162.8381 H   0  0  0  0  0  0  0  0  0  0  0  0
  152.1765  144.6605  161.2674 H   0  0  0  0  0  0  0  0  0  0  0  0
  152.7617  145.6458  159.8819 H   0  0  0  0  0  0  0  0  0  0  0  0
  150.1013  145.8935  160.9972 H   0  0  0  0  0  0  0  0  0  0  0  0
  150.4744  146.2516  159.2644 H   0  0  0  0  0  0  0  0  0  0  0  0
  149.4487  144.0795  158.8410 H   0  0  0  0  0  0  0  0  0  0  0  0
  149.7940  143.5303  160.5194 H   0  0  0  0  0  0  0  0  0  0  0  0
  1  2  1  0  0  0  0
  1 20  1  0  0  0  0
  1 21  1  0  0  0  0
  1 22  1  0  0  0  0
  2 19  1  0  0  0  0
  2  3  2  0  0  0  0
  3  4  1  0  0  0  0
  3 23  1  0  0  0  0
  4  5  1  0  0  0  0
  4 18  2  0  0  0  0
  5  6  1  0  0  0  0
  5 24  1  0  0  0  0
  5 25  1  0  0  0  0
  6  7  2  0  0  0  0
  6  8  1  0  0  0  0
  8  9  1  0  0  0  0
  8 26  1  0  0  0  0
  9 10  1  0  0  0  0
  9 27  1  0  0  0  0
  9 28  1  0  0  0  0
 10 17  1  0  0  0  0
 10 11  1  0  0  0  0
 10 15  1  0  0  0  0
 11 12  1  0  0  0  0
 11 29  1  0  0  0  0
 11 30  1  0  0  0  0
 12 13  1  0  0  0  0
 12 14  1  0  0  0  0
 12 31  1  0  0  0  0
 13 32  1  0  0  0  0
 13 33  1  0  0  0  0
 13 34  1  0  0  0  0
 14 35  1  0  0  0  0
 14 36  1  0  0  0  0
 14 37  1  0  0  0  0
 15 16  1  0  0  0  0
 15 38  1  0  0  0  0
 15 39  1  0  0  0  0
 16 17  1  0  0  0  0
 16 40  1  0  0  0  0
 16 41  1  0  0  0  0
 17 42  1  0  0  0  0
 17 43  1  0  0  0  0
 18 19  1  0  0  0  0
M  END
> <s_m_source_file>
AV-unprocessed.smi

> <i_m_source_file_index>
889

> <i_lp_mmshare_version>
43012

> <i_f3d_flags>
0

> <s_epik_input>
W0NIM11jMVtjSF1jKG5vMSlbQ0gyXUMoPU8pW05IXVtDSDJdQzIoW0NIMl1bQ0hdKFtDSDNdKVtDSDNdKVtDSDJdW0NIMl1bQ0gyXTI=

> <s_epik_cmdline>
J2VwaWtfcHl0aG9uJywgJy1waCcsICc3LjAnLCAnLXRuJywgJzgnLCAnLW1hJywgJzIwMCcsICctbWV0YWxfYmluZGluZycsICctaW1hZScsICc8aW5maWxlLm1hZT4nLCAnLW9tYWUnLCAnPG91dGZpbGUubWFlPic=

> <r_lp_tautomer_probability>
1

> <r_epik_Ionization_Penalty>
7.05168e-08

> <r_epik_Ionization_Penalty_Charging>
0

> <r_epik_Ionization_Penalty_Neutral>
7.05168e-08

> <r_epik_State_Penalty>
-0

> <r_epik_Charging_Adjusted_Penalty>
0

> <i_epik_Tot_Q>
0

> <i_epik_Tot_abs_Q>
0

> <r_epik_Metal_State_Penalty>
-0

> <b_epik_Metal_Only>
0

> <s_lp_Force_Field>
OPLS_2005

> <r_lp_Energy>
19.2899

> <b_lp_Chiralities_Consistent>
1

> <s_lp_Variant>
AV-unprocessed.smi:889-1

> <Gold.Version>
5.8.1

> <Gold.Id.Protein>
6NUR|6NUR_protein|mol2

> <Gold.PLP.Fitness>
46.8152

> <Gold.PLP.PLP>
-43.8422

> <Gold.PLP.part.hbond>
-2.0000

> <Gold.PLP.part.metal>
0.0000

> <Gold.PLP.part.buried>
-5.6385

> <Gold.PLP.part.nonpolar>
-38.2342

> <Gold.PLP.part.repulsive>
0.9401

> <Gold.PLP.ligand.clash>
0.0000

> <Gold.PLP.ligand.torsion>
1.7263

> <Gold.PLP.Chemscore.Hbond>
2.0000

> <Gold.PLP.Chemscore.CHOScore>
0.0000

> <Gold.PLP.Chemscore.Metal>
0.0000

> <Gold.Chemscore.Hbonds>
donor molecule, donor type, donor heavy atom, donor atom, acceptor molecule, acceptor atom, score
      L1  H     8    26       P1  8028  1.00
      P1  H  7989  7998       L1    18  1.00

> <Gold.PLP.Chemscore.Internal.Correction>
0.4257

> <Gold.Rescore>
     Score         DG    S(hbond)    S(metal)    S(lipo)     H(rot)  DE(clash)    DE(int)     intcor
     17.47     -21.78       1.88        0.00     122.43       1.68       0.07       4.24       ----

> <Gold.Chemscore.Fitness>
17.4663

> <Gold.Chemscore.DG>
-21.7755

> <Gold.Chemscore.ZeroCoef>
-5.4800

> <Gold.Chemscore.Hbond>
1.8815

> <Gold.Chemscore.Metal>
0.0000

> <Gold.Chemscore.Lipo>
122.4283

> <Gold.Chemscore.Internal_Hbond>
0.0000

> <Gold.Chemscore.DEClash>
0.0700

> <Gold.Chemscore.DEInternal>
4.2393

> <Gold.Chemscore.Rot>
1.6846

> <Gold.Chemscore.Internal.Correction>
   9.000000E+99

> <Gold.Chemscore.Hbonds>
donor molecule, donor type, donor heavy atom, donor atom, acceptor molecule, acceptor atom, score
      L1  H     8    26       P1  8028  1.00
      P1  H  7989  7998       L1    18  0.48

> <Gold.Chemscore.Hbond.Weighted>
-6.2841

> <Gold.Chemscore.Metal.Weighted>
-0.0000

> <Gold.Chemscore.Lipo.Weighted>
-14.3241

> <Gold.Chemscore.Internal_Hbond.Weighted>
0.0000

> <Gold.Chemscore.DEClash.Weighted>
0.0700

> <Gold.Chemscore.DEInternal.Weighted>
4.2393

> <Gold.Chemscore.Rot.Weighted>
4.3127

> <Gold.Chemscore.Internal.Correction.Weighted>
   9.000000E+99

> <Gold.Protein.RotatedTorsions>
[ 6907 6896 6895 6894 ] final -139.35 input  -60.11 | X-H torsion
[ 7974 7965 7964 7962 ] final -148.88 input  175.53 | X-H torsion
[ 8008 7997 7996 7995 ] final    9.00 input   59.86 | X-H torsion
[ 10167 10162 10161 10158 ] final  -49.09 input  -65.29 | X-H torsion
[ 10718 10713 10712 10709 ] final  -88.72 input   66.30 | X-H torsion
[ 10763 10752 10751 10750 ] final  -50.70 input  -60.55 | X-H torsion
[ 11005 11000 10999 10996 ] final   29.54 input  -57.11 | X-H torsion

> <Gold.Protein.ActiveResidues>
 VAL166  LYS551  ARG553  GLY616  TRP617  ASP618  TYR619  PRO620  LYS621  CYS622 
 ASP623  PHE694  ASN695  SER759  ASP760  ASP761  ALA762  ILE779  LEU786  VAL792 
 PHE793  MET794  SER795  GLU796  ALA797  LYS798  CYS799  TRP800  GLU811  SER814 

> <Gold.Protein.RotatedAtoms>
  151.0466  133.5660  159.2645 H   0  0  0  0  0  0  0  0  0  0  0  0  # atno 6907 bound_to 6896
  151.2686  135.0676  159.9135 H   0  0  0  0  0  0  0  0  0  0  0  0  # atno 6908 bound_to 6896
  152.5374  134.0200  159.8031 H   0  0  0  0  0  0  0  0  0  0  0  0  # atno 6909 bound_to 6896
  144.8002  140.5138  143.5712 H   0  0  0  0  0  0  0  0  0  0  0  0  # atno 7974 bound_to 7965
  154.7742  140.2807  155.6114 H   0  0  0  0  0  0  0  0  0  0  0  0  # atno 8008 bound_to 7997
  156.2939  140.2635  156.2480 H   0  0  0  0  0  0  0  0  0  0  0  0  # atno 8009 bound_to 7997
  154.9863  140.0374  157.2289 H   0  0  0  0  0  0  0  0  0  0  0  0  # atno 8010 bound_to 7997
  140.6701  143.2712  151.4165 H   0  0  0  0  0  0  0  0  0  0  0  0  # atno 10167 bound_to 10162
  155.9983  130.4846  150.5063 H   0  0  0  0  0  0  0  0  0  0  0  0  # atno 10718 bound_to 10713
  154.1147  135.6544  153.4891 H   0  0  0  0  0  0  0  0  0  0  0  0  # atno 10763 bound_to 10752
  153.0245  135.5256  154.7157 H   0  0  0  0  0  0  0  0  0  0  0  0  # atno 10764 bound_to 10752
  154.6347  135.2980  155.0145 H   0  0  0  0  0  0  0  0  0  0  0  0  # atno 10765 bound_to 10752
  140.3039  134.2725  155.7748 H   0  0  0  0  0  0  0  0  0  0  0  0  # atno 11005 bound_to 11000
  145.5573  139.1478  143.3361 LP  0  0  0  0  0  0  0  0  0  0  0  0  # atno 17320 bound_to 7965
  146.2281  140.5710  142.8987 LP  0  0  0  0  0  0  0  0  0  0  0  0  # atno 17321 bound_to 7965
  139.5965  144.1385  152.2150 LP  0  0  0  0  0  0  0  0  0  0  0  0  # atno 17342 bound_to 10162
  140.0756  144.5743  150.7159 LP  0  0  0  0  0  0  0  0  0  0  0  0  # atno 17343 bound_to 10162
  157.3041  131.0651  151.2047 LP  0  0  0  0  0  0  0  0  0  0  0  0  # atno 17370 bound_to 10713
  157.3016  130.6845  149.6167 LP  0  0  0  0  0  0  0  0  0  0  0  0  # atno 17371 bound_to 10713
  141.2122  133.7664  156.9808 LP  0  0  0  0  0  0  0  0  0  0  0  0  # atno 17394 bound_to 11000
  140.1084  134.9492  157.2029 LP  0  0  0  0  0  0  0  0  0  0  0  0  # atno 17395 bound_to 11000

$$$$
