AV-unprocessed.smi:10|AV-procd|sdf|54|dock9
  -GOLD-   2262015173D 1   1.00000     0.00000
 Structure written by MMmdl.
 34 36  0  0  0  0  0  0  0  0  1 V2000
  152.1866  144.1611  160.7020 C   0  0  0  0  0  0  0  0  0  0  0  0
  152.4999  142.9486  159.9744 N   0  0  0  0  0  0  0  0  0  0  0  0
  153.5116  142.0920  160.2096 C   0  0  0  0  0  0  0  0  0  0  0  0
  153.5724  141.0486  159.3840 N   0  0  0  0  0  0  0  0  0  0  0  0
  152.4884  141.2724  158.5424 C   0  0  0  0  0  0  0  0  0  0  0  0
  151.9825  140.4885  157.3923 C   0  0  0  0  0  0  0  0  0  0  0  0
  152.5145  139.4414  157.0226 O   0  0  0  0  0  0  0  0  0  0  0  0
  150.8834  141.0487  156.8042 N   0  0  0  0  0  0  0  0  0  0  0  0
  150.2475  140.4173  155.6375 C   0  0  0  0  0  0  0  0  0  0  0  0
  149.4035  141.4173  154.8174 C   0  0  1  0  0  0  0  0  0  0  0  0
  149.5334  141.0909  153.4472 O   0  0  0  0  0  0  0  0  0  0  0  0
  147.9210  141.3595  155.1993 C   0  0  0  0  0  0  0  0  0  0  0  0
  146.8703  142.1844  154.4384 C   0  0  0  0  0  0  0  0  0  0  0  0
  146.0921  142.3122  155.7523 C   0  0  0  0  0  0  0  0  0  0  0  0
  147.4015  142.0129  156.4905 C   0  0  0  0  0  0  0  0  0  0  0  0
  150.2864  142.2555  157.2786 C   0  0  0  0  0  0  0  0  0  0  0  0
  150.7092  142.9676  158.2908 N   0  0  0  0  0  0  0  0  0  0  0  0
  151.8241  142.4175  158.8828 C   0  0  0  0  0  0  0  0  0  0  0  0
  152.8691  144.2841  161.5435 H   0  0  0  0  0  0  0  0  0  0  0  0
  151.1646  144.1101  161.0781 H   0  0  0  0  0  0  0  0  0  0  0  0
  152.2819  145.0210  160.0386 H   0  0  0  0  0  0  0  0  0  0  0  0
  154.2246  142.2374  161.0079 H   0  0  0  0  0  0  0  0  0  0  0  0
  150.9741  139.9126  154.9970 H   0  0  0  0  0  0  0  0  0  0  0  0
  149.6035  139.6119  155.9957 H   0  0  0  0  0  0  0  0  0  0  0  0
  149.7687  142.4347  154.9632 H   0  0  0  0  0  0  0  0  0  0  0  0
  149.4195  140.1578  153.3503 H   0  0  0  0  0  0  0  0  0  0  0  0
  147.5877  140.3191  155.2012 H   0  0  0  0  0  0  0  0  0  0  0  0
  147.2498  143.1429  154.0812 H   0  0  0  0  0  0  0  0  0  0  0  0
  146.3494  141.6409  153.6494 H   0  0  0  0  0  0  0  0  0  0  0  0
  145.6765  143.3021  155.9423 H   0  0  0  0  0  0  0  0  0  0  0  0
  145.3452  141.5271  155.8797 H   0  0  0  0  0  0  0  0  0  0  0  0
  147.3022  141.3323  157.3365 H   0  0  0  0  0  0  0  0  0  0  0  0
  147.9390  142.9207  156.7685 H   0  0  0  0  0  0  0  0  0  0  0  0
  149.4045  142.5594  156.7121 H   0  0  0  0  0  0  0  0  0  0  0  0
  1  2  1  0  0  0  0
  1 19  1  0  0  0  0
  1 20  1  0  0  0  0
  1 21  1  0  0  0  0
  2 18  1  0  0  0  0
  2  3  1  0  0  0  0
  3  4  2  0  0  0  0
  3 22  1  0  0  0  0
  4  5  1  0  0  0  0
  5 18  2  0  0  0  0
  5  6  1  0  0  0  0
  6  7  2  0  0  0  0
  6  8  1  0  0  0  0
  8  9  1  0  0  0  0
  8 16  1  0  0  0  0
  9 10  1  0  0  0  0
  9 23  1  0  0  0  0
  9 24  1  0  0  0  0
 10 11  1  0  0  0  0
 10 12  1  0  0  0  0
 10 25  1  0  0  0  0
 11 26  1  0  0  0  0
 12 15  1  0  0  0  0
 12 13  1  0  0  0  0
 12 27  1  0  0  0  0
 13 14  1  0  0  0  0
 13 28  1  0  0  0  0
 13 29  1  0  0  0  0
 14 15  1  0  0  0  0
 14 30  1  0  0  0  0
 14 31  1  0  0  0  0
 15 32  1  0  0  0  0
 15 33  1  0  0  0  0
 16 17  2  0  0  0  0
 16 34  1  0  0  0  0
 17 18  1  0  0  0  0
M  END
> <s_m_source_file>
AV-unprocessed.smi

> <i_m_source_file_index>
10

> <i_lp_mmshare_version>
43012

> <i_f3d_flags>
0

> <s_epik_input>
bjFbY0hdbihbQ0gzXSljKGMxMiluW2NIXW4oYzI9TylbQ0gyXVtDQEhdKFtPSF0pW0NIXTNbQ0gyXVtDSDJdW0NIMl0z

> <s_epik_cmdline>
J2VwaWtfcHl0aG9uJywgJy1waCcsICc3LjAnLCAnLXRuJywgJzgnLCAnLW1hJywgJzIwMCcsICctbWV0YWxfYmluZGluZycsICctaW1hZScsICc8aW5maWxlLm1hZT4nLCAnLW9tYWUnLCAnPG91dGZpbGUubWFlPic=

> <r_lp_tautomer_probability>
1

> <r_epik_Ionization_Penalty>
0.0003743

> <r_epik_Ionization_Penalty_Charging>
2.98177e-12

> <r_epik_Ionization_Penalty_Neutral>
0.000374299

> <r_epik_State_Penalty>
0.000224514

> <r_epik_Charging_Adjusted_Penalty>
0.000224514

> <i_epik_Tot_Q>
0

> <i_epik_Tot_abs_Q>
0

> <r_epik_Metal_State_Penalty>
-0

> <b_epik_Metal_Only>
0

> <s_lp_Force_Field>
OPLS_2005

> <r_lp_Energy>
33.6231

> <b_lp_Chiralities_Consistent>
1

> <s_lp_Variant>
AV-unprocessed.smi:10-2

> <Gold.Version>
5.8.1

> <Gold.Id.Protein>
6NUR|6NUR_protein|mol2

> <Gold.PLP.Fitness>
45.7158

> <Gold.PLP.PLP>
-38.4599

> <Gold.PLP.part.hbond>
-3.9036

> <Gold.PLP.part.metal>
0.0000

> <Gold.PLP.part.buried>
-3.6803

> <Gold.PLP.part.nonpolar>
-30.4108

> <Gold.PLP.part.repulsive>
0.1123

> <Gold.PLP.ligand.clash>
0.1514

> <Gold.PLP.ligand.torsion>
0.9502

> <Gold.PLP.Chemscore.Hbond>
2.0892

> <Gold.PLP.Chemscore.CHOScore>
0.9871

> <Gold.PLP.Chemscore.Metal>
0.0000

> <Gold.Chemscore.Hbonds>
donor molecule, donor type, donor heavy atom, donor atom, acceptor molecule, acceptor atom, score
      P1  H  7989  7998       L1    11  0.09
      P1  H  7997  8009       L1     7  0.99
      P1  H  8011  8017       L1    11  1.00
      L1  C    16    34       P1  8028  0.99

> <Gold.PLP.Chemscore.Internal.Correction>
0.0787

> <Gold.Rescore>
     Score         DG    S(hbond)    S(metal)    S(lipo)     H(rot)  DE(clash)    DE(int)     intcor
     11.46     -12.43       2.11        0.00      48.98       2.28       0.09       0.87       ----

> <Gold.Chemscore.Fitness>
11.4641

> <Gold.Chemscore.DG>
-12.4280

> <Gold.Chemscore.ZeroCoef>
-5.4800

> <Gold.Chemscore.Hbond>
2.1140

> <Gold.Chemscore.Metal>
0.0000

> <Gold.Chemscore.Lipo>
48.9766

> <Gold.Chemscore.Internal_Hbond>
0.0000

> <Gold.Chemscore.DEClash>
0.0942

> <Gold.Chemscore.DEInternal>
0.8698

> <Gold.Chemscore.Rot>
2.2824

> <Gold.Chemscore.Internal.Correction>
   9.000000E+99

> <Gold.Chemscore.Hbonds>
donor molecule, donor type, donor heavy atom, donor atom, acceptor molecule, acceptor atom, score
      L1  H    11    26       P1  7957  0.02
      P1  H  7997  8009       L1     7  0.28
      P1  H  8011  8017       L1    11  0.92

> <Gold.Chemscore.Hbond.Weighted>
-7.0608

> <Gold.Chemscore.Metal.Weighted>
-0.0000

> <Gold.Chemscore.Lipo.Weighted>
-5.7303

> <Gold.Chemscore.Internal_Hbond.Weighted>
0.0000

> <Gold.Chemscore.DEClash.Weighted>
0.0942

> <Gold.Chemscore.DEInternal.Weighted>
0.8698

> <Gold.Chemscore.Rot.Weighted>
5.8431

> <Gold.Chemscore.Internal.Correction.Weighted>
   9.000000E+99

> <Gold.Protein.RotatedTorsions>
[ 6907 6896 6895 6894 ] final  -72.46 input  -60.11 | X-H torsion
[ 7974 7965 7964 7962 ] final   70.65 input  175.53 | X-H torsion
[ 8008 7997 7996 7995 ] final -166.50 input   59.86 | X-H torsion
[ 10167 10162 10161 10158 ] final  -12.62 input  -65.29 | X-H torsion
[ 10718 10713 10712 10709 ] final    2.25 input   66.30 | X-H torsion
[ 10763 10752 10751 10750 ] final -125.53 input  -60.55 | X-H torsion
[ 11005 11000 10999 10996 ] final  -52.00 input  -57.11 | X-H torsion

> <Gold.Protein.ActiveResidues>
 VAL166  LYS551  ARG553  GLY616  TRP617  ASP618  TYR619  PRO620  LYS621  CYS622 
 ASP623  PHE694  ASN695  SER759  ASP760  ASP761  ALA762  ILE779  LEU786  VAL792 
 PHE793  MET794  SER795  GLU796  ALA797  LYS798  CYS799  TRP800  GLU811  SER814 

> <Gold.Protein.RotatedAtoms>
  150.7169  134.5159  159.5629 H   0  0  0  0  0  0  0  0  0  0  0  0  # atno 6907 bound_to 6896
  152.2725  134.7914  160.0420 H   0  0  0  0  0  0  0  0  0  0  0  0  # atno 6908 bound_to 6896
  151.8589  133.3418  159.3734 H   0  0  0  0  0  0  0  0  0  0  0  0  # atno 6909 bound_to 6896
  145.7756  139.2863  143.1296 H   0  0  0  0  0  0  0  0  0  0  0  0  # atno 7974 bound_to 7965
  155.8647  140.0983  157.1590 H   0  0  0  0  0  0  0  0  0  0  0  0  # atno 8008 bound_to 7997
  154.3993  140.1358  156.4066 H   0  0  0  0  0  0  0  0  0  0  0  0  # atno 8009 bound_to 7997
  155.7818  140.3458  155.5304 H   0  0  0  0  0  0  0  0  0  0  0  0  # atno 8010 bound_to 7997
  140.7165  143.5512  150.9298 H   0  0  0  0  0  0  0  0  0  0  0  0  # atno 10167 bound_to 10162
  156.8602  130.5584  149.5663 H   0  0  0  0  0  0  0  0  0  0  0  0  # atno 10718 bound_to 10713
  154.8737  135.4026  154.3283 H   0  0  0  0  0  0  0  0  0  0  0  0  # atno 10763 bound_to 10752
  153.4101  135.7020  153.6371 H   0  0  0  0  0  0  0  0  0  0  0  0  # atno 10764 bound_to 10752
  153.5077  135.3714  155.2542 H   0  0  0  0  0  0  0  0  0  0  0  0  # atno 10765 bound_to 10752
  141.0901  133.6634  156.3960 H   0  0  0  0  0  0  0  0  0  0  0  0  # atno 11005 bound_to 11000
  146.0126  140.8421  142.9963 LP  0  0  0  0  0  0  0  0  0  0  0  0  # atno 17320 bound_to 7965
  144.6805  140.2512  143.7331 LP  0  0  0  0  0  0  0  0  0  0  0  0  # atno 17321 bound_to 7965
  139.9237  143.6576  152.3091 LP  0  0  0  0  0  0  0  0  0  0  0  0  # atno 17342 bound_to 10162
  139.7002  144.7636  151.1287 LP  0  0  0  0  0  0  0  0  0  0  0  0  # atno 17343 bound_to 10162
  156.0781  130.5798  150.9511 LP  0  0  0  0  0  0  0  0  0  0  0  0  # atno 17370 bound_to 10713
  157.6254  131.0926  150.8543 LP  0  0  0  0  0  0  0  0  0  0  0  0  # atno 17371 bound_to 10713
  140.5271  134.6248  157.5338 LP  0  0  0  0  0  0  0  0  0  0  0  0  # atno 17394 bound_to 11000
  139.9726  134.7268  156.0012 LP  0  0  0  0  0  0  0  0  0  0  0  0  # atno 17395 bound_to 11000

$$$$
