AV-unprocessed.smi:1759|AV-procd|sdf|7088|dock4
  -GOLD-   22720 8303D 1   1.00000     0.00000
 Structure written by MMmdl.
 31 32  0  0  0  0  0  0  0  0  1 V2000
  153.7343  141.7693  160.6351 C   0  0  0  0  0  0  0  0  0  0  0  0
  152.9386  142.4180  159.5552 C   0  0  0  0  0  0  0  0  0  0  0  0
  152.0471  141.9359  158.6386 C   0  0  0  0  0  0  0  0  0  0  0  0
  151.6715  143.0992  157.9158 C   0  0  0  0  0  0  0  0  0  0  0  0
  150.7427  143.0232  156.8471 N   0  0  0  0  0  0  0  0  0  0  0  0
  150.3932  141.9341  156.1419 C   0  0  0  0  0  0  0  0  0  0  0  0
  150.8585  140.8053  156.3025 O   0  0  0  0  0  0  0  0  0  0  0  0
  149.4647  142.2277  155.2208 N   0  0  0  0  0  0  0  0  0  0  0  0
  148.8956  141.2739  154.2758 C   0  0  0  0  0  0  0  0  0  0  0  0
  147.3653  141.4015  154.2035 C   0  0  1  0  0  0  0  0  0  0  0  0
  146.6657  141.1440  155.5372 C   0  0  0  0  0  0  0  0  0  0  0  0
  145.3944  141.9454  155.3778 C   0  0  0  0  0  0  0  0  0  0  0  0
  145.9017  143.1778  154.6371 C   0  0  0  0  0  0  0  0  0  0  0  0
  146.9911  142.7284  153.8358 O   0  0  0  0  0  0  0  0  0  0  0  0
  152.2777  144.1928  158.3524 N   0  0  0  0  0  0  0  0  0  0  0  0
  153.0930  143.7617  159.4055 O   0  0  0  0  0  0  0  0  0  0  0  0
  153.5380  140.6977  160.6736 H   0  0  0  0  0  0  0  0  0  0  0  0
  153.4844  142.1944  161.6072 H   0  0  0  0  0  0  0  0  0  0  0  0
  154.8016  141.9121  160.4665 H   0  0  0  0  0  0  0  0  0  0  0  0
  151.7195  140.9152  158.5079 H   0  0  0  0  0  0  0  0  0  0  0  0
  150.2906  143.8900  156.5969 H   0  0  0  0  0  0  0  0  0  0  0  0
  149.1417  143.1818  155.1532 H   0  0  0  0  0  0  0  0  0  0  0  0
  149.3346  141.4203  153.2872 H   0  0  0  0  0  0  0  0  0  0  0  0
  149.1738  140.2679  154.5908 H   0  0  0  0  0  0  0  0  0  0  0  0
  146.9578  140.7191  153.4555 H   0  0  0  0  0  0  0  0  0  0  0  0
  146.4843  140.0852  155.7233 H   0  0  0  0  0  0  0  0  0  0  0  0
  147.2540  141.5413  156.3658 H   0  0  0  0  0  0  0  0  0  0  0  0
  144.6812  141.3997  154.7586 H   0  0  0  0  0  0  0  0  0  0  0  0
  144.9142  142.1847  156.3270 H   0  0  0  0  0  0  0  0  0  0  0  0
  145.1271  143.6495  154.0320 H   0  0  0  0  0  0  0  0  0  0  0  0
  146.2768  143.9182  155.3447 H   0  0  0  0  0  0  0  0  0  0  0  0
  1  2  1  0  0  0  0
  1 17  1  0  0  0  0
  1 18  1  0  0  0  0
  1 19  1  0  0  0  0
  2 16  1  0  0  0  0
  2  3  2  0  0  0  0
  3  4  1  0  0  0  0
  3 20  1  0  0  0  0
  4  5  1  0  0  0  0
  4 15  2  0  0  0  0
  5  6  1  0  0  0  0
  5 21  1  0  0  0  0
  6  7  2  0  0  0  0
  6  8  1  0  0  0  0
  8  9  1  0  0  0  0
  8 22  1  0  0  0  0
  9 10  1  0  0  0  0
  9 23  1  0  0  0  0
  9 24  1  0  0  0  0
 10 14  1  0  0  0  0
 10 11  1  0  0  0  0
 10 25  1  0  0  0  0
 11 12  1  0  0  0  0
 11 26  1  0  0  0  0
 11 27  1  0  0  0  0
 12 13  1  0  0  0  0
 12 28  1  0  0  0  0
 12 29  1  0  0  0  0
 13 14  1  0  0  0  0
 13 30  1  0  0  0  0
 13 31  1  0  0  0  0
 15 16  1  0  0  0  0
M  END
> <s_m_source_file>
AV-unprocessed.smi

> <i_m_source_file_index>
1759

> <i_lp_mmshare_version>
43012

> <i_f3d_flags>
0

> <s_epik_input>
W0NIM11jMVtjSF1jKG5vMSlbTkhdQyg9TylbTkhdW0NIMl1bQ0BASF0yW0NIMl1bQ0gyXVtDSDJdTzI=

> <s_epik_cmdline>
J2VwaWtfcHl0aG9uJywgJy1waCcsICc3LjAnLCAnLXRuJywgJzgnLCAnLW1hJywgJzIwMCcsICctbWV0YWxfYmluZGluZycsICctaW1hZScsICc8aW5maWxlLm1hZT4nLCAnLW9tYWUnLCAnPG91dGZpbGUubWFlPic=

> <r_lp_tautomer_probability>
1

> <r_epik_Ionization_Penalty>
2.1743e-05

> <r_epik_Ionization_Penalty_Charging>
0

> <r_epik_Ionization_Penalty_Neutral>
2.1743e-05

> <r_epik_State_Penalty>
-0

> <r_epik_Charging_Adjusted_Penalty>
0

> <i_epik_Tot_Q>
0

> <i_epik_Tot_abs_Q>
0

> <r_epik_Metal_State_Penalty>
-0

> <b_epik_Metal_Only>
0

> <s_lp_Force_Field>
OPLS_2005

> <r_lp_Energy>
14.348

> <b_lp_Chiralities_Consistent>
1

> <s_lp_Variant>
AV-unprocessed.smi:1759-2

> <Gold.Version>
5.8.1

> <Gold.Id.Protein>
6NUR|6NUR_protein|mol2

> <Gold.PLP.Fitness>
36.5138

> <Gold.PLP.PLP>
-30.9757

> <Gold.PLP.part.hbond>
-2.3871

> <Gold.PLP.part.metal>
0.0000

> <Gold.PLP.part.buried>
-4.9211

> <Gold.PLP.part.nonpolar>
-24.1876

> <Gold.PLP.part.repulsive>
0.5012

> <Gold.PLP.ligand.clash>
0.0000

> <Gold.PLP.ligand.torsion>
0.1717

> <Gold.PLP.Chemscore.Hbond>
1.9600

> <Gold.PLP.Chemscore.CHOScore>
0.0000

> <Gold.PLP.Chemscore.Metal>
0.0000

> <Gold.Chemscore.Hbonds>
donor molecule, donor type, donor heavy atom, donor atom, acceptor molecule, acceptor atom, score
      L1  H     5    21       P1  8028  0.96
      L1  H     8    22       P1  8028  1.00

> <Gold.PLP.Chemscore.Internal.Correction>
0.0015

> <Gold.Rescore>
     Score         DG    S(hbond)    S(metal)    S(lipo)     H(rot)  DE(clash)    DE(int)     intcor
     13.92     -15.39       1.96        0.00      57.16       1.30       0.02       1.45       ----

> <Gold.Chemscore.Fitness>
13.9214

> <Gold.Chemscore.DG>
-15.3863

> <Gold.Chemscore.ZeroCoef>
-5.4800

> <Gold.Chemscore.Hbond>
1.9573

> <Gold.Chemscore.Metal>
0.0000

> <Gold.Chemscore.Lipo>
57.1632

> <Gold.Chemscore.Internal_Hbond>
0.0000

> <Gold.Chemscore.DEClash>
0.0174

> <Gold.Chemscore.DEInternal>
1.4474

> <Gold.Chemscore.Rot>
1.2965

> <Gold.Chemscore.Internal.Correction>
   9.000000E+99

> <Gold.Chemscore.Hbonds>
donor molecule, donor type, donor heavy atom, donor atom, acceptor molecule, acceptor atom, score
      L1  H     5    21       P1  8028  0.92
      L1  H     8    22       P1  8028  0.99

> <Gold.Chemscore.Hbond.Weighted>
-6.5373

> <Gold.Chemscore.Metal.Weighted>
-0.0000

> <Gold.Chemscore.Lipo.Weighted>
-6.6881

> <Gold.Chemscore.Internal_Hbond.Weighted>
0.0000

> <Gold.Chemscore.DEClash.Weighted>
0.0174

> <Gold.Chemscore.DEInternal.Weighted>
1.4474

> <Gold.Chemscore.Rot.Weighted>
3.3192

> <Gold.Chemscore.Internal.Correction.Weighted>
   9.000000E+99

> <Gold.Protein.RotatedTorsions>
[ 6907 6896 6895 6894 ] final    5.73 input  -60.11 | X-H torsion
[ 7974 7965 7964 7962 ] final  -72.34 input  175.53 | X-H torsion
[ 8008 7997 7996 7995 ] final  -44.20 input   59.86 | X-H torsion
[ 10167 10162 10161 10158 ] final  113.67 input  -65.29 | X-H torsion
[ 10718 10713 10712 10709 ] final -141.19 input   66.30 | X-H torsion
[ 10763 10752 10751 10750 ] final  168.34 input  -60.55 | X-H torsion
[ 11005 11000 10999 10996 ] final -117.12 input  -57.11 | X-H torsion

> <Gold.Protein.ActiveResidues>
 VAL166  LYS551  ARG553  GLY616  TRP617  ASP618  TYR619  PRO620  LYS621  CYS622 
 ASP623  PHE694  ASN695  SER759  ASP760  ASP761  ALA762  ILE779  LEU786  VAL792 
 PHE793  MET794  SER795  GLU796  ALA797  LYS798  CYS799  TRP800  GLU811  SER814 

> <Gold.Protein.RotatedAtoms>
  151.6622  135.0988  160.0181 H   0  0  0  0  0  0  0  0  0  0  0  0  # atno 6907 bound_to 6896
  152.3940  133.6716  159.6269 H   0  0  0  0  0  0  0  0  0  0  0  0  # atno 6908 bound_to 6896
  150.7850  133.8822  159.3330 H   0  0  0  0  0  0  0  0  0  0  0  0  # atno 6909 bound_to 6896
  145.6664  140.9236  143.0906 H   0  0  0  0  0  0  0  0  0  0  0  0  # atno 7974 bound_to 7965
  154.3997  140.1428  156.3644 H   0  0  0  0  0  0  0  0  0  0  0  0  # atno 8008 bound_to 7997
  155.8151  140.3471  155.5460 H   0  0  0  0  0  0  0  0  0  0  0  0  # atno 8009 bound_to 7997
  155.8346  140.0917  157.1762 H   0  0  0  0  0  0  0  0  0  0  0  0  # atno 8010 bound_to 7997
  139.6444  144.7126  151.2172 H   0  0  0  0  0  0  0  0  0  0  0  0  # atno 10167 bound_to 10162
  156.3311  130.7586  151.1704 H   0  0  0  0  0  0  0  0  0  0  0  0  # atno 10718 bound_to 10713
  154.3672  135.2753  155.2287 H   0  0  0  0  0  0  0  0  0  0  0  0  # atno 10763 bound_to 10752
  154.4450  135.5945  153.6157 H   0  0  0  0  0  0  0  0  0  0  0  0  # atno 10764 bound_to 10752
  152.9840  135.6028  154.3899 H   0  0  0  0  0  0  0  0  0  0  0  0  # atno 10765 bound_to 10752
  141.0376  133.9885  157.3046 H   0  0  0  0  0  0  0  0  0  0  0  0  # atno 11005 bound_to 11000
  144.7071  139.8515  143.7426 LP  0  0  0  0  0  0  0  0  0  0  0  0  # atno 17320 bound_to 7965
  146.1082  139.4084  143.0304 LP  0  0  0  0  0  0  0  0  0  0  0  0  # atno 17321 bound_to 7965
  140.7507  143.6256  150.8471 LP  0  0  0  0  0  0  0  0  0  0  0  0  # atno 17342 bound_to 10162
  139.9897  143.5860  152.2914 LP  0  0  0  0  0  0  0  0  0  0  0  0  # atno 17343 bound_to 10162
  157.7430  131.0481  150.4978 LP  0  0  0  0  0  0  0  0  0  0  0  0  # atno 17370 bound_to 10713
  156.5144  130.4147  149.6284 LP  0  0  0  0  0  0  0  0  0  0  0  0  # atno 17371 bound_to 10713
  139.9252  135.0201  156.8208 LP  0  0  0  0  0  0  0  0  0  0  0  0  # atno 17394 bound_to 11000
  140.6294  133.9920  155.7654 LP  0  0  0  0  0  0  0  0  0  0  0  0  # atno 17395 bound_to 11000

$$$$
