AV-unprocessed.smi:1228|AV-procd|sdf|5148|dock4
  -GOLD-   22720 4213D 1   1.00000     0.00000
 Structure written by MMmdl.
 44 46  0  0  0  0  0  0  0  0  2 V2000
  153.5072  141.9707  161.5841 C   0  0  0  0  0  0  0  0  0  0  0  0
  152.7916  141.9766  160.2658 C   0  0  0  0  0  0  0  0  0  0  0  0
  152.4327  140.8589  159.4575 C   0  0  0  0  0  0  0  0  0  0  0  0
  151.8118  141.4469  158.3895 C   0  0  0  0  0  0  0  0  0  0  0  0
  151.2545  140.8624  157.2957 N   0  0  0  0  0  0  0  0  0  0  0  0
  150.0304  141.0537  156.7735 C   0  0  0  0  0  0  0  0  0  0  0  0
  149.1692  141.8075  157.2272 O   0  0  0  0  0  0  0  0  0  0  0  0
  149.8489  140.3047  155.6757 N   0  0  0  0  0  0  0  0  0  0  0  0
  148.6329  140.2820  154.8676 C   0  0  2  0  0  0  0  0  0  0  0  0
  148.4964  141.5761  154.0438 C   0  0  0  0  0  0  0  0  0  0  0  0
  147.1673  141.6031  153.2656 C   0  0  0  0  0  0  0  0  0  0  0  0
  145.9931  141.4109  154.1551 N   0  3  2  0  0  0  0  0  0  0  0  0
  145.6692  142.6078  154.9663 C   0  0  0  0  0  0  0  0  0  0  0  0
  144.1861  142.8556  155.1134 C   0  0  0  0  0  0  0  0  0  0  0  0
  145.0076  143.7141  154.1780 C   0  0  0  0  0  0  0  0  0  0  0  0
  146.0979  140.1656  154.9590 C   0  0  0  0  0  0  0  0  0  0  0  0
  147.4035  140.1091  155.7747 C   0  0  0  0  0  0  0  0  0  0  0  0
  151.8104  142.8119  158.5718 N   0  0  0  0  0  0  0  0  0  0  0  0
  151.2713  143.8540  157.7201 C   0  0  0  0  0  0  0  0  0  0  0  0
  152.4197  143.1352  159.7330 N   0  0  0  0  0  0  0  0  0  0  0  0
  153.6323  140.9549  161.9598 H   0  0  0  0  0  0  0  0  0  0  0  0
  152.9546  142.5356  162.3353 H   0  0  0  0  0  0  0  0  0  0  0  0
  154.4984  142.4152  161.4933 H   0  0  0  0  0  0  0  0  0  0  0  0
  152.6096  139.8114  159.6498 H   0  0  0  0  0  0  0  0  0  0  0  0
  151.8437  140.1957  156.8195 H   0  0  0  0  0  0  0  0  0  0  0  0
  150.6089  139.7122  155.3742 H   0  0  0  0  0  0  0  0  0  0  0  0
  148.6734  139.4302  154.1858 H   0  0  0  0  0  0  0  0  0  0  0  0
  148.5586  142.4446  154.7008 H   0  0  0  0  0  0  0  0  0  0  0  0
  149.3279  141.6653  153.3436 H   0  0  0  0  0  0  0  0  0  0  0  0
  147.0680  142.5389  152.7144 H   0  0  0  0  0  0  0  0  0  0  0  0
  147.1668  140.8070  152.5200 H   0  0  0  0  0  0  0  0  0  0  0  0
  146.3490  142.8485  155.7811 H   0  0  0  0  0  0  0  0  0  0  0  0
  143.4964  142.1429  154.6644 H   0  0  0  0  0  0  0  0  0  0  0  0
  143.8424  143.3144  156.0383 H   0  0  0  0  0  0  0  0  0  0  0  0
  145.2065  144.7382  154.4870 H   0  0  0  0  0  0  0  0  0  0  0  0
  144.8619  143.5714  153.1087 H   0  0  0  0  0  0  0  0  0  0  0  0
  145.2336  140.0728  155.6176 H   0  0  0  0  0  0  0  0  0  0  0  0
  146.0577  139.3137  154.2788 H   0  0  0  0  0  0  0  0  0  0  0  0
  147.4623  139.1566  156.3027 H   0  0  0  0  0  0  0  0  0  0  0  0
  147.3929  140.8830  156.5435 H   0  0  0  0  0  0  0  0  0  0  0  0
  151.7604  143.8201  156.7463 H   0  0  0  0  0  0  0  0  0  0  0  0
  151.4352  144.8368  158.1645 H   0  0  0  0  0  0  0  0  0  0  0  0
  150.1999  143.7010  157.5873 H   0  0  0  0  0  0  0  0  0  0  0  0
  145.1984  141.2828  153.5447 H   0  0  0  0  0  0  0  0  0  0  0  0
  1  2  1  0  0  0  0
  1 21  1  0  0  0  0
  1 22  1  0  0  0  0
  1 23  1  0  0  0  0
  2 20  2  0  0  0  0
  2  3  1  0  0  0  0
  3  4  2  0  0  0  0
  3 24  1  0  0  0  0
  4  5  1  0  0  0  0
  4 18  1  0  0  0  0
  5  6  1  0  0  0  0
  5 25  1  0  0  0  0
  6  7  2  0  0  0  0
  6  8  1  0  0  0  0
  8  9  1  0  0  0  0
  8 26  1  0  0  0  0
  9 17  1  0  0  0  0
  9 10  1  0  0  0  0
  9 27  1  0  0  0  0
 10 11  1  0  0  0  0
 10 28  1  0  0  0  0
 10 29  1  0  0  0  0
 11 12  1  0  0  0  0
 11 30  1  0  0  0  0
 11 31  1  0  0  0  0
 12 13  1  0  0  0  0
 12 16  1  0  0  0  0
 12 44  1  0  0  0  0
 13 15  1  0  0  0  0
 13 14  1  0  0  0  0
 13 32  1  0  0  0  0
 14 15  1  0  0  0  0
 14 33  1  0  0  0  0
 14 34  1  0  0  0  0
 15 35  1  0  0  0  0
 15 36  1  0  0  0  0
 16 17  1  0  0  0  0
 16 37  1  0  0  0  0
 16 38  1  0  0  0  0
 17 39  1  0  0  0  0
 17 40  1  0  0  0  0
 18 19  1  0  0  0  0
 18 20  1  0  0  0  0
 19 41  1  0  0  0  0
 19 42  1  0  0  0  0
 19 43  1  0  0  0  0
M  CHG  1  12   1
M  END
> <s_m_source_file>
AV-unprocessed.smi

> <i_m_source_file_index>
1228

> <i_lp_mmshare_version>
43012

> <i_f3d_flags>
0

> <s_epik_input>
W0NIM11jMVtjSF1jKG4objEpW0NIM10pW05IXUMoPU8pW05IXVtDSF0yW0NIMl1bQ0gyXU4oW0NIMl1bQ0gyXTIpW0NIXTNbQ0gyXVtDSDJdMw==

> <s_epik_cmdline>
J2VwaWtfcHl0aG9uJywgJy1waCcsICc3LjAnLCAnLXRuJywgJzgnLCAnLW1hJywgJzIwMCcsICctbWV0YWxfYmluZGluZycsICctaW1hZScsICc8aW5maWxlLm1hZT4nLCAnLW9tYWUnLCAnPG91dGZpbGUubWFlPic=

> <r_lp_tautomer_probability>
1

> <r_epik_Ionization_Penalty>
0.11882

> <r_epik_Ionization_Penalty_Charging>
0.11874

> <r_epik_Ionization_Penalty_Neutral>
8.03064e-05

> <r_epik_State_Penalty>
0.108313

> <r_epik_Charging_Adjusted_Penalty>
0.227053

> <i_epik_Tot_Q>
1

> <i_epik_Tot_abs_Q>
1

> <r_epik_Metal_State_Penalty>
0.108316

> <b_epik_Metal_Only>
0

> <s_lp_Force_Field>
OPLS_2005

> <r_lp_Energy>
29.8379

> <b_lp_Chiralities_Consistent>
1

> <s_lp_Variant>
AV-unprocessed.smi:1228-2

> <Gold.Version>
5.8.1

> <Gold.Id.Protein>
6NUR|6NUR_protein|mol2

> <Gold.PLP.Fitness>
40.2037

> <Gold.PLP.PLP>
-35.4285

> <Gold.PLP.part.hbond>
-1.0000

> <Gold.PLP.part.metal>
0.0000

> <Gold.PLP.part.buried>
-6.0641

> <Gold.PLP.part.nonpolar>
-29.0991

> <Gold.PLP.part.repulsive>
0.2566

> <Gold.PLP.ligand.clash>
0.0000

> <Gold.PLP.ligand.torsion>
1.2188

> <Gold.PLP.Chemscore.Hbond>
1.9825

> <Gold.PLP.Chemscore.CHOScore>
0.0000

> <Gold.PLP.Chemscore.Metal>
0.0000

> <Gold.Chemscore.Hbonds>
donor molecule, donor type, donor heavy atom, donor atom, acceptor molecule, acceptor atom, score
      L1  H    12    44       P1 10175  2.00

> <Gold.PLP.Chemscore.Internal.Correction>
1.2653

> <Gold.Rescore>
     Score         DG    S(hbond)    S(metal)    S(lipo)     H(rot)  DE(clash)    DE(int)     intcor
     10.88     -14.66       0.91        0.00      78.84       1.21       0.19       3.59       ----

> <Gold.Chemscore.Fitness>
10.8785

> <Gold.Chemscore.DG>
-14.6574

> <Gold.Chemscore.ZeroCoef>
-5.4800

> <Gold.Chemscore.Hbond>
0.9131

> <Gold.Chemscore.Metal>
0.0000

> <Gold.Chemscore.Lipo>
78.8433

> <Gold.Chemscore.Internal_Hbond>
0.0000

> <Gold.Chemscore.DEClash>
0.1914

> <Gold.Chemscore.DEInternal>
3.5875

> <Gold.Chemscore.Rot>
1.2097

> <Gold.Chemscore.Internal.Correction>
   9.000000E+99

> <Gold.Chemscore.Hbonds>
donor molecule, donor type, donor heavy atom, donor atom, acceptor molecule, acceptor atom, score
      L1  H    12    44       P1 10175  0.29

> <Gold.Chemscore.Hbond.Weighted>
-3.0496

> <Gold.Chemscore.Metal.Weighted>
-0.0000

> <Gold.Chemscore.Lipo.Weighted>
-9.2247

> <Gold.Chemscore.Internal_Hbond.Weighted>
0.0000

> <Gold.Chemscore.DEClash.Weighted>
0.1914

> <Gold.Chemscore.DEInternal.Weighted>
3.5875

> <Gold.Chemscore.Rot.Weighted>
3.0969

> <Gold.Chemscore.Internal.Correction.Weighted>
   9.000000E+99

> <Gold.Protein.RotatedTorsions>
[ 6907 6896 6895 6894 ] final   39.85 input  -60.11 | X-H torsion
[ 7974 7965 7964 7962 ] final  -22.02 input  175.53 | X-H torsion
[ 8008 7997 7996 7995 ] final  157.19 input   59.86 | X-H torsion
[ 10167 10162 10161 10158 ] final   83.46 input  -65.29 | X-H torsion
[ 10718 10713 10712 10709 ] final -166.39 input   66.30 | X-H torsion
[ 10763 10752 10751 10750 ] final  107.10 input  -60.55 | X-H torsion
[ 11005 11000 10999 10996 ] final   -6.24 input  -57.11 | X-H torsion

> <Gold.Protein.ActiveResidues>
 VAL166  LYS551  ARG553  GLY616  TRP617  ASP618  TYR619  PRO620  LYS621  CYS622 
 ASP623  PHE694  ASN695  SER759  ASP760  ASP761  ALA762  ILE779  LEU786  VAL792 
 PHE793  MET794  SER795  GLU796  ALA797  LYS798  CYS799  TRP800  GLU811  SER814 

> <Gold.Protein.RotatedAtoms>
  152.1749  134.8803  160.0531 H   0  0  0  0  0  0  0  0  0  0  0  0  # atno 6907 bound_to 6896
  151.9749  133.3733  159.4093 H   0  0  0  0  0  0  0  0  0  0  0  0  # atno 6908 bound_to 6896
  150.6908  134.4024  159.5168 H   0  0  0  0  0  0  0  0  0  0  0  0  # atno 6909 bound_to 6896
  146.1699  140.4422  142.8536 H   0  0  0  0  0  0  0  0  0  0  0  0  # atno 7974 bound_to 7965
  156.2378  140.1892  156.7071 H   0  0  0  0  0  0  0  0  0  0  0  0  # atno 8008 bound_to 7997
  154.6140  140.0618  156.9557 H   0  0  0  0  0  0  0  0  0  0  0  0  # atno 8009 bound_to 7997
  155.1970  140.3289  155.4352 H   0  0  0  0  0  0  0  0  0  0  0  0  # atno 8010 bound_to 7997
  139.9182  144.6229  150.8467 H   0  0  0  0  0  0  0  0  0  0  0  0  # atno 10167 bound_to 10162
  156.6672  130.9070  151.3038 H   0  0  0  0  0  0  0  0  0  0  0  0  # atno 10718 bound_to 10713
  153.4021  135.3855  155.1994 H   0  0  0  0  0  0  0  0  0  0  0  0  # atno 10763 bound_to 10752
  154.8730  135.3774  154.4606 H   0  0  0  0  0  0  0  0  0  0  0  0  # atno 10764 bound_to 10752
  153.5104  135.7087  153.5846 H   0  0  0  0  0  0  0  0  0  0  0  0  # atno 10765 bound_to 10752
  140.6999  133.8999  155.8676 H   0  0  0  0  0  0  0  0  0  0  0  0  # atno 11005 bound_to 11000
  144.8148  140.6449  143.6391 LP  0  0  0  0  0  0  0  0  0  0  0  0  # atno 17320 bound_to 7965
  145.4367  139.1541  143.3993 LP  0  0  0  0  0  0  0  0  0  0  0  0  # atno 17321 bound_to 7965
  140.7669  143.3316  151.2398 LP  0  0  0  0  0  0  0  0  0  0  0  0  # atno 17342 bound_to 10162
  139.6884  143.9734  152.2846 LP  0  0  0  0  0  0  0  0  0  0  0  0  # atno 17343 bound_to 10162
  157.7089  130.9417  150.1024 LP  0  0  0  0  0  0  0  0  0  0  0  0  # atno 17370 bound_to 10713
  156.1966  130.3657  149.8842 LP  0  0  0  0  0  0  0  0  0  0  0  0  # atno 17371 bound_to 10713
  141.0172  134.0939  157.4159 LP  0  0  0  0  0  0  0  0  0  0  0  0  # atno 17394 bound_to 11000
  139.8900  135.0109  156.6709 LP  0  0  0  0  0  0  0  0  0  0  0  0  # atno 17395 bound_to 11000

$$$$
