AV-unprocessed.smi:2148|AV-procd|sdf|8748|dock7
  -GOLD-   2272011523D 1   1.00000     0.00000
 Structure written by MMmdl.
 44 45  0  0  0  0  0  0  0  0  1 V2000
  155.3195  142.3519  168.3615 C   0  0  0  0  0  0  0  0  0  0  0  0
  155.7956  140.6388  168.0035 S   0  0  0  0  0  0  0  0  0  0  0  0
  156.6710  140.8435  166.4231 C   0  0  2  0  0  0  0  0  0  0  0  0
  158.0433  141.4949  166.6575 C   0  0  0  0  0  0  0  0  0  0  0  0
  155.8399  141.6380  165.4068 C   0  0  0  0  0  0  0  0  0  0  0  0
  155.5382  142.8078  165.6435 O   0  0  0  0  0  0  0  0  0  0  0  0
  155.4650  140.9632  164.3040 N   0  0  0  0  0  0  0  0  0  0  0  0
  154.6715  141.4178  163.2173 C   0  0  0  0  0  0  0  0  0  0  0  0
  153.9618  142.6239  163.3741 C   0  0  0  0  0  0  0  0  0  0  0  0
  153.1635  143.0952  162.3152 C   0  0  0  0  0  0  0  0  0  0  0  0
  153.0862  142.3405  161.1217 C   0  0  0  0  0  0  0  0  0  0  0  0
  152.3056  142.8061  160.0425 N   0  0  0  0  0  0  0  0  0  0  0  0
  152.5572  144.1891  159.6472 C   0  0  0  0  0  0  0  0  0  0  0  0
  151.4623  144.7004  158.6905 C   0  0  2  0  0  0  0  0  0  0  0  0
  150.1342  145.0235  159.3984 C   0  0  0  0  0  0  0  0  0  0  0  0
  151.2888  143.7879  157.6042 O   0  0  0  0  0  0  0  0  0  0  0  0
  150.9895  142.4476  157.9918 C   0  0  1  0  0  0  0  0  0  0  0  0
  150.8414  141.6093  156.7181 C   0  0  0  0  0  0  0  0  0  0  0  0
  152.1071  141.9125  158.9048 C   0  0  0  0  0  0  0  0  0  0  0  0
  153.7464  141.1647  160.9817 N   0  0  0  0  0  0  0  0  0  0  0  0
  154.5138  140.7175  161.9982 C   0  0  0  0  0  0  0  0  0  0  0  0
  154.7209  142.3897  169.2715 H   0  0  0  0  0  0  0  0  0  0  0  0
  154.7292  142.7633  167.5428 H   0  0  0  0  0  0  0  0  0  0  0  0
  156.2004  142.9771  168.5067 H   0  0  0  0  0  0  0  0  0  0  0  0
  156.8499  139.8447  166.0219 H   0  0  0  0  0  0  0  0  0  0  0  0
  158.5776  141.6461  165.7189 H   0  0  0  0  0  0  0  0  0  0  0  0
  158.6676  140.8638  167.2905 H   0  0  0  0  0  0  0  0  0  0  0  0
  157.9505  142.4638  167.1499 H   0  0  0  0  0  0  0  0  0  0  0  0
  155.7123  139.9846  164.2808 H   0  0  0  0  0  0  0  0  0  0  0  0
  154.0304  143.1885  164.2927 H   0  0  0  0  0  0  0  0  0  0  0  0
  152.6148  144.0182  162.4311 H   0  0  0  0  0  0  0  0  0  0  0  0
  152.6260  144.8537  160.5076 H   0  0  0  0  0  0  0  0  0  0  0  0
  153.5254  144.2272  159.1460 H   0  0  0  0  0  0  0  0  0  0  0  0
  151.8174  145.6320  158.2491 H   0  0  0  0  0  0  0  0  0  0  0  0
  150.2726  145.8203  160.1294 H   0  0  0  0  0  0  0  0  0  0  0  0
  149.7291  144.1641  159.9318 H   0  0  0  0  0  0  0  0  0  0  0  0
  149.3831  145.3590  158.6831 H   0  0  0  0  0  0  0  0  0  0  0  0
  150.0387  142.4226  158.5243 H   0  0  0  0  0  0  0  0  0  0  0  0
  150.6003  140.5729  156.9558 H   0  0  0  0  0  0  0  0  0  0  0  0
  151.7614  141.6144  156.1330 H   0  0  0  0  0  0  0  0  0  0  0  0
  150.0432  142.0001  156.0865 H   0  0  0  0  0  0  0  0  0  0  0  0
  153.0416  141.8279  158.3480 H   0  0  0  0  0  0  0  0  0  0  0  0
  151.8425  140.9131  159.2531 H   0  0  0  0  0  0  0  0  0  0  0  0
  154.9907  139.7663  161.8197 H   0  0  0  0  0  0  0  0  0  0  0  0
  1  2  1  0  0  0  0
  1 22  1  0  0  0  0
  1 23  1  0  0  0  0
  1 24  1  0  0  0  0
  2  3  1  0  0  0  0
  3  4  1  0  0  0  0
  3  5  1  0  0  0  0
  3 25  1  0  0  0  0
  4 26  1  0  0  0  0
  4 27  1  0  0  0  0
  4 28  1  0  0  0  0
  5  6  2  0  0  0  0
  5  7  1  0  0  0  0
  7  8  1  0  0  0  0
  7 29  1  0  0  0  0
  8 21  1  0  0  0  0
  8  9  2  0  0  0  0
  9 10  1  0  0  0  0
  9 30  1  0  0  0  0
 10 11  2  0  0  0  0
 10 31  1  0  0  0  0
 11 12  1  0  0  0  0
 11 20  1  0  0  0  0
 12 19  1  0  0  0  0
 12 13  1  0  0  0  0
 13 14  1  0  0  0  0
 13 32  1  0  0  0  0
 13 33  1  0  0  0  0
 14 15  1  0  0  0  0
 14 16  1  0  0  0  0
 14 34  1  0  0  0  0
 15 35  1  0  0  0  0
 15 36  1  0  0  0  0
 15 37  1  0  0  0  0
 16 17  1  0  0  0  0
 17 18  1  0  0  0  0
 17 19  1  0  0  0  0
 17 38  1  0  0  0  0
 18 39  1  0  0  0  0
 18 40  1  0  0  0  0
 18 41  1  0  0  0  0
 19 42  1  0  0  0  0
 19 43  1  0  0  0  0
 20 21  2  0  0  0  0
 21 44  1  0  0  0  0
M  END
> <s_m_source_file>
AV-unprocessed.smi

> <i_m_source_file_index>
2148

> <i_lp_mmshare_version>
43012

> <i_f3d_flags>
0

> <s_epik_input>
W0NIM11TW0NASF0oW0NIM10pQyg9TylbTkhdYzFbY0hdW2NIXWMobltjSF0xKU4yW0NIMl1bQ0BASF0oW0NIM10pT1tDQEBIXShbQ0gzXSlbQ0gyXTI=

> <s_epik_cmdline>
J2VwaWtfcHl0aG9uJywgJy1waCcsICc3LjAnLCAnLXRuJywgJzgnLCAnLW1hJywgJzIwMCcsICctbWV0YWxfYmluZGluZycsICctaW1hZScsICc8aW5maWxlLm1hZT4nLCAnLW9tYWUnLCAnPG91dGZpbGUubWFlPic=

> <r_lp_tautomer_probability>
1

> <r_epik_Ionization_Penalty>
0.000646494

> <r_epik_Ionization_Penalty_Charging>
0

> <r_epik_Ionization_Penalty_Neutral>
0.000646494

> <r_epik_State_Penalty>
0.000408447

> <r_epik_Charging_Adjusted_Penalty>
0.000408447

> <i_epik_Tot_Q>
0

> <i_epik_Tot_abs_Q>
0

> <r_epik_Metal_State_Penalty>
-0

> <b_epik_Metal_Only>
0

> <s_lp_Force_Field>
OPLS_2005

> <r_lp_Energy>
25.6211

> <b_lp_Chiralities_Consistent>
1

> <s_lp_Variant>
AV-unprocessed.smi:2148-3

> <Gold.Version>
5.8.1

> <Gold.Id.Protein>
6NUR|6NUR_protein|mol2

> <Gold.PLP.Fitness>
42.2752

> <Gold.PLP.PLP>
-42.4631

> <Gold.PLP.part.hbond>
-0.1791

> <Gold.PLP.part.metal>
0.0000

> <Gold.PLP.part.buried>
-4.1944

> <Gold.PLP.part.nonpolar>
-36.8512

> <Gold.PLP.part.repulsive>
0.1744

> <Gold.PLP.ligand.clash>
0.0000

> <Gold.PLP.ligand.torsion>
0.2649

> <Gold.PLP.Chemscore.Hbond>
0.0000

> <Gold.PLP.Chemscore.CHOScore>
0.0000

> <Gold.PLP.Chemscore.Metal>
0.0000

> <Gold.PLP.Chemscore.Internal.Correction>
0.3420

> <Gold.Rescore>
     Score         DG    S(hbond)    S(metal)    S(lipo)     H(rot)  DE(clash)    DE(int)     intcor
     12.37     -15.92       0.00        0.00     116.93       1.27       0.38       3.18       ----

> <Gold.Chemscore.Fitness>
12.3685

> <Gold.Chemscore.DG>
-15.9201

> <Gold.Chemscore.ZeroCoef>
-5.4800

> <Gold.Chemscore.Hbond>
0.0000

> <Gold.Chemscore.Metal>
0.0000

> <Gold.Chemscore.Lipo>
116.9285

> <Gold.Chemscore.Internal_Hbond>
0.0000

> <Gold.Chemscore.DEClash>
0.3760

> <Gold.Chemscore.DEInternal>
3.1756

> <Gold.Chemscore.Rot>
1.2659

> <Gold.Chemscore.Internal.Correction>
   9.000000E+99

> <Gold.Chemscore.Hbond.Weighted>
-0.0000

> <Gold.Chemscore.Metal.Weighted>
-0.0000

> <Gold.Chemscore.Lipo.Weighted>
-13.6806

> <Gold.Chemscore.Internal_Hbond.Weighted>
0.0000

> <Gold.Chemscore.DEClash.Weighted>
0.3760

> <Gold.Chemscore.DEInternal.Weighted>
3.1756

> <Gold.Chemscore.Rot.Weighted>
3.2406

> <Gold.Chemscore.Internal.Correction.Weighted>
   9.000000E+99

> <Gold.Protein.RotatedTorsions>
[ 6907 6896 6895 6894 ] final   91.24 input  -60.11 | X-H torsion
[ 7974 7965 7964 7962 ] final   44.71 input  175.53 | X-H torsion
[ 8008 7997 7996 7995 ] final   40.14 input   59.86 | X-H torsion
[ 10167 10162 10161 10158 ] final   48.58 input  -65.29 | X-H torsion
[ 10718 10713 10712 10709 ] final  168.15 input   66.30 | X-H torsion
[ 10763 10752 10751 10750 ] final  135.79 input  -60.55 | X-H torsion
[ 11005 11000 10999 10996 ] final -162.52 input  -57.11 | X-H torsion

> <Gold.Protein.ActiveResidues>
 VAL166  LYS551  ARG553  GLY616  TRP617  ASP618  TYR619  PRO620  LYS621  CYS622 
 ASP623  PHE694  ASN695  SER759  ASP760  ASP761  ALA762  ILE779  LEU786  VAL792 
 PHE793  MET794  SER795  GLU796  ALA797  LYS798  CYS799  TRP800  GLU811  SER814 

> <Gold.Protein.RotatedAtoms>
  152.5449  134.1687  159.8587 H   0  0  0  0  0  0  0  0  0  0  0  0  # atno 6907 bound_to 6896
  151.1699  133.4784  159.2601 H   0  0  0  0  0  0  0  0  0  0  0  0  # atno 6908 bound_to 6896
  151.1286  135.0129  159.8627 H   0  0  0  0  0  0  0  0  0  0  0  0  # atno 6909 bound_to 6896
  146.0544  139.5044  142.9697 H   0  0  0  0  0  0  0  0  0  0  0  0  # atno 7974 bound_to 7965
  155.2481  140.3350  155.4285 H   0  0  0  0  0  0  0  0  0  0  0  0  # atno 8008 bound_to 7997
  156.2227  140.1816  156.7482 H   0  0  0  0  0  0  0  0  0  0  0  0  # atno 8009 bound_to 7997
  154.5850  140.0647  156.9144 H   0  0  0  0  0  0  0  0  0  0  0  0  # atno 8010 bound_to 7997
  140.2918  144.3037  150.6239 H   0  0  0  0  0  0  0  0  0  0  0  0  # atno 10167 bound_to 10162
  157.0413  131.0287  151.2712 H   0  0  0  0  0  0  0  0  0  0  0  0  # atno 10718 bound_to 10713
  153.8458  135.3085  155.3429 H   0  0  0  0  0  0  0  0  0  0  0  0  # atno 10763 bound_to 10752
  154.7913  135.4781  154.0062 H   0  0  0  0  0  0  0  0  0  0  0  0  # atno 10764 bound_to 10752
  153.1548  135.6850  153.8921 H   0  0  0  0  0  0  0  0  0  0  0  0  # atno 10765 bound_to 10752
  140.6083  134.4876  157.5213 H   0  0  0  0  0  0  0  0  0  0  0  0  # atno 11005 bound_to 11000
  145.6668  141.0226  143.1679 LP  0  0  0  0  0  0  0  0  0  0  0  0  # atno 17320 bound_to 7965
  144.7140  139.8264  143.7405 LP  0  0  0  0  0  0  0  0  0  0  0  0  # atno 17321 bound_to 7965
  140.5726  143.2179  151.7572 LP  0  0  0  0  0  0  0  0  0  0  0  0  # atno 17342 bound_to 10162
  139.4936  144.4195  151.9993 LP  0  0  0  0  0  0  0  0  0  0  0  0  # atno 17343 bound_to 10162
  157.5102  130.7934  149.7697 LP  0  0  0  0  0  0  0  0  0  0  0  0  # atno 17370 bound_to 10713
  156.0037  130.3866  150.2510 LP  0  0  0  0  0  0  0  0  0  0  0  0  # atno 17371 bound_to 10713
  139.9203  134.8162  156.1233 LP  0  0  0  0  0  0  0  0  0  0  0  0  # atno 17394 bound_to 11000
  141.0825  133.6748  156.2367 LP  0  0  0  0  0  0  0  0  0  0  0  0  # atno 17395 bound_to 11000

$$$$
