AV-unprocessed.smi:157|AV-procd|sdf|1300|dock4
  -GOLD-   2262018583D 1   1.00000     0.00000
 Structure written by MMmdl.
 35 37  0  0  0  0  0  0  0  0  1 V2000
  151.3819  143.6287  161.4979 O   0  0  0  0  0  0  0  0  0  0  0  0
  152.5330  142.8129  161.4403 C   0  0  0  0  0  0  0  0  0  0  0  0
  152.6572  142.1465  160.0611 C   0  0  2  0  0  0  0  0  0  0  0  0
  151.3554  141.8197  159.5779 O   0  0  0  0  0  0  0  0  0  0  0  0
  151.3757  140.5891  158.9165 C   0  0  1  0  0  0  0  0  0  0  0  0
  150.8059  140.7732  157.5443 N   0  0  0  0  0  0  0  0  0  0  0  0
  151.4462  140.5607  156.3868 C   0  0  0  0  0  0  0  0  0  0  0  0
  150.7184  140.7871  155.3065 N   0  0  0  0  0  0  0  0  0  0  0  0
  149.4823  141.1866  155.8117 C   0  0  0  0  0  0  0  0  0  0  0  0
  149.5144  141.1831  157.1991 C   0  0  0  0  0  0  0  0  0  0  0  0
  148.6188  141.4570  158.2151 N   0  0  0  0  0  0  0  0  0  0  0  0
  147.5724  142.1654  157.9281 C   0  0  0  0  0  0  0  0  0  0  0  0
  147.1230  142.6438  156.7057 N   0  0  0  0  0  0  0  0  0  0  0  0
  147.0134  141.8138  155.5181 C   0  0  0  0  0  0  0  0  0  0  0  0
  148.3636  141.5022  154.8608 C   0  0  1  0  0  0  0  0  0  0  0  0
  148.7752  142.6149  154.0934 O   0  0  0  0  0  0  0  0  0  0  0  0
  152.8341  140.1451  158.8297 C   0  0  0  0  0  0  0  0  0  0  0  0
  153.4125  140.8123  160.0578 C   0  0  1  0  0  0  0  0  0  0  0  0
  154.8087  140.9802  159.9232 O   0  0  0  0  0  0  0  0  0  0  0  0
  153.1022  142.8351  159.3403 H   0  0  0  0  0  0  0  0  0  0  0  0
  150.7263  139.8819  159.4328 H   0  0  0  0  0  0  0  0  0  0  0  0
  148.2250  140.6739  154.1654 H   0  0  0  0  0  0  0  0  0  0  0  0
  153.1819  140.2284  160.9501 H   0  0  0  0  0  0  0  0  0  0  0  0
  151.0663  143.7646  160.6176 H   0  0  0  0  0  0  0  0  0  0  0  0
  153.4176  143.4083  161.6684 H   0  0  0  0  0  0  0  0  0  0  0  0
  152.4497  142.0508  162.2156 H   0  0  0  0  0  0  0  0  0  0  0  0
  152.4720  140.2264  156.3350 H   0  0  0  0  0  0  0  0  0  0  0  0
  146.9025  142.4520  158.7399 H   0  0  0  0  0  0  0  0  0  0  0  0
  146.4300  143.3784  156.7024 H   0  0  0  0  0  0  0  0  0  0  0  0
  146.5461  140.8761  155.8220 H   0  0  0  0  0  0  0  0  0  0  0  0
  146.3313  142.2755  154.8035 H   0  0  0  0  0  0  0  0  0  0  0  0
  148.7065  143.3872  154.6340 H   0  0  0  0  0  0  0  0  0  0  0  0
  152.9202  139.0581  158.8297 H   0  0  0  0  0  0  0  0  0  0  0  0
  153.2883  140.5424  157.9196 H   0  0  0  0  0  0  0  0  0  0  0  0
  155.0010  141.9057  159.9425 H   0  0  0  0  0  0  0  0  0  0  0  0
  1  2  1  0  0  0  0
  1 24  1  0  0  0  0
  2  3  1  0  0  0  0
  2 25  1  0  0  0  0
  2 26  1  0  0  0  0
  3 20  1  0  0  0  0
  3 18  1  0  0  0  0
  3  4  1  0  0  0  0
  4  5  1  0  0  0  0
  5 21  1  0  0  0  0
  5  6  1  0  0  0  0
  5 17  1  0  0  0  0
  6 10  1  0  0  0  0
  6  7  1  0  0  0  0
  7  8  2  0  0  0  0
  7 27  1  0  0  0  0
  8  9  1  0  0  0  0
  9 15  1  0  0  0  0
  9 10  2  0  0  0  0
 10 11  1  0  0  0  0
 11 12  2  0  0  0  0
 12 13  1  0  0  0  0
 12 28  1  0  0  0  0
 13 14  1  0  0  0  0
 13 29  1  0  0  0  0
 14 15  1  0  0  0  0
 14 30  1  0  0  0  0
 14 31  1  0  0  0  0
 15 22  1  0  0  0  0
 15 16  1  0  0  0  0
 16 32  1  0  0  0  0
 17 18  1  0  0  0  0
 17 33  1  0  0  0  0
 17 34  1  0  0  0  0
 18 23  1  0  0  0  0
 18 19  1  0  0  0  0
 19 35  1  0  0  0  0
M  END
> <s_m_source_file>
AV-unprocessed.smi

> <i_m_source_file_index>
157

> <i_lp_mmshare_version>
43012

> <i_f3d_flags>
0

> <s_epik_input>
W09IXVtDSDJdW0NASF0xT1tDQEhdKFtDSDJdW0NAQEhdMVtPSF0pbihbY0hdbjIpYyhjMjMpTj1bQ0hdW05IXVtDSDJdW0NASF0zW09IXQ==

> <s_epik_cmdline>
J2VwaWtfcHl0aG9uJywgJy1waCcsICc3LjAnLCAnLXRuJywgJzgnLCAnLW1hJywgJzIwMCcsICctbWV0YWxfYmluZGluZycsICctaW1hZScsICc8aW5maWxlLm1hZT4nLCAnLW9tYWUnLCAnPG91dGZpbGUubWFlPic=

> <r_lp_tautomer_probability>
1

> <r_epik_Ionization_Penalty>
0.0357149

> <r_epik_Ionization_Penalty_Charging>
0.0355056

> <r_epik_Ionization_Penalty_Neutral>
0.000209255

> <r_epik_State_Penalty>
0.0296046

> <r_epik_Charging_Adjusted_Penalty>
0.0651102

> <i_epik_Tot_Q>
0

> <i_epik_Tot_abs_Q>
0

> <r_epik_Metal_State_Penalty>
3.03559e-05

> <b_epik_Metal_Only>
0

> <s_epik_Chemistry_Notes>
This compound has an imine and may undergo hydrolysis. This compound contains an acetal/aminal-like group ( X-CH(R)-Y where X, Y are N, S, or O) that may be acid/base labile, releasing an aldehyde.

> <s_lp_Force_Field>
OPLS_2005

> <r_lp_Energy>
44.6585

> <b_lp_Chiralities_Consistent>
1

> <s_lp_Variant>
AV-unprocessed.smi:157-10

> <Gold.Version>
5.8.1

> <Gold.Id.Protein>
6NUR|6NUR_protein|mol2

> <Gold.PLP.Fitness>
41.7358

> <Gold.PLP.PLP>
-36.4482

> <Gold.PLP.part.hbond>
-7.0821

> <Gold.PLP.part.metal>
0.0000

> <Gold.PLP.part.buried>
-4.6758

> <Gold.PLP.part.nonpolar>
-23.5050

> <Gold.PLP.part.repulsive>
0.1245

> <Gold.PLP.ligand.clash>
0.0000

> <Gold.PLP.ligand.torsion>
0.2926

> <Gold.PLP.Chemscore.Hbond>
1.9542

> <Gold.PLP.Chemscore.CHOScore>
0.0000

> <Gold.PLP.Chemscore.Metal>
0.0000

> <Gold.Chemscore.Hbonds>
donor molecule, donor type, donor heavy atom, donor atom, acceptor molecule, acceptor atom, score
      L1  H    16    32       P1  8028  1.00
      P1  H  6933  6945       L1     1  0.02
      P1  H  7989  7998       L1     8  0.83
      P1  H  8011  8017       L1    16  0.08

> <Gold.PLP.Chemscore.Internal.Correction>
0.0102

> <Gold.Rescore>
     Score         DG    S(hbond)    S(metal)    S(lipo)     H(rot)  DE(clash)    DE(int)     intcor
      9.52      -9.58       2.12        0.00      54.23       3.64       0.00       0.06       ----

> <Gold.Chemscore.Fitness>
9.5157

> <Gold.Chemscore.DG>
-9.5806

> <Gold.Chemscore.ZeroCoef>
-5.4800

> <Gold.Chemscore.Hbond>
2.1151

> <Gold.Chemscore.Metal>
0.0000

> <Gold.Chemscore.Lipo>
54.2290

> <Gold.Chemscore.Internal_Hbond>
0.0000

> <Gold.Chemscore.DEClash>
0.0000

> <Gold.Chemscore.DEInternal>
0.0649

> <Gold.Chemscore.Rot>
3.6362

> <Gold.Chemscore.Internal.Correction>
   9.000000E+99

> <Gold.Chemscore.Hbonds>
donor molecule, donor type, donor heavy atom, donor atom, acceptor molecule, acceptor atom, score
      L1  H    16    32       P1  8028  1.00
      P1  H  7989  7998       L1     8  0.76
      P1  H  8011  8017       L1    16  0.10

> <Gold.Chemscore.Hbond.Weighted>
-7.0645

> <Gold.Chemscore.Metal.Weighted>
-0.0000

> <Gold.Chemscore.Lipo.Weighted>
-6.3448

> <Gold.Chemscore.Internal_Hbond.Weighted>
0.0000

> <Gold.Chemscore.DEClash.Weighted>
0.0000

> <Gold.Chemscore.DEInternal.Weighted>
0.0649

> <Gold.Chemscore.Rot.Weighted>
9.3087

> <Gold.Chemscore.Internal.Correction.Weighted>
   9.000000E+99

> <Gold.Protein.RotatedTorsions>
[ 6907 6896 6895 6894 ] final    6.87 input  -60.11 | X-H torsion
[ 7974 7965 7964 7962 ] final    9.31 input  175.53 | X-H torsion
[ 8008 7997 7996 7995 ] final -112.85 input   59.86 | X-H torsion
[ 10167 10162 10161 10158 ] final  160.58 input  -65.29 | X-H torsion
[ 10718 10713 10712 10709 ] final -106.80 input   66.30 | X-H torsion
[ 10763 10752 10751 10750 ] final -116.94 input  -60.55 | X-H torsion
[ 11005 11000 10999 10996 ] final  -96.72 input  -57.11 | X-H torsion

> <Gold.Protein.ActiveResidues>
 VAL166  LYS551  ARG553  GLY616  TRP617  ASP618  TYR619  PRO620  LYS621  CYS622 
 ASP623  PHE694  ASN695  SER759  ASP760  ASP761  ALA762  ILE779  LEU786  VAL792 
 PHE793  MET794  SER795  GLU796  ALA797  LYS798  CYS799  TRP800  GLU811  SER814 

> <Gold.Protein.RotatedAtoms>
  151.6806  135.0962  160.0215 H   0  0  0  0  0  0  0  0  0  0  0  0  # atno 6907 bound_to 6896
  152.3837  133.6578  159.6190 H   0  0  0  0  0  0  0  0  0  0  0  0  # atno 6908 bound_to 6896
  150.7768  133.8987  159.3376 H   0  0  0  0  0  0  0  0  0  0  0  0  # atno 6909 bound_to 6896
  146.2405  139.9802  142.8437 H   0  0  0  0  0  0  0  0  0  0  0  0  # atno 7974 bound_to 7965
  155.0116  140.0393  157.2401 H   0  0  0  0  0  0  0  0  0  0  0  0  # atno 8008 bound_to 7997
  154.7455  140.2757  155.6313 H   0  0  0  0  0  0  0  0  0  0  0  0  # atno 8009 bound_to 7997
  156.2874  140.2657  156.2195 H   0  0  0  0  0  0  0  0  0  0  0  0  # atno 8010 bound_to 7997
  139.4841  144.4620  151.8692 H   0  0  0  0  0  0  0  0  0  0  0  0  # atno 10167 bound_to 10162
  156.0407  130.5631  150.7732 H   0  0  0  0  0  0  0  0  0  0  0  0  # atno 10718 bound_to 10713
  154.8537  135.4327  154.1901 H   0  0  0  0  0  0  0  0  0  0  0  0  # atno 10763 bound_to 10752
  153.2971  135.6966  153.7244 H   0  0  0  0  0  0  0  0  0  0  0  0  # atno 10764 bound_to 10752
  153.6388  135.3471  155.3039 H   0  0  0  0  0  0  0  0  0  0  0  0  # atno 10765 bound_to 10752
  141.1402  133.8118  157.0609 H   0  0  0  0  0  0  0  0  0  0  0  0  # atno 11005 bound_to 11000
  145.1599  140.9667  143.4383 LP  0  0  0  0  0  0  0  0  0  0  0  0  # atno 17320 bound_to 7965
  145.0126  139.3496  143.6112 LP  0  0  0  0  0  0  0  0  0  0  0  0  # atno 17321 bound_to 7965
  140.4083  144.2403  150.5890 LP  0  0  0  0  0  0  0  0  0  0  0  0  # atno 17342 bound_to 10162
  140.4991  143.2323  151.8705 LP  0  0  0  0  0  0  0  0  0  0  0  0  # atno 17343 bound_to 10162
  157.5220  131.0932  151.0066 LP  0  0  0  0  0  0  0  0  0  0  0  0  # atno 17370 bound_to 10713
  157.0395  130.5743  149.5354 LP  0  0  0  0  0  0  0  0  0  0  0  0  # atno 17371 bound_to 10713
  140.0572  134.9774  157.1241 LP  0  0  0  0  0  0  0  0  0  0  0  0  # atno 17394 bound_to 11000
  140.3902  134.2192  155.7166 LP  0  0  0  0  0  0  0  0  0  0  0  0  # atno 17395 bound_to 11000

$$$$
