AV-unprocessed.smi:2315|AV-procd|sdf|9268|dock10
  -GOLD-   2272012493D 1   1.00000     0.00000
 Structure written by MMmdl.
 40 41  0  0  0  0  0  0  0  0  1 V2000
  147.7001  132.4982  154.0544 O   0  0  0  0  0  0  0  0  0  0  0  0
  147.9281  133.4926  153.3657 C   0  0  0  0  0  0  0  0  0  0  0  0
  148.8696  134.3984  153.6674 N   0  0  0  0  0  0  0  0  0  0  0  0
  149.7355  134.3493  154.8405 C   0  0  0  0  0  0  0  0  0  0  0  0
  149.7299  135.6882  155.6068 C   0  0  0  0  0  0  0  0  0  0  0  0
  151.0876  136.4133  155.6035 C   0  0  0  0  0  0  0  0  0  0  0  0
  152.0690  135.8433  156.0832 O   0  0  0  0  0  0  0  0  0  0  0  0
  151.1662  137.6570  155.0692 N   0  0  0  0  0  0  0  0  0  0  0  0
  152.3704  138.4991  155.0380 C   0  0  0  0  0  0  0  0  0  0  0  0
  152.1830  139.6692  156.0209 C   0  0  0  0  0  0  0  0  0  0  0  0
  150.9109  140.4704  155.6842 C   0  0  0  0  0  0  0  0  0  0  0  0
  149.6847  139.5514  155.5272 C   0  0  0  0  0  0  0  0  0  0  0  0
  149.9889  138.3819  154.5721 C   0  0  0  0  0  0  0  0  0  0  0  0
  147.2990  133.8108  152.2211 N   0  0  0  0  0  0  0  0  0  0  0  0
  146.2417  133.1266  151.5602 C   0  0  0  0  0  0  0  0  0  0  0  0
  146.0862  131.7190  151.5479 C   0  0  0  0  0  0  0  0  0  0  0  0
  144.9805  131.1675  150.8693 C   0  0  0  0  0  0  0  0  0  0  0  0
  144.0519  131.9113  150.2318 N   0  0  0  0  0  0  0  0  0  0  0  0
  144.1963  133.2529  150.2557 C   0  0  0  0  0  0  0  0  0  0  0  0
  145.2634  133.9051  150.9055 C   0  0  0  0  0  0  0  0  0  0  0  0
  145.3451  135.2578  150.8951 F   0  0  0  0  0  0  0  0  0  0  0  0
  148.9942  135.1826  153.0439 H   0  0  0  0  0  0  0  0  0  0  0  0
  149.3734  133.5458  155.4831 H   0  0  0  0  0  0  0  0  0  0  0  0
  150.7498  134.0775  154.5417 H   0  0  0  0  0  0  0  0  0  0  0  0
  148.9825  136.3494  155.1665 H   0  0  0  0  0  0  0  0  0  0  0  0
  149.4356  135.5071  156.6413 H   0  0  0  0  0  0  0  0  0  0  0  0
  153.2891  137.9631  155.2699 H   0  0  0  0  0  0  0  0  0  0  0  0
  152.5103  138.8836  154.0266 H   0  0  0  0  0  0  0  0  0  0  0  0
  152.1148  139.2827  157.0388 H   0  0  0  0  0  0  0  0  0  0  0  0
  153.0537  140.3249  155.9957 H   0  0  0  0  0  0  0  0  0  0  0  0
  150.7237  141.2222  156.4513 H   0  0  0  0  0  0  0  0  0  0  0  0
  151.0692  141.0140  154.7519 H   0  0  0  0  0  0  0  0  0  0  0  0
  149.3965  139.1572  156.5027 H   0  0  0  0  0  0  0  0  0  0  0  0
  148.8331  140.1253  155.1608 H   0  0  0  0  0  0  0  0  0  0  0  0
  150.1938  138.7594  153.5693 H   0  0  0  0  0  0  0  0  0  0  0  0
  149.1083  137.7461  154.4740 H   0  0  0  0  0  0  0  0  0  0  0  0
  147.6534  134.6204  151.7330 H   0  0  0  0  0  0  0  0  0  0  0  0
  146.7749  131.0566  152.0484 H   0  0  0  0  0  0  0  0  0  0  0  0
  144.8354  130.0977  150.8436 H   0  0  0  0  0  0  0  0  0  0  0  0
  143.4369  133.8248  149.7434 H   0  0  0  0  0  0  0  0  0  0  0  0
  1  2  2  0  0  0  0
  2  3  1  0  0  0  0
  2 14  1  0  0  0  0
  3  4  1  0  0  0  0
  3 22  1  0  0  0  0
  4  5  1  0  0  0  0
  4 23  1  0  0  0  0
  4 24  1  0  0  0  0
  5  6  1  0  0  0  0
  5 25  1  0  0  0  0
  5 26  1  0  0  0  0
  6  7  2  0  0  0  0
  6  8  1  0  0  0  0
  8 13  1  0  0  0  0
  8  9  1  0  0  0  0
  9 10  1  0  0  0  0
  9 27  1  0  0  0  0
  9 28  1  0  0  0  0
 10 11  1  0  0  0  0
 10 29  1  0  0  0  0
 10 30  1  0  0  0  0
 11 12  1  0  0  0  0
 11 31  1  0  0  0  0
 11 32  1  0  0  0  0
 12 13  1  0  0  0  0
 12 33  1  0  0  0  0
 12 34  1  0  0  0  0
 13 35  1  0  0  0  0
 13 36  1  0  0  0  0
 14 15  1  0  0  0  0
 14 37  1  0  0  0  0
 15 20  1  0  0  0  0
 15 16  2  0  0  0  0
 16 17  1  0  0  0  0
 16 38  1  0  0  0  0
 17 18  2  0  0  0  0
 17 39  1  0  0  0  0
 18 19  1  0  0  0  0
 19 20  2  0  0  0  0
 19 40  1  0  0  0  0
 20 21  1  0  0  0  0
M  END
> <s_m_source_file>
AV-unprocessed.smi

> <i_m_source_file_index>
2315

> <i_lp_mmshare_version>
43012

> <i_f3d_flags>
0

> <s_epik_input>
RmMxW2NIXW5bY0hdW2NIXWMxW05IXUMoPU8pW05IXVtDSDJdW0NIMl1DKD1PKU4yW0NIMl1bQ0gyXVtDSDJdW0NIMl1bQ0gyXTI=

> <s_epik_cmdline>
J2VwaWtfcHl0aG9uJywgJy1waCcsICc3LjAnLCAnLXRuJywgJzgnLCAnLW1hJywgJzIwMCcsICctbWV0YWxfYmluZGluZycsICctaW1hZScsICc8aW5maWxlLm1hZT4nLCAnLW9tYWUnLCAnPG91dGZpbGUubWFlPic=

> <r_epik_Ionization_Penalty>
0.00291221

> <r_epik_Ionization_Penalty_Charging>
0

> <r_epik_Ionization_Penalty_Neutral>
0.00291221

> <r_epik_State_Penalty>
0.0020173

> <r_epik_Charging_Adjusted_Penalty>
0.0020173

> <i_epik_Tot_Q>
0

> <i_epik_Tot_abs_Q>
0

> <r_epik_Metal_State_Penalty>
-0

> <b_epik_Metal_Only>
0

> <s_lp_Force_Field>
OPLS_2005

> <r_lp_Energy>
31.5376

> <b_lp_Chiralities_Consistent>
1

> <s_lp_Variant>
AV-unprocessed.smi:2315-1

> <Gold.Version>
5.8.1

> <Gold.Id.Protein>
6NUR|6NUR_protein|mol2

> <Gold.PLP.Fitness>
50.2780

> <Gold.PLP.PLP>
-39.8448

> <Gold.PLP.part.hbond>
-3.0125

> <Gold.PLP.part.metal>
0.0000

> <Gold.PLP.part.buried>
-3.5604

> <Gold.PLP.part.nonpolar>
-33.0756

> <Gold.PLP.part.repulsive>
0.2540

> <Gold.PLP.ligand.clash>
0.0000

> <Gold.PLP.ligand.torsion>
0.6624

> <Gold.PLP.Chemscore.Hbond>
2.9120

> <Gold.PLP.Chemscore.CHOScore>
1.0000

> <Gold.PLP.Chemscore.Metal>
0.0000

> <Gold.Chemscore.Hbonds>
donor molecule, donor type, donor heavy atom, donor atom, acceptor molecule, acceptor atom, score
      L1  H     3    22       P1  7948  0.95
      L1  H    14    37       P1  7948  0.91
      P1  H 10752 10763       L1     7  1.00
      L1  C    19    40       P1 10186  1.00

> <Gold.PLP.Chemscore.Internal.Correction>
0.0219

> <Gold.Rescore>
     Score         DG    S(hbond)    S(metal)    S(lipo)     H(rot)  DE(clash)    DE(int)     intcor
     18.08     -18.91       2.56        0.00      76.24       1.57       0.02       0.80       ----

> <Gold.Chemscore.Fitness>
18.0834

> <Gold.Chemscore.DG>
-18.9106

> <Gold.Chemscore.ZeroCoef>
-5.4800

> <Gold.Chemscore.Hbond>
2.5561

> <Gold.Chemscore.Metal>
0.0000

> <Gold.Chemscore.Lipo>
76.2429

> <Gold.Chemscore.Internal_Hbond>
0.0000

> <Gold.Chemscore.DEClash>
0.0243

> <Gold.Chemscore.DEInternal>
0.8028

> <Gold.Chemscore.Rot>
1.5731

> <Gold.Chemscore.Internal.Correction>
   9.000000E+99

> <Gold.Chemscore.Hbonds>
donor molecule, donor type, donor heavy atom, donor atom, acceptor molecule, acceptor atom, score
      L1  H     3    22       P1  7948  0.20
      L1  H    14    37       P1  7948  0.29
      P1  H 10752 10763       L1     7  0.96

> <Gold.Chemscore.Hbond.Weighted>
-8.5372

> <Gold.Chemscore.Metal.Weighted>
-0.0000

> <Gold.Chemscore.Lipo.Weighted>
-8.9204

> <Gold.Chemscore.Internal_Hbond.Weighted>
0.0000

> <Gold.Chemscore.DEClash.Weighted>
0.0243

> <Gold.Chemscore.DEInternal.Weighted>
0.8028

> <Gold.Chemscore.Rot.Weighted>
4.0271

> <Gold.Chemscore.Internal.Correction.Weighted>
   9.000000E+99

> <Gold.Protein.RotatedTorsions>
[ 6907 6896 6895 6894 ] final  112.10 input  -60.11 | X-H torsion
[ 7974 7965 7964 7962 ] final  151.63 input  175.53 | X-H torsion
[ 8008 7997 7996 7995 ] final  -49.42 input   59.86 | X-H torsion
[ 10167 10162 10161 10158 ] final   91.16 input  -65.29 | X-H torsion
[ 10718 10713 10712 10709 ] final   51.15 input   66.30 | X-H torsion
[ 10763 10752 10751 10750 ] final  104.51 input  -60.55 | X-H torsion
[ 11005 11000 10999 10996 ] final   49.13 input  -57.11 | X-H torsion

> <Gold.Protein.ActiveResidues>
 VAL166  LYS551  ARG553  GLY616  TRP617  ASP618  TYR619  PRO620  LYS621  CYS622 
 ASP623  PHE694  ASN695  SER759  ASP760  ASP761  ALA762  ILE779  LEU786  VAL792 
 PHE793  MET794  SER795  GLU796  ALA797  LYS798  CYS799  TRP800  GLU811  SER814 

> <Gold.Protein.RotatedAtoms>
  152.4934  133.8564  159.7227 H   0  0  0  0  0  0  0  0  0  0  0  0  # atno 6907 bound_to 6896
  150.9087  133.7016  159.2867 H   0  0  0  0  0  0  0  0  0  0  0  0  # atno 6908 bound_to 6896
  151.4432  135.1026  159.9729 H   0  0  0  0  0  0  0  0  0  0  0  0  # atno 6909 bound_to 6896
  144.8278  139.6563  143.6072 H   0  0  0  0  0  0  0  0  0  0  0  0  # atno 7974 bound_to 7965
  154.4044  140.1297  156.4500 H   0  0  0  0  0  0  0  0  0  0  0  0  # atno 8008 bound_to 7997
  155.7376  140.3490  155.5069 H   0  0  0  0  0  0  0  0  0  0  0  0  # atno 8009 bound_to 7997
  155.9069  140.1029  157.1298 H   0  0  0  0  0  0  0  0  0  0  0  0  # atno 8010 bound_to 7997
  139.8402  144.6645  150.9293 H   0  0  0  0  0  0  0  0  0  0  0  0  # atno 10167 bound_to 10162
  157.4953  130.8402  149.8251 H   0  0  0  0  0  0  0  0  0  0  0  0  # atno 10718 bound_to 10713
  153.3669  135.3941  155.1760 H   0  0  0  0  0  0  0  0  0  0  0  0  # atno 10763 bound_to 10752
  154.8688  135.3693  154.5027 H   0  0  0  0  0  0  0  0  0  0  0  0  # atno 10764 bound_to 10752
  153.5491  135.7083  153.5660 H   0  0  0  0  0  0  0  0  0  0  0  0  # atno 10765 bound_to 10752
  140.1130  134.4929  155.8661 H   0  0  0  0  0  0  0  0  0  0  0  0  # atno 11005 bound_to 11000
  146.2583  139.6352  142.9379 LP  0  0  0  0  0  0  0  0  0  0  0  0  # atno 17320 bound_to 7965
  145.4961  141.0438  143.2566 LP  0  0  0  0  0  0  0  0  0  0  0  0  # atno 17321 bound_to 7965
  140.7799  143.3920  151.1294 LP  0  0  0  0  0  0  0  0  0  0  0  0  # atno 17342 bound_to 10162
  139.7567  143.8697  152.3090 LP  0  0  0  0  0  0  0  0  0  0  0  0  # atno 17343 bound_to 10162
  156.0197  130.3800  150.2000 LP  0  0  0  0  0  0  0  0  0  0  0  0  # atno 17370 bound_to 10713
  157.0189  130.9973  151.3345 LP  0  0  0  0  0  0  0  0  0  0  0  0  # atno 17371 bound_to 10713
  141.2135  133.6734  156.6742 LP  0  0  0  0  0  0  0  0  0  0  0  0  # atno 17394 bound_to 11000
  140.3065  134.8121  157.4141 LP  0  0  0  0  0  0  0  0  0  0  0  0  # atno 17395 bound_to 11000

$$$$
