AV-unprocessed.smi:264|AV-procd|sdf|2007|dock9
  -GOLD-   2262021203D 1   1.00000     0.00000
 Structure written by MMmdl.
 52 56  0  0  0  0  0  0  0  0  1 V2000
  151.9056  144.8826  160.2696 C   0  0  0  0  0  0  0  0  0  0  0  0
  151.8893  143.6094  161.1299 C   0  0  2  0  0  0  0  0  0  0  0  0
  152.6669  143.8698  162.2960 O   0  0  0  0  0  0  0  0  0  0  0  0
  153.2787  142.6654  162.7219 C   0  0  0  0  0  0  0  0  0  0  0  0
  153.6812  142.0187  161.4057 C   0  0  0  0  0  0  0  0  0  0  0  0
  152.4961  142.3260  160.4947 C   0  0  1  0  0  0  0  0  0  0  0  0
  151.5478  141.2828  160.6483 O   0  0  0  0  0  0  0  0  0  0  0  0
  152.8725  142.4109  158.9919 C   0  0  0  0  0  0  0  0  0  0  0  0
  151.7577  142.1333  158.0983 N   0  0  0  0  0  0  0  0  0  0  0  0
  150.5977  142.8647  157.9790 C   0  0  0  0  0  0  0  0  0  0  0  0
  149.7418  142.4128  157.1037 N   0  0  0  0  0  0  0  0  0  0  0  0
  150.3636  141.2911  156.5677 C   0  0  0  0  0  0  0  0  0  0  0  0
  149.9998  140.3339  155.5786 C   0  0  0  0  0  0  0  0  0  0  0  0
  148.8276  140.3932  154.8966 N   0  0  0  0  0  0  0  0  0  0  0  0
  148.5390  139.2263  154.0719 C   0  0  0  0  0  0  0  0  0  0  0  0
  147.3958  139.5450  153.0988 C   0  0  0  0  0  0  0  0  0  0  0  0
  146.2546  140.0049  153.8209 O   0  0  0  0  0  0  0  0  0  0  0  0
  146.4887  141.1726  154.6146 C   0  0  1  0  0  0  0  0  0  0  0  0
  146.7002  142.4128  153.7373 C   0  0  0  0  0  0  0  0  0  0  0  0
  145.7807  143.4588  154.3524 C   0  0  0  0  0  0  0  0  0  0  0  0
  144.6715  142.6814  154.7614 O   0  0  0  0  0  0  0  0  0  0  0  0
  145.1906  141.5097  155.3734 C   0  0  0  0  0  0  0  0  0  0  0  0
  147.6507  140.9005  155.5979 C   0  0  0  0  0  0  0  0  0  0  0  0
  150.8832  139.3304  155.3269 N   0  0  0  0  0  0  0  0  0  0  0  0
  152.0455  139.2723  155.9832 C   0  0  0  0  0  0  0  0  0  0  0  0
  152.5174  140.0979  156.9188 N   0  0  0  0  0  0  0  0  0  0  0  0
  151.6320  141.1000  157.1861 C   0  0  0  0  0  0  0  0  0  0  0  0
  151.3140  144.7590  159.3623 H   0  0  0  0  0  0  0  0  0  0  0  0
  152.9203  145.1593  159.9823 H   0  0  0  0  0  0  0  0  0  0  0  0
  151.4831  145.7227  160.8211 H   0  0  0  0  0  0  0  0  0  0  0  0
  150.8624  143.4261  161.4516 H   0  0  0  0  0  0  0  0  0  0  0  0
  154.1290  142.8555  163.3773 H   0  0  0  0  0  0  0  0  0  0  0  0
  152.5544  142.0516  163.2593 H   0  0  0  0  0  0  0  0  0  0  0  0
  154.5777  142.5167  161.0349 H   0  0  0  0  0  0  0  0  0  0  0  0
  153.9055  140.9550  161.4980 H   0  0  0  0  0  0  0  0  0  0  0  0
  151.1196  141.3892  161.4841 H   0  0  0  0  0  0  0  0  0  0  0  0
  153.2584  143.4027  158.7527 H   0  0  0  0  0  0  0  0  0  0  0  0
  153.6688  141.7048  158.7557 H   0  0  0  0  0  0  0  0  0  0  0  0
  150.4032  143.7472  158.5710 H   0  0  0  0  0  0  0  0  0  0  0  0
  149.4141  138.9038  153.5090 H   0  0  0  0  0  0  0  0  0  0  0  0
  148.2562  138.3959  154.7203 H   0  0  0  0  0  0  0  0  0  0  0  0
  147.7126  140.2860  152.3639 H   0  0  0  0  0  0  0  0  0  0  0  0
  147.1205  138.6498  152.5413 H   0  0  0  0  0  0  0  0  0  0  0  0
  147.7382  142.7437  153.6872 H   0  0  0  0  0  0  0  0  0  0  0  0
  146.3664  142.2154  152.7176 H   0  0  0  0  0  0  0  0  0  0  0  0
  146.2443  143.9312  155.2201 H   0  0  0  0  0  0  0  0  0  0  0  0
  145.4911  144.2363  153.6453 H   0  0  0  0  0  0  0  0  0  0  0  0
  144.4607  140.7001  155.3489 H   0  0  0  0  0  0  0  0  0  0  0  0
  145.3943  141.7365  156.4213 H   0  0  0  0  0  0  0  0  0  0  0  0
  147.3390  140.1619  156.3380 H   0  0  0  0  0  0  0  0  0  0  0  0
  147.9000  141.8142  156.1401 H   0  0  0  0  0  0  0  0  0  0  0  0
  152.6898  138.4466  155.7200 H   0  0  0  0  0  0  0  0  0  0  0  0
  1  2  1  0  0  0  0
  1 28  1  0  0  0  0
  1 29  1  0  0  0  0
  1 30  1  0  0  0  0
  2  6  1  0  0  0  0
  2  3  1  0  0  0  0
  2 31  1  0  0  0  0
  3  4  1  0  0  0  0
  4  5  1  0  0  0  0
  4 32  1  0  0  0  0
  4 33  1  0  0  0  0
  5  6  1  0  0  0  0
  5 34  1  0  0  0  0
  5 35  1  0  0  0  0
  6  7  1  0  0  0  0
  6  8  1  0  0  0  0
  7 36  1  0  0  0  0
  8  9  1  0  0  0  0
  8 37  1  0  0  0  0
  8 38  1  0  0  0  0
  9 27  1  0  0  0  0
  9 10  1  0  0  0  0
 10 11  2  0  0  0  0
 10 39  1  0  0  0  0
 11 12  1  0  0  0  0
 12 27  2  0  0  0  0
 12 13  1  0  0  0  0
 13 14  1  0  0  0  0
 13 24  2  0  0  0  0
 14 23  1  0  0  0  0
 14 15  1  0  0  0  0
 15 16  1  0  0  0  0
 15 40  1  0  0  0  0
 15 41  1  0  0  0  0
 16 17  1  0  0  0  0
 16 42  1  0  0  0  0
 16 43  1  0  0  0  0
 17 18  1  0  0  0  0
 18 22  1  0  0  0  0
 18 19  1  0  0  0  0
 18 23  1  0  0  0  0
 19 20  1  0  0  0  0
 19 44  1  0  0  0  0
 19 45  1  0  0  0  0
 20 21  1  0  0  0  0
 20 46  1  0  0  0  0
 20 47  1  0  0  0  0
 21 22  1  0  0  0  0
 22 48  1  0  0  0  0
 22 49  1  0  0  0  0
 23 50  1  0  0  0  0
 23 51  1  0  0  0  0
 24 25  1  0  0  0  0
 25 26  2  0  0  0  0
 25 52  1  0  0  0  0
 26 27  1  0  0  0  0
M  END
> <s_m_source_file>
AV-unprocessed.smi

> <i_m_source_file_index>
264

> <i_lp_mmshare_version>
43012

> <i_f3d_flags>
0

> <s_epik_input>
W0NIMl0xW0NIMl1PW0NAQEhdKFtDSDNdKVtDQEBdMShbT0hdKVtDSDJdbihbY0hdbjIpYyhjMjMpbltjSF1uYzNOKFtDSDJdNClbQ0gyXVtDSDJdT1tDQF00NVtDSDJdW0NIMl1PW0NIMl01

> <s_epik_cmdline>
J2VwaWtfcHl0aG9uJywgJy1waCcsICc3LjAnLCAnLXRuJywgJzgnLCAnLW1hJywgJzIwMCcsICctbWV0YWxfYmluZGluZycsICctaW1hZScsICc8aW5maWxlLm1hZT4nLCAnLW9tYWUnLCAnPG91dGZpbGUubWFlPic=

> <r_lp_tautomer_probability>
1

> <r_epik_Ionization_Penalty>
0.00539389

> <r_epik_Ionization_Penalty_Charging>
0

> <r_epik_Ionization_Penalty_Neutral>
0.00539389

> <r_epik_State_Penalty>
0.00375441

> <r_epik_Charging_Adjusted_Penalty>
0.00375441

> <i_epik_Tot_Q>
0

> <i_epik_Tot_abs_Q>
0

> <r_epik_Metal_State_Penalty>
-0

> <b_epik_Metal_Only>
0

> <s_lp_Force_Field>
OPLS_2005

> <r_lp_Energy>
54.1721

> <b_lp_Chiralities_Consistent>
1

> <s_lp_Variant>
AV-unprocessed.smi:264-1

> <Gold.Version>
5.8.1

> <Gold.Id.Protein>
6NUR|6NUR_protein|mol2

> <Gold.PLP.Fitness>
44.2411

> <Gold.PLP.PLP>
-42.6472

> <Gold.PLP.part.hbond>
-2.5151

> <Gold.PLP.part.metal>
0.0000

> <Gold.PLP.part.buried>
-0.7291

> <Gold.PLP.part.nonpolar>
-41.7905

> <Gold.PLP.part.repulsive>
3.4714

> <Gold.PLP.ligand.clash>
0.0000

> <Gold.PLP.ligand.torsion>
0.8465

> <Gold.PLP.Chemscore.Hbond>
1.0000

> <Gold.PLP.Chemscore.CHOScore>
0.0000

> <Gold.PLP.Chemscore.Metal>
0.0000

> <Gold.Chemscore.Hbonds>
donor molecule, donor type, donor heavy atom, donor atom, acceptor molecule, acceptor atom, score
      P1  H  7997  8010       L1    26  0.95

> <Gold.PLP.Chemscore.Internal.Correction>
0.2869

> <Gold.Rescore>
     Score         DG    S(hbond)    S(metal)    S(lipo)     H(rot)  DE(clash)    DE(int)     intcor
      9.96     -14.76       0.64        0.00     107.12       2.11       3.37       1.42       ----

> <Gold.Chemscore.Fitness>
9.9637

> <Gold.Chemscore.DG>
-14.7593

> <Gold.Chemscore.ZeroCoef>
-5.4800

> <Gold.Chemscore.Hbond>
0.6402

> <Gold.Chemscore.Metal>
0.0000

> <Gold.Chemscore.Lipo>
107.1221

> <Gold.Chemscore.Internal_Hbond>
0.0000

> <Gold.Chemscore.DEClash>
3.3750

> <Gold.Chemscore.DEInternal>
1.4206

> <Gold.Chemscore.Rot>
2.1063

> <Gold.Chemscore.Internal.Correction>
   9.000000E+99

> <Gold.Chemscore.Hbonds>
donor molecule, donor type, donor heavy atom, donor atom, acceptor molecule, acceptor atom, score
      P1  H  7997  8010       L1    26  0.21

> <Gold.Chemscore.Hbond.Weighted>
-2.1381

> <Gold.Chemscore.Metal.Weighted>
-0.0000

> <Gold.Chemscore.Lipo.Weighted>
-12.5333

> <Gold.Chemscore.Internal_Hbond.Weighted>
0.0000

> <Gold.Chemscore.DEClash.Weighted>
3.3750

> <Gold.Chemscore.DEInternal.Weighted>
1.4206

> <Gold.Chemscore.Rot.Weighted>
5.3921

> <Gold.Chemscore.Internal.Correction.Weighted>
   9.000000E+99

> <Gold.Protein.RotatedTorsions>
[ 6907 6896 6895 6894 ] final -150.10 input  -60.11 | X-H torsion
[ 7974 7965 7964 7962 ] final    2.16 input  175.53 | X-H torsion
[ 8008 7997 7996 7995 ] final   74.51 input   59.86 | X-H torsion
[ 10167 10162 10161 10158 ] final   29.56 input  -65.29 | X-H torsion
[ 10718 10713 10712 10709 ] final -125.57 input   66.30 | X-H torsion
[ 10763 10752 10751 10750 ] final -156.91 input  -60.55 | X-H torsion
[ 11005 11000 10999 10996 ] final  -86.32 input  -57.11 | X-H torsion

> <Gold.Protein.ActiveResidues>
 VAL166  LYS551  ARG553  GLY616  TRP617  ASP618  TYR619  PRO620  LYS621  CYS622 
 ASP623  PHE694  ASN695  SER759  ASP760  ASP761  ALA762  ILE779  LEU786  VAL792 
 PHE793  MET794  SER795  GLU796  ALA797  LYS798  CYS799  TRP800  GLU811  SER814 

> <Gold.Protein.RotatedAtoms>
  151.1936  133.4652  159.2594 H   0  0  0  0  0  0  0  0  0  0  0  0  # atno 6907 bound_to 6896
  151.1139  135.0042  159.8517 H   0  0  0  0  0  0  0  0  0  0  0  0  # atno 6908 bound_to 6896
  152.5452  134.1853  159.8705 H   0  0  0  0  0  0  0  0  0  0  0  0  # atno 6909 bound_to 6896
  146.2443  140.0878  142.8353 H   0  0  0  0  0  0  0  0  0  0  0  0  # atno 7974 bound_to 7965
  155.7994  140.3477  155.5394 H   0  0  0  0  0  0  0  0  0  0  0  0  # atno 8008 bound_to 7997
  155.8554  140.0963  157.1668 H   0  0  0  0  0  0  0  0  0  0  0  0  # atno 8009 bound_to 7997
  154.4009  140.1368  156.3882 H   0  0  0  0  0  0  0  0  0  0  0  0  # atno 8010 bound_to 7997
  140.4755  144.0697  150.6249 H   0  0  0  0  0  0  0  0  0  0  0  0  # atno 10167 bound_to 10162
  156.1687  130.6652  151.0150 H   0  0  0  0  0  0  0  0  0  0  0  0  # atno 10718 bound_to 10713
  154.7677  135.3136  154.8253 H   0  0  0  0  0  0  0  0  0  0  0  0  # atno 10763 bound_to 10752
  153.8997  135.6817  153.4760 H   0  0  0  0  0  0  0  0  0  0  0  0  # atno 10764 bound_to 10752
  153.1285  135.4790  154.9244 H   0  0  0  0  0  0  0  0  0  0  0  0  # atno 10765 bound_to 10752
  141.1631  133.7448  156.9144 H   0  0  0  0  0  0  0  0  0  0  0  0  # atno 11005 bound_to 11000
  145.0677  140.9133  143.4901 LP  0  0  0  0  0  0  0  0  0  0  0  0  # atno 17320 bound_to 7965
  145.1005  139.2826  143.5688 LP  0  0  0  0  0  0  0  0  0  0  0  0  # atno 17321 bound_to 7965
  140.3924  143.2746  152.0045 LP  0  0  0  0  0  0  0  0  0  0  0  0  # atno 17342 bound_to 10162
  139.4825  144.6066  151.7509 LP  0  0  0  0  0  0  0  0  0  0  0  0  # atno 17343 bound_to 10162
  157.6787  131.0844  150.7428 LP  0  0  0  0  0  0  0  0  0  0  0  0  # atno 17370 bound_to 10713
  156.7488  130.4762  149.5461 LP  0  0  0  0  0  0  0  0  0  0  0  0  # atno 17371 bound_to 10713
  140.1495  134.9240  157.2573 LP  0  0  0  0  0  0  0  0  0  0  0  0  # atno 17394 bound_to 11000
  140.2740  134.3427  155.7364 LP  0  0  0  0  0  0  0  0  0  0  0  0  # atno 17395 bound_to 11000

$$$$
