#       Name:                AV-unprocessed.smi:21
#       Creating user name   scv26
#       Creation time:       Thu Mar 26 15:29:57 2020


#       File generated by GOLD software.
#

@<TRIPOS>MOLECULE
AV-unprocessed.smi:21
    71    74     1
SMALL
NO_CHARGES


@<TRIPOS>ATOM
      1 ****        -4.5620   0.0196   4.1130 C.3            1 S1                 0.0000
      2 ****        -3.9014   0.6676   3.0370 O.3            1 S1                 0.0000
      3 ****        -4.6351   0.6402   1.8203 C.3            1 S1                 0.0000
      4 ****        -4.0161   1.6360   0.8332 C.3            1 S1                 0.0000
      5 ****        -3.2229   0.7677  -0.1456 C.3            1 S1                 0.0000
      6 ****        -2.9069   1.4310  -1.5069 C.3            1 S1                 0.0000
      7 ****        -1.9631   2.5402  -1.3927 N.pl3          1 S1                 0.0000
      8 ****        -2.4951   3.8796  -1.1447 C.3            1 S1                 0.0000
      9 ****        -0.6110   2.3416  -1.3594 C.ar           1 S1                 0.0000
     10 ****         0.1883   3.4411  -1.2902 N.ar           1 S1                 0.0000
     11 ****         1.5178   3.3294  -1.2587 C.ar           1 S1                 0.0000
     12 ****         2.2589   2.2234  -1.2843 N.ar           1 S1                 0.0000
     13 ****         1.4781   1.1092  -1.3503 C.ar           1 S1                 0.0000
     14 ****         0.0518   1.0721  -1.3923 C.ar           1 S1                 0.0000
     15 ****        -0.3644  -0.2563  -1.4521 N.2            1 S1                 0.0000
     16 ****         0.7383  -0.9523  -1.4469 C.2            1 S1                 0.0000
     17 ****         1.8926  -0.2109  -1.3813 N.pl3          1 S1                 0.0000
     18 ****         3.2508  -0.7270  -1.3568 C.3            1 S1                 0.0000
     19 ****         3.6529  -1.3186   0.0172 C.3            1 S1                 0.0000
     20 ****         3.4320  -0.3242   1.1835 C.3            1 S1                 0.0000
     21 ****         4.2621   0.8120   1.0578 O.3            1 S1                 0.0000
     22 ****         5.0955  -1.8847  -0.0037 C.3            1 S1                 0.0000
     23 ****         5.3293  -3.0022  -1.0053 C.3            1 S1                 0.0000
     24 ****         6.6128  -3.6381  -0.4827 C.3            1 S1                 0.0000
     25 ****         6.5680  -3.4872   0.9313 O.3            1 S1                 0.0000
     26 ****         5.5320  -2.5788   1.2911 C.3            1 S1                 0.0000
     27 ****        -3.9958  -0.4945  -0.2329 N.4            1 S1                 1.0000
     28 ****        -5.0682  -0.5220  -1.2579 C.3            1 S1                 0.0000
     29 ****        -4.5140  -0.7349   1.1319 C.3            1 S1                 0.0000
     30 ****        -5.6780   0.9103   1.9961 H              1 S1                 0.0000
     31 ****        -2.2842   0.5025   0.3429 H              1 S1                 0.0000
     32 ****        -3.9451   0.0817   5.0094 H              1 S1                 0.0000
     33 ****        -4.7382  -1.0355   3.9019 H              1 S1                 0.0000
     34 ****        -5.5186   0.4959   4.3320 H              1 S1                 0.0000
     35 ****        -4.8114   2.1608   0.3021 H              1 S1                 0.0000
     36 ****        -3.3977   2.3894   1.3222 H              1 S1                 0.0000
     37 ****        -2.5326   0.7023  -2.2239 H              1 S1                 0.0000
     38 ****        -3.8264   1.8115  -1.9528 H              1 S1                 0.0000
     39 ****        -2.1688   4.5734  -1.9204 H              1 S1                 0.0000
     40 ****        -2.1592   4.2561  -0.1776 H              1 S1                 0.0000
     41 ****        -3.5852   3.8803  -1.1402 H              1 S1                 0.0000
     42 ****         2.0658   4.2586  -1.2055 H              1 S1                 0.0000
     43 ****         0.7412  -2.0320  -1.4865 H              1 S1                 0.0000
     44 ****         3.3260  -1.4843  -2.1372 H              1 S1                 0.0000
     45 ****         3.9355   0.0729  -1.6407 H              1 S1                 0.0000
     46 ****         2.9834  -2.1594   0.2041 H              1 S1                 0.0000
     47 ****         2.3938   0.0039   1.2297 H              1 S1                 0.0000
     48 ****         3.6368  -0.7995   2.1424 H              1 S1                 0.0000
     49 ****         4.0855   1.3964   1.7792 H              1 S1                 0.0000
     50 ****         5.8009  -1.0805  -0.2202 H              1 S1                 0.0000
     51 ****         4.5128  -3.7249  -0.9703 H              1 S1                 0.0000
     52 ****         5.4300  -2.6490  -2.0320 H              1 S1                 0.0000
     53 ****         6.7078  -4.6855  -0.7699 H              1 S1                 0.0000
     54 ****         7.4837  -3.1017  -0.8611 H              1 S1                 0.0000
     55 ****         5.8774  -1.8722   2.0463 H              1 S1                 0.0000
     56 ****         4.7097  -3.1541   1.7187 H              1 S1                 0.0000
     57 ****        -5.7834   0.2878  -1.1081 H              1 S1                 0.0000
     58 ****        -5.6121  -1.4662  -1.2119 H              1 S1                 0.0000
     59 ****        -4.6587  -0.4409  -2.2647 H              1 S1                 0.0000
     60 ****        -3.7808  -1.3525   1.6521 H              1 S1                 0.0000
     61 ****        -5.4557  -1.2855   1.1388 H              1 S1                 0.0000
     62 ****        -3.3569  -1.2412  -0.4673 H              1 S1                 0.0000
     63 ****        -3.0227   0.2147   2.8866 LP             1 S1                 0.0000
     64 ****        -3.7453   1.6222   3.2907 LP             1 S1                 0.0000
     65 ****        -0.2285   4.3497  -1.2624 LP             1 S1                 0.0000
     66 ****         3.2585   2.2123  -1.2584 LP             1 S1                 0.0000
     67 ****        -1.3026  -0.6003  -1.4905 LP             1 S1                 0.0000
     68 ****         4.0689   1.2762   0.1934 LP             1 S1                 0.0000
     69 ****         5.2218   0.5319   1.0786 LP             1 S1                 0.0000
     70 ****         7.4457  -3.1335   1.2547 LP             1 S1                 0.0000
     71 ****         6.3907  -4.3760   1.3538 LP             1 S1                 0.0000
@<TRIPOS>BOND
    1    1    2 1     
    2    1   32 1     
    3    1   33 1     
    4    1   34 1     
    5    2    3 1     
    6    3   30 1     
    7    3   29 1     
    8    3    4 1     
    9    4    5 1     
   10    4   35 1     
   11    4   36 1     
   12    5   31 1     
   13    5    6 1     
   14    5   27 1     
   15    6    7 1     
   16    6   37 1     
   17    6   38 1     
   18    7    8 1     
   19    7    9 1     
   20    8   39 1     
   21    8   40 1     
   22    8   41 1     
   23    9   14 ar    
   24    9   10 ar    
   25   10   11 ar    
   26   11   12 ar    
   27   11   42 1     
   28   12   13 ar    
   29   13   17 1     
   30   13   14 ar    
   31   14   15 1     
   32   15   16 2     
   33   16   17 1     
   34   16   43 1     
   35   17   18 1     
   36   18   19 1     
   37   18   44 1     
   38   18   45 1     
   39   19   20 1     
   40   19   22 1     
   41   19   46 1     
   42   20   21 1     
   43   20   47 1     
   44   20   48 1     
   45   21   49 1     
   46   22   26 1     
   47   22   23 1     
   48   22   50 1     
   49   23   24 1     
   50   23   51 1     
   51   23   52 1     
   52   24   25 1     
   53   24   53 1     
   54   24   54 1     
   55   25   26 1     
   56   26   55 1     
   57   26   56 1     
   58   27   28 1     
   59   27   29 1     
   60   27   62 1     
   61   28   57 1     
   62   28   58 1     
   63   28   59 1     
   64   29   60 1     
   65   29   61 1     
   66    2   63 1     
   67    2   64 1     
   68   10   65 1     
   69   12   66 1     
   70   15   67 1     
   71   21   68 1     
   72   21   69 1     
   73   25   70 1     
   74   25   71 1     
@<TRIPOS>SUBSTRUCTURE
      1 S1             1
@<TRIPOS>SET
LONE_PAIRS      STATIC     ATOMS    <user>   **** ""
9 63 64 65 66 67 68 69 70 71
DONOR_HYDROGENS      STATIC     ATOMS    <user>   **** ""
2 49 62
ATOM$BLUE        STATIC     ATOMS    COLORGROUP SYSTEM
9 63 64 65 66 67 68 69 70 71
ATOM$RED        STATIC     ATOMS    COLORGROUP SYSTEM
2 49 62
