AV-unprocessed.smi:2729|AV-procd|sdf|10526|dock10
  -GOLD-   2272014573D 1   1.00000     0.00000
 Structure written by MMmdl.
 33 34  0  0  0  0  0  0  0  0  1 V2000
  149.7580  140.1593  154.4391 C   0  0  0  0  0  0  0  0  0  0  0  0
  148.5899  140.9986  154.9979 C   0  0  1  0  0  0  0  0  0  0  0  0
  149.0941  142.0766  155.8599 N   0  0  0  0  0  0  0  0  0  0  0  0
  149.8268  141.9754  156.9807 C   0  0  0  0  0  0  0  0  0  0  0  0
  150.1850  140.9070  157.4746 O   0  0  0  0  0  0  0  0  0  0  0  0
  150.1290  143.1921  157.4643 N   0  0  0  0  0  0  0  0  0  0  0  0
  150.8702  143.5219  158.6305 C   0  0  0  0  0  0  0  0  0  0  0  0
  151.9670  142.7699  159.1170 C   0  0  0  0  0  0  0  0  0  0  0  0
  152.6084  143.1903  160.2979 C   0  0  0  0  0  0  0  0  0  0  0  0
  152.1264  144.3402  160.9528 C   0  0  0  0  0  0  0  0  0  0  0  0
  151.0738  145.0586  160.5081 N   0  0  0  0  0  0  0  0  0  0  0  0
  150.4637  144.6492  159.3755 C   0  0  0  0  0  0  0  0  0  0  0  0
  147.6975  141.5665  153.8622 C   0  0  0  0  0  0  0  0  0  0  0  0
  146.3664  142.0480  154.4511 C   0  0  0  0  0  0  0  0  0  0  0  0
  146.0153  140.9246  155.8523 S   0  0  0  0  0  0  0  0  0  0  0  0
  145.8547  141.7250  157.0759 O   0  0  0  0  0  0  0  0  0  0  0  0
  145.0008  139.9372  155.4537 O   0  0  0  0  0  0  0  0  0  0  0  0
  147.6639  140.1191  155.8623 C   0  0  0  0  0  0  0  0  0  0  0  0
  149.3931  139.3064  153.8660 H   0  0  0  0  0  0  0  0  0  0  0  0
  150.3845  139.7701  155.2422 H   0  0  0  0  0  0  0  0  0  0  0  0
  150.3959  140.7396  153.7726 H   0  0  0  0  0  0  0  0  0  0  0  0
  148.8725  143.0124  155.5521 H   0  0  0  0  0  0  0  0  0  0  0  0
  149.8401  143.9778  156.8999 H   0  0  0  0  0  0  0  0  0  0  0  0
  152.3179  141.8781  158.6219 H   0  0  0  0  0  0  0  0  0  0  0  0
  153.4481  142.6398  160.6957 H   0  0  0  0  0  0  0  0  0  0  0  0
  152.5949  144.6884  161.8615 H   0  0  0  0  0  0  0  0  0  0  0  0
  149.6237  145.2461  159.0512 H   0  0  0  0  0  0  0  0  0  0  0  0
  148.1838  142.3517  153.2839 H   0  0  0  0  0  0  0  0  0  0  0  0
  147.4814  140.7640  153.1555 H   0  0  0  0  0  0  0  0  0  0  0  0
  146.4596  143.0611  154.8428 H   0  0  0  0  0  0  0  0  0  0  0  0
  145.5478  142.0246  153.7319 H   0  0  0  0  0  0  0  0  0  0  0  0
  147.5404  139.1303  155.4188 H   0  0  0  0  0  0  0  0  0  0  0  0
  148.0126  139.9843  156.8868 H   0  0  0  0  0  0  0  0  0  0  0  0
  1  2  1  0  0  0  0
  1 19  1  0  0  0  0
  1 20  1  0  0  0  0
  1 21  1  0  0  0  0
  2 18  1  0  0  0  0
  2  3  1  0  0  0  0
  2 13  1  0  0  0  0
  3  4  1  0  0  0  0
  3 22  1  0  0  0  0
  4  5  2  0  0  0  0
  4  6  1  0  0  0  0
  6  7  1  0  0  0  0
  6 23  1  0  0  0  0
  7 12  1  0  0  0  0
  7  8  2  0  0  0  0
  8  9  1  0  0  0  0
  8 24  1  0  0  0  0
  9 10  2  0  0  0  0
  9 25  1  0  0  0  0
 10 11  1  0  0  0  0
 10 26  1  0  0  0  0
 11 12  2  0  0  0  0
 12 27  1  0  0  0  0
 13 14  1  0  0  0  0
 13 28  1  0  0  0  0
 13 29  1  0  0  0  0
 14 15  1  0  0  0  0
 14 30  1  0  0  0  0
 14 31  1  0  0  0  0
 15 16  2  0  0  0  0
 15 17  2  0  0  0  0
 15 18  1  0  0  0  0
 18 32  1  0  0  0  0
 18 33  1  0  0  0  0
M  END
> <s_m_source_file>
AV-unprocessed.smi

> <i_m_source_file_index>
2729

> <i_lp_mmshare_version>
43012

> <i_f3d_flags>
0

> <s_epik_input>
Tz1TKD1PKShbQ0gyXTEpW0NIMl1bQ0gyXVtDQEBdMShbQ0gzXSlbTkhdQyg9TylbTkhdYzJbY0hdW2NIXVtjSF1uW2NIXTI=

> <s_epik_cmdline>
J2VwaWtfcHl0aG9uJywgJy1waCcsICc3LjAnLCAnLXRuJywgJzgnLCAnLW1hJywgJzIwMCcsICctbWV0YWxfYmluZGluZycsICctaW1hZScsICc8aW5maWxlLm1hZT4nLCAnLW9tYWUnLCAnPG91dGZpbGUubWFlPic=

> <r_epik_Ionization_Penalty>
0.00438887

> <r_epik_Ionization_Penalty_Charging>
0

> <r_epik_Ionization_Penalty_Neutral>
0.00438887

> <r_epik_State_Penalty>
0.00314315

> <r_epik_Charging_Adjusted_Penalty>
0.00314315

> <i_epik_Tot_Q>
0

> <i_epik_Tot_abs_Q>
0

> <r_epik_Metal_State_Penalty>
-0

> <b_epik_Metal_Only>
0

> <s_lp_Force_Field>
OPLS_2005

> <r_lp_Energy>
5.02931

> <b_lp_Chiralities_Consistent>
1

> <s_lp_Variant>
AV-unprocessed.smi:2729-1

> <Gold.Version>
5.8.1

> <Gold.Id.Protein>
6NUR|6NUR_protein|mol2

> <Gold.PLP.Fitness>
40.2221

> <Gold.PLP.PLP>
-31.7258

> <Gold.PLP.part.hbond>
-2.0000

> <Gold.PLP.part.metal>
0.0000

> <Gold.PLP.part.buried>
-4.5861

> <Gold.PLP.part.nonpolar>
-25.2787

> <Gold.PLP.part.repulsive>
0.5397

> <Gold.PLP.ligand.clash>
0.0000

> <Gold.PLP.ligand.torsion>
0.2595

> <Gold.PLP.Chemscore.Hbond>
2.0000

> <Gold.PLP.Chemscore.CHOScore>
1.0000

> <Gold.PLP.Chemscore.Metal>
0.0000

> <Gold.Chemscore.Hbonds>
donor molecule, donor type, donor heavy atom, donor atom, acceptor molecule, acceptor atom, score
      L1  H     3    22       P1  8028  1.00
      L1  H     6    23       P1  8028  1.00
      L1  C    12    27       P1  8029  0.91

> <Gold.PLP.Chemscore.Internal.Correction>
0.0153

> <Gold.Rescore>
     Score         DG    S(hbond)    S(metal)    S(lipo)     H(rot)  DE(clash)    DE(int)     intcor
     18.10     -19.00       1.94        0.00      81.91       1.00       0.01       0.88       ----

> <Gold.Chemscore.Fitness>
18.1046

> <Gold.Chemscore.DG>
-18.9987

> <Gold.Chemscore.ZeroCoef>
-5.4800

> <Gold.Chemscore.Hbond>
1.9447

> <Gold.Chemscore.Metal>
0.0000

> <Gold.Chemscore.Lipo>
81.9107

> <Gold.Chemscore.Internal_Hbond>
0.0000

> <Gold.Chemscore.DEClash>
0.0106

> <Gold.Chemscore.DEInternal>
0.8835

> <Gold.Chemscore.Rot>
1.0000

> <Gold.Chemscore.Internal.Correction>
   9.000000E+99

> <Gold.Chemscore.Hbonds>
donor molecule, donor type, donor heavy atom, donor atom, acceptor molecule, acceptor atom, score
      L1  H     3    22       P1  8028  0.98
      L1  H     6    23       P1  8028  0.92

> <Gold.Chemscore.Hbond.Weighted>
-6.4952

> <Gold.Chemscore.Metal.Weighted>
-0.0000

> <Gold.Chemscore.Lipo.Weighted>
-9.5836

> <Gold.Chemscore.Internal_Hbond.Weighted>
0.0000

> <Gold.Chemscore.DEClash.Weighted>
0.0106

> <Gold.Chemscore.DEInternal.Weighted>
0.8835

> <Gold.Chemscore.Rot.Weighted>
2.5600

> <Gold.Chemscore.Internal.Correction.Weighted>
   9.000000E+99

> <Gold.Protein.RotatedTorsions>
[ 6907 6896 6895 6894 ] final -159.52 input  -60.11 | X-H torsion
[ 7974 7965 7964 7962 ] final    1.65 input  175.53 | X-H torsion
[ 8008 7997 7996 7995 ] final   36.75 input   59.86 | X-H torsion
[ 10167 10162 10161 10158 ] final   -4.24 input  -65.29 | X-H torsion
[ 10718 10713 10712 10709 ] final -131.76 input   66.30 | X-H torsion
[ 10763 10752 10751 10750 ] final   12.84 input  -60.55 | X-H torsion
[ 11005 11000 10999 10996 ] final   13.07 input  -57.11 | X-H torsion

> <Gold.Protein.ActiveResidues>
 VAL166  LYS551  ARG553  GLY616  TRP617  ASP618  TYR619  PRO620  LYS621  CYS622 
 ASP623  PHE694  ASN695  SER759  ASP760  ASP761  ALA762  ILE779  LEU786  VAL792 
 PHE793  MET794  SER795  GLU796  ALA797  LYS798  CYS799  TRP800  GLU811  SER814 

> <Gold.Protein.RotatedAtoms>
  151.3348  133.3986  159.2665 H   0  0  0  0  0  0  0  0  0  0  0  0  # atno 6907 bound_to 6896
  150.9926  134.9258  159.7919 H   0  0  0  0  0  0  0  0  0  0  0  0  # atno 6908 bound_to 6896
  152.5252  134.3313  159.9236 H   0  0  0  0  0  0  0  0  0  0  0  0  # atno 6909 bound_to 6896
  146.2441  140.0955  142.8350 H   0  0  0  0  0  0  0  0  0  0  0  0  # atno 7974 bound_to 7965
  155.1925  140.3309  155.4356 H   0  0  0  0  0  0  0  0  0  0  0  0  # atno 8008 bound_to 7997
  156.2437  140.1907  156.6967 H   0  0  0  0  0  0  0  0  0  0  0  0  # atno 8009 bound_to 7997
  154.6196  140.0597  156.9584 H   0  0  0  0  0  0  0  0  0  0  0  0  # atno 8010 bound_to 7997
  140.6920  143.6446  150.8404 H   0  0  0  0  0  0  0  0  0  0  0  0  # atno 10167 bound_to 10162
  156.2276  130.7018  151.0824 H   0  0  0  0  0  0  0  0  0  0  0  0  # atno 10718 bound_to 10713
  153.1782  135.6823  153.8514 H   0  0  0  0  0  0  0  0  0  0  0  0  # atno 10763 bound_to 10752
  153.7855  135.3176  155.3373 H   0  0  0  0  0  0  0  0  0  0  0  0  # atno 10764 bound_to 10752
  154.8042  135.4759  154.0445 H   0  0  0  0  0  0  0  0  0  0  0  0  # atno 10765 bound_to 10752
  140.4849  134.0898  155.7758 H   0  0  0  0  0  0  0  0  0  0  0  0  # atno 11005 bound_to 11000
  145.0613  140.9090  143.4937 LP  0  0  0  0  0  0  0  0  0  0  0  0  # atno 17320 bound_to 7965
  145.1071  139.2782  143.5656 LP  0  0  0  0  0  0  0  0  0  0  0  0  # atno 17321 bound_to 7965
  140.0160  143.5592  152.2820 LP  0  0  0  0  0  0  0  0  0  0  0  0  # atno 17342 bound_to 10162
  139.6333  144.7647  151.2490 LP  0  0  0  0  0  0  0  0  0  0  0  0  # atno 17343 bound_to 10162
  157.7118  131.0730  150.6473 LP  0  0  0  0  0  0  0  0  0  0  0  0  # atno 17370 bound_to 10713
  156.6539  130.4493  149.5710 LP  0  0  0  0  0  0  0  0  0  0  0  0  # atno 17371 bound_to 10713
  141.1513  133.8964  157.2090 LP  0  0  0  0  0  0  0  0  0  0  0  0  # atno 17394 bound_to 11000
  139.9804  135.0100  156.9735 LP  0  0  0  0  0  0  0  0  0  0  0  0  # atno 17395 bound_to 11000

$$$$
