AV-unprocessed.smi:630|AV-procd|sdf|3124|dock8
  -GOLD-   22720 0 43D 1   1.00000     0.00000
 Structure written by MMmdl.
 36 37  0  0  0  0  0  0  0  0  2 V2000
  150.0711  137.0639  154.2343 N   0  0  0  0  0  0  0  0  0  0  0  0
  150.9384  136.5444  155.1073 C   0  0  0  0  0  0  0  0  0  0  0  0
  151.3028  135.3716  155.0423 O   0  0  0  0  0  0  0  0  0  0  0  0
  151.4667  137.4758  156.2164 C   0  0  1  0  0  0  0  0  0  0  0  0
  152.3264  138.6141  155.6110 C   0  0  0  0  0  0  0  0  0  0  0  0
  151.5772  139.8913  155.1937 C   0  0  0  0  0  0  0  0  0  0  0  0
  151.4338  140.8929  156.3502 C   0  0  0  0  0  0  0  0  0  0  0  0
  150.4066  140.4913  157.4173 C   0  0  0  0  0  0  0  0  0  0  0  0
  150.6453  139.1201  158.0751 C   0  0  0  0  0  0  0  0  0  0  0  0
  150.3076  137.9306  157.1499 C   0  0  2  0  0  0  0  0  0  0  0  0
  149.8906  136.7907  157.9733 N   0  0  0  0  0  0  0  0  0  0  0  0
  148.8697  136.7469  158.8424 C   0  0  0  0  0  0  0  0  0  0  0  0
  148.1705  137.7446  159.0322 O   0  0  0  0  0  0  0  0  0  0  0  0
  148.7198  135.5407  159.4362 N   0  5  0  0  0  0  0  0  0  0  0  0
  147.9430  135.4201  160.5250 C   0  0  0  0  0  0  0  0  0  0  0  0
  147.5603  136.4647  161.2684 N   0  0  0  0  0  0  0  0  0  0  0  0
  146.7614  136.1086  162.3566 C   0  0  0  0  0  0  0  0  0  0  0  0
  146.5384  134.7604  162.4494 C   0  0  0  0  0  0  0  0  0  0  0  0
  147.3288  133.8927  161.1642 S   0  0  0  0  0  0  0  0  0  0  0  0
  149.7250  136.4965  153.4746 H   0  0  0  0  0  0  0  0  0  0  0  0
  149.7889  138.0297  154.3189 H   0  0  0  0  0  0  0  0  0  0  0  0
  152.1601  136.8857  156.8194 H   0  0  0  0  0  0  0  0  0  0  0  0
  153.1199  138.8754  156.3123 H   0  0  0  0  0  0  0  0  0  0  0  0
  152.8581  138.2311  154.7381 H   0  0  0  0  0  0  0  0  0  0  0  0
  152.1545  140.3776  154.4067 H   0  0  0  0  0  0  0  0  0  0  0  0
  150.6081  139.6605  154.7506 H   0  0  0  0  0  0  0  0  0  0  0  0
  152.4046  141.0586  156.8187 H   0  0  0  0  0  0  0  0  0  0  0  0
  151.1375  141.8585  155.9392 H   0  0  0  0  0  0  0  0  0  0  0  0
  150.4146  141.2542  158.1964 H   0  0  0  0  0  0  0  0  0  0  0  0
  149.4037  140.5221  156.9896 H   0  0  0  0  0  0  0  0  0  0  0  0
  151.6632  139.0404  158.4585 H   0  0  0  0  0  0  0  0  0  0  0  0
  149.9972  139.0777  158.9521 H   0  0  0  0  0  0  0  0  0  0  0  0
  149.4682  138.2389  156.5240 H   0  0  0  0  0  0  0  0  0  0  0  0
  150.4293  135.9436  157.8682 H   0  0  0  0  0  0  0  0  0  0  0  0
  146.3961  136.8814  163.0163 H   0  0  0  0  0  0  0  0  0  0  0  0
  145.9618  134.2272  163.1900 H   0  0  0  0  0  0  0  0  0  0  0  0
  1  2  1  0  0  0  0
  1 20  1  0  0  0  0
  1 21  1  0  0  0  0
  2  3  2  0  0  0  0
  2  4  1  0  0  0  0
  4 10  1  0  0  0  0
  4  5  1  0  0  0  0
  4 22  1  0  0  0  0
  5  6  1  0  0  0  0
  5 23  1  0  0  0  0
  5 24  1  0  0  0  0
  6  7  1  0  0  0  0
  6 25  1  0  0  0  0
  6 26  1  0  0  0  0
  7  8  1  0  0  0  0
  7 27  1  0  0  0  0
  7 28  1  0  0  0  0
  8  9  1  0  0  0  0
  8 29  1  0  0  0  0
  8 30  1  0  0  0  0
  9 10  1  0  0  0  0
  9 31  1  0  0  0  0
  9 32  1  0  0  0  0
 10 11  1  0  0  0  0
 10 33  1  0  0  0  0
 11 12  1  0  0  0  0
 11 34  1  0  0  0  0
 12 13  2  0  0  0  0
 12 14  1  0  0  0  0
 14 15  1  0  0  0  0
 15 19  1  0  0  0  0
 15 16  2  0  0  0  0
 16 17  1  0  0  0  0
 17 18  2  0  0  0  0
 17 35  1  0  0  0  0
 18 19  1  0  0  0  0
 18 36  1  0  0  0  0
M  CHG  1  14  -1
M  END
> <s_m_source_file>
AV-unprocessed.smi

> <i_m_source_file_index>
630

> <i_lp_mmshare_version>
43012

> <i_f3d_flags>
0

> <s_epik_input>
W05IMl1DKD1PKVtDQEBIXTFbQ0gyXVtDSDJdW0NIMl1bQ0gyXVtDSDJdW0NASF0xW05IXUMoPU8pW05IXWMybltjSF1bY0hdczI=

> <s_epik_cmdline>
J2VwaWtfcHl0aG9uJywgJy1waCcsICc3LjAnLCAnLXRuJywgJzgnLCAnLW1hJywgJzIwMCcsICctbWV0YWxfYmluZGluZycsICctaW1hZScsICc8aW5maWxlLm1hZT4nLCAnLW9tYWUnLCAnPG91dGZpbGUubWFlPic=

> <r_lp_tautomer_probability>
0.999

> <r_epik_Ionization_Penalty>
8.29606

> <r_epik_Ionization_Penalty_Charging>
6.67551

> <r_epik_Ionization_Penalty_Neutral>
1.62055

> <r_epik_State_Penalty>
6.67568

> <r_epik_Charging_Adjusted_Penalty>
13.3512

> <i_epik_Tot_Q>
-1

> <i_epik_Tot_abs_Q>
1

> <r_epik_Metal_State_Penalty>
2.59802

> <b_epik_Metal_Only>
1

> <s_lp_Force_Field>
OPLS_2005

> <r_lp_Energy>
8.13293

> <b_lp_Chiralities_Consistent>
1

> <s_lp_Variant>
AV-unprocessed.smi:630-8

> <Gold.Version>
5.8.1

> <Gold.Id.Protein>
6NUR|6NUR_protein|mol2

> <Gold.PLP.Fitness>
47.3815

> <Gold.PLP.PLP>
-32.4828

> <Gold.PLP.part.hbond>
-5.6057

> <Gold.PLP.part.metal>
0.0000

> <Gold.PLP.part.buried>
-2.5608

> <Gold.PLP.part.nonpolar>
-24.7440

> <Gold.PLP.part.repulsive>
0.2565

> <Gold.PLP.ligand.clash>
0.0000

> <Gold.PLP.ligand.torsion>
0.1673

> <Gold.PLP.Chemscore.Hbond>
5.0381

> <Gold.PLP.Chemscore.CHOScore>
0.0000

> <Gold.PLP.Chemscore.Metal>
0.0000

> <Gold.Chemscore.Hbonds>
donor molecule, donor type, donor heavy atom, donor atom, acceptor molecule, acceptor atom, score
      L1  H     1    20       P1  7948  1.00
      P1  H  6896  6908       L1    14  1.20
      P1  H  6931  6943       L1    16  0.08
      P1  H 10752 10765       L1     3  0.93

> <Gold.PLP.Chemscore.Internal.Correction>
0.1192

> <Gold.Rescore>
     Score         DG    S(hbond)    S(metal)    S(lipo)     H(rot)  DE(clash)    DE(int)     intcor
     16.06     -17.93       2.80        0.00      59.40       1.50       0.03       1.84       ----

> <Gold.Chemscore.Fitness>
16.0595

> <Gold.Chemscore.DG>
-17.9288

> <Gold.Chemscore.ZeroCoef>
-5.4800

> <Gold.Chemscore.Hbond>
2.7994

> <Gold.Chemscore.Metal>
0.0000

> <Gold.Chemscore.Lipo>
59.4003

> <Gold.Chemscore.Internal_Hbond>
0.0000

> <Gold.Chemscore.DEClash>
0.0270

> <Gold.Chemscore.DEInternal>
1.8422

> <Gold.Chemscore.Rot>
1.5044

> <Gold.Chemscore.Internal.Correction>
   9.000000E+99

> <Gold.Chemscore.Hbonds>
donor molecule, donor type, donor heavy atom, donor atom, acceptor molecule, acceptor atom, score
      L1  H     1    20       P1  7948  0.39
      P1  H  6896  6908       L1    14  0.40
      P1  H  6931  6943       L1    16  0.08
      P1  H  6934  6947       L1    13  0.01
      P1  H 10752 10765       L1     3  0.23

> <Gold.Chemscore.Hbond.Weighted>
-9.3501

> <Gold.Chemscore.Metal.Weighted>
-0.0000

> <Gold.Chemscore.Lipo.Weighted>
-6.9498

> <Gold.Chemscore.Internal_Hbond.Weighted>
0.0000

> <Gold.Chemscore.DEClash.Weighted>
0.0270

> <Gold.Chemscore.DEInternal.Weighted>
1.8422

> <Gold.Chemscore.Rot.Weighted>
3.8512

> <Gold.Chemscore.Internal.Correction.Weighted>
   9.000000E+99

> <Gold.Protein.RotatedTorsions>
[ 6907 6896 6895 6894 ] final  164.01 input  -60.11 | X-H torsion
[ 7974 7965 7964 7962 ] final  100.52 input  175.53 | X-H torsion
[ 8008 7997 7996 7995 ] final  149.63 input   59.86 | X-H torsion
[ 10167 10162 10161 10158 ] final  -14.45 input  -65.29 | X-H torsion
[ 10718 10713 10712 10709 ] final   67.05 input   66.30 | X-H torsion
[ 10763 10752 10751 10750 ] final  172.81 input  -60.55 | X-H torsion
[ 11005 11000 10999 10996 ] final  160.25 input  -57.11 | X-H torsion

> <Gold.Protein.ActiveResidues>
 VAL166  LYS551  ARG553  GLY616  TRP617  ASP618  TYR619  PRO620  LYS621  CYS622 
 ASP623  PHE694  ASN695  SER759  ASP760  ASP761  ALA762  ILE779  LEU786  VAL792 
 PHE793  MET794  SER795  GLU796  ALA797  LYS798  CYS799  TRP800  GLU811  SER814 

> <Gold.Protein.RotatedAtoms>
  151.9164  133.3574  159.3881 H   0  0  0  0  0  0  0  0  0  0  0  0  # atno 6907 bound_to 6896
  150.7046  134.4680  159.5421 H   0  0  0  0  0  0  0  0  0  0  0  0  # atno 6908 bound_to 6896
  152.2295  134.8335  160.0526 H   0  0  0  0  0  0  0  0  0  0  0  0  # atno 6909 bound_to 6896
  145.3845  139.2373  143.3385 H   0  0  0  0  0  0  0  0  0  0  0  0  # atno 7974 bound_to 7965
  156.2747  140.2096  156.5889 H   0  0  0  0  0  0  0  0  0  0  0  0  # atno 8008 bound_to 7997
  154.6999  140.0522  157.0470 H   0  0  0  0  0  0  0  0  0  0  0  0  # atno 8009 bound_to 7997
  155.0750  140.3180  155.4622 H   0  0  0  0  0  0  0  0  0  0  0  0  # atno 8010 bound_to 7997
  140.7201  143.5320  150.9508 H   0  0  0  0  0  0  0  0  0  0  0  0  # atno 10167 bound_to 10162
  157.6207  130.9300  150.0191 H   0  0  0  0  0  0  0  0  0  0  0  0  # atno 10718 bound_to 10713
  154.4313  135.2760  155.1910 H   0  0  0  0  0  0  0  0  0  0  0  0  # atno 10763 bound_to 10752
  154.3815  135.6086  153.5797 H   0  0  0  0  0  0  0  0  0  0  0  0  # atno 10764 bound_to 10752
  152.9836  135.5881  154.4625 H   0  0  0  0  0  0  0  0  0  0  0  0  # atno 10765 bound_to 10752
  140.2041  134.8316  157.3050 H   0  0  0  0  0  0  0  0  0  0  0  0  # atno 11005 bound_to 11000
  146.2826  140.4518  142.8770 LP  0  0  0  0  0  0  0  0  0  0  0  0  # atno 17320 bound_to 7965
  144.8483  140.6963  143.6184 LP  0  0  0  0  0  0  0  0  0  0  0  0  # atno 17321 bound_to 7965
  139.9041  143.6800  152.3126 LP  0  0  0  0  0  0  0  0  0  0  0  0  # atno 17342 bound_to 10162
  139.7160  144.7612  151.1033 LP  0  0  0  0  0  0  0  0  0  0  0  0  # atno 17343 bound_to 10162
  156.1351  130.3643  149.9670 LP  0  0  0  0  0  0  0  0  0  0  0  0  # atno 17370 bound_to 10713
  156.7723  130.9191  151.3644 LP  0  0  0  0  0  0  0  0  0  0  0  0  # atno 17371 bound_to 10713
  140.2022  134.4240  155.7656 LP  0  0  0  0  0  0  0  0  0  0  0  0  # atno 17394 bound_to 11000
  141.2227  133.7077  156.8202 LP  0  0  0  0  0  0  0  0  0  0  0  0  # atno 17395 bound_to 11000

$$$$
