AV-unprocessed.smi:817|AV-procd|sdf|3828|dock8
  -GOLD-   22720 1273D 1   1.00000     0.00000
 Structure written by MMmdl.
 48 49  0  0  0  0  0  0  0  0  2 V2000
  151.5035  138.7520  154.8125 C   0  0  0  0  0  0  0  0  0  0  0  0
  150.0248  139.0243  155.1226 C   0  0  2  0  0  0  0  0  0  0  0  0
  149.4939  138.0595  156.1985 C   0  0  0  0  0  0  0  0  0  0  0  0
  147.9981  138.2771  156.4693 C   0  0  0  0  0  0  0  0  0  0  0  0
  147.1824  138.2016  155.1658 C   0  0  0  0  0  0  0  0  0  0  0  0
  147.6501  139.2408  154.1023 C   0  0  1  0  0  0  0  0  0  0  0  0
  146.8400  139.0477  152.7839 C   0  0  0  0  0  0  0  0  0  0  0  0
  146.9222  137.6874  152.2479 N   0  0  0  0  0  0  0  0  0  0  0  0
  145.9127  136.8226  152.0480 C   0  0  0  0  0  0  0  0  0  0  0  0
  144.7564  137.1211  152.3363 O   0  0  0  0  0  0  0  0  0  0  0  0
  146.2990  135.6361  151.5387 N   0  0  0  0  0  0  0  0  0  0  0  0
  145.5009  134.5102  151.2007 C   0  0  0  0  0  0  0  0  0  0  0  0
  146.0668  133.5301  150.3593 C   0  0  0  0  0  0  0  0  0  0  0  0
  145.2963  132.4104  149.9934 C   0  0  0  0  0  0  0  0  0  0  0  0
  143.9781  132.3176  150.4798 C   0  0  0  0  0  0  0  0  0  0  0  0
  143.4148  133.2530  151.2727 N   0  0  0  0  0  0  0  0  0  0  0  0
  144.1600  134.3241  151.6208 C   0  0  0  0  0  0  0  0  0  0  0  0
  147.4737  140.6469  154.6277 N   0  3  0  0  0  0  0  0  0  0  0  0
  146.0887  141.0300  155.0104 C   0  0  0  0  0  0  0  0  0  0  0  0
  148.1024  141.7265  153.8208 C   0  0  0  0  0  0  0  0  0  0  0  0
  149.1587  138.9358  153.8461 C   0  0  0  0  0  0  0  0  0  0  0  0
  151.6463  137.7500  154.4061 H   0  0  0  0  0  0  0  0  0  0  0  0
  152.1154  138.8363  155.7111 H   0  0  0  0  0  0  0  0  0  0  0  0
  151.8901  139.4645  154.0833 H   0  0  0  0  0  0  0  0  0  0  0  0
  149.9631  140.0385  155.5185 H   0  0  0  0  0  0  0  0  0  0  0  0
  149.6538  137.0291  155.8774 H   0  0  0  0  0  0  0  0  0  0  0  0
  150.0567  138.1829  157.1246 H   0  0  0  0  0  0  0  0  0  0  0  0
  147.6410  137.5221  157.1703 H   0  0  0  0  0  0  0  0  0  0  0  0
  147.8456  139.2404  156.9569 H   0  0  0  0  0  0  0  0  0  0  0  0
  147.2955  137.1917  154.7700 H   0  0  0  0  0  0  0  0  0  0  0  0
  146.1181  138.2899  155.3789 H   0  0  0  0  0  0  0  0  0  0  0  0
  145.7861  139.2735  152.9476 H   0  0  0  0  0  0  0  0  0  0  0  0
  147.1979  139.7307  152.0135 H   0  0  0  0  0  0  0  0  0  0  0  0
  147.8469  137.3624  152.0041 H   0  0  0  0  0  0  0  0  0  0  0  0
  147.2937  135.5076  151.4271 H   0  0  0  0  0  0  0  0  0  0  0  0
  147.0805  133.6303  149.9997 H   0  0  0  0  0  0  0  0  0  0  0  0
  145.7050  131.6409  149.3556 H   0  0  0  0  0  0  0  0  0  0  0  0
  143.3578  131.4724  150.2208 H   0  0  0  0  0  0  0  0  0  0  0  0
  143.6454  135.0470  152.2339 H   0  0  0  0  0  0  0  0  0  0  0  0
  145.4221  141.0617  154.1493 H   0  0  0  0  0  0  0  0  0  0  0  0
  146.0846  142.0252  155.4562 H   0  0  0  0  0  0  0  0  0  0  0  0
  145.6613  140.3673  155.7604 H   0  0  0  0  0  0  0  0  0  0  0  0
  147.6593  141.8052  152.8285 H   0  0  0  0  0  0  0  0  0  0  0  0
  149.1781  141.5974  153.7148 H   0  0  0  0  0  0  0  0  0  0  0  0
  147.9671  142.6912  154.3112 H   0  0  0  0  0  0  0  0  0  0  0  0
  149.5644  139.5753  153.0629 H   0  0  0  0  0  0  0  0  0  0  0  0
  149.2661  137.9253  153.4495 H   0  0  0  0  0  0  0  0  0  0  0  0
  147.9869  140.6521  155.4979 H   0  0  0  0  0  0  0  0  0  0  0  0
  1  2  1  0  0  0  0
  1 22  1  0  0  0  0
  1 23  1  0  0  0  0
  1 24  1  0  0  0  0
  2 21  1  0  0  0  0
  2  3  1  0  0  0  0
  2 25  1  0  0  0  0
  3  4  1  0  0  0  0
  3 26  1  0  0  0  0
  3 27  1  0  0  0  0
  4  5  1  0  0  0  0
  4 28  1  0  0  0  0
  4 29  1  0  0  0  0
  5  6  1  0  0  0  0
  5 30  1  0  0  0  0
  5 31  1  0  0  0  0
  6  7  1  0  0  0  0
  6 18  1  0  0  0  0
  6 21  1  0  0  0  0
  7  8  1  0  0  0  0
  7 32  1  0  0  0  0
  7 33  1  0  0  0  0
  8  9  1  0  0  0  0
  8 34  1  0  0  0  0
  9 10  2  0  0  0  0
  9 11  1  0  0  0  0
 11 12  1  0  0  0  0
 11 35  1  0  0  0  0
 12 17  1  0  0  0  0
 12 13  2  0  0  0  0
 13 14  1  0  0  0  0
 13 36  1  0  0  0  0
 14 15  2  0  0  0  0
 14 37  1  0  0  0  0
 15 16  1  0  0  0  0
 15 38  1  0  0  0  0
 16 17  2  0  0  0  0
 17 39  1  0  0  0  0
 18 19  1  0  0  0  0
 18 20  1  0  0  0  0
 18 48  1  0  0  0  0
 19 40  1  0  0  0  0
 19 41  1  0  0  0  0
 19 42  1  0  0  0  0
 20 43  1  0  0  0  0
 20 44  1  0  0  0  0
 20 45  1  0  0  0  0
 21 46  1  0  0  0  0
 21 47  1  0  0  0  0
M  CHG  1  18   1
M  END
> <s_m_source_file>
AV-unprocessed.smi

> <i_m_source_file_index>
817

> <i_lp_mmshare_version>
43012

> <i_f3d_flags>
0

> <s_epik_input>
W0NIM11bQ0BASF0oW0NIMl0xKVtDSDJdW0NIMl1bQ0gyXVtDQF0xKE4oW0NIM10pW0NIM10pW0NIMl1bTkhdQyg9TylbTkhdYzJbY0hdW2NIXVtjSF1uW2NIXTI=

> <s_epik_cmdline>
J2VwaWtfcHl0aG9uJywgJy1waCcsICc3LjAnLCAnLXRuJywgJzgnLCAnLW1hJywgJzIwMCcsICctbWV0YWxfYmluZGluZycsICctaW1hZScsICc8aW5maWxlLm1hZT4nLCAnLW9tYWUnLCAnPG91dGZpbGUubWFlPic=

> <r_lp_tautomer_probability>
1

> <r_epik_Ionization_Penalty>
0.00584939

> <r_epik_Ionization_Penalty_Charging>
0.00160539

> <r_epik_Ionization_Penalty_Neutral>
0.004244

> <r_epik_State_Penalty>
-0

> <r_epik_Charging_Adjusted_Penalty>
0.00160539

> <i_epik_Tot_Q>
1

> <i_epik_Tot_abs_Q>
1

> <r_epik_Metal_State_Penalty>
-0

> <b_epik_Metal_Only>
0

> <s_lp_Force_Field>
OPLS_2005

> <r_lp_Energy>
44.2375

> <b_lp_Chiralities_Consistent>
1

> <s_lp_Variant>
AV-unprocessed.smi:817-1

> <Gold.Version>
5.8.1

> <Gold.Id.Protein>
6NUR|6NUR_protein|mol2

> <Gold.PLP.Fitness>
37.9886

> <Gold.PLP.PLP>
-30.1036

> <Gold.PLP.part.hbond>
-2.0000

> <Gold.PLP.part.metal>
0.0000

> <Gold.PLP.part.buried>
-3.8903

> <Gold.PLP.part.nonpolar>
-25.2715

> <Gold.PLP.part.repulsive>
0.8024

> <Gold.PLP.ligand.clash>
0.0000

> <Gold.PLP.ligand.torsion>
0.1334

> <Gold.PLP.Chemscore.Hbond>
1.9440

> <Gold.PLP.Chemscore.CHOScore>
0.7335

> <Gold.PLP.Chemscore.Metal>
0.0000

> <Gold.Chemscore.Hbonds>
donor molecule, donor type, donor heavy atom, donor atom, acceptor molecule, acceptor atom, score
      L1  H     8    34       P1  7948  1.00
      L1  H    11    35       P1  7948  0.90
      L1  C    15    38       P1 10952  0.20

> <Gold.PLP.Chemscore.Internal.Correction>
0.1194

> <Gold.Rescore>
     Score         DG    S(hbond)    S(metal)    S(lipo)     H(rot)  DE(clash)    DE(int)     intcor
     15.84     -17.56       1.92        0.00      80.05       1.44       0.12       1.60       ----

> <Gold.Chemscore.Fitness>
15.8399

> <Gold.Chemscore.DG>
-17.5558

> <Gold.Chemscore.ZeroCoef>
-5.4800

> <Gold.Chemscore.Hbond>
1.9154

> <Gold.Chemscore.Metal>
0.0000

> <Gold.Chemscore.Lipo>
80.0523

> <Gold.Chemscore.Internal_Hbond>
0.0000

> <Gold.Chemscore.DEClash>
0.1164

> <Gold.Chemscore.DEInternal>
1.5995

> <Gold.Chemscore.Rot>
1.4405

> <Gold.Chemscore.Internal.Correction>
   9.000000E+99

> <Gold.Chemscore.Hbonds>
donor molecule, donor type, donor heavy atom, donor atom, acceptor molecule, acceptor atom, score
      L1  H     8    34       P1  7948  0.94
      L1  H    11    35       P1  7948  0.83

> <Gold.Chemscore.Hbond.Weighted>
-6.3975

> <Gold.Chemscore.Metal.Weighted>
-0.0000

> <Gold.Chemscore.Lipo.Weighted>
-9.3661

> <Gold.Chemscore.Internal_Hbond.Weighted>
0.0000

> <Gold.Chemscore.DEClash.Weighted>
0.1164

> <Gold.Chemscore.DEInternal.Weighted>
1.5995

> <Gold.Chemscore.Rot.Weighted>
3.6878

> <Gold.Chemscore.Internal.Correction.Weighted>
   9.000000E+99

> <Gold.Protein.RotatedTorsions>
[ 6907 6896 6895 6894 ] final -163.74 input  -60.11 | X-H torsion
[ 7974 7965 7964 7962 ] final   15.39 input  175.53 | X-H torsion
[ 8008 7997 7996 7995 ] final  -91.12 input   59.86 | X-H torsion
[ 10167 10162 10161 10158 ] final -171.06 input  -65.29 | X-H torsion
[ 10718 10713 10712 10709 ] final  124.76 input   66.30 | X-H torsion
[ 10763 10752 10751 10750 ] final -138.96 input  -60.55 | X-H torsion
[ 11005 11000 10999 10996 ] final -173.17 input  -57.11 | X-H torsion

> <Gold.Protein.ActiveResidues>
 VAL166  LYS551  ARG553  GLY616  TRP617  ASP618  TYR619  PRO620  LYS621  CYS622 
 ASP623  PHE694  ASN695  SER759  ASP760  ASP761  ALA762  ILE779  LEU786  VAL792 
 PHE793  MET794  SER795  GLU796  ALA797  LYS798  CYS799  TRP800  GLU811  SER814 

> <Gold.Protein.RotatedAtoms>
  151.4008  133.3758  159.2731 H   0  0  0  0  0  0  0  0  0  0  0  0  # atno 6907 bound_to 6896
  150.9435  134.8843  159.7638 H   0  0  0  0  0  0  0  0  0  0  0  0  # atno 6908 bound_to 6896
  152.5081  134.3959  159.9452 H   0  0  0  0  0  0  0  0  0  0  0  0  # atno 6909 bound_to 6896
  146.2279  139.8901  142.8556 H   0  0  0  0  0  0  0  0  0  0  0  0  # atno 7974 bound_to 7965
  154.7069  140.0523  157.0512 H   0  0  0  0  0  0  0  0  0  0  0  0  # atno 8008 bound_to 7997
  155.0608  140.3189  155.4642 H   0  0  0  0  0  0  0  0  0  0  0  0  # atno 8009 bound_to 7997
  156.2777  140.2099  156.5735 H   0  0  0  0  0  0  0  0  0  0  0  0  # atno 8010 bound_to 7997
  139.5825  144.1392  152.1533 H   0  0  0  0  0  0  0  0  0  0  0  0  # atno 10167 bound_to 10162
  157.5558  131.1092  150.8623 H   0  0  0  0  0  0  0  0  0  0  0  0  # atno 10718 bound_to 10713
  154.8623  135.3596  154.5469 H   0  0  0  0  0  0  0  0  0  0  0  0  # atno 10763 bound_to 10752
  153.6089  135.7010  153.5359 H   0  0  0  0  0  0  0  0  0  0  0  0  # atno 10764 bound_to 10752
  153.3227  135.4147  155.1391 H   0  0  0  0  0  0  0  0  0  0  0  0  # atno 10765 bound_to 10752
  140.4888  134.6005  157.4947 H   0  0  0  0  0  0  0  0  0  0  0  0  # atno 11005 bound_to 11000
  145.2426  141.0015  143.3927 LP  0  0  0  0  0  0  0  0  0  0  0  0  # atno 17320 bound_to 7965
  144.9440  139.4157  143.6435 LP  0  0  0  0  0  0  0  0  0  0  0  0  # atno 17321 bound_to 7965
  140.0948  144.5590  150.7029 LP  0  0  0  0  0  0  0  0  0  0  0  0  # atno 17342 bound_to 10162
  140.7101  143.2498  151.4607 LP  0  0  0  0  0  0  0  0  0  0  0  0  # atno 17343 bound_to 10162
  156.9135  130.5289  149.5280 LP  0  0  0  0  0  0  0  0  0  0  0  0  # atno 17370 bound_to 10713
  156.0618  130.5669  150.9207 LP  0  0  0  0  0  0  0  0  0  0  0  0  # atno 17371 bound_to 10713
  139.9782  134.7181  155.9910 LP  0  0  0  0  0  0  0  0  0  0  0  0  # atno 17394 bound_to 11000
  141.1494  133.6550  156.3968 LP  0  0  0  0  0  0  0  0  0  0  0  0  # atno 17395 bound_to 11000

$$$$
