AV-unprocessed.smi:1126|AV-procd|sdf|4838|dock10
  -GOLD-   22720 3403D 1   1.00000     0.00000
 Structure written by MMmdl.
 48 49  0  0  0  0  0  0  0  0  2 V2000
  143.2147  136.1579  152.7775 C   0  0  0  0  0  0  0  0  0  0  0  0
  143.5663  136.9401  153.9054 O   0  0  0  0  0  0  0  0  0  0  0  0
  144.7497  137.6938  153.6985 C   0  0  0  0  0  0  0  0  0  0  0  0
  144.9240  138.6733  154.8692 C   0  0  0  0  0  0  0  0  0  0  0  0
  145.7610  139.8453  154.5065 N   0  3  2  0  0  0  0  0  0  0  0  0
  147.0793  139.4451  153.9516 C   0  0  0  0  0  0  0  0  0  0  0  0
  147.8702  140.6685  153.4532 C   0  0  0  0  0  0  0  0  0  0  0  0
  148.0549  141.7317  154.5521 C   0  0  2  0  0  0  0  0  0  0  0  0
  149.1002  141.2995  155.6067 C   0  0  0  0  0  0  0  0  0  0  0  0
  149.8414  142.4322  156.1516 N   0  0  0  0  0  0  0  0  0  0  0  0
  150.9371  142.3545  156.9238 C   0  0  0  0  0  0  0  0  0  0  0  0
  151.4311  141.2909  157.2976 O   0  0  0  0  0  0  0  0  0  0  0  0
  151.5670  143.6822  157.3488 C   0  0  0  0  0  0  0  0  0  0  0  0
  151.8597  143.6956  158.7713 N   0  0  0  0  0  0  0  0  0  0  0  0
  152.4940  142.7301  159.5245 C   0  0  0  0  0  0  0  0  0  0  0  0
  152.5539  143.1855  160.8112 C   0  0  0  0  0  0  0  0  0  0  0  0
  153.1471  142.5158  162.0170 C   0  0  0  0  0  0  0  0  0  0  0  0
  151.9182  144.4577  160.7418 C   0  0  0  0  0  0  0  0  0  0  0  0
  151.5044  144.7608  159.5221 N   0  0  0  0  0  0  0  0  0  0  0  0
  146.6692  142.0817  155.1340 C   0  0  0  0  0  0  0  0  0  0  0  0
  145.9069  140.8321  155.6091 C   0  0  0  0  0  0  0  0  0  0  0  0
  142.3022  135.5999  152.9887 H   0  0  0  0  0  0  0  0  0  0  0  0
  143.9994  135.4400  152.5355 H   0  0  0  0  0  0  0  0  0  0  0  0
  143.0312  136.7848  151.9040 H   0  0  0  0  0  0  0  0  0  0  0  0
  145.6130  137.0367  153.5932 H   0  0  0  0  0  0  0  0  0  0  0  0
  144.6628  138.2554  152.7671 H   0  0  0  0  0  0  0  0  0  0  0  0
  143.9532  139.0135  155.2324 H   0  0  0  0  0  0  0  0  0  0  0  0
  145.3865  138.1302  155.6948 H   0  0  0  0  0  0  0  0  0  0  0  0
  147.6463  138.9009  154.7079 H   0  0  0  0  0  0  0  0  0  0  0  0
  146.9311  138.7583  153.1173 H   0  0  0  0  0  0  0  0  0  0  0  0
  148.8390  140.3546  153.0631 H   0  0  0  0  0  0  0  0  0  0  0  0
  147.3380  141.1136  152.6113 H   0  0  0  0  0  0  0  0  0  0  0  0
  148.4470  142.6297  154.0723 H   0  0  0  0  0  0  0  0  0  0  0  0
  148.6410  140.7165  156.4058 H   0  0  0  0  0  0  0  0  0  0  0  0
  149.8311  140.6376  155.1409 H   0  0  0  0  0  0  0  0  0  0  0  0
  149.5126  143.3534  155.8989 H   0  0  0  0  0  0  0  0  0  0  0  0
  152.4844  143.8562  156.7840 H   0  0  0  0  0  0  0  0  0  0  0  0
  150.8900  144.5075  157.1243 H   0  0  0  0  0  0  0  0  0  0  0  0
  152.8489  141.8093  159.0848 H   0  0  0  0  0  0  0  0  0  0  0  0
  152.6848  142.8632  162.9411 H   0  0  0  0  0  0  0  0  0  0  0  0
  154.2163  142.7109  162.0987 H   0  0  0  0  0  0  0  0  0  0  0  0
  153.0191  141.4337  161.9820 H   0  0  0  0  0  0  0  0  0  0  0  0
  151.7474  145.1673  161.5383 H   0  0  0  0  0  0  0  0  0  0  0  0
  146.7551  142.8015  155.9474 H   0  0  0  0  0  0  0  0  0  0  0  0
  146.0781  142.5803  154.3646 H   0  0  0  0  0  0  0  0  0  0  0  0
  144.9274  141.1403  155.9727 H   0  0  0  0  0  0  0  0  0  0  0  0
  146.4193  140.3685  156.4530 H   0  0  0  0  0  0  0  0  0  0  0  0
  145.2748  140.3148  153.7556 H   0  0  0  0  0  0  0  0  0  0  0  0
  1  2  1  0  0  0  0
  1 22  1  0  0  0  0
  1 23  1  0  0  0  0
  1 24  1  0  0  0  0
  2  3  1  0  0  0  0
  3  4  1  0  0  0  0
  3 25  1  0  0  0  0
  3 26  1  0  0  0  0
  4  5  1  0  0  0  0
  4 27  1  0  0  0  0
  4 28  1  0  0  0  0
  5 21  1  0  0  0  0
  5  6  1  0  0  0  0
  5 48  1  0  0  0  0
  6  7  1  0  0  0  0
  6 29  1  0  0  0  0
  6 30  1  0  0  0  0
  7  8  1  0  0  0  0
  7 31  1  0  0  0  0
  7 32  1  0  0  0  0
  8  9  1  0  0  0  0
  8 20  1  0  0  0  0
  8 33  1  0  0  0  0
  9 10  1  0  0  0  0
  9 34  1  0  0  0  0
  9 35  1  0  0  0  0
 10 11  1  0  0  0  0
 10 36  1  0  0  0  0
 11 12  2  0  0  0  0
 11 13  1  0  0  0  0
 13 14  1  0  0  0  0
 13 37  1  0  0  0  0
 13 38  1  0  0  0  0
 14 19  1  0  0  0  0
 14 15  1  0  0  0  0
 15 16  2  0  0  0  0
 15 39  1  0  0  0  0
 16 17  1  0  0  0  0
 16 18  1  0  0  0  0
 17 40  1  0  0  0  0
 17 41  1  0  0  0  0
 17 42  1  0  0  0  0
 18 19  2  0  0  0  0
 18 43  1  0  0  0  0
 20 21  1  0  0  0  0
 20 44  1  0  0  0  0
 20 45  1  0  0  0  0
 21 46  1  0  0  0  0
 21 47  1  0  0  0  0
M  CHG  1   5   1
M  END
> <s_m_source_file>
AV-unprocessed.smi

> <i_m_source_file_index>
1126

> <i_lp_mmshare_version>
43012

> <i_f3d_flags>
0

> <s_epik_input>
W0NIM11PW0NIMl1bQ0gyXU4xW0NIMl1bQ0gyXVtDSF0oW0NIMl1bQ0gyXTEpW0NIMl1bTkhdQyg9TylbQ0gyXW4yW2NIXWMoW0NIM10pW2NIXW4y

> <s_epik_cmdline>
J2VwaWtfcHl0aG9uJywgJy1waCcsICc3LjAnLCAnLXRuJywgJzgnLCAnLW1hJywgJzIwMCcsICctbWV0YWxfYmluZGluZycsICctaW1hZScsICc8aW5maWxlLm1hZT4nLCAnLW9tYWUnLCAnPG91dGZpbGUubWFlPic=

> <r_lp_tautomer_probability>
1

> <r_epik_Ionization_Penalty>
0.00992859

> <r_epik_Ionization_Penalty_Charging>
0.00990284

> <r_epik_Ionization_Penalty_Neutral>
2.57527e-05

> <r_epik_State_Penalty>
0.00754525

> <r_epik_Charging_Adjusted_Penalty>
0.0174481

> <i_epik_Tot_Q>
1

> <i_epik_Tot_abs_Q>
1

> <r_epik_Metal_State_Penalty>
0.00754529

> <b_epik_Metal_Only>
0

> <s_lp_Force_Field>
OPLS_2005

> <r_lp_Energy>
20.6922

> <b_lp_Chiralities_Consistent>
1

> <s_lp_Variant>
AV-unprocessed.smi:1126-2

> <Gold.Version>
5.8.1

> <Gold.Id.Protein>
6NUR|6NUR_protein|mol2

> <Gold.PLP.Fitness>
48.4005

> <Gold.PLP.PLP>
-41.0741

> <Gold.PLP.part.hbond>
-2.0000

> <Gold.PLP.part.metal>
0.0000

> <Gold.PLP.part.buried>
-3.9004

> <Gold.PLP.part.nonpolar>
-36.3178

> <Gold.PLP.part.repulsive>
0.3099

> <Gold.PLP.ligand.clash>
0.0000

> <Gold.PLP.ligand.torsion>
0.8869

> <Gold.PLP.Chemscore.Hbond>
3.0000

> <Gold.PLP.Chemscore.CHOScore>
0.0000

> <Gold.PLP.Chemscore.Metal>
0.0000

> <Gold.Chemscore.Hbonds>
donor molecule, donor type, donor heavy atom, donor atom, acceptor molecule, acceptor atom, score
      L1  H     5    48       P1 10175  1.92
      L1  H    10    36       P1  8028  0.98

> <Gold.PLP.Chemscore.Internal.Correction>
0.1001

> <Gold.Rescore>
     Score         DG    S(hbond)    S(metal)    S(lipo)     H(rot)  DE(clash)    DE(int)     intcor
     15.65     -17.64       1.95        0.00      94.19       2.10       0.01       1.97       ----

> <Gold.Chemscore.Fitness>
15.6528

> <Gold.Chemscore.DG>
-17.6387

> <Gold.Chemscore.ZeroCoef>
-5.4800

> <Gold.Chemscore.Hbond>
1.9508

> <Gold.Chemscore.Metal>
0.0000

> <Gold.Chemscore.Lipo>
94.1942

> <Gold.Chemscore.Internal_Hbond>
0.0000

> <Gold.Chemscore.DEClash>
0.0146

> <Gold.Chemscore.DEInternal>
1.9713

> <Gold.Chemscore.Rot>
2.1006

> <Gold.Chemscore.Internal.Correction>
   9.000000E+99

> <Gold.Chemscore.Hbonds>
donor molecule, donor type, donor heavy atom, donor atom, acceptor molecule, acceptor atom, score
      L1  H     5    48       P1 10175  0.87
      L1  H    10    36       P1  8028  0.92

> <Gold.Chemscore.Hbond.Weighted>
-6.5155

> <Gold.Chemscore.Metal.Weighted>
-0.0000

> <Gold.Chemscore.Lipo.Weighted>
-11.0207

> <Gold.Chemscore.Internal_Hbond.Weighted>
0.0000

> <Gold.Chemscore.DEClash.Weighted>
0.0146

> <Gold.Chemscore.DEInternal.Weighted>
1.9713

> <Gold.Chemscore.Rot.Weighted>
5.3775

> <Gold.Chemscore.Internal.Correction.Weighted>
   9.000000E+99

> <Gold.Protein.RotatedTorsions>
[ 6907 6896 6895 6894 ] final    6.15 input  -60.11 | X-H torsion
[ 7974 7965 7964 7962 ] final -150.51 input  175.53 | X-H torsion
[ 8008 7997 7996 7995 ] final  -68.82 input   59.86 | X-H torsion
[ 10167 10162 10161 10158 ] final   26.97 input  -65.29 | X-H torsion
[ 10718 10713 10712 10709 ] final  166.35 input   66.30 | X-H torsion
[ 10763 10752 10751 10750 ] final   92.74 input  -60.55 | X-H torsion
[ 11005 11000 10999 10996 ] final -128.07 input  -57.11 | X-H torsion

> <Gold.Protein.ActiveResidues>
 VAL166  LYS551  ARG553  GLY616  TRP617  ASP618  TYR619  PRO620  LYS621  CYS622 
 ASP623  PHE694  ASN695  SER759  ASP760  ASP761  ALA762  ILE779  LEU786  VAL792 
 PHE793  MET794  SER795  GLU796  ALA797  LYS798  CYS799  TRP800  GLU811  SER814 

> <Gold.Protein.RotatedAtoms>
  151.6691  135.0978  160.0194 H   0  0  0  0  0  0  0  0  0  0  0  0  # atno 6907 bound_to 6896
  152.3902  133.6664  159.6240 H   0  0  0  0  0  0  0  0  0  0  0  0  # atno 6908 bound_to 6896
  150.7819  133.8884  159.3347 H   0  0  0  0  0  0  0  0  0  0  0  0  # atno 6909 bound_to 6896
  144.7903  140.4922  143.5777 H   0  0  0  0  0  0  0  0  0  0  0  0  # atno 7974 bound_to 7965
  154.4895  140.0865  156.7562 H   0  0  0  0  0  0  0  0  0  0  0  0  # atno 8008 bound_to 7997
  155.4267  140.3448  155.4258 H   0  0  0  0  0  0  0  0  0  0  0  0  # atno 8009 bound_to 7997
  156.1309  140.1501  156.9054 H   0  0  0  0  0  0  0  0  0  0  0  0  # atno 8010 bound_to 7997
  140.4978  144.0364  150.6321 H   0  0  0  0  0  0  0  0  0  0  0  0  # atno 10167 bound_to 10162
  157.0672  131.0356  151.2625 H   0  0  0  0  0  0  0  0  0  0  0  0  # atno 10718 bound_to 10713
  153.2225  135.4350  155.0505 H   0  0  0  0  0  0  0  0  0  0  0  0  # atno 10763 bound_to 10752
  154.8257  135.3359  154.6906 H   0  0  0  0  0  0  0  0  0  0  0  0  # atno 10764 bound_to 10752
  153.7338  135.7009  153.5039 H   0  0  0  0  0  0  0  0  0  0  0  0  # atno 10765 bound_to 10752
  140.9547  134.1018  157.4028 H   0  0  0  0  0  0  0  0  0  0  0  0  # atno 11005 bound_to 11000
  145.5811  139.1489  143.3234 LP  0  0  0  0  0  0  0  0  0  0  0  0  # atno 17320 bound_to 7965
  146.2152  140.5941  142.9041 LP  0  0  0  0  0  0  0  0  0  0  0  0  # atno 17321 bound_to 7965
  140.3651  143.2886  152.0340 LP  0  0  0  0  0  0  0  0  0  0  0  0  # atno 17342 bound_to 10162
  139.4865  144.6273  151.7139 LP  0  0  0  0  0  0  0  0  0  0  0  0  # atno 17343 bound_to 10162
  157.4907  130.7820  149.7505 LP  0  0  0  0  0  0  0  0  0  0  0  0  # atno 17370 bound_to 10713
  155.9961  130.3908  150.2792 LP  0  0  0  0  0  0  0  0  0  0  0  0  # atno 17371 bound_to 10713
  139.8858  135.0076  156.6459 LP  0  0  0  0  0  0  0  0  0  0  0  0  # atno 17394 bound_to 11000
  140.7553  133.8862  155.8377 LP  0  0  0  0  0  0  0  0  0  0  0  0  # atno 17395 bound_to 11000

$$$$
