AV-unprocessed.smi:1703|AV-procd|sdf|6855|dock8
  -GOLD-   22720 8 33D 1   1.00000     0.00000
 Structure written by MMmdl.
 48 50  0  0  0  0  0  0  0  0  1 V2000
  156.8945  142.2571  168.3045 C   0  0  0  0  0  0  0  0  0  0  0  0
  155.4567  142.0490  167.7983 C   0  0  2  0  0  0  0  0  0  0  0  0
  155.3094  140.8386  166.8551 C   0  0  0  0  0  0  0  0  0  0  0  0
  155.8772  141.0776  165.5322 N   0  0  0  0  0  0  0  0  0  0  0  0
  155.7076  139.9021  164.6768 C   0  0  0  0  0  0  0  0  0  0  0  0
  156.1042  140.0945  163.1963 C   0  0  1  0  0  0  0  0  0  0  0  0
  157.4937  139.8723  163.0754 O   0  0  0  0  0  0  0  0  0  0  0  0
  155.3944  139.1191  162.2346 C   0  0  0  0  0  0  0  0  0  0  0  0
  154.6986  139.7941  161.1469 N   0  0  0  0  0  0  0  0  0  0  0  0
  154.6339  139.4313  159.8407 C   0  0  0  0  0  0  0  0  0  0  0  0
  155.3024  138.1972  159.3171 C   0  0  0  0  0  0  0  0  0  0  0  0
  156.1986  138.4707  158.2615 O   0  0  0  0  0  0  0  0  0  0  0  0
  153.9266  140.2379  159.0486 N   0  0  0  0  0  0  0  0  0  0  0  0
  153.4812  141.2093  159.9234 C   0  0  0  0  0  0  0  0  0  0  0  0
  152.6781  142.3499  159.6970 C   0  0  0  0  0  0  0  0  0  0  0  0
  152.3467  143.2125  160.7624 C   0  0  0  0  0  0  0  0  0  0  0  0
  152.8117  142.9473  162.0667 C   0  0  0  0  0  0  0  0  0  0  0  0
  153.6132  141.8163  162.3139 C   0  0  0  0  0  0  0  0  0  0  0  0
  153.9426  140.9587  161.2468 C   0  0  0  0  0  0  0  0  0  0  0  0
  155.2659  142.2781  164.9681 C   0  0  0  0  0  0  0  0  0  0  0  0
  155.4597  143.5051  165.8778 C   0  0  1  0  0  0  0  0  0  0  0  0
  154.7416  144.7446  165.3335 C   0  0  0  0  0  0  0  0  0  0  0  0
  154.9376  143.2248  167.1752 O   0  0  0  0  0  0  0  0  0  0  0  0
  157.2329  141.3922  168.8754 H   0  0  0  0  0  0  0  0  0  0  0  0
  156.9539  143.1276  168.9579 H   0  0  0  0  0  0  0  0  0  0  0  0
  157.6008  142.4037  167.4875 H   0  0  0  0  0  0  0  0  0  0  0  0
  154.8342  141.8678  168.6750 H   0  0  0  0  0  0  0  0  0  0  0  0
  155.7772  139.9648  167.3105 H   0  0  0  0  0  0  0  0  0  0  0  0
  154.2494  140.5996  166.7546 H   0  0  0  0  0  0  0  0  0  0  0  0
  156.2992  139.0769  165.0762 H   0  0  0  0  0  0  0  0  0  0  0  0
  154.6689  139.5774  164.7401 H   0  0  0  0  0  0  0  0  0  0  0  0
  155.8964  141.1125  162.8729 H   0  0  0  0  0  0  0  0  0  0  0  0
  157.8561  140.5543  162.5303 H   0  0  0  0  0  0  0  0  0  0  0  0
  156.1114  138.4161  161.8093 H   0  0  0  0  0  0  0  0  0  0  0  0
  154.6709  138.5130  162.7813 H   0  0  0  0  0  0  0  0  0  0  0  0
  155.8541  137.7164  160.1258 H   0  0  0  0  0  0  0  0  0  0  0  0
  154.5549  137.4801  158.9806 H   0  0  0  0  0  0  0  0  0  0  0  0
  155.9123  139.2555  157.8203 H   0  0  0  0  0  0  0  0  0  0  0  0
  152.3161  142.5611  158.7017 H   0  0  0  0  0  0  0  0  0  0  0  0
  151.7323  144.0817  160.5782 H   0  0  0  0  0  0  0  0  0  0  0  0
  152.5531  143.6129  162.8773 H   0  0  0  0  0  0  0  0  0  0  0  0
  153.9725  141.6126  163.3117 H   0  0  0  0  0  0  0  0  0  0  0  0
  155.6967  142.5034  163.9937 H   0  0  0  0  0  0  0  0  0  0  0  0
  154.2002  142.1080  164.8062 H   0  0  0  0  0  0  0  0  0  0  0  0
  156.5229  143.7338  165.9579 H   0  0  0  0  0  0  0  0  0  0  0  0
  155.1173  145.0136  164.3460 H   0  0  0  0  0  0  0  0  0  0  0  0
  154.8915  145.6016  165.9906 H   0  0  0  0  0  0  0  0  0  0  0  0
  153.6682  144.5733  165.2486 H   0  0  0  0  0  0  0  0  0  0  0  0
  1  2  1  0  0  0  0
  1 24  1  0  0  0  0
  1 25  1  0  0  0  0
  1 26  1  0  0  0  0
  2 23  1  0  0  0  0
  2  3  1  0  0  0  0
  2 27  1  0  0  0  0
  3  4  1  0  0  0  0
  3 28  1  0  0  0  0
  3 29  1  0  0  0  0
  4  5  1  0  0  0  0
  4 20  1  0  0  0  0
  5  6  1  0  0  0  0
  5 30  1  0  0  0  0
  5 31  1  0  0  0  0
  6  7  1  0  0  0  0
  6  8  1  0  0  0  0
  6 32  1  0  0  0  0
  7 33  1  0  0  0  0
  8  9  1  0  0  0  0
  8 34  1  0  0  0  0
  8 35  1  0  0  0  0
  9 19  1  0  0  0  0
  9 10  1  0  0  0  0
 10 11  1  0  0  0  0
 10 13  2  0  0  0  0
 11 12  1  0  0  0  0
 11 36  1  0  0  0  0
 11 37  1  0  0  0  0
 12 38  1  0  0  0  0
 13 14  1  0  0  0  0
 14 19  2  0  0  0  0
 14 15  1  0  0  0  0
 15 16  2  0  0  0  0
 15 39  1  0  0  0  0
 16 17  1  0  0  0  0
 16 40  1  0  0  0  0
 17 18  2  0  0  0  0
 17 41  1  0  0  0  0
 18 19  1  0  0  0  0
 18 42  1  0  0  0  0
 20 21  1  0  0  0  0
 20 43  1  0  0  0  0
 20 44  1  0  0  0  0
 21 22  1  0  0  0  0
 21 23  1  0  0  0  0
 21 45  1  0  0  0  0
 22 46  1  0  0  0  0
 22 47  1  0  0  0  0
 22 48  1  0  0  0  0
M  END
> <s_m_source_file>
AV-unprocessed.smi

> <i_m_source_file_index>
1703

> <i_lp_mmshare_version>
43012

> <i_f3d_flags>
0

> <s_epik_input>
W0NIM11bQ0BASF0xW0NIMl1OKFtDSDJdW0NASF0oTzEpW0NIM10pW0NIMl1bQ0BIXShbT0hdKVtDSDJdbihjKG4yKVtDSDJdW09IXSljKGMyMylbY0hdW2NIXVtjSF1bY0hdMw==

> <s_epik_cmdline>
J2VwaWtfcHl0aG9uJywgJy1waCcsICc3LjAnLCAnLXRuJywgJzgnLCAnLW1hJywgJzIwMCcsICctbWV0YWxfYmluZGluZycsICctaW1hZScsICc8aW5maWxlLm1hZT4nLCAnLW9tYWUnLCAnPG91dGZpbGUubWFlPic=

> <r_epik_Ionization_Penalty>
0.307685

> <r_epik_Ionization_Penalty_Charging>
0

> <r_epik_Ionization_Penalty_Neutral>
0.307685

> <r_epik_State_Penalty>
0.277856

> <r_epik_Charging_Adjusted_Penalty>
0.277856

> <i_epik_Tot_Q>
0

> <i_epik_Tot_abs_Q>
0

> <r_epik_Metal_State_Penalty>
0.238959

> <b_epik_Metal_Only>
0

> <s_lp_Force_Field>
OPLS_2005

> <r_lp_Energy>
33.3157

> <b_lp_Chiralities_Consistent>
1

> <s_lp_Variant>
AV-unprocessed.smi:1703-3

> <Gold.Version>
5.8.1

> <Gold.Id.Protein>
6NUR|6NUR_protein|mol2

> <Gold.PLP.Fitness>
45.5622

> <Gold.PLP.PLP>
-45.6511

> <Gold.PLP.part.hbond>
-2.3239

> <Gold.PLP.part.metal>
0.0000

> <Gold.PLP.part.buried>
-3.1249

> <Gold.PLP.part.nonpolar>
-39.2490

> <Gold.PLP.part.repulsive>
0.0521

> <Gold.PLP.ligand.clash>
0.0000

> <Gold.PLP.ligand.torsion>
1.3201

> <Gold.PLP.Chemscore.Hbond>
0.8320

> <Gold.PLP.Chemscore.CHOScore>
0.0000

> <Gold.PLP.Chemscore.Metal>
0.0000

> <Gold.Chemscore.Hbonds>
donor molecule, donor type, donor heavy atom, donor atom, acceptor molecule, acceptor atom, score
      P1  H  7997  8009       L1    13  0.63

> <Gold.PLP.Chemscore.Internal.Correction>
0.0552

> <Gold.Rescore>
     Score         DG    S(hbond)    S(metal)    S(lipo)     H(rot)  DE(clash)    DE(int)     intcor
     15.10     -16.53       0.94        0.00     130.55       2.88       0.14       1.28       ----

> <Gold.Chemscore.Fitness>
15.1040

> <Gold.Chemscore.DG>
-16.5265

> <Gold.Chemscore.ZeroCoef>
-5.4800

> <Gold.Chemscore.Hbond>
0.9401

> <Gold.Chemscore.Metal>
0.0000

> <Gold.Chemscore.Lipo>
130.5457

> <Gold.Chemscore.Internal_Hbond>
0.0000

> <Gold.Chemscore.DEClash>
0.1415

> <Gold.Chemscore.DEInternal>
1.2809

> <Gold.Chemscore.Rot>
2.8778

> <Gold.Chemscore.Internal.Correction>
   9.000000E+99

> <Gold.Chemscore.Hbonds>
donor molecule, donor type, donor heavy atom, donor atom, acceptor molecule, acceptor atom, score
      P1  H  7997  8009       L1    13  0.12

> <Gold.Chemscore.Hbond.Weighted>
-3.1398

> <Gold.Chemscore.Metal.Weighted>
-0.0000

> <Gold.Chemscore.Lipo.Weighted>
-15.2739

> <Gold.Chemscore.Internal_Hbond.Weighted>
0.0000

> <Gold.Chemscore.DEClash.Weighted>
0.1415

> <Gold.Chemscore.DEInternal.Weighted>
1.2809

> <Gold.Chemscore.Rot.Weighted>
7.3671

> <Gold.Chemscore.Internal.Correction.Weighted>
   9.000000E+99

> <Gold.Protein.RotatedTorsions>
[ 6907 6896 6895 6894 ] final -118.48 input  -60.11 | X-H torsion
[ 7974 7965 7964 7962 ] final   77.42 input  175.53 | X-H torsion
[ 8008 7997 7996 7995 ] final  119.65 input   59.86 | X-H torsion
[ 10167 10162 10161 10158 ] final   71.49 input  -65.29 | X-H torsion
[ 10718 10713 10712 10709 ] final   89.42 input   66.30 | X-H torsion
[ 10763 10752 10751 10750 ] final   24.75 input  -60.55 | X-H torsion
[ 11005 11000 10999 10996 ] final -151.43 input  -57.11 | X-H torsion

> <Gold.Protein.ActiveResidues>
 VAL166  LYS551  ARG553  GLY616  TRP617  ASP618  TYR619  PRO620  LYS621  CYS622 
 ASP623  PHE694  ASN695  SER759  ASP760  ASP761  ALA762  ILE779  LEU786  VAL792 
 PHE793  MET794  SER795  GLU796  ALA797  LYS798  CYS799  TRP800  GLU811  SER814 

> <Gold.Protein.RotatedAtoms>
  150.8223  133.8231  159.3133 H   0  0  0  0  0  0  0  0  0  0  0  0  # atno 6907 bound_to 6896
  151.5985  135.1047  160.0064 H   0  0  0  0  0  0  0  0  0  0  0  0  # atno 6908 bound_to 6896
  152.4311  133.7239  159.6605 H   0  0  0  0  0  0  0  0  0  0  0  0  # atno 6909 bound_to 6896
  145.6903  139.2550  143.1763 H   0  0  0  0  0  0  0  0  0  0  0  0  # atno 7974 bound_to 7965
  156.2606  140.2848  156.1025 H   0  0  0  0  0  0  0  0  0  0  0  0  # atno 8008 bound_to 7997
  155.1345  140.0394  157.2800 H   0  0  0  0  0  0  0  0  0  0  0  0  # atno 8009 bound_to 7997
  154.6575  140.2559  155.7151 H   0  0  0  0  0  0  0  0  0  0  0  0  # atno 8010 bound_to 7997
  140.0455  144.5355  150.7402 H   0  0  0  0  0  0  0  0  0  0  0  0  # atno 10167 bound_to 10162
  157.6955  131.0332  150.3424 H   0  0  0  0  0  0  0  0  0  0  0  0  # atno 10718 bound_to 10713
  153.0741  135.6598  154.0183 H   0  0  0  0  0  0  0  0  0  0  0  0  # atno 10763 bound_to 10752
  153.9821  135.2954  155.3420 H   0  0  0  0  0  0  0  0  0  0  0  0  # atno 10764 bound_to 10752
  154.7124  135.5199  153.8757 H   0  0  0  0  0  0  0  0  0  0  0  0  # atno 10765 bound_to 10752
  140.7296  134.3636  157.5169 H   0  0  0  0  0  0  0  0  0  0  0  0  # atno 11005 bound_to 11000
  146.0888  140.7680  142.9605 LP  0  0  0  0  0  0  0  0  0  0  0  0  # atno 17320 bound_to 7965
  144.6999  140.3604  143.7165 LP  0  0  0  0  0  0  0  0  0  0  0  0  # atno 17321 bound_to 7965
  140.7241  143.2618  151.4181 LP  0  0  0  0  0  0  0  0  0  0  0  0  # atno 17342 bound_to 10162
  139.5986  144.1343  152.2173 LP  0  0  0  0  0  0  0  0  0  0  0  0  # atno 17343 bound_to 10162
  156.3883  130.3893  149.7049 LP  0  0  0  0  0  0  0  0  0  0  0  0  # atno 17370 bound_to 10713
  156.4408  130.7860  151.2881 LP  0  0  0  0  0  0  0  0  0  0  0  0  # atno 17371 bound_to 10713
  139.8829  134.9009  156.2800 LP  0  0  0  0  0  0  0  0  0  0  0  0  # atno 17394 bound_to 11000
  140.9932  133.7196  156.0846 LP  0  0  0  0  0  0  0  0  0  0  0  0  # atno 17395 bound_to 11000

$$$$
