#       Name:                AV-unprocessed.smi:702
#       Creating user name   scv26
#       Creation time:       Fri Mar 27 00:40:23 2020


#       File generated by GOLD software.
#

@<TRIPOS>MOLECULE
AV-unprocessed.smi:702
    55    57     1
SMALL
NO_CHARGES


@<TRIPOS>ATOM
      1 ****        -1.5180  -1.0186  -2.6741 C.3            1 S1                 0.0000
      2 ****        -1.1184  -0.3711  -1.3285 C.3            1 S1                 0.0000
      3 ****         0.3437  -0.2712  -1.2786 N.am           1 S1                 0.0000
      4 ****         1.0658   0.8558  -1.1897 C.2            1 S1                 0.0000
      5 ****         0.5688   1.9763  -1.0887 O.2            1 S1                 0.0000
      6 ****         2.3832   0.5895  -1.2351 N.am           1 S1                 0.0000
      7 ****         3.4809   1.4947  -1.2285 C.ar           1 S1                 0.0000
      8 ****         4.7294   1.0020  -1.6702 C.ar           1 S1                 0.0000
      9 ****         5.8528   1.8536  -1.6774 C.ar           1 S1                 0.0000
     10 ****         5.7308   3.1301  -1.2556 N.pl3          1 S1                 1.0000
     11 ****         4.5634   3.6435  -0.8124 C.ar           1 S1                 0.0000
     12 ****         3.4056   2.8390  -0.7809 C.ar           1 S1                 0.0000
     13 ****        -1.6774  -1.0524  -0.0231 C.3            1 S1                 0.0000
     14 ****        -1.2723  -0.2483   1.1952 N.4            1 S1                 1.0000
     15 ****        -1.8270   1.1364   1.2626 C.3            1 S1                 0.0000
     16 ****        -1.1886   1.9201   2.4205 C.3            1 S1                 0.0000
     17 ****        -1.4301   1.2420   3.6440 O.3            1 S1                 0.0000
     18 ****        -0.8490  -0.0533   3.6462 C.3            1 S1                 0.0000
     19 ****        -1.4679  -0.9044   2.5244 C.3            1 S1                 0.0000
     20 ****        -3.2239  -1.2249  -0.0866 C.3            1 S1                 0.0000
     21 ****        -3.4922  -2.7098  -0.3401 C.3            1 S1                 0.0000
     22 ****        -2.3349  -3.4152   0.3564 C.3            1 S1                 0.0000
     23 ****        -1.1344  -2.5155   0.0600 C.3            1 S1                 0.0000
     24 ****        -2.5986  -1.0911  -2.7889 H              1 S1                 0.0000
     25 ****        -1.1012  -2.0141  -2.8176 H              1 S1                 0.0000
     26 ****        -1.1600  -0.4100  -3.5054 H              1 S1                 0.0000
     27 ****        -1.5451   0.6262  -1.4109 H              1 S1                 0.0000
     28 ****         0.8487  -1.1420  -1.3594 H              1 S1                 0.0000
     29 ****         2.6291  -0.3802  -1.3717 H              1 S1                 0.0000
     30 ****         4.8294  -0.0196  -2.0083 H              1 S1                 0.0000
     31 ****         6.8377   1.5538  -2.0049 H              1 S1                 0.0000
     32 ****         4.5904   4.6754  -0.4936 H              1 S1                 0.0000
     33 ****         2.4909   3.2708  -0.4063 H              1 S1                 0.0000
     34 ****        -1.6468   1.7031   0.3546 H              1 S1                 0.0000
     35 ****        -2.9081   1.1064   1.3998 H              1 S1                 0.0000
     36 ****        -0.1163   2.0465   2.2613 H              1 S1                 0.0000
     37 ****        -1.6211   2.9188   2.4813 H              1 S1                 0.0000
     38 ****         0.2336   0.0188   3.5290 H              1 S1                 0.0000
     39 ****        -1.0331  -0.5188   4.6147 H              1 S1                 0.0000
     40 ****        -2.5291  -1.0471   2.7275 H              1 S1                 0.0000
     41 ****        -1.0083  -1.8876   2.5819 H              1 S1                 0.0000
     42 ****        -3.6991  -0.9671   0.8585 H              1 S1                 0.0000
     43 ****        -3.6971  -0.5888  -0.8350 H              1 S1                 0.0000
     44 ****        -4.4649  -3.0296   0.0347 H              1 S1                 0.0000
     45 ****        -3.4634  -2.9206  -1.4096 H              1 S1                 0.0000
     46 ****        -2.5192  -3.4595   1.4303 H              1 S1                 0.0000
     47 ****        -2.1917  -4.4361   0.0011 H              1 S1                 0.0000
     48 ****        -0.7235  -2.8446  -0.8911 H              1 S1                 0.0000
     49 ****        -0.3081  -2.6560   0.7551 H              1 S1                 0.0000
     50 ****        -0.2731  -0.1346   1.1030 H              1 S1                 0.0000
     51 ****         6.5559   3.7307  -1.2687 H              1 S1                 0.0000
     52 ****        -0.4253   2.0824  -1.0693 LP             1 S1                 0.0000
     53 ****         1.1589   2.7812  -1.0260 LP             1 S1                 0.0000
     54 ****        -2.4173   1.1552   3.7777 LP             1 S1                 0.0000
     55 ****        -1.0378   1.7751   4.3936 LP             1 S1                 0.0000
@<TRIPOS>BOND
    1    1    2 1     
    2    1   24 1     
    3    1   25 1     
    4    1   26 1     
    5    2    3 1     
    6    2   13 1     
    7    2   27 1     
    8    3    4 am    
    9    3   28 1     
   10    4    5 2     
   11    4    6 am    
   12    6    7 1     
   13    6   29 1     
   14    7   12 ar    
   15    7    8 ar    
   16    8    9 ar    
   17    8   30 1     
   18    9   10 ar    
   19    9   31 1     
   20   10   11 ar    
   21   10   51 1     
   22   11   12 ar    
   23   11   32 1     
   24   12   33 1     
   25   13   23 1     
   26   13   14 1     
   27   13   20 1     
   28   14   19 1     
   29   14   15 1     
   30   14   50 1     
   31   15   16 1     
   32   15   34 1     
   33   15   35 1     
   34   16   17 1     
   35   16   36 1     
   36   16   37 1     
   37   17   18 1     
   38   18   19 1     
   39   18   38 1     
   40   18   39 1     
   41   19   40 1     
   42   19   41 1     
   43   20   21 1     
   44   20   42 1     
   45   20   43 1     
   46   21   22 1     
   47   21   44 1     
   48   21   45 1     
   49   22   23 1     
   50   22   46 1     
   51   22   47 1     
   52   23   48 1     
   53   23   49 1     
   54    5   52 1     
   55    5   53 1     
   56   17   54 1     
   57   17   55 1     
@<TRIPOS>SUBSTRUCTURE
      1 S1             1
@<TRIPOS>SET
LONE_PAIRS      STATIC     ATOMS    <user>   **** ""
4 52 53 54 55
DONOR_HYDROGENS      STATIC     ATOMS    <user>   **** ""
4 28 29 51 50
ATOM$BLUE        STATIC     ATOMS    COLORGROUP SYSTEM
4 52 53 54 55
ATOM$RED        STATIC     ATOMS    COLORGROUP SYSTEM
4 28 29 51 50
