#       Name:                AV-unprocessed.smi:2524
#       Creating user name   scv26
#       Creation time:       Fri Mar 27 13:56:13 2020


#       File generated by GOLD software.
#

@<TRIPOS>MOLECULE
AV-unprocessed.smi:2524
    38    39     1
SMALL
NO_CHARGES


@<TRIPOS>ATOM
      1 ****        -3.4984   4.2034   1.1859 C.2            1 S1                 0.0000
      2 ****        -3.6462   3.2127   0.2937 C.2            1 S1                 0.0000
      3 ****        -3.2469   1.7723   0.5360 C.3            1 S1                 0.0000
      4 ****        -2.2121   1.2856  -0.4853 C.3            1 S1                 0.0000
      5 ****        -1.7715  -0.4761  -0.1849 S.o2           1 S1                 0.0000
      6 ****        -1.0708  -0.5678   1.1051 O.2            1 S1                 0.0000
      7 ****        -2.9515  -1.3167  -0.4363 O.2            1 S1                 0.0000
      8 ****        -0.6292  -0.7957  -1.4383 N.3            1 S1                 0.0000
      9 ****         0.1637  -2.0269  -1.3806 C.3            1 S1                 0.0000
     10 ****         1.6461  -1.7370  -1.1749 C.3            1 S1                 0.0000
     11 ****         1.9070  -1.0637   0.1436 C.ar           1 S1                 0.0000
     12 ****         2.0137   0.3432   0.2344 C.ar           1 S1                 0.0000
     13 ****         2.2352   0.9448   1.4898 C.ar           1 S1                 0.0000
     14 ****         2.3477   0.1746   2.5933 N.pl3          1 S1                 1.0000
     15 ****         2.2576  -1.1721   2.5556 C.ar           1 S1                 0.0000
     16 ****         2.0353  -1.8260   1.3268 C.ar           1 S1                 0.0000
     17 ****         2.6614  -2.7438  -1.6762 C.3            1 S1                 0.0000
     18 ****         2.5220  -1.4123  -2.3678 C.3            1 S1                 0.0000
     19 ****        -3.0704   4.0229   2.1611 H              1 S1                 0.0000
     20 ****        -3.8057   5.2117   0.9501 H              1 S1                 0.0000
     21 ****        -4.0799   3.4334  -0.6709 H              1 S1                 0.0000
     22 ****        -2.8522   1.6648   1.5470 H              1 S1                 0.0000
     23 ****        -4.1435   1.1543   0.4801 H              1 S1                 0.0000
     24 ****        -2.6011   1.3699  -1.5002 H              1 S1                 0.0000
     25 ****        -1.3000   1.8799  -0.4265 H              1 S1                 0.0000
     26 ****        -1.0457  -0.6674  -2.3605 H              1 S1                 0.0000
     27 ****        -0.1997  -2.6712  -0.5788 H              1 S1                 0.0000
     28 ****         0.0221  -2.5730  -2.3137 H              1 S1                 0.0000
     29 ****         1.9136   0.9566  -0.6492 H              1 S1                 0.0000
     30 ****         2.3215   2.0105   1.6436 H              1 S1                 0.0000
     31 ****         2.3620  -1.6819   3.5021 H              1 S1                 0.0000
     32 ****         1.9556  -2.9029   1.2939 H              1 S1                 0.0000
     33 ****         3.5607  -2.9044  -1.0847 H              1 S1                 0.0000
     34 ****         2.2991  -3.6154  -2.2180 H              1 S1                 0.0000
     35 ****         2.0661  -1.4204  -3.3560 H              1 S1                 0.0000
     36 ****         3.3276  -0.6933  -2.2328 H              1 S1                 0.0000
     37 ****         2.5055   0.6289   3.4932 H              1 S1                 0.0000
     38 ****         0.0662  -0.1005  -1.2564 LP             1 S1                 0.0000
@<TRIPOS>BOND
    1    1    2 2     
    2    1   19 1     
    3    1   20 1     
    4    2    3 1     
    5    2   21 1     
    6    3    4 1     
    7    3   22 1     
    8    3   23 1     
    9    4    5 1     
   10    4   24 1     
   11    4   25 1     
   12    5    6 2     
   13    5    7 2     
   14    5    8 1     
   15    8    9 1     
   16    8   26 1     
   17    9   10 1     
   18    9   27 1     
   19    9   28 1     
   20   10   18 1     
   21   10   11 1     
   22   10   17 1     
   23   11   16 ar    
   24   11   12 ar    
   25   12   13 ar    
   26   12   29 1     
   27   13   14 ar    
   28   13   30 1     
   29   14   15 ar    
   30   14   37 1     
   31   15   16 ar    
   32   15   31 1     
   33   16   32 1     
   34   17   18 1     
   35   17   33 1     
   36   17   34 1     
   37   18   35 1     
   38   18   36 1     
   39    8   38 1     
@<TRIPOS>SUBSTRUCTURE
      1 S1             1
@<TRIPOS>SET
LONE_PAIRS      STATIC     ATOMS    <user>   **** ""
3 6 7 38
DONOR_HYDROGENS      STATIC     ATOMS    <user>   **** ""
2 26 37
ATOM$BLUE        STATIC     ATOMS    COLORGROUP SYSTEM
3 6 7 38
ATOM$RED        STATIC     ATOMS    COLORGROUP SYSTEM
2 26 37
