AV-unprocessed.smi:2524|AV-procd|sdf|9923|dock2
  -GOLD-   2272013563D 1   1.00000     0.00000
 Structure written by MMmdl.
 37 38  0  0  0  0  0  0  0  0  2 V2000
  152.8248  143.1137  162.0016 C   0  0  0  0  0  0  0  0  0  0  0  0
  152.6443  142.8249  160.7041 C   0  0  0  0  0  0  0  0  0  0  0  0
  152.8223  141.4489  160.0978 C   0  0  0  0  0  0  0  0  0  0  0  0
  152.4507  141.4262  158.6105 C   0  0  0  0  0  0  0  0  0  0  0  0
  152.4919  139.7088  157.9496 S   0  0  0  0  0  0  0  0  0  0  0  0
  153.8357  139.1549  158.1748 O   0  0  0  0  0  0  0  0  0  0  0  0
  151.3107  138.9788  158.4333 O   0  0  0  0  0  0  0  0  0  0  0  0
  152.2919  139.9551  156.2533 N   0  0  0  0  0  0  0  0  0  0  0  0
  150.9857  140.3849  155.7464 C   0  0  0  0  0  0  0  0  0  0  0  0
  150.3050  139.2895  154.9336 C   0  0  0  0  0  0  0  0  0  0  0  0
  148.9607  139.7260  154.4215 C   0  0  0  0  0  0  0  0  0  0  0  0
  148.6254  141.0966  154.3323 C   0  0  0  0  0  0  0  0  0  0  0  0
  147.3651  141.4732  153.8255 C   0  0  0  0  0  0  0  0  0  0  0  0
  146.4878  140.5243  153.4336 N   0  3  0  0  0  0  0  0  0  0  0  0
  146.7611  139.2039  153.5043 C   0  0  0  0  0  0  0  0  0  0  0  0
  148.0069  138.7712  154.0019 C   0  0  0  0  0  0  0  0  0  0  0  0
  151.1566  138.4074  154.0435 C   0  0  0  0  0  0  0  0  0  0  0  0
  150.5341  137.8350  155.2906 C   0  0  0  0  0  0  0  0  0  0  0  0
  153.1185  142.3542  162.7112 H   0  0  0  0  0  0  0  0  0  0  0  0
  152.6799  144.1183  162.3709 H   0  0  0  0  0  0  0  0  0  0  0  0
  152.3491  143.6123  160.0258 H   0  0  0  0  0  0  0  0  0  0  0  0
  153.8535  141.1191  160.2297 H   0  0  0  0  0  0  0  0  0  0  0  0
  152.1942  140.7481  160.6486 H   0  0  0  0  0  0  0  0  0  0  0  0
  151.4481  141.8253  158.4562 H   0  0  0  0  0  0  0  0  0  0  0  0
  153.1450  142.0323  158.0281 H   0  0  0  0  0  0  0  0  0  0  0  0
  153.0436  140.5291  155.8713 H   0  0  0  0  0  0  0  0  0  0  0  0
  150.3407  140.6835  156.5740 H   0  0  0  0  0  0  0  0  0  0  0  0
  151.1305  141.2683  155.1238 H   0  0  0  0  0  0  0  0  0  0  0  0
  149.3335  141.8531  154.6378 H   0  0  0  0  0  0  0  0  0  0  0  0
  147.0365  142.4967  153.7193 H   0  0  0  0  0  0  0  0  0  0  0  0
  145.9827  138.5386  153.1606 H   0  0  0  0  0  0  0  0  0  0  0  0
  148.2318  137.7158  154.0533 H   0  0  0  0  0  0  0  0  0  0  0  0
  150.7418  138.0874  153.0896 H   0  0  0  0  0  0  0  0  0  0  0  0
  152.2356  138.5492  154.0575 H   0  0  0  0  0  0  0  0  0  0  0  0
  151.2089  137.6093  156.1142 H   0  0  0  0  0  0  0  0  0  0  0  0
  149.7082  137.1383  155.1614 H   0  0  0  0  0  0  0  0  0  0  0  0
  145.5816  140.8169  153.0673 H   0  0  0  0  0  0  0  0  0  0  0  0
  1  2  2  0  0  0  0
  1 19  1  0  0  0  0
  1 20  1  0  0  0  0
  2  3  1  0  0  0  0
  2 21  1  0  0  0  0
  3  4  1  0  0  0  0
  3 22  1  0  0  0  0
  3 23  1  0  0  0  0
  4  5  1  0  0  0  0
  4 24  1  0  0  0  0
  4 25  1  0  0  0  0
  5  6  2  0  0  0  0
  5  7  2  0  0  0  0
  5  8  1  0  0  0  0
  8  9  1  0  0  0  0
  8 26  1  0  0  0  0
  9 10  1  0  0  0  0
  9 27  1  0  0  0  0
  9 28  1  0  0  0  0
 10 18  1  0  0  0  0
 10 11  1  0  0  0  0
 10 17  1  0  0  0  0
 11 16  1  0  0  0  0
 11 12  2  0  0  0  0
 12 13  1  0  0  0  0
 12 29  1  0  0  0  0
 13 14  2  0  0  0  0
 13 30  1  0  0  0  0
 14 15  1  0  0  0  0
 14 37  1  0  0  0  0
 15 16  2  0  0  0  0
 15 31  1  0  0  0  0
 16 32  1  0  0  0  0
 17 18  1  0  0  0  0
 17 33  1  0  0  0  0
 17 34  1  0  0  0  0
 18 35  1  0  0  0  0
 18 36  1  0  0  0  0
M  CHG  1  14   1
M  END
> <s_m_source_file>
AV-unprocessed.smi

> <i_m_source_file_index>
2524

> <i_lp_mmshare_version>
43012

> <i_f3d_flags>
0

> <s_epik_input>
W0NIMl09W0NIXVtDSDJdW0NIMl1TKD1PKSg9TylbTkhdW0NIMl1DMShbQ0gyXVtDSDJdMSljMltjSF1bY0hdbltjSF1bY0hdMg==

> <s_epik_cmdline>
J2VwaWtfcHl0aG9uJywgJy1waCcsICc3LjAnLCAnLXRuJywgJzgnLCAnLW1hJywgJzIwMCcsICctbWV0YWxfYmluZGluZycsICctaW1hZScsICc8aW5maWxlLm1hZT4nLCAnLW9tYWUnLCAnPG91dGZpbGUubWFlPic=

> <r_epik_Ionization_Penalty>
1.70311

> <r_epik_Ionization_Penalty_Charging>
1.7031

> <r_epik_Ionization_Penalty_Neutral>
1.31612e-05

> <r_epik_State_Penalty>
1.80925

> <r_epik_Charging_Adjusted_Penalty>
3.51235

> <i_epik_Tot_Q>
1

> <i_epik_Tot_abs_Q>
1

> <r_epik_Metal_State_Penalty>
1.86078

> <b_epik_Metal_Only>
0

> <s_lp_Force_Field>
OPLS_2005

> <r_lp_Energy>
15.9515

> <b_lp_Chiralities_Consistent>
1

> <s_lp_Variant>
AV-unprocessed.smi:2524-2

> <Gold.Version>
5.8.1

> <Gold.Id.Protein>
6NUR|6NUR_protein|mol2

> <Gold.PLP.Fitness>
46.6121

> <Gold.PLP.PLP>
-38.8458

> <Gold.PLP.part.hbond>
-3.0000

> <Gold.PLP.part.metal>
0.0000

> <Gold.PLP.part.buried>
-5.5652

> <Gold.PLP.part.nonpolar>
-30.5378

> <Gold.PLP.part.repulsive>
0.0149

> <Gold.PLP.ligand.clash>
0.0000

> <Gold.PLP.ligand.torsion>
1.4032

> <Gold.PLP.Chemscore.Hbond>
3.0000

> <Gold.PLP.Chemscore.CHOScore>
0.0000

> <Gold.PLP.Chemscore.Metal>
0.0000

> <Gold.Chemscore.Hbonds>
donor molecule, donor type, donor heavy atom, donor atom, acceptor molecule, acceptor atom, score
      L1  H    14    37       P1 10175  2.00
      P1  H  7997  8008       L1     6  1.00

> <Gold.PLP.Chemscore.Internal.Correction>
1.5728

> <Gold.Rescore>
     Score         DG    S(hbond)    S(metal)    S(lipo)     H(rot)  DE(clash)    DE(int)     intcor
     16.98     -18.35       1.93        0.00      98.25       1.97       0.00       1.37       ----

> <Gold.Chemscore.Fitness>
16.9836

> <Gold.Chemscore.DG>
-18.3510

> <Gold.Chemscore.ZeroCoef>
-5.4800

> <Gold.Chemscore.Hbond>
1.9253

> <Gold.Chemscore.Metal>
0.0000

> <Gold.Chemscore.Lipo>
98.2485

> <Gold.Chemscore.Internal_Hbond>
0.0000

> <Gold.Chemscore.DEClash>
0.0013

> <Gold.Chemscore.DEInternal>
1.3660

> <Gold.Chemscore.Rot>
1.9744

> <Gold.Chemscore.Internal.Correction>
   9.000000E+99

> <Gold.Chemscore.Hbonds>
donor molecule, donor type, donor heavy atom, donor atom, acceptor molecule, acceptor atom, score
      L1  H    14    37       P1 10175  0.51
      P1  H  7997  8008       L1     6  0.34

> <Gold.Chemscore.Hbond.Weighted>
-6.4305

> <Gold.Chemscore.Metal.Weighted>
-0.0000

> <Gold.Chemscore.Lipo.Weighted>
-11.4951

> <Gold.Chemscore.Internal_Hbond.Weighted>
0.0000

> <Gold.Chemscore.DEClash.Weighted>
0.0013

> <Gold.Chemscore.DEInternal.Weighted>
1.3660

> <Gold.Chemscore.Rot.Weighted>
5.0546

> <Gold.Chemscore.Internal.Correction.Weighted>
   9.000000E+99

> <Gold.Protein.RotatedTorsions>
[ 6907 6896 6895 6894 ] final  -33.09 input  -60.11 | X-H torsion
[ 7974 7965 7964 7962 ] final  118.17 input  175.53 | X-H torsion
[ 8008 7997 7996 7995 ] final  -95.02 input   59.86 | X-H torsion
[ 10167 10162 10161 10158 ] final  -55.29 input  -65.29 | X-H torsion
[ 10718 10713 10712 10709 ] final  -97.21 input   66.30 | X-H torsion
[ 10763 10752 10751 10750 ] final  -92.95 input  -60.55 | X-H torsion
[ 11005 11000 10999 10996 ] final   17.80 input  -57.11 | X-H torsion

> <Gold.Protein.ActiveResidues>
 VAL166  LYS551  ARG553  GLY616  TRP617  ASP618  TYR619  PRO620  LYS621  CYS622 
 ASP623  PHE694  ASN695  SER759  ASP760  ASP761  ALA762  ILE779  LEU786  VAL792 
 PHE793  MET794  SER795  GLU796  ALA797  LYS798  CYS799  TRP800  GLU811  SER814 

> <Gold.Protein.RotatedAtoms>
  151.0702  134.9793  159.8304 H   0  0  0  0  0  0  0  0  0  0  0  0  # atno 6907 bound_to 6896
  152.5407  134.2309  159.8834 H   0  0  0  0  0  0  0  0  0  0  0  0  # atno 6908 bound_to 6896
  151.2333  133.4395  159.2638 H   0  0  0  0  0  0  0  0  0  0  0  0  # atno 6909 bound_to 6896
  145.1584  139.3169  143.4530 H   0  0  0  0  0  0  0  0  0  0  0  0  # atno 7974 bound_to 7965
  154.7559  140.0484  157.0933 H   0  0  0  0  0  0  0  0  0  0  0  0  # atno 8008 bound_to 7997
  154.9998  140.3123  155.4852 H   0  0  0  0  0  0  0  0  0  0  0  0  # atno 8009 bound_to 7997
  156.2894  140.2203  156.5108 H   0  0  0  0  0  0  0  0  0  0  0  0  # atno 8010 bound_to 7997
  140.6383  143.2494  151.5059 H   0  0  0  0  0  0  0  0  0  0  0  0  # atno 10167 bound_to 10162
  156.0078  130.5184  150.6341 H   0  0  0  0  0  0  0  0  0  0  0  0  # atno 10718 bound_to 10713
  154.6911  135.5212  153.8394 H   0  0  0  0  0  0  0  0  0  0  0  0  # atno 10763 bound_to 10752
  153.0633  135.6576  154.0422 H   0  0  0  0  0  0  0  0  0  0  0  0  # atno 10764 bound_to 10752
  154.0295  135.2986  155.3350 H   0  0  0  0  0  0  0  0  0  0  0  0  # atno 10765 bound_to 10752
  140.4319  134.1411  155.7681 H   0  0  0  0  0  0  0  0  0  0  0  0  # atno 11005 bound_to 11000
  146.3485  140.1685  142.8590 LP  0  0  0  0  0  0  0  0  0  0  0  0  # atno 17320 bound_to 7965
  145.0357  140.8906  143.5083 LP  0  0  0  0  0  0  0  0  0  0  0  0  # atno 17321 bound_to 7965
  139.5592  144.2198  152.1664 LP  0  0  0  0  0  0  0  0  0  0  0  0  # atno 17342 bound_to 10162
  140.1461  144.5158  150.6715 LP  0  0  0  0  0  0  0  0  0  0  0  0  # atno 17343 bound_to 10162
  157.4133  131.0826  151.1200 LP  0  0  0  0  0  0  0  0  0  0  0  0  # atno 17370 bound_to 10713
  157.1825  130.6316  149.5676 LP  0  0  0  0  0  0  0  0  0  0  0  0  # atno 17371 bound_to 10713
  141.1742  133.8548  157.1474 LP  0  0  0  0  0  0  0  0  0  0  0  0  # atno 17394 bound_to 11000
  140.0129  134.9980  157.0432 LP  0  0  0  0  0  0  0  0  0  0  0  0  # atno 17395 bound_to 11000

$$$$
