AV-unprocessed.smi:17|AV-procd|sdf|100|dock4
  -GOLD-   2262015243D 1   1.00000     0.00000
 Structure written by MMmdl.
 57 59  0  0  0  0  0  0  0  0  1 V2000
  149.4449  130.6168  159.2500 C   0  0  0  0  0  0  0  0  0  0  0  0
  148.0989  131.2893  159.5548 C   0  0  0  0  0  0  0  0  0  0  0  0
  148.1158  132.7263  159.2660 N   0  0  0  0  0  0  0  0  0  0  0  0
  148.3558  133.1380  157.9909 C   0  0  0  0  0  0  0  0  0  0  0  0
  149.6233  133.5035  157.6620 N   0  0  0  0  0  0  0  0  0  0  0  0
  149.9194  133.8931  156.4195 C   0  0  0  0  0  0  0  0  0  0  0  0
  149.1115  133.9980  155.3645 N   0  0  0  0  0  0  0  0  0  0  0  0
  147.8329  133.6538  155.6882 C   0  0  0  0  0  0  0  0  0  0  0  0
  147.3680  133.2240  156.9645 C   0  0  0  0  0  0  0  0  0  0  0  0
  145.9964  132.9963  156.9059 N   0  0  0  0  0  0  0  0  0  0  0  0
  145.6773  133.2478  155.6663 C   0  0  0  0  0  0  0  0  0  0  0  0
  146.7228  133.6398  154.8635 N   0  0  0  0  0  0  0  0  0  0  0  0
  146.6629  133.9783  153.4532 C   0  0  0  0  0  0  0  0  0  0  0  0
  146.8003  132.7533  152.5098 C   0  0  1  0  0  0  0  0  0  0  0  0
  146.6456  131.4084  153.2659 C   0  0  0  0  0  0  0  0  0  0  0  0
  147.6779  130.4989  152.9429 O   0  0  0  0  0  0  0  0  0  0  0  0
  145.7918  132.8538  151.3355 C   0  0  2  0  0  0  0  0  0  0  0  0
  144.3340  133.0041  151.7567 C   0  0  0  0  0  0  0  0  0  0  0  0
  143.5366  132.4011  150.5975 C   0  0  0  0  0  0  0  0  0  0  0  0
  144.4870  131.7761  149.7442 O   0  0  0  0  0  0  0  0  0  0  0  0
  145.6988  131.6030  150.4589 C   0  0  0  0  0  0  0  0  0  0  0  0
  147.8942  133.7153  160.3272 C   0  0  2  0  0  0  0  0  0  0  0  0
  147.4072  133.0409  161.6202 C   0  0  0  0  0  0  0  0  0  0  0  0
  146.9562  134.8621  159.8914 C   0  0  0  0  0  0  0  0  0  0  0  0
  147.1549  136.3960  160.9108 S   0  0  0  0  0  0  0  0  0  0  0  0
  146.6388  135.8377  162.5868 C   0  0  0  0  0  0  0  0  0  0  0  0
  148.5891  136.7148  160.9750 O   0  0  0  0  0  0  0  0  0  0  0  0
  146.1997  137.4160  160.4510 O   0  0  0  0  0  0  0  0  0  0  0  0
  149.4130  129.5579  159.5059 H   0  0  0  0  0  0  0  0  0  0  0  0
  150.2526  131.0728  159.8231 H   0  0  0  0  0  0  0  0  0  0  0  0
  149.6990  130.6927  158.1926 H   0  0  0  0  0  0  0  0  0  0  0  0
  147.3002  130.7980  158.9987 H   0  0  0  0  0  0  0  0  0  0  0  0
  147.8636  131.1315  160.6067 H   0  0  0  0  0  0  0  0  0  0  0  0
  150.9521  134.1565  156.2455 H   0  0  0  0  0  0  0  0  0  0  0  0
  144.6658  133.1474  155.3006 H   0  0  0  0  0  0  0  0  0  0  0  0
  145.7236  134.4978  153.2604 H   0  0  0  0  0  0  0  0  0  0  0  0
  147.4577  134.7007  153.2691 H   0  0  0  0  0  0  0  0  0  0  0  0
  147.7991  132.7759  152.0709 H   0  0  0  0  0  0  0  0  0  0  0  0
  146.6222  131.5691  154.3441 H   0  0  0  0  0  0  0  0  0  0  0  0
  145.7124  130.9119  153.0042 H   0  0  0  0  0  0  0  0  0  0  0  0
  147.8238  130.5255  152.0095 H   0  0  0  0  0  0  0  0  0  0  0  0
  146.0582  133.6982  150.6975 H   0  0  0  0  0  0  0  0  0  0  0  0
  144.1383  132.4349  152.6666 H   0  0  0  0  0  0  0  0  0  0  0  0
  144.0572  134.0416  151.9462 H   0  0  0  0  0  0  0  0  0  0  0  0
  142.8151  131.6677  150.9591 H   0  0  0  0  0  0  0  0  0  0  0  0
  142.9940  133.1642  150.0392 H   0  0  0  0  0  0  0  0  0  0  0  0
  146.5381  131.5005  149.7709 H   0  0  0  0  0  0  0  0  0  0  0  0
  145.6369  130.6985  151.0665 H   0  0  0  0  0  0  0  0  0  0  0  0
  148.8364  134.1990  160.5747 H   0  0  0  0  0  0  0  0  0  0  0  0
  147.3253  133.7643  162.4315 H   0  0  0  0  0  0  0  0  0  0  0  0
  148.1027  132.2655  161.9428 H   0  0  0  0  0  0  0  0  0  0  0  0
  146.4287  132.5783  161.4913 H   0  0  0  0  0  0  0  0  0  0  0  0
  147.0596  135.1190  158.8381 H   0  0  0  0  0  0  0  0  0  0  0  0
  145.9235  134.5411  160.0303 H   0  0  0  0  0  0  0  0  0  0  0  0
  146.7939  136.6483  163.2983 H   0  0  0  0  0  0  0  0  0  0  0  0
  147.2349  134.9766  162.8869 H   0  0  0  0  0  0  0  0  0  0  0  0
  145.5854  135.5684  162.5844 H   0  0  0  0  0  0  0  0  0  0  0  0
  1  2  1  0  0  0  0
  1 29  1  0  0  0  0
  1 30  1  0  0  0  0
  1 31  1  0  0  0  0
  2  3  1  0  0  0  0
  2 32  1  0  0  0  0
  2 33  1  0  0  0  0
  3  4  1  0  0  0  0
  3 22  1  0  0  0  0
  4  9  1  0  0  0  0
  4  5  2  0  0  0  0
  5  6  1  0  0  0  0
  6  7  2  0  0  0  0
  6 34  1  0  0  0  0
  7  8  1  0  0  0  0
  8 12  1  0  0  0  0
  8  9  2  0  0  0  0
  9 10  1  0  0  0  0
 10 11  2  0  0  0  0
 11 12  1  0  0  0  0
 11 35  1  0  0  0  0
 12 13  1  0  0  0  0
 13 14  1  0  0  0  0
 13 36  1  0  0  0  0
 13 37  1  0  0  0  0
 14 15  1  0  0  0  0
 14 17  1  0  0  0  0
 14 38  1  0  0  0  0
 15 16  1  0  0  0  0
 15 39  1  0  0  0  0
 15 40  1  0  0  0  0
 16 41  1  0  0  0  0
 17 21  1  0  0  0  0
 17 18  1  0  0  0  0
 17 42  1  0  0  0  0
 18 19  1  0  0  0  0
 18 43  1  0  0  0  0
 18 44  1  0  0  0  0
 19 20  1  0  0  0  0
 19 45  1  0  0  0  0
 19 46  1  0  0  0  0
 20 21  1  0  0  0  0
 21 47  1  0  0  0  0
 21 48  1  0  0  0  0
 22 23  1  0  0  0  0
 22 24  1  0  0  0  0
 22 49  1  0  0  0  0
 23 50  1  0  0  0  0
 23 51  1  0  0  0  0
 23 52  1  0  0  0  0
 24 25  1  0  0  0  0
 24 53  1  0  0  0  0
 24 54  1  0  0  0  0
 25 26  1  0  0  0  0
 25 27  2  0  0  0  0
 25 28  2  0  0  0  0
 26 55  1  0  0  0  0
 26 56  1  0  0  0  0
 26 57  1  0  0  0  0
M  END
> <s_m_source_file>
AV-unprocessed.smi

> <i_m_source_file_index>
17

> <i_lp_mmshare_version>
43012

> <i_f3d_flags>
0

> <s_epik_input>
W0NIM11TKD1PKSg9TylbQ0gyXVtDQEBIXShbQ0gzXSlOKFtDSDJdW0NIM10pYyhuW2NIXW4xKWMoYzEyKW5bY0hdbjJbQ0gyXVtDQEhdKFtDSDJdW09IXSlbQ0BASF0zW0NIMl1bQ0gyXU9bQ0gyXTM=

> <s_epik_cmdline>
J2VwaWtfcHl0aG9uJywgJy1waCcsICc3LjAnLCAnLXRuJywgJzgnLCAnLW1hJywgJzIwMCcsICctbWV0YWxfYmluZGluZycsICctaW1hZScsICc8aW5maWxlLm1hZT4nLCAnLW9tYWUnLCAnPG91dGZpbGUubWFlPic=

> <r_lp_tautomer_probability>
1

> <r_epik_Ionization_Penalty>
0.00119955

> <r_epik_Ionization_Penalty_Charging>
0

> <r_epik_Ionization_Penalty_Neutral>
0.00119955

> <r_epik_State_Penalty>
0.000665399

> <r_epik_Charging_Adjusted_Penalty>
0.000665399

> <i_epik_Tot_Q>
0

> <i_epik_Tot_abs_Q>
0

> <r_epik_Metal_State_Penalty>
-0

> <b_epik_Metal_Only>
0

> <s_lp_Force_Field>
OPLS_2005

> <r_lp_Energy>
33.0306

> <b_lp_Chiralities_Consistent>
1

> <s_lp_Variant>
AV-unprocessed.smi:17-2

> <Gold.Version>
5.8.1

> <Gold.Id.Protein>
6NUR|6NUR_protein|mol2

> <Gold.PLP.Fitness>
44.8260

> <Gold.PLP.PLP>
-36.2459

> <Gold.PLP.part.hbond>
-5.0000

> <Gold.PLP.part.metal>
0.0000

> <Gold.PLP.part.buried>
-7.4185

> <Gold.PLP.part.nonpolar>
-25.7779

> <Gold.PLP.part.repulsive>
0.2700

> <Gold.PLP.ligand.clash>
0.0000

> <Gold.PLP.ligand.torsion>
3.7568

> <Gold.PLP.Chemscore.Hbond>
4.1831

> <Gold.PLP.Chemscore.CHOScore>
0.9888

> <Gold.PLP.Chemscore.Metal>
0.0000

> <Gold.Chemscore.Hbonds>
donor molecule, donor type, donor heavy atom, donor atom, acceptor molecule, acceptor atom, score
      L1  H    16    41       P1 10747  0.84
      P1  H  6896  6909       L1     5  1.00
      P1  H  6931  6943       L1    27  1.00
      P1  H  6934  6947       L1    28  1.00
      P1  H 10785 10796       L1    20  0.17
      L1  C    11    35       P1 10957  1.00

> <Gold.PLP.Chemscore.Internal.Correction>
0.5781

> <Gold.Rescore>
     Score         DG    S(hbond)    S(metal)    S(lipo)     H(rot)  DE(clash)    DE(int)     intcor
     13.57     -17.63       3.73        0.00      73.99       3.51       0.04       4.02       ----

> <Gold.Chemscore.Fitness>
13.5739

> <Gold.Chemscore.DG>
-17.6332

> <Gold.Chemscore.ZeroCoef>
-5.4800

> <Gold.Chemscore.Hbond>
3.7341

> <Gold.Chemscore.Metal>
0.0000

> <Gold.Chemscore.Lipo>
73.9857

> <Gold.Chemscore.Internal_Hbond>
0.0000

> <Gold.Chemscore.DEClash>
0.0417

> <Gold.Chemscore.DEInternal>
4.0176

> <Gold.Chemscore.Rot>
3.5059

> <Gold.Chemscore.Internal.Correction>
   9.000000E+99

> <Gold.Chemscore.Hbonds>
donor molecule, donor type, donor heavy atom, donor atom, acceptor molecule, acceptor atom, score
      L1  H    16    41       P1 10747  0.80
      P1  H  6896  6909       L1     5  0.82
      P1  H  6931  6943       L1    27  0.93
      P1  H  6934  6947       L1    28  0.30
      P1  H 10785 10796       L1    20  0.06

> <Gold.Chemscore.Hbond.Weighted>
-12.4719

> <Gold.Chemscore.Metal.Weighted>
-0.0000

> <Gold.Chemscore.Lipo.Weighted>
-8.6563

> <Gold.Chemscore.Internal_Hbond.Weighted>
0.0000

> <Gold.Chemscore.DEClash.Weighted>
0.0417

> <Gold.Chemscore.DEInternal.Weighted>
4.0176

> <Gold.Chemscore.Rot.Weighted>
8.9750

> <Gold.Chemscore.Internal.Correction.Weighted>
   9.000000E+99

> <Gold.Protein.RotatedTorsions>
[ 6907 6896 6895 6894 ] final    1.83 input  -60.11 | X-H torsion
[ 7974 7965 7964 7962 ] final   88.80 input  175.53 | X-H torsion
[ 8008 7997 7996 7995 ] final -154.17 input   59.86 | X-H torsion
[ 10167 10162 10161 10158 ] final -122.10 input  -65.29 | X-H torsion
[ 10718 10713 10712 10709 ] final  144.39 input   66.30 | X-H torsion
[ 10763 10752 10751 10750 ] final   81.08 input  -60.55 | X-H torsion
[ 11005 11000 10999 10996 ] final  141.78 input  -57.11 | X-H torsion

> <Gold.Protein.ActiveResidues>
 VAL166  LYS551  ARG553  GLY616  TRP617  ASP618  TYR619  PRO620  LYS621  CYS622 
 ASP623  PHE694  ASN695  SER759  ASP760  ASP761  ALA762  ILE779  LEU786  VAL792 
 PHE793  MET794  SER795  GLU796  ALA797  LYS798  CYS799  TRP800  GLU811  SER814 

> <Gold.Protein.RotatedAtoms>
  151.5990  135.1048  160.0055 H   0  0  0  0  0  0  0  0  0  0  0  0  # atno 6907 bound_to 6896
  152.4267  133.7203  159.6540 H   0  0  0  0  0  0  0  0  0  0  0  0  # atno 6908 bound_to 6896
  150.8157  133.8270  159.3184 H   0  0  0  0  0  0  0  0  0  0  0  0  # atno 6909 bound_to 6896
  145.5409  139.2288  143.2566 H   0  0  0  0  0  0  0  0  0  0  0  0  # atno 7974 bound_to 7965
  155.6822  140.0745  157.2480 H   0  0  0  0  0  0  0  0  0  0  0  0  # atno 8008 bound_to 7997
  154.4103  140.1680  156.2046 H   0  0  0  0  0  0  0  0  0  0  0  0  # atno 8009 bound_to 7997
  155.9525  140.3376  155.6423 H   0  0  0  0  0  0  0  0  0  0  0  0  # atno 8010 bound_to 7997
  140.0179  143.5374  152.2234 H   0  0  0  0  0  0  0  0  0  0  0  0  # atno 10167 bound_to 10162
  157.3577  131.0960  151.0943 H   0  0  0  0  0  0  0  0  0  0  0  0  # atno 10718 bound_to 10713
  153.1087  135.4778  154.8997 H   0  0  0  0  0  0  0  0  0  0  0  0  # atno 10763 bound_to 10752
  154.7458  135.3093  154.8650 H   0  0  0  0  0  0  0  0  0  0  0  0  # atno 10764 bound_to 10752
  153.9245  135.6851  153.4800 H   0  0  0  0  0  0  0  0  0  0  0  0  # atno 10765 bound_to 10752
  140.0427  134.9296  157.0873 H   0  0  0  0  0  0  0  0  0  0  0  0  # atno 11005 bound_to 11000
  146.1981  140.6229  142.9114 LP  0  0  0  0  0  0  0  0  0  0  0  0  # atno 17320 bound_to 7965
  144.7577  140.5348  143.6757 LP  0  0  0  0  0  0  0  0  0  0  0  0  # atno 17321 bound_to 7965
  139.6160  144.7619  151.2846 LP  0  0  0  0  0  0  0  0  0  0  0  0  # atno 17342 bound_to 10162
  140.7355  143.6736  150.8060 LP  0  0  0  0  0  0  0  0  0  0  0  0  # atno 17343 bound_to 10162
  157.2095  130.6431  149.5768 LP  0  0  0  0  0  0  0  0  0  0  0  0  # atno 17370 bound_to 10713
  155.9732  130.4664  150.6290 LP  0  0  0  0  0  0  0  0  0  0  0  0  # atno 17371 bound_to 10713
  140.4042  134.2049  155.7163 LP  0  0  0  0  0  0  0  0  0  0  0  0  # atno 17394 bound_to 11000
  141.1891  133.8245  157.0968 LP  0  0  0  0  0  0  0  0  0  0  0  0  # atno 17395 bound_to 11000

$$$$
