AV-unprocessed.smi:531|AV-procd|sdf|2847|dock7
  -GOLD-   2262023333D 1   1.00000     0.00000
 Structure written by MMmdl.
 45 47  0  0  0  0  0  0  0  0  2 V2000
  147.1045  140.2078  153.6684 C   0  0  0  0  0  0  0  0  0  0  0  0
  147.5062  141.6537  153.9679 C   0  0  0  0  0  0  0  0  0  0  0  0
  148.9119  141.7075  154.1277 O   0  0  0  0  0  0  0  0  0  0  0  0
  149.3427  141.2846  155.4104 C   0  0  0  0  0  0  0  0  0  0  0  0
  150.6501  142.0011  155.7759 C   0  0  0  0  0  0  0  0  0  0  0  0
  151.4749  141.1963  156.6771 N   0  0  0  0  0  0  0  0  0  0  0  0
  151.9725  141.5483  157.8947 C   0  0  0  0  0  0  0  0  0  0  0  0
  151.7738  142.8147  158.4494 N   0  0  0  0  0  0  0  0  0  0  0  0
  150.5883  143.6557  158.2794 C   0  0  0  0  0  0  0  0  0  0  0  0
  150.0694  144.1858  159.6284 C   0  0  0  0  0  0  0  0  0  0  0  0
  151.1673  144.9792  160.3500 C   0  0  0  0  0  0  0  0  0  0  0  0
  152.4517  144.1425  160.4319 C   0  0  0  0  0  0  0  0  0  0  0  0
  152.8472  143.6109  159.0424 C   0  0  0  0  0  0  0  0  0  0  0  0
  152.6200  140.5728  158.5339 N   0  0  0  0  0  0  0  0  0  0  0  0
  152.5515  139.5149  157.6417 C   0  0  0  0  0  0  0  0  0  0  0  0
  151.8617  139.8587  156.5206 C   0  0  0  0  0  0  0  0  0  0  0  0
  151.5867  138.9183  155.4085 C   0  0  0  0  0  0  0  0  0  0  0  0
  150.9414  139.2650  154.4218 O   0  0  0  0  0  0  0  0  0  0  0  0
  152.1228  137.6774  155.6347 N   0  5  0  0  0  0  0  0  0  0  0  0
  152.8302  137.2909  156.7519 C   0  0  0  0  0  0  0  0  0  0  0  0
  153.2718  136.1479  156.8787 O   0  0  0  0  0  0  0  0  0  0  0  0
  153.0552  138.1910  157.7596 N   0  0  0  0  0  0  0  0  0  0  0  0
  153.7998  137.8065  158.9624 C   0  0  0  0  0  0  0  0  0  0  0  0
  146.0254  140.1204  153.5411 H   0  0  0  0  0  0  0  0  0  0  0  0
  147.4014  139.5442  154.4811 H   0  0  0  0  0  0  0  0  0  0  0  0
  147.5804  139.8511  152.7547 H   0  0  0  0  0  0  0  0  0  0  0  0
  147.1943  142.3067  153.1515 H   0  0  0  0  0  0  0  0  0  0  0  0
  147.0105  141.9972  154.8771 H   0  0  0  0  0  0  0  0  0  0  0  0
  148.5770  141.5046  156.1556 H   0  0  0  0  0  0  0  0  0  0  0  0
  149.4991  140.2049  155.4121 H   0  0  0  0  0  0  0  0  0  0  0  0
  151.2113  142.2483  154.8785 H   0  0  0  0  0  0  0  0  0  0  0  0
  150.4316  142.9635  156.2275 H   0  0  0  0  0  0  0  0  0  0  0  0
  150.8475  144.4946  157.6321 H   0  0  0  0  0  0  0  0  0  0  0  0
  149.8076  143.1114  157.7499 H   0  0  0  0  0  0  0  0  0  0  0  0
  149.1947  144.8172  159.4715 H   0  0  0  0  0  0  0  0  0  0  0  0
  149.7445  143.3552  160.2555 H   0  0  0  0  0  0  0  0  0  0  0  0
  151.3683  145.9021  159.8049 H   0  0  0  0  0  0  0  0  0  0  0  0
  150.8359  145.2690  161.3475 H   0  0  0  0  0  0  0  0  0  0  0  0
  153.2619  144.7416  160.8484 H   0  0  0  0  0  0  0  0  0  0  0  0
  152.3023  143.3046  161.1139 H   0  0  0  0  0  0  0  0  0  0  0  0
  153.7472  143.0015  159.1307 H   0  0  0  0  0  0  0  0  0  0  0  0
  153.0956  144.4372  158.3751 H   0  0  0  0  0  0  0  0  0  0  0  0
  154.7825  137.4132  158.6982 H   0  0  0  0  0  0  0  0  0  0  0  0
  153.2592  137.0349  159.5121 H   0  0  0  0  0  0  0  0  0  0  0  0
  153.9602  138.6421  159.6432 H   0  0  0  0  0  0  0  0  0  0  0  0
  1  2  1  0  0  0  0
  1 24  1  0  0  0  0
  1 25  1  0  0  0  0
  1 26  1  0  0  0  0
  2  3  1  0  0  0  0
  2 27  1  0  0  0  0
  2 28  1  0  0  0  0
  3  4  1  0  0  0  0
  4  5  1  0  0  0  0
  4 29  1  0  0  0  0
  4 30  1  0  0  0  0
  5  6  1  0  0  0  0
  5 31  1  0  0  0  0
  5 32  1  0  0  0  0
  6 16  1  0  0  0  0
  6  7  1  0  0  0  0
  7  8  1  0  0  0  0
  7 14  2  0  0  0  0
  8 13  1  0  0  0  0
  8  9  1  0  0  0  0
  9 10  1  0  0  0  0
  9 33  1  0  0  0  0
  9 34  1  0  0  0  0
 10 11  1  0  0  0  0
 10 35  1  0  0  0  0
 10 36  1  0  0  0  0
 11 12  1  0  0  0  0
 11 37  1  0  0  0  0
 11 38  1  0  0  0  0
 12 13  1  0  0  0  0
 12 39  1  0  0  0  0
 12 40  1  0  0  0  0
 13 41  1  0  0  0  0
 13 42  1  0  0  0  0
 14 15  1  0  0  0  0
 15 22  1  0  0  0  0
 15 16  2  0  0  0  0
 16 17  1  0  0  0  0
 17 18  2  0  0  0  0
 17 19  1  0  0  0  0
 19 20  1  0  0  0  0
 20 21  2  0  0  0  0
 20 22  1  0  0  0  0
 22 23  1  0  0  0  0
 23 43  1  0  0  0  0
 23 44  1  0  0  0  0
 23 45  1  0  0  0  0
M  CHG  1  19  -1
M  END
> <s_m_source_file>
AV-unprocessed.smi

> <i_m_source_file_index>
531

> <i_lp_mmshare_version>
43012

> <i_f3d_flags>
0

> <s_epik_input>
W0NIM11uMWMoPU8pW25IXWMoPU8pYyhjMTIpbihbQ0gyXVtDSDJdT1tDSDJdW0NIM10pYyhuMilOM1tDSDJdW0NIMl1bQ0gyXVtDSDJdW0NIMl0z

> <s_epik_cmdline>
J2VwaWtfcHl0aG9uJywgJy1waCcsICc3LjAnLCAnLXRuJywgJzgnLCAnLW1hJywgJzIwMCcsICctbWV0YWxfYmluZGluZycsICctaW1hZScsICc8aW5maWxlLm1hZT4nLCAnLW9tYWUnLCAnPG91dGZpbGUubWFlPic=

> <r_lp_tautomer_probability>
1

> <r_epik_Ionization_Penalty>
5.10252

> <r_epik_Ionization_Penalty_Charging>
0.0734613

> <r_epik_Ionization_Penalty_Neutral>
5.02906

> <r_epik_State_Penalty>
5.02576

> <r_epik_Charging_Adjusted_Penalty>
5.09922

> <i_epik_Tot_Q>
-1

> <i_epik_Tot_abs_Q>
1

> <r_epik_Metal_State_Penalty>
1.13821

> <b_epik_Metal_Only>
1

> <s_lp_Force_Field>
OPLS_2005

> <r_lp_Energy>
41.0851

> <b_lp_Chiralities_Consistent>
1

> <s_lp_Variant>
AV-unprocessed.smi:531-2

> <Gold.Version>
5.8.1

> <Gold.Id.Protein>
6NUR|6NUR_protein|mol2

> <Gold.PLP.Fitness>
47.7830

> <Gold.PLP.PLP>
-41.7840

> <Gold.PLP.part.hbond>
-3.6305

> <Gold.PLP.part.metal>
0.0000

> <Gold.PLP.part.buried>
-6.1921

> <Gold.PLP.part.nonpolar>
-31.0413

> <Gold.PLP.part.repulsive>
0.3592

> <Gold.PLP.ligand.clash>
0.0000

> <Gold.PLP.ligand.torsion>
1.1578

> <Gold.PLP.Chemscore.Hbond>
2.5760

> <Gold.PLP.Chemscore.CHOScore>
0.0000

> <Gold.PLP.Chemscore.Metal>
0.0000

> <Gold.Chemscore.Hbonds>
donor molecule, donor type, donor heavy atom, donor atom, acceptor molecule, acceptor atom, score
      P1  H  7989  7998       L1    18  1.00
      P1  H  8011  8017       L1     3  0.44
      P1  H 10752 10765       L1    21  1.00

> <Gold.PLP.Chemscore.Internal.Correction>
0.5866

> <Gold.Rescore>
     Score         DG    S(hbond)    S(metal)    S(lipo)     H(rot)  DE(clash)    DE(int)     intcor
     16.20     -19.32       2.18        0.00      90.93       1.59       0.49       2.62       ----

> <Gold.Chemscore.Fitness>
16.2041

> <Gold.Chemscore.DG>
-19.3203

> <Gold.Chemscore.ZeroCoef>
-5.4800

> <Gold.Chemscore.Hbond>
2.1787

> <Gold.Chemscore.Metal>
0.0000

> <Gold.Chemscore.Lipo>
90.9320

> <Gold.Chemscore.Internal_Hbond>
0.0000

> <Gold.Chemscore.DEClash>
0.4917

> <Gold.Chemscore.DEInternal>
2.6244

> <Gold.Chemscore.Rot>
1.5920

> <Gold.Chemscore.Internal.Correction>
   9.000000E+99

> <Gold.Chemscore.Hbonds>
donor molecule, donor type, donor heavy atom, donor atom, acceptor molecule, acceptor atom, score
      P1  H  7989  7998       L1    18  0.89
      P1  H  8011  8017       L1     3  0.30
      P1  H 10752 10765       L1    21  0.90

> <Gold.Chemscore.Hbond.Weighted>
-7.2769

> <Gold.Chemscore.Metal.Weighted>
-0.0000

> <Gold.Chemscore.Lipo.Weighted>
-10.6390

> <Gold.Chemscore.Internal_Hbond.Weighted>
0.0000

> <Gold.Chemscore.DEClash.Weighted>
0.4917

> <Gold.Chemscore.DEInternal.Weighted>
2.6244

> <Gold.Chemscore.Rot.Weighted>
4.0756

> <Gold.Chemscore.Internal.Correction.Weighted>
   9.000000E+99

> <Gold.Protein.RotatedTorsions>
[ 6907 6896 6895 6894 ] final  -48.60 input  -60.11 | X-H torsion
[ 7974 7965 7964 7962 ] final  -37.78 input  175.53 | X-H torsion
[ 8008 7997 7996 7995 ] final -133.25 input   59.86 | X-H torsion
[ 10167 10162 10161 10158 ] final  141.03 input  -65.29 | X-H torsion
[ 10718 10713 10712 10709 ] final -145.85 input   66.30 | X-H torsion
[ 10763 10752 10751 10750 ] final -110.76 input  -60.55 | X-H torsion
[ 11005 11000 10999 10996 ] final  118.00 input  -57.11 | X-H torsion

> <Gold.Protein.ActiveResidues>
 VAL166  LYS551  ARG553  GLY616  TRP617  ASP618  TYR619  PRO620  LYS621  CYS622 
 ASP623  PHE694  ASN695  SER759  ASP760  ASP761  ALA762  ILE779  LEU786  VAL792 
 PHE793  MET794  SER795  GLU796  ALA797  LYS798  CYS799  TRP800  GLU811  SER814 

> <Gold.Protein.RotatedAtoms>
  150.8889  134.8291  159.7279 H   0  0  0  0  0  0  0  0  0  0  0  0  # atno 6907 bound_to 6896
  152.4825  134.4678  159.9636 H   0  0  0  0  0  0  0  0  0  0  0  0  # atno 6908 bound_to 6896
  151.4744  133.3522  159.2864 H   0  0  0  0  0  0  0  0  0  0  0  0  # atno 6909 bound_to 6896
  146.0545  140.6436  142.9026 H   0  0  0  0  0  0  0  0  0  0  0  0  # atno 7974 bound_to 7965
  155.3423  140.0473  157.3045 H   0  0  0  0  0  0  0  0  0  0  0  0  # atno 8008 bound_to 7997
  154.5271  140.2244  155.8836 H   0  0  0  0  0  0  0  0  0  0  0  0  # atno 8009 bound_to 7997
  156.1750  140.3087  155.9049 H   0  0  0  0  0  0  0  0  0  0  0  0  # atno 8010 bound_to 7997
  139.5032  144.6197  151.6080 H   0  0  0  0  0  0  0  0  0  0  0  0  # atno 10167 bound_to 10162
  156.3876  130.7869  151.2068 H   0  0  0  0  0  0  0  0  0  0  0  0  # atno 10718 bound_to 10713
  154.8265  135.4552  154.0935 H   0  0  0  0  0  0  0  0  0  0  0  0  # atno 10763 bound_to 10752
  153.2245  135.6898  153.7968 H   0  0  0  0  0  0  0  0  0  0  0  0  # atno 10764 bound_to 10752
  153.7373  135.3318  155.3274 H   0  0  0  0  0  0  0  0  0  0  0  0  # atno 10765 bound_to 10752
  139.9094  134.9616  156.7436 H   0  0  0  0  0  0  0  0  0  0  0  0  # atno 11005 bound_to 11000
  144.7140  140.4144  143.7058 LP  0  0  0  0  0  0  0  0  0  0  0  0  # atno 17320 bound_to 7965
  145.6668  139.1591  143.2777 LP  0  0  0  0  0  0  0  0  0  0  0  0  # atno 17321 bound_to 7965
  140.5896  143.9803  150.6316 LP  0  0  0  0  0  0  0  0  0  0  0  0  # atno 17342 bound_to 10162
  140.2979  143.3280  152.0999 LP  0  0  0  0  0  0  0  0  0  0  0  0  # atno 17343 bound_to 10162
  157.7497  131.0325  150.4231 LP  0  0  0  0  0  0  0  0  0  0  0  0  # atno 17370 bound_to 10713
  156.4486  130.4007  149.6650 LP  0  0  0  0  0  0  0  0  0  0  0  0  # atno 17371 bound_to 10713
  140.6829  133.9458  155.7921 LP  0  0  0  0  0  0  0  0  0  0  0  0  # atno 17394 bound_to 11000
  141.0497  134.0503  157.3799 LP  0  0  0  0  0  0  0  0  0  0  0  0  # atno 17395 bound_to 11000

$$$$
