AV-unprocessed.smi:3252|AV-procd|sdf|12443|dock2
  -GOLD-   2272018333D 1   1.00000     0.00000
 Structure written by MMmdl.
 36 37  0  0  0  0  0  0  0  0  1 V2000
  146.1305  142.9061  154.9181 C   0  0  0  0  0  0  0  0  0  0  0  0
  146.9906  141.9966  154.0288 C   0  0  0  0  0  0  0  0  0  0  0  0
  148.0443  141.2656  154.7305 N   0  0  0  0  0  0  0  0  0  0  0  0
  148.6062  140.1827  153.9273 C   0  0  0  0  0  0  0  0  0  0  0  0
  149.7382  139.4498  154.6667 C   0  0  0  0  0  0  0  0  0  0  0  0
  150.7387  140.3858  155.0511 O   0  0  0  0  0  0  0  0  0  0  0  0
  150.2416  141.4228  155.8940 C   0  0  1  0  0  0  0  0  0  0  0  0
  151.3953  142.3711  156.2628 C   0  0  0  0  0  0  0  0  0  0  0  0
  150.9980  143.3773  157.2412 N   0  0  0  0  0  0  0  0  0  0  0  0
  151.4855  143.3532  158.5562 C   0  0  0  0  0  0  0  0  0  0  0  0
  151.3735  144.5237  159.3361 C   0  0  0  0  0  0  0  0  0  0  0  0
  151.8620  144.5107  160.6573 C   0  0  0  0  0  0  0  0  0  0  0  0
  152.4470  143.3287  161.1526 C   0  0  0  0  0  0  0  0  0  0  0  0
  152.9644  143.2642  162.5085 C   0  0  0  0  0  0  0  0  0  0  0  0
  153.3760  143.2129  163.5887 N   0  0  0  0  0  0  0  0  0  0  0  0
  152.5184  142.2102  160.2977 C   0  0  0  0  0  0  0  0  0  0  0  0
  152.0539  142.2184  159.0299 N   0  0  0  0  0  0  0  0  0  0  0  0
  149.1220  142.1624  155.1350 C   0  0  0  0  0  0  0  0  0  0  0  0
  145.4454  143.4973  154.3104 H   0  0  0  0  0  0  0  0  0  0  0  0
  146.7501  143.5995  155.4873 H   0  0  0  0  0  0  0  0  0  0  0  0
  145.5263  142.3349  155.6224 H   0  0  0  0  0  0  0  0  0  0  0  0
  146.3470  141.2980  153.4922 H   0  0  0  0  0  0  0  0  0  0  0  0
  147.4493  142.6269  153.2660 H   0  0  0  0  0  0  0  0  0  0  0  0
  147.8323  139.4600  153.6706 H   0  0  0  0  0  0  0  0  0  0  0  0
  148.9896  140.5803  152.9861 H   0  0  0  0  0  0  0  0  0  0  0  0
  149.3548  138.9332  155.5480 H   0  0  0  0  0  0  0  0  0  0  0  0
  150.1864  138.6942  154.0216 H   0  0  0  0  0  0  0  0  0  0  0  0
  149.8284  140.9850  156.8048 H   0  0  0  0  0  0  0  0  0  0  0  0
  152.2696  141.8112  156.5957 H   0  0  0  0  0  0  0  0  0  0  0  0
  151.7092  142.9121  155.3700 H   0  0  0  0  0  0  0  0  0  0  0  0
  150.1771  143.9300  157.0413 H   0  0  0  0  0  0  0  0  0  0  0  0
  150.9203  145.4178  158.9332 H   0  0  0  0  0  0  0  0  0  0  0  0
  151.7863  145.3949  161.2737 H   0  0  0  0  0  0  0  0  0  0  0  0
  152.9598  141.2829  160.6337 H   0  0  0  0  0  0  0  0  0  0  0  0
  149.5428  142.6533  154.2557 H   0  0  0  0  0  0  0  0  0  0  0  0
  148.7208  142.9534  155.7698 H   0  0  0  0  0  0  0  0  0  0  0  0
  1  2  1  0  0  0  0
  1 19  1  0  0  0  0
  1 20  1  0  0  0  0
  1 21  1  0  0  0  0
  2  3  1  0  0  0  0
  2 22  1  0  0  0  0
  2 23  1  0  0  0  0
  3 18  1  0  0  0  0
  3  4  1  0  0  0  0
  4  5  1  0  0  0  0
  4 24  1  0  0  0  0
  4 25  1  0  0  0  0
  5  6  1  0  0  0  0
  5 26  1  0  0  0  0
  5 27  1  0  0  0  0
  6  7  1  0  0  0  0
  7  8  1  0  0  0  0
  7 18  1  0  0  0  0
  7 28  1  0  0  0  0
  8  9  1  0  0  0  0
  8 29  1  0  0  0  0
  8 30  1  0  0  0  0
  9 10  1  0  0  0  0
  9 31  1  0  0  0  0
 10 17  1  0  0  0  0
 10 11  2  0  0  0  0
 11 12  1  0  0  0  0
 11 32  1  0  0  0  0
 12 13  2  0  0  0  0
 12 33  1  0  0  0  0
 13 14  1  0  0  0  0
 13 16  1  0  0  0  0
 14 15  3  0  0  0  0
 16 17  2  0  0  0  0
 16 34  1  0  0  0  0
 18 35  1  0  0  0  0
 18 36  1  0  0  0  0
M  END
> <s_m_source_file>
AV-unprocessed.smi

> <i_m_source_file_index>
3252

> <i_lp_mmshare_version>
43012

> <i_f3d_flags>
0

> <s_epik_input>
W0NIM11bQ0gyXU4xW0NIMl1bQ0gyXU9bQ0BIXShbQ0gyXTEpW0NIMl1bTkhdYzJbY0hdW2NIXWMoQyNOKVtjSF1uMg==

> <s_epik_cmdline>
J2VwaWtfcHl0aG9uJywgJy1waCcsICc3LjAnLCAnLXRuJywgJzgnLCAnLW1hJywgJzIwMCcsICctbWV0YWxfYmluZGluZycsICctaW1hZScsICc8aW5maWxlLm1hZT4nLCAnLW9tYWUnLCAnPG91dGZpbGUubWFlPic=

> <r_epik_Ionization_Penalty>
0.797836

> <r_epik_Ionization_Penalty_Charging>
0

> <r_epik_Ionization_Penalty_Neutral>
0.797836

> <r_epik_State_Penalty>
0.828842

> <r_epik_Charging_Adjusted_Penalty>
0.828842

> <i_epik_Tot_Q>
0

> <i_epik_Tot_abs_Q>
0

> <r_epik_Metal_State_Penalty>
0.828842

> <b_epik_Metal_Only>
0

> <s_lp_Force_Field>
OPLS_2005

> <r_lp_Energy>
23.221

> <b_lp_Chiralities_Consistent>
1

> <s_lp_Variant>
AV-unprocessed.smi:3252-5

> <Gold.Version>
5.8.1

> <Gold.Id.Protein>
6NUR|6NUR_protein|mol2

> <Gold.PLP.Fitness>
44.5083

> <Gold.PLP.PLP>
-38.9748

> <Gold.PLP.part.hbond>
-2.0000

> <Gold.PLP.part.metal>
0.0000

> <Gold.PLP.part.buried>
-2.7822

> <Gold.PLP.part.nonpolar>
-33.6614

> <Gold.PLP.part.repulsive>
0.3023

> <Gold.PLP.ligand.clash>
0.0000

> <Gold.PLP.ligand.torsion>
0.2151

> <Gold.PLP.Chemscore.Hbond>
1.9833

> <Gold.PLP.Chemscore.CHOScore>
0.0000

> <Gold.PLP.Chemscore.Metal>
0.0000

> <Gold.Chemscore.Hbonds>
donor molecule, donor type, donor heavy atom, donor atom, acceptor molecule, acceptor atom, score
      L1  H     9    31       P1  8028  0.98
      P1  H  7989  7998       L1     6  1.00

> <Gold.PLP.Chemscore.Internal.Correction>
0.0138

> <Gold.Rescore>
     Score         DG    S(hbond)    S(metal)    S(lipo)     H(rot)  DE(clash)    DE(int)     intcor
     16.39     -18.35       1.71        0.00      92.69       1.43       1.85       0.11       ----

> <Gold.Chemscore.Fitness>
16.3894

> <Gold.Chemscore.DG>
-18.3538

> <Gold.Chemscore.ZeroCoef>
-5.4800

> <Gold.Chemscore.Hbond>
1.7061

> <Gold.Chemscore.Metal>
0.0000

> <Gold.Chemscore.Lipo>
92.6870

> <Gold.Chemscore.Internal_Hbond>
0.0000

> <Gold.Chemscore.DEClash>
1.8508

> <Gold.Chemscore.DEInternal>
0.1136

> <Gold.Chemscore.Rot>
1.4331

> <Gold.Chemscore.Internal.Correction>
   9.000000E+99

> <Gold.Chemscore.Hbonds>
donor molecule, donor type, donor heavy atom, donor atom, acceptor molecule, acceptor atom, score
      L1  H     9    31       P1  8028  0.85
      P1  H  7989  7998       L1     6  0.56

> <Gold.Chemscore.Hbond.Weighted>
-5.6982

> <Gold.Chemscore.Metal.Weighted>
-0.0000

> <Gold.Chemscore.Lipo.Weighted>
-10.8444

> <Gold.Chemscore.Internal_Hbond.Weighted>
0.0000

> <Gold.Chemscore.DEClash.Weighted>
1.8508

> <Gold.Chemscore.DEInternal.Weighted>
0.1136

> <Gold.Chemscore.Rot.Weighted>
3.6688

> <Gold.Chemscore.Internal.Correction.Weighted>
   9.000000E+99

> <Gold.Protein.RotatedTorsions>
[ 6907 6896 6895 6894 ] final   -2.12 input  -60.11 | X-H torsion
[ 7974 7965 7964 7962 ] final   96.75 input  175.53 | X-H torsion
[ 8008 7997 7996 7995 ] final  -33.13 input   59.86 | X-H torsion
[ 10167 10162 10161 10158 ] final  -68.17 input  -65.29 | X-H torsion
[ 10718 10713 10712 10709 ] final  141.82 input   66.30 | X-H torsion
[ 10763 10752 10751 10750 ] final  -40.23 input  -60.55 | X-H torsion
[ 11005 11000 10999 10996 ] final -115.53 input  -57.11 | X-H torsion

> <Gold.Protein.ActiveResidues>
 VAL166  LYS551  ARG553  GLY616  TRP617  ASP618  TYR619  PRO620  LYS621  CYS622 
 ASP623  PHE694  ASN695  SER759  ASP760  ASP761  ALA762  ILE779  LEU786  VAL792 
 PHE793  MET794  SER795  GLU796  ALA797  LYS798  CYS799  TRP800  GLU811  SER814 

> <Gold.Protein.RotatedAtoms>
  151.5350  135.1068  159.9911 H   0  0  0  0  0  0  0  0  0  0  0  0  # atno 6907 bound_to 6896
  152.4561  133.7722  159.6816 H   0  0  0  0  0  0  0  0  0  0  0  0  # atno 6908 bound_to 6896
  150.8506  133.7728  159.3052 H   0  0  0  0  0  0  0  0  0  0  0  0  # atno 6909 bound_to 6896
  145.4347  139.2307  143.3125 H   0  0  0  0  0  0  0  0  0  0  0  0  # atno 7974 bound_to 7965
  154.4158  140.1719  156.1838 H   0  0  0  0  0  0  0  0  0  0  0  0  # atno 8008 bound_to 7997
  155.9660  140.3389  155.6509 H   0  0  0  0  0  0  0  0  0  0  0  0  # atno 8009 bound_to 7997
  155.6687  140.0709  157.2519 H   0  0  0  0  0  0  0  0  0  0  0  0  # atno 8010 bound_to 7997
  140.5528  143.2312  151.6879 H   0  0  0  0  0  0  0  0  0  0  0  0  # atno 10167 bound_to 10162
  157.3876  131.1000  151.0678 H   0  0  0  0  0  0  0  0  0  0  0  0  # atno 10718 bound_to 10713
  153.9425  135.6760  153.4744 H   0  0  0  0  0  0  0  0  0  0  0  0  # atno 10763 bound_to 10752
  153.0924  135.4868  154.8713 H   0  0  0  0  0  0  0  0  0  0  0  0  # atno 10764 bound_to 10752
  154.7369  135.3151  154.8753 H   0  0  0  0  0  0  0  0  0  0  0  0  # atno 10765 bound_to 10752
  141.0482  133.9729  157.2882 H   0  0  0  0  0  0  0  0  0  0  0  0  # atno 11005 bound_to 11000
  146.2588  140.5088  142.8862 LP  0  0  0  0  0  0  0  0  0  0  0  0  # atno 17320 bound_to 7965
  144.8160  140.6468  143.6384 LP  0  0  0  0  0  0  0  0  0  0  0  0  # atno 17321 bound_to 7965
  139.5034  144.3791  152.0394 LP  0  0  0  0  0  0  0  0  0  0  0  0  # atno 17342 bound_to 10162
  140.2909  144.3754  150.6089 LP  0  0  0  0  0  0  0  0  0  0  0  0  # atno 17343 bound_to 10162
  157.1724  130.6273  149.5645 LP  0  0  0  0  0  0  0  0  0  0  0  0  # atno 17370 bound_to 10713
  155.9790  130.4781  150.6691 LP  0  0  0  0  0  0  0  0  0  0  0  0  # atno 17371 bound_to 10713
  139.9329  135.0199  156.8459 LP  0  0  0  0  0  0  0  0  0  0  0  0  # atno 17394 bound_to 11000
  140.6106  134.0086  155.7575 LP  0  0  0  0  0  0  0  0  0  0  0  0  # atno 17395 bound_to 11000

$$$$
