AV-unprocessed.smi:2044|AV-procd|sdf|8305|dock1
  -GOLD-   2272010573D 1   1.00000     0.00000
 Structure written by MMmdl.
 39 40  0  0  0  0  0  0  0  0  3 V2000
  146.2718  134.2319  162.9022 C   0  0  0  0  0  0  0  0  0  0  0  0
  147.0267  135.1171  161.9701 C   0  0  0  0  0  0  0  0  0  0  0  0
  147.7008  134.8781  160.8064 C   0  0  0  0  0  0  0  0  0  0  0  0
  148.1796  136.1651  160.4383 C   0  0  0  0  0  0  0  0  0  0  0  0
  148.9199  136.4511  159.3563 N   0  5  0  0  0  0  0  0  0  0  0  0
  148.9468  135.5999  158.3061 C   0  0  0  0  0  0  0  0  0  0  0  0
  149.8531  134.8120  158.0256 O   0  0  0  0  0  0  0  0  0  0  0  0
  147.8593  135.6772  157.5249 N   0  0  0  0  0  0  0  0  0  0  0  0
  147.5982  134.8903  156.3220 C   0  0  0  0  0  0  0  0  0  0  0  0
  148.3602  135.4144  155.0768 C   0  0  1  0  0  0  0  0  0  0  0  0
  149.8650  135.6080  155.3883 C   0  0  0  0  0  0  0  0  0  0  0  0
  148.1047  134.5087  153.9088 N   0  3  0  0  0  0  0  0  0  0  0  0
  148.6408  133.1364  154.1212 C   0  0  0  0  0  0  0  0  0  0  0  0
  148.4553  132.2695  152.8657 C   0  0  0  0  0  0  0  0  0  0  0  0
  147.0776  132.2141  152.5271 O   0  0  0  0  0  0  0  0  0  0  0  0
  146.5651  133.5022  152.2212 C   0  0  0  0  0  0  0  0  0  0  0  0
  146.6914  134.4229  153.4473 C   0  0  0  0  0  0  0  0  0  0  0  0
  147.8394  137.0999  161.3097 N   0  0  0  0  0  0  0  0  0  0  0  0
  147.0941  136.4370  162.2921 O   0  0  0  0  0  0  0  0  0  0  0  0
  146.9314  133.4827  163.3396 H   0  0  0  0  0  0  0  0  0  0  0  0
  145.4709  133.7127  162.3760 H   0  0  0  0  0  0  0  0  0  0  0  0
  145.8253  134.8052  163.7150 H   0  0  0  0  0  0  0  0  0  0  0  0
  147.8294  133.9346  160.2973 H   0  0  0  0  0  0  0  0  0  0  0  0
  147.1475  136.3393  157.7978 H   0  0  0  0  0  0  0  0  0  0  0  0
  147.8290  133.8362  156.4844 H   0  0  0  0  0  0  0  0  0  0  0  0
  146.5216  134.9350  156.1708 H   0  0  0  0  0  0  0  0  0  0  0  0
  147.9690  136.4013  154.8233 H   0  0  0  0  0  0  0  0  0  0  0  0
  150.0193  136.2765  156.2345 H   0  0  0  0  0  0  0  0  0  0  0  0
  150.4014  136.0686  154.5591 H   0  0  0  0  0  0  0  0  0  0  0  0
  150.3483  134.6603  155.6277 H   0  0  0  0  0  0  0  0  0  0  0  0
  149.7003  133.1610  154.3686 H   0  0  0  0  0  0  0  0  0  0  0  0
  148.1308  132.6724  154.9667 H   0  0  0  0  0  0  0  0  0  0  0  0
  149.0368  132.6614  152.0295 H   0  0  0  0  0  0  0  0  0  0  0  0
  148.8116  131.2565  153.0536 H   0  0  0  0  0  0  0  0  0  0  0  0
  147.0927  133.9227  151.3631 H   0  0  0  0  0  0  0  0  0  0  0  0
  145.5184  133.4045  151.9324 H   0  0  0  0  0  0  0  0  0  0  0  0
  146.0609  134.0562  154.2588 H   0  0  0  0  0  0  0  0  0  0  0  0
  146.3168  135.4038  153.1557 H   0  0  0  0  0  0  0  0  0  0  0  0
  148.6180  134.9072  153.1355 H   0  0  0  0  0  0  0  0  0  0  0  0
  1  2  1  0  0  0  0
  1 20  1  0  0  0  0
  1 21  1  0  0  0  0
  1 22  1  0  0  0  0
  2 19  1  0  0  0  0
  2  3  2  0  0  0  0
  3  4  1  0  0  0  0
  3 23  1  0  0  0  0
  4  5  1  0  0  0  0
  4 18  2  0  0  0  0
  5  6  1  0  0  0  0
  6  7  2  0  0  0  0
  6  8  1  0  0  0  0
  8  9  1  0  0  0  0
  8 24  1  0  0  0  0
  9 10  1  0  0  0  0
  9 25  1  0  0  0  0
  9 26  1  0  0  0  0
 10 11  1  0  0  0  0
 10 12  1  0  0  0  0
 10 27  1  0  0  0  0
 11 28  1  0  0  0  0
 11 29  1  0  0  0  0
 11 30  1  0  0  0  0
 12 17  1  0  0  0  0
 12 13  1  0  0  0  0
 12 39  1  0  0  0  0
 13 14  1  0  0  0  0
 13 31  1  0  0  0  0
 13 32  1  0  0  0  0
 14 15  1  0  0  0  0
 14 33  1  0  0  0  0
 14 34  1  0  0  0  0
 15 16  1  0  0  0  0
 16 17  1  0  0  0  0
 16 35  1  0  0  0  0
 16 36  1  0  0  0  0
 17 37  1  0  0  0  0
 17 38  1  0  0  0  0
 18 19  1  0  0  0  0
M  CHG  1   5  -1
M  CHG  1  12   1
M  END
> <s_m_source_file>
AV-unprocessed.smi

> <i_m_source_file_index>
2044

> <i_lp_mmshare_version>
43012

> <i_f3d_flags>
0

> <s_epik_input>
W0NIM11jMVtjSF1jKG5vMSlbTkhdQyg9TylbTkhdW0NIMl1bQ0BIXShbQ0gzXSlOMltDSDJdW0NIMl1PW0NIMl1bQ0gyXTI=

> <s_epik_cmdline>
J2VwaWtfcHl0aG9uJywgJy1waCcsICc3LjAnLCAnLXRuJywgJzgnLCAnLW1hJywgJzIwMCcsICctbWV0YWxfYmluZGluZycsICctaW1hZScsICc8aW5maWxlLm1hZT4nLCAnLW9tYWUnLCAnPG91dGZpbGUubWFlPic=

> <r_epik_Ionization_Penalty>
6.73014

> <r_epik_Ionization_Penalty_Charging>
6.73004

> <r_epik_Ionization_Penalty_Neutral>
9.51297e-05

> <r_epik_State_Penalty>
6.93052

> <r_epik_Charging_Adjusted_Penalty>
13.6606

> <i_epik_Tot_Q>
0

> <i_epik_Tot_abs_Q>
2

> <r_epik_Metal_State_Penalty>
2.86736

> <b_epik_Metal_Only>
1

> <s_lp_Force_Field>
OPLS_2005

> <r_lp_Energy>
8.75772

> <b_lp_Chiralities_Consistent>
1

> <s_lp_Variant>
AV-unprocessed.smi:2044-8

> <Gold.Version>
5.8.1

> <Gold.Id.Protein>
6NUR|6NUR_protein|mol2

> <Gold.PLP.Fitness>
37.8797

> <Gold.PLP.PLP>
-25.1140

> <Gold.PLP.part.hbond>
-4.0000

> <Gold.PLP.part.metal>
0.0000

> <Gold.PLP.part.buried>
-0.8923

> <Gold.PLP.part.nonpolar>
-20.1037

> <Gold.PLP.part.repulsive>
0.1394

> <Gold.PLP.ligand.clash>
0.0000

> <Gold.PLP.ligand.torsion>
0.9742

> <Gold.PLP.Chemscore.Hbond>
4.7920

> <Gold.PLP.Chemscore.CHOScore>
0.0000

> <Gold.PLP.Chemscore.Metal>
0.0000

> <Gold.Chemscore.Hbonds>
donor molecule, donor type, donor heavy atom, donor atom, acceptor molecule, acceptor atom, score
      L1  H    12    39       P1  7948  2.00
      P1  H  6896  6909       L1     7  0.99
      P1  H  6931  6943       L1    18  1.00
      P1  H  6934  6947       L1    18  0.71

> <Gold.PLP.Chemscore.Internal.Correction>
0.3380

> <Gold.Rescore>
     Score         DG    S(hbond)    S(metal)    S(lipo)     H(rot)  DE(clash)    DE(int)     intcor
     16.84     -18.91       3.61        0.00      46.66       1.59       0.02       2.06       ----

> <Gold.Chemscore.Fitness>
16.8355

> <Gold.Chemscore.DG>
-18.9142

> <Gold.Chemscore.ZeroCoef>
-5.4800

> <Gold.Chemscore.Hbond>
3.6085

> <Gold.Chemscore.Metal>
0.0000

> <Gold.Chemscore.Lipo>
46.6643

> <Gold.Chemscore.Internal_Hbond>
0.0000

> <Gold.Chemscore.DEClash>
0.0174

> <Gold.Chemscore.DEInternal>
2.0613

> <Gold.Chemscore.Rot>
1.5930

> <Gold.Chemscore.Internal.Correction>
   9.000000E+99

> <Gold.Chemscore.Hbonds>
donor molecule, donor type, donor heavy atom, donor atom, acceptor molecule, acceptor atom, score
      L1  H    12    39       P1  7948  0.49
      P1  H  6896  6909       L1     7  0.81
      P1  H  6931  6943       L1    18  0.88
      P1  H  6934  6947       L1    18  0.61

> <Gold.Chemscore.Hbond.Weighted>
-12.0525

> <Gold.Chemscore.Metal.Weighted>
-0.0000

> <Gold.Chemscore.Lipo.Weighted>
-5.4597

> <Gold.Chemscore.Internal_Hbond.Weighted>
0.0000

> <Gold.Chemscore.DEClash.Weighted>
0.0174

> <Gold.Chemscore.DEInternal.Weighted>
2.0613

> <Gold.Chemscore.Rot.Weighted>
4.0781

> <Gold.Chemscore.Internal.Correction.Weighted>
   9.000000E+99

> <Gold.Protein.RotatedTorsions>
[ 6907 6896 6895 6894 ] final   27.43 input  -60.11 | X-H torsion
[ 7974 7965 7964 7962 ] final -139.46 input  175.53 | X-H torsion
[ 8008 7997 7996 7995 ] final  -64.22 input   59.86 | X-H torsion
[ 10167 10162 10161 10158 ] final -159.03 input  -65.29 | X-H torsion
[ 10718 10713 10712 10709 ] final  104.48 input   66.30 | X-H torsion
[ 10763 10752 10751 10750 ] final -160.61 input  -60.55 | X-H torsion
[ 11005 11000 10999 10996 ] final  -69.78 input  -57.11 | X-H torsion

> <Gold.Protein.ActiveResidues>
 VAL166  LYS551  ARG553  GLY616  TRP617  ASP618  TYR619  PRO620  LYS621  CYS622 
 ASP623  PHE694  ASN695  SER759  ASP760  ASP761  ALA762  ILE779  LEU786  VAL792 
 PHE793  MET794  SER795  GLU796  ALA797  LYS798  CYS799  TRP800  GLU811  SER814 

> <Gold.Protein.RotatedAtoms>
  152.0022  134.9922  160.0565 H   0  0  0  0  0  0  0  0  0  0  0  0  # atno 6907 bound_to 6896
  152.1508  133.4516  159.4821 H   0  0  0  0  0  0  0  0  0  0  0  0  # atno 6908 bound_to 6896
  150.6875  134.2109  159.4402 H   0  0  0  0  0  0  0  0  0  0  0  0  # atno 6909 bound_to 6896
  144.8675  140.6316  143.5288 H   0  0  0  0  0  0  0  0  0  0  0  0  # atno 7974 bound_to 7965
  154.4599  140.0958  156.6864 H   0  0  0  0  0  0  0  0  0  0  0  0  # atno 8008 bound_to 7997
  155.5025  140.3474  155.4355 H   0  0  0  0  0  0  0  0  0  0  0  0  # atno 8009 bound_to 7997
  156.0851  140.1383  156.9653 H   0  0  0  0  0  0  0  0  0  0  0  0  # atno 8010 bound_to 7997
  139.6647  143.9851  152.2247 H   0  0  0  0  0  0  0  0  0  0  0  0  # atno 10167 bound_to 10162
  157.6738  131.0805  150.5713 H   0  0  0  0  0  0  0  0  0  0  0  0  # atno 10718 bound_to 10713
  154.7375  135.3061  154.8786 H   0  0  0  0  0  0  0  0  0  0  0  0  # atno 10763 bound_to 10752
  153.9610  135.6753  153.4749 H   0  0  0  0  0  0  0  0  0  0  0  0  # atno 10764 bound_to 10752
  153.0977  135.4927  154.8732 H   0  0  0  0  0  0  0  0  0  0  0  0  # atno 10765 bound_to 10752
  141.1561  133.6773  156.6652 H   0  0  0  0  0  0  0  0  0  0  0  0  # atno 11005 bound_to 11000
  145.4194  139.1566  143.4082 LP  0  0  0  0  0  0  0  0  0  0  0  0  # atno 17320 bound_to 7965
  146.2906  140.4303  142.8741 LP  0  0  0  0  0  0  0  0  0  0  0  0  # atno 17321 bound_to 7965
  139.9599  144.6564  150.8089 LP  0  0  0  0  0  0  0  0  0  0  0  0  # atno 17342 bound_to 10162
  140.7594  143.3128  151.2803 LP  0  0  0  0  0  0  0  0  0  0  0  0  # atno 17343 bound_to 10162
  156.6014  130.4355  149.5895 LP  0  0  0  0  0  0  0  0  0  0  0  0  # atno 17370 bound_to 10713
  156.2503  130.6903  151.1639 LP  0  0  0  0  0  0  0  0  0  0  0  0  # atno 17371 bound_to 10713
  140.3217  134.8002  157.4257 LP  0  0  0  0  0  0  0  0  0  0  0  0  # atno 17394 bound_to 11000
  140.1091  134.5369  155.8282 LP  0  0  0  0  0  0  0  0  0  0  0  0  # atno 17395 bound_to 11000

$$$$
