AV-unprocessed.smi:183|AV-procd|sdf|1457|dock1
  -GOLD-   2262019263D 1   1.00000     0.00000
 Structure written by MMmdl.
 55 57  0  0  0  0  0  0  0  0  1 V2000
  138.4548  137.5363  153.6181 C   0  0  0  0  0  0  0  0  0  0  0  0
  139.7136  136.8057  154.0725 C   0  0  0  0  0  0  0  0  0  0  0  0
  139.6494  135.9610  154.9653 O   0  0  0  0  0  0  0  0  0  0  0  0
  140.8523  137.1402  153.4472 N   0  0  0  0  0  0  0  0  0  0  0  0
  142.1606  136.5665  153.7339 C   0  0  0  0  0  0  0  0  0  0  0  0
  143.2050  137.0082  152.6897 C   0  0  0  0  0  0  0  0  0  0  0  0
  144.5105  136.3632  152.8577 N   0  0  0  0  0  0  0  0  0  0  0  0
  145.4894  137.2747  153.0786 C   0  0  0  0  0  0  0  0  0  0  0  0
  145.8899  138.0211  152.0187 N   0  0  0  0  0  0  0  0  0  0  0  0
  146.8565  138.9319  152.1668 C   0  0  0  0  0  0  0  0  0  0  0  0
  147.5456  139.2470  153.2654 N   0  0  0  0  0  0  0  0  0  0  0  0
  147.1528  138.4919  154.3312 C   0  0  0  0  0  0  0  0  0  0  0  0
  146.1431  137.4886  154.3267 C   0  0  0  0  0  0  0  0  0  0  0  0
  146.0347  136.9230  155.5920 N   0  0  0  0  0  0  0  0  0  0  0  0
  146.9241  137.5589  156.3036 C   0  0  0  0  0  0  0  0  0  0  0  0
  147.6345  138.5253  155.6282 N   0  0  0  0  0  0  0  0  0  0  0  0
  148.6774  139.3812  156.1724 C   0  0  0  0  0  0  0  0  0  0  0  0
  150.1063  138.8043  155.9934 C   0  0  1  0  0  0  0  0  0  0  0  0
  150.3041  137.8040  156.9784 O   0  0  0  0  0  0  0  0  0  0  0  0
  150.3391  138.1632  154.6274 C   0  0  0  0  0  0  0  0  0  0  0  0
  151.8315  138.3570  154.4061 C   0  0  0  0  0  0  0  0  0  0  0  0
  152.0478  139.6589  154.9198 O   0  0  0  0  0  0  0  0  0  0  0  0
  151.2789  139.8194  156.1094 C   0  0  1  0  0  0  0  0  0  0  0  0
  150.9016  141.3051  156.2226 C   0  0  0  0  0  0  0  0  0  0  0  0
  144.8522  135.1659  152.0698 C   0  0  0  0  0  0  0  0  0  0  0  0
  146.1075  134.4597  152.6164 C   0  0  0  0  0  0  0  0  0  0  0  0
  145.0773  135.4868  150.5755 C   0  0  0  0  0  0  0  0  0  0  0  0
  138.1904  137.2404  152.6026 H   0  0  0  0  0  0  0  0  0  0  0  0
  138.6105  138.6154  153.6350 H   0  0  0  0  0  0  0  0  0  0  0  0
  137.6141  137.3036  154.2724 H   0  0  0  0  0  0  0  0  0  0  0  0
  140.8094  137.8429  152.7234 H   0  0  0  0  0  0  0  0  0  0  0  0
  142.4572  136.8923  154.7305 H   0  0  0  0  0  0  0  0  0  0  0  0
  142.0812  135.4794  153.7732 H   0  0  0  0  0  0  0  0  0  0  0  0
  142.8260  136.8015  151.6873 H   0  0  0  0  0  0  0  0  0  0  0  0
  143.3329  138.0898  152.7253 H   0  0  0  0  0  0  0  0  0  0  0  0
  147.1154  139.4872  151.2773 H   0  0  0  0  0  0  0  0  0  0  0  0
  147.0849  137.3402  157.3491 H   0  0  0  0  0  0  0  0  0  0  0  0
  148.5930  140.3510  155.6818 H   0  0  0  0  0  0  0  0  0  0  0  0
  148.4637  139.5494  157.2288 H   0  0  0  0  0  0  0  0  0  0  0  0
  149.7527  137.0651  156.7706 H   0  0  0  0  0  0  0  0  0  0  0  0
  150.0275  137.1192  154.5694 H   0  0  0  0  0  0  0  0  0  0  0  0
  149.7982  138.7144  153.8573 H   0  0  0  0  0  0  0  0  0  0  0  0
  152.4135  137.6316  154.9766 H   0  0  0  0  0  0  0  0  0  0  0  0
  152.1168  138.2846  153.3566 H   0  0  0  0  0  0  0  0  0  0  0  0
  151.9213  139.5635  156.9541 H   0  0  0  0  0  0  0  0  0  0  0  0
  150.3200  141.5013  157.1234 H   0  0  0  0  0  0  0  0  0  0  0  0
  150.3226  141.6384  155.3610 H   0  0  0  0  0  0  0  0  0  0  0  0
  151.7966  141.9254  156.2721 H   0  0  0  0  0  0  0  0  0  0  0  0
  144.0247  134.4606  152.1428 H   0  0  0  0  0  0  0  0  0  0  0  0
  146.3814  133.6088  151.9922 H   0  0  0  0  0  0  0  0  0  0  0  0
  145.9496  134.0702  153.6219 H   0  0  0  0  0  0  0  0  0  0  0  0
  146.9621  135.1364  152.6461 H   0  0  0  0  0  0  0  0  0  0  0  0
  145.3652  134.5917  150.0239 H   0  0  0  0  0  0  0  0  0  0  0  0
  145.8714  136.2230  150.4465 H   0  0  0  0  0  0  0  0  0  0  0  0
  144.1823  135.8755  150.0906 H   0  0  0  0  0  0  0  0  0  0  0  0
  1  2  1  0  0  0  0
  1 28  1  0  0  0  0
  1 29  1  0  0  0  0
  1 30  1  0  0  0  0
  2  3  2  0  0  0  0
  2  4  1  0  0  0  0
  4  5  1  0  0  0  0
  4 31  1  0  0  0  0
  5  6  1  0  0  0  0
  5 32  1  0  0  0  0
  5 33  1  0  0  0  0
  6  7  1  0  0  0  0
  6 34  1  0  0  0  0
  6 35  1  0  0  0  0
  7  8  1  0  0  0  0
  7 25  1  0  0  0  0
  8 13  1  0  0  0  0
  8  9  2  0  0  0  0
  9 10  1  0  0  0  0
 10 11  2  0  0  0  0
 10 36  1  0  0  0  0
 11 12  1  0  0  0  0
 12 16  1  0  0  0  0
 12 13  2  0  0  0  0
 13 14  1  0  0  0  0
 14 15  2  0  0  0  0
 15 16  1  0  0  0  0
 15 37  1  0  0  0  0
 16 17  1  0  0  0  0
 17 18  1  0  0  0  0
 17 38  1  0  0  0  0
 17 39  1  0  0  0  0
 18 23  1  0  0  0  0
 18 19  1  0  0  0  0
 18 20  1  0  0  0  0
 19 40  1  0  0  0  0
 20 21  1  0  0  0  0
 20 41  1  0  0  0  0
 20 42  1  0  0  0  0
 21 22  1  0  0  0  0
 21 43  1  0  0  0  0
 21 44  1  0  0  0  0
 22 23  1  0  0  0  0
 23 24  1  0  0  0  0
 23 45  1  0  0  0  0
 24 46  1  0  0  0  0
 24 47  1  0  0  0  0
 24 48  1  0  0  0  0
 25 26  1  0  0  0  0
 25 27  1  0  0  0  0
 25 49  1  0  0  0  0
 26 50  1  0  0  0  0
 26 51  1  0  0  0  0
 26 52  1  0  0  0  0
 27 53  1  0  0  0  0
 27 54  1  0  0  0  0
 27 55  1  0  0  0  0
M  END
> <s_m_source_file>
AV-unprocessed.smi

> <i_m_source_file_index>
183

> <i_lp_mmshare_version>
43012

> <i_f3d_flags>
0

> <s_epik_input>
W0NIM11DKD1PKVtOSF1bQ0gyXVtDSDJdTihbQ0hdKFtDSDNdKVtDSDNdKWMobltjSF1uMSljKGMxMiluW2NIXW4yW0NIMl1bQ0BAXTMoW09IXSlbQ0gyXVtDSDJdT1tDQEhdM1tDSDNd

> <s_epik_cmdline>
J2VwaWtfcHl0aG9uJywgJy1waCcsICc3LjAnLCAnLXRuJywgJzgnLCAnLW1hJywgJzIwMCcsICctbWV0YWxfYmluZGluZycsICctaW1hZScsICc8aW5maWxlLm1hZT4nLCAnLW9tYWUnLCAnPG91dGZpbGUubWFlPic=

> <r_lp_tautomer_probability>
1

> <r_epik_Ionization_Penalty>
0.00156158

> <r_epik_Ionization_Penalty_Charging>
0

> <r_epik_Ionization_Penalty_Neutral>
0.00156158

> <r_epik_State_Penalty>
0.000865808

> <r_epik_Charging_Adjusted_Penalty>
0.000865808

> <i_epik_Tot_Q>
0

> <i_epik_Tot_abs_Q>
0

> <r_epik_Metal_State_Penalty>
-0

> <b_epik_Metal_Only>
0

> <s_lp_Force_Field>
OPLS_2005

> <r_lp_Energy>
29.4164

> <b_lp_Chiralities_Consistent>
1

> <s_lp_Variant>
AV-unprocessed.smi:183-1

> <Gold.Version>
5.8.1

> <Gold.Id.Protein>
6NUR|6NUR_protein|mol2

> <Gold.PLP.Fitness>
41.0388

> <Gold.PLP.PLP>
-35.5673

> <Gold.PLP.part.hbond>
-2.0984

> <Gold.PLP.part.metal>
0.0000

> <Gold.PLP.part.buried>
-7.8876

> <Gold.PLP.part.nonpolar>
-28.4187

> <Gold.PLP.part.repulsive>
2.2571

> <Gold.PLP.ligand.clash>
0.0000

> <Gold.PLP.ligand.torsion>
1.6827

> <Gold.PLP.Chemscore.Hbond>
1.8960

> <Gold.PLP.Chemscore.CHOScore>
0.6462

> <Gold.PLP.Chemscore.Metal>
0.0000

> <Gold.Chemscore.Hbonds>
donor molecule, donor type, donor heavy atom, donor atom, acceptor molecule, acceptor atom, score
      P1  H  7989  7998       L1    22  0.88
      P1  H 11000 11005       L1     3  1.00
      L1  C    10    36       P1  7957  0.68

> <Gold.PLP.Chemscore.Internal.Correction>
1.2104

> <Gold.Rescore>
     Score         DG    S(hbond)    S(metal)    S(lipo)     H(rot)  DE(clash)    DE(int)     intcor
      7.07      -9.95       1.74        0.00      64.05       3.45       0.15       2.73       ----

> <Gold.Chemscore.Fitness>
7.0703

> <Gold.Chemscore.DG>
-9.9528

> <Gold.Chemscore.ZeroCoef>
-5.4800

> <Gold.Chemscore.Hbond>
1.7360

> <Gold.Chemscore.Metal>
0.0000

> <Gold.Chemscore.Lipo>
64.0516

> <Gold.Chemscore.Internal_Hbond>
0.0000

> <Gold.Chemscore.DEClash>
0.1481

> <Gold.Chemscore.DEInternal>
2.7344

> <Gold.Chemscore.Rot>
3.4451

> <Gold.Chemscore.Internal.Correction>
   9.000000E+99

> <Gold.Chemscore.Hbonds>
donor molecule, donor type, donor heavy atom, donor atom, acceptor molecule, acceptor atom, score
      P1  H  7989  7998       L1    22  0.45
      P1  H 11000 11005       L1     3  0.99

> <Gold.Chemscore.Hbond.Weighted>
-5.7982

> <Gold.Chemscore.Metal.Weighted>
-0.0000

> <Gold.Chemscore.Lipo.Weighted>
-7.4940

> <Gold.Chemscore.Internal_Hbond.Weighted>
0.0000

> <Gold.Chemscore.DEClash.Weighted>
0.1481

> <Gold.Chemscore.DEInternal.Weighted>
2.7344

> <Gold.Chemscore.Rot.Weighted>
8.8194

> <Gold.Chemscore.Internal.Correction.Weighted>
   9.000000E+99

> <Gold.Protein.RotatedTorsions>
[ 6907 6896 6895 6894 ] final    9.51 input  -60.11 | X-H torsion
[ 7974 7965 7964 7962 ] final  -12.69 input  175.53 | X-H torsion
[ 8008 7997 7996 7995 ] final   85.27 input   59.86 | X-H torsion
[ 10167 10162 10161 10158 ] final  -13.62 input  -65.29 | X-H torsion
[ 10718 10713 10712 10709 ] final -109.38 input   66.30 | X-H torsion
[ 10763 10752 10751 10750 ] final  167.67 input  -60.55 | X-H torsion
[ 11005 11000 10999 10996 ] final   81.83 input  -57.11 | X-H torsion

> <Gold.Protein.ActiveResidues>
 VAL166  LYS551  ARG553  GLY616  TRP617  ASP618  TYR619  PRO620  LYS621  CYS622 
 ASP623  PHE694  ASN695  SER759  ASP760  ASP761  ALA762  ILE779  LEU786  VAL792 
 PHE793  MET794  SER795  GLU796  ALA797  LYS798  CYS799  TRP800  GLU811  SER814 

> <Gold.Protein.RotatedAtoms>
  151.7233  135.0890  160.0287 H   0  0  0  0  0  0  0  0  0  0  0  0  # atno 6907 bound_to 6896
  152.3588  133.6266  159.6008 H   0  0  0  0  0  0  0  0  0  0  0  0  # atno 6908 bound_to 6896
  150.7589  133.9374  159.3487 H   0  0  0  0  0  0  0  0  0  0  0  0  # atno 6909 bound_to 6896
  146.2142  140.3094  142.8381 H   0  0  0  0  0  0  0  0  0  0  0  0  # atno 7974 bound_to 7965
  155.9478  140.3403  155.6382 H   0  0  0  0  0  0  0  0  0  0  0  0  # atno 8008 bound_to 7997
  155.6958  140.0754  157.2448 H   0  0  0  0  0  0  0  0  0  0  0  0  # atno 8009 bound_to 7997
  154.4115  140.1649  156.2124 H   0  0  0  0  0  0  0  0  0  0  0  0  # atno 8010 bound_to 7997
  140.7186  143.5407  150.9413 H   0  0  0  0  0  0  0  0  0  0  0  0  # atno 10167 bound_to 10162
  156.0534  130.5761  150.8092 H   0  0  0  0  0  0  0  0  0  0  0  0  # atno 10718 bound_to 10713
  154.3573  135.2753  155.2339 H   0  0  0  0  0  0  0  0  0  0  0  0  # atno 10763 bound_to 10752
  154.4543  135.5923  153.6216 H   0  0  0  0  0  0  0  0  0  0  0  0  # atno 10764 bound_to 10752
  152.9846  135.6049  154.3789 H   0  0  0  0  0  0  0  0  0  0  0  0  # atno 10765 bound_to 10752
  139.9084  134.8026  156.2094 H   0  0  0  0  0  0  0  0  0  0  0  0  # atno 11005 bound_to 11000
  144.8999  140.7630  143.5873 LP  0  0  0  0  0  0  0  0  0  0  0  0  # atno 17320 bound_to 7965
  145.3019  139.1847  143.4685 LP  0  0  0  0  0  0  0  0  0  0  0  0  # atno 17321 bound_to 7965
  139.9129  143.6698  152.3111 LP  0  0  0  0  0  0  0  0  0  0  0  0  # atno 17342 bound_to 10162
  139.7088  144.7624  151.1148 LP  0  0  0  0  0  0  0  0  0  0  0  0  # atno 17343 bound_to 10162
  157.5482  131.0943  150.9733 LP  0  0  0  0  0  0  0  0  0  0  0  0  # atno 17370 bound_to 10713
  156.9999  130.5596  149.5310 LP  0  0  0  0  0  0  0  0  0  0  0  0  # atno 17371 bound_to 10713
  141.0475  133.6906  156.1710 LP  0  0  0  0  0  0  0  0  0  0  0  0  # atno 17394 bound_to 11000
  140.6862  134.4715  157.5589 LP  0  0  0  0  0  0  0  0  0  0  0  0  # atno 17395 bound_to 11000

$$$$
