AV-unprocessed.smi:2162|AV-procd|sdf|8803|dock6
  -GOLD-   2272011583D 1   1.00000     0.00000
 Structure written by MMmdl.
 41 42  0  0  0  0  0  0  0  0  1 V2000
  144.3123  143.9666  157.0463 C   0  0  0  0  0  0  0  0  0  0  0  0
  144.9620  143.7340  155.7257 C   0  0  0  0  0  0  0  0  0  0  0  0
  145.8819  142.7901  155.5111 N   0  0  0  0  0  0  0  0  0  0  0  0
  146.3192  142.7567  154.1834 C   0  0  0  0  0  0  0  0  0  0  0  0
  147.3158  141.7211  153.7461 C   0  0  0  0  0  0  0  0  0  0  0  0
  148.7543  141.9931  154.2340 C   0  0  0  0  0  0  0  0  0  0  0  0
  148.9747  141.5289  155.6026 N   0  0  0  0  0  0  0  0  0  0  0  0
  149.9835  140.7354  155.9974 C   0  0  0  0  0  0  0  0  0  0  0  0
  150.7980  140.2391  155.2182 O   0  0  0  0  0  0  0  0  0  0  0  0
  150.1218  140.5016  157.5100 C   0  0  1  0  0  0  0  0  0  0  0  0
  151.2253  139.4787  157.8408 C   0  0  0  0  0  0  0  0  0  0  0  0
  152.3604  140.3363  158.3793 C   0  0  0  0  0  0  0  0  0  0  0  0
  153.4853  139.8880  158.5953 O   0  0  0  0  0  0  0  0  0  0  0  0
  151.9710  141.6082  158.5403 N   0  0  0  0  0  0  0  0  0  0  0  0
  152.8372  142.7289  158.9276 C   0  0  0  0  0  0  0  0  0  0  0  0
  153.5635  142.4812  160.2624 C   0  0  0  0  0  0  0  0  0  0  0  0
  152.0292  144.0364  158.9484 C   0  0  0  0  0  0  0  0  0  0  0  0
  150.5574  141.7877  158.2385 C   0  0  0  0  0  0  0  0  0  0  0  0
  145.7352  143.7197  153.3979 C   0  0  0  0  0  0  0  0  0  0  0  0
  144.5902  144.6814  154.2909 S   0  0  0  0  0  0  0  0  0  0  0  0
  144.4451  143.1012  157.6963 H   0  0  0  0  0  0  0  0  0  0  0  0
  143.2445  144.1394  156.9120 H   0  0  0  0  0  0  0  0  0  0  0  0
  144.7516  144.8399  157.5283 H   0  0  0  0  0  0  0  0  0  0  0  0
  147.0031  140.7401  154.1062 H   0  0  0  0  0  0  0  0  0  0  0  0
  147.3177  141.6450  152.6584 H   0  0  0  0  0  0  0  0  0  0  0  0
  149.4646  141.4860  153.5809 H   0  0  0  0  0  0  0  0  0  0  0  0
  148.9772  143.0581  154.1513 H   0  0  0  0  0  0  0  0  0  0  0  0
  148.3511  141.8886  156.3106 H   0  0  0  0  0  0  0  0  0  0  0  0
  149.1646  140.1574  157.9053 H   0  0  0  0  0  0  0  0  0  0  0  0
  150.8975  138.7857  158.6162 H   0  0  0  0  0  0  0  0  0  0  0  0
  151.5540  138.8915  156.9818 H   0  0  0  0  0  0  0  0  0  0  0  0
  153.6123  142.8312  158.1661 H   0  0  0  0  0  0  0  0  0  0  0  0
  154.2738  143.2821  160.4697 H   0  0  0  0  0  0  0  0  0  0  0  0
  154.1243  141.5463  160.2387 H   0  0  0  0  0  0  0  0  0  0  0  0
  152.8702  142.4385  161.1029 H   0  0  0  0  0  0  0  0  0  0  0  0
  152.6643  144.8865  159.1985 H   0  0  0  0  0  0  0  0  0  0  0  0
  151.2258  143.9927  159.6840 H   0  0  0  0  0  0  0  0  0  0  0  0
  151.5772  144.2390  157.9768 H   0  0  0  0  0  0  0  0  0  0  0  0
  150.3992  142.6844  157.6381 H   0  0  0  0  0  0  0  0  0  0  0  0
  149.9989  141.9083  159.1675 H   0  0  0  0  0  0  0  0  0  0  0  0
  145.8950  143.9090  152.3470 H   0  0  0  0  0  0  0  0  0  0  0  0
  1  2  1  0  0  0  0
  1 21  1  0  0  0  0
  1 22  1  0  0  0  0
  1 23  1  0  0  0  0
  2 20  1  0  0  0  0
  2  3  2  0  0  0  0
  3  4  1  0  0  0  0
  4  5  1  0  0  0  0
  4 19  2  0  0  0  0
  5  6  1  0  0  0  0
  5 24  1  0  0  0  0
  5 25  1  0  0  0  0
  6  7  1  0  0  0  0
  6 26  1  0  0  0  0
  6 27  1  0  0  0  0
  7  8  1  0  0  0  0
  7 28  1  0  0  0  0
  8  9  2  0  0  0  0
  8 10  1  0  0  0  0
 10 18  1  0  0  0  0
 10 11  1  0  0  0  0
 10 29  1  0  0  0  0
 11 12  1  0  0  0  0
 11 30  1  0  0  0  0
 11 31  1  0  0  0  0
 12 13  2  0  0  0  0
 12 14  1  0  0  0  0
 14 15  1  0  0  0  0
 14 18  1  0  0  0  0
 15 16  1  0  0  0  0
 15 17  1  0  0  0  0
 15 32  1  0  0  0  0
 16 33  1  0  0  0  0
 16 34  1  0  0  0  0
 16 35  1  0  0  0  0
 17 36  1  0  0  0  0
 17 37  1  0  0  0  0
 17 38  1  0  0  0  0
 18 39  1  0  0  0  0
 18 40  1  0  0  0  0
 19 20  1  0  0  0  0
 19 41  1  0  0  0  0
M  END
> <s_m_source_file>
AV-unprocessed.smi

> <i_m_source_file_index>
2162

> <i_lp_mmshare_version>
43012

> <i_f3d_flags>
0

> <s_epik_input>
W0NIM11jMW5jKFtjSF1zMSlbQ0gyXVtDSDJdW05IXUMoPU8pW0NAQEhdMltDSDJdQyg9TylOKFtDSDJdMilbQ0hdKFtDSDNdKVtDSDNd

> <s_epik_cmdline>
J2VwaWtfcHl0aG9uJywgJy1waCcsICc3LjAnLCAnLXRuJywgJzgnLCAnLW1hJywgJzIwMCcsICctbWV0YWxfYmluZGluZycsICctaW1hZScsICc8aW5maWxlLm1hZT4nLCAnLW9tYWUnLCAnPG91dGZpbGUubWFlPic=

> <r_epik_Ionization_Penalty>
0.000973993

> <r_epik_Ionization_Penalty_Charging>
0

> <r_epik_Ionization_Penalty_Neutral>
0.000973993

> <r_epik_State_Penalty>
0.000633765

> <r_epik_Charging_Adjusted_Penalty>
0.000633765

> <i_epik_Tot_Q>
0

> <i_epik_Tot_abs_Q>
0

> <r_epik_Metal_State_Penalty>
-0

> <b_epik_Metal_Only>
0

> <s_lp_Force_Field>
OPLS_2005

> <r_lp_Energy>
12.9276

> <b_lp_Chiralities_Consistent>
1

> <s_lp_Variant>
AV-unprocessed.smi:2162-2

> <Gold.Version>
5.8.1

> <Gold.Id.Protein>
6NUR|6NUR_protein|mol2

> <Gold.PLP.Fitness>
45.3399

> <Gold.PLP.PLP>
-40.2277

> <Gold.PLP.part.hbond>
-2.7634

> <Gold.PLP.part.metal>
0.0000

> <Gold.PLP.part.buried>
-2.9298

> <Gold.PLP.part.nonpolar>
-34.6766

> <Gold.PLP.part.repulsive>
0.3113

> <Gold.PLP.ligand.clash>
0.0000

> <Gold.PLP.ligand.torsion>
0.4664

> <Gold.PLP.Chemscore.Hbond>
1.9920

> <Gold.PLP.Chemscore.CHOScore>
0.0000

> <Gold.PLP.Chemscore.Metal>
0.0000

> <Gold.Chemscore.Hbonds>
donor molecule, donor type, donor heavy atom, donor atom, acceptor molecule, acceptor atom, score
      P1  H  7989  7998       L1     9  1.00
      P1  H  7997  8010       L1    13  1.00

> <Gold.PLP.Chemscore.Internal.Correction>
0.0691

> <Gold.Rescore>
     Score         DG    S(hbond)    S(metal)    S(lipo)     H(rot)  DE(clash)    DE(int)     intcor
     16.48     -17.51       1.85        0.00      86.25       1.66       0.24       0.79       ----

> <Gold.Chemscore.Fitness>
16.4801

> <Gold.Chemscore.DG>
-17.5093

> <Gold.Chemscore.ZeroCoef>
-5.4800

> <Gold.Chemscore.Hbond>
1.8513

> <Gold.Chemscore.Metal>
0.0000

> <Gold.Chemscore.Lipo>
86.2546

> <Gold.Chemscore.Internal_Hbond>
0.0000

> <Gold.Chemscore.DEClash>
0.2389

> <Gold.Chemscore.DEInternal>
0.7903

> <Gold.Chemscore.Rot>
1.6585

> <Gold.Chemscore.Internal.Correction>
   9.000000E+99

> <Gold.Chemscore.Hbonds>
donor molecule, donor type, donor heavy atom, donor atom, acceptor molecule, acceptor atom, score
      P1  H  7989  7998       L1     9  0.94
      P1  H  7997  8010       L1    13  0.93

> <Gold.Chemscore.Hbond.Weighted>
-6.1832

> <Gold.Chemscore.Metal.Weighted>
-0.0000

> <Gold.Chemscore.Lipo.Weighted>
-10.0918

> <Gold.Chemscore.Internal_Hbond.Weighted>
0.0000

> <Gold.Chemscore.DEClash.Weighted>
0.2389

> <Gold.Chemscore.DEInternal.Weighted>
0.7903

> <Gold.Chemscore.Rot.Weighted>
4.2457

> <Gold.Chemscore.Internal.Correction.Weighted>
   9.000000E+99

> <Gold.Protein.RotatedTorsions>
[ 6907 6896 6895 6894 ] final  158.94 input  -60.11 | X-H torsion
[ 7974 7965 7964 7962 ] final   42.83 input  175.53 | X-H torsion
[ 8008 7997 7996 7995 ] final   18.18 input   59.86 | X-H torsion
[ 10167 10162 10161 10158 ] final  -45.25 input  -65.29 | X-H torsion
[ 10718 10713 10712 10709 ] final  -58.94 input   66.30 | X-H torsion
[ 10763 10752 10751 10750 ] final   23.60 input  -60.55 | X-H torsion
[ 11005 11000 10999 10996 ] final  -82.88 input  -57.11 | X-H torsion

> <Gold.Protein.ActiveResidues>
 VAL166  LYS551  ARG553  GLY616  TRP617  ASP618  TYR619  PRO620  LYS621  CYS622 
 ASP623  PHE694  ASN695  SER759  ASP760  ASP761  ALA762  ILE779  LEU786  VAL792 
 PHE793  MET794  SER795  GLU796  ALA797  LYS798  CYS799  TRP800  GLU811  SER814 

> <Gold.Protein.RotatedAtoms>
  151.9929  133.3797  159.4151 H   0  0  0  0  0  0  0  0  0  0  0  0  # atno 6907 bound_to 6896
  150.6919  134.3917  159.5088 H   0  0  0  0  0  0  0  0  0  0  0  0  # atno 6908 bound_to 6896
  152.1653  134.8878  160.0589 H   0  0  0  0  0  0  0  0  0  0  0  0  # atno 6909 bound_to 6896
  146.0707  139.5256  142.9599 H   0  0  0  0  0  0  0  0  0  0  0  0  # atno 7974 bound_to 7965
  154.9022  140.3002  155.5311 H   0  0  0  0  0  0  0  0  0  0  0  0  # atno 8008 bound_to 7997
  156.3018  140.2404  156.3987 H   0  0  0  0  0  0  0  0  0  0  0  0  # atno 8009 bound_to 7997
  154.8509  140.0409  157.1592 H   0  0  0  0  0  0  0  0  0  0  0  0  # atno 8010 bound_to 7997
  140.6865  143.2889  151.3612 H   0  0  0  0  0  0  0  0  0  0  0  0  # atno 10167 bound_to 10162
  156.1098  130.4176  150.0647 H   0  0  0  0  0  0  0  0  0  0  0  0  # atno 10718 bound_to 10713
  153.0826  135.6623  154.0014 H   0  0  0  0  0  0  0  0  0  0  0  0  # atno 10763 bound_to 10752
  153.9632  135.2972  155.3433 H   0  0  0  0  0  0  0  0  0  0  0  0  # atno 10764 bound_to 10752
  154.7228  135.5157  153.8911 H   0  0  0  0  0  0  0  0  0  0  0  0  # atno 10765 bound_to 10752
  141.1661  133.7266  156.8637 H   0  0  0  0  0  0  0  0  0  0  0  0  # atno 11005 bound_to 11000
  145.6396  141.0287  143.1819 LP  0  0  0  0  0  0  0  0  0  0  0  0  # atno 17320 bound_to 7965
  144.7230  139.7967  143.7375 LP  0  0  0  0  0  0  0  0  0  0  0  0  # atno 17321 bound_to 7965
  139.6228  144.0872  152.2407 LP  0  0  0  0  0  0  0  0  0  0  0  0  # atno 17342 bound_to 10162
  140.0322  144.6072  150.7478 LP  0  0  0  0  0  0  0  0  0  0  0  0  # atno 17343 bound_to 10162
  156.8613  130.9492  151.3617 LP  0  0  0  0  0  0  0  0  0  0  0  0  # atno 17370 bound_to 10713
  157.6278  130.8705  149.9220 LP  0  0  0  0  0  0  0  0  0  0  0  0  # atno 17371 bound_to 10713
  140.1830  134.9019  157.2971 LP  0  0  0  0  0  0  0  0  0  0  0  0  # atno 17394 bound_to 11000
  140.2374  134.3837  155.7495 LP  0  0  0  0  0  0  0  0  0  0  0  0  # atno 17395 bound_to 11000

$$$$
