#       Name:                AV-unprocessed.smi:290
#       Creating user name   scv26
#       Creation time:       Thu Mar 26 22:10:30 2020


#       File generated by GOLD software.
#

@<TRIPOS>MOLECULE
AV-unprocessed.smi:290
    69    72     1
SMALL
NO_CHARGES


@<TRIPOS>ATOM
      1 ****        -5.4368   1.5211   2.3682 C.3            1 S1                 0.0000
      2 ****        -4.4449   0.3598   2.5354 C.3            1 S1                 0.0000
      3 ****        -4.4681  -0.1534   3.8663 O.3            1 S1                 0.0000
      4 ****        -4.4765  -1.5762   3.8517 C.3            1 S1                 0.0000
      5 ****        -4.0479  -1.9698   2.4418 C.3            1 S1                 0.0000
      6 ****        -4.6335  -0.8500   1.5925 C.3            1 S1                 0.0000
      7 ****        -6.0132  -1.1103   1.3937 O.3            1 S1                 0.0000
      8 ****        -4.0172  -0.7043   0.1765 C.3            1 S1                 0.0000
      9 ****        -2.5923  -0.4118   0.1527 N.pl3          1 S1                 0.0000
     10 ****        -1.5611  -1.3243   0.1483 C.2            1 S1                 0.0000
     11 ****        -0.3619  -0.8102   0.1222 N.2            1 S1                 0.0000
     12 ****        -0.5827   0.5613   0.0916 C.ar           1 S1                 0.0000
     13 ****         0.2625   1.7059   0.0560 C.ar           1 S1                 0.0000
     14 ****         1.6123   1.6703   0.0435 N.3            1 S1                 0.0000
     15 ****         2.2478   1.0995   1.2270 C.3            1 S1                 0.0000
     16 ****         3.4399   0.2861   0.7199 C.3            1 S1                 0.0000
     17 ****         2.9828  -0.1430  -0.6781 C.3            1 S1                 0.0000
     18 ****         4.0572  -0.6288  -1.5943 N.4            1 S1                 1.0000
     19 ****         4.9764  -1.5945  -0.9393 C.3            1 S1                 0.0000
     20 ****         3.5099  -1.1592  -2.8740 C.3            1 S1                 0.0000
     21 ****         4.5451  -1.1887  -4.0143 C.3            1 S1                 0.0000
     22 ****         4.9565   0.1219  -4.3393 O.3            1 S1                 0.0000
     23 ****         2.2241   1.1150  -1.1609 C.3            1 S1                 0.0000
     24 ****         3.1148   2.1864  -1.8177 C.3            1 S1                 0.0000
     25 ****        -0.3205   2.9282   0.0195 N.ar           1 S1                 0.0000
     26 ****        -1.6531   3.0325   0.0228 C.ar           1 S1                 0.0000
     27 ****        -2.5665   2.0597   0.0592 N.ar           1 S1                 0.0000
     28 ****        -1.9803   0.8284   0.0962 C.ar           1 S1                 0.0000
     29 ****         2.2682  -0.9576  -0.5516 H              1 S1                 0.0000
     30 ****         1.4542   0.8255  -1.8783 H              1 S1                 0.0000
     31 ****        -5.4181   1.9083   1.3494 H              1 S1                 0.0000
     32 ****        -5.1849   2.3425   3.0391 H              1 S1                 0.0000
     33 ****        -6.4583   1.2155   2.5955 H              1 S1                 0.0000
     34 ****        -3.4373   0.7549   2.4163 H              1 S1                 0.0000
     35 ****        -3.8200  -1.9866   4.6191 H              1 S1                 0.0000
     36 ****        -5.4907  -1.9226   4.0539 H              1 S1                 0.0000
     37 ****        -2.9593  -1.9638   2.3995 H              1 S1                 0.0000
     38 ****        -4.3880  -2.9648   2.1525 H              1 S1                 0.0000
     39 ****        -6.1006  -1.9054   0.8910 H              1 S1                 0.0000
     40 ****        -4.1799  -1.6192  -0.3951 H              1 S1                 0.0000
     41 ****        -4.5307   0.0875  -0.3709 H              1 S1                 0.0000
     42 ****        -1.7284  -2.3914   0.1726 H              1 S1                 0.0000
     43 ****         2.5681   1.8874   1.9090 H              1 S1                 0.0000
     44 ****         1.5562   0.4550   1.7716 H              1 S1                 0.0000
     45 ****         4.3233   0.9230   0.6564 H              1 S1                 0.0000
     46 ****         3.6712  -0.5531   1.3767 H              1 S1                 0.0000
     47 ****         4.4306  -2.4672  -0.5783 H              1 S1                 0.0000
     48 ****         5.4938  -1.1411  -0.0942 H              1 S1                 0.0000
     49 ****         5.7539  -1.9413  -1.6174 H              1 S1                 0.0000
     50 ****         3.1108  -2.1604  -2.7051 H              1 S1                 0.0000
     51 ****         2.6662  -0.5550  -3.2069 H              1 S1                 0.0000
     52 ****         5.4153  -1.7984  -3.7759 H              1 S1                 0.0000
     53 ****         4.0944  -1.6304  -4.9034 H              1 S1                 0.0000
     54 ****         5.5414   0.0801  -5.0812 H              1 S1                 0.0000
     55 ****         3.5511   1.8319  -2.7498 H              1 S1                 0.0000
     56 ****         3.9293   2.4952  -1.1623 H              1 S1                 0.0000
     57 ****         2.5319   3.0765  -2.0572 H              1 S1                 0.0000
     58 ****        -2.0439   4.0390  -0.0064 H              1 S1                 0.0000
     59 ****         4.6096   0.1823  -1.8345 H              1 S1                 0.0000
     60 ****        -5.2898   0.1758   4.3316 LP             1 S1                 0.0000
     61 ****        -3.6570   0.1659   4.3563 LP             1 S1                 0.0000
     62 ****        -6.4313  -0.3498   0.8967 LP             1 S1                 0.0000
     63 ****        -6.4663  -1.2195   2.2784 LP             1 S1                 0.0000
     64 ****         0.5142  -1.2923   0.1238 LP             1 S1                 0.0000
     65 ****         1.8037   2.6518   0.0494 LP             1 S1                 0.0000
     66 ****         5.4310   0.5291  -3.5589 LP             1 S1                 0.0000
     67 ****         4.1581   0.6778  -4.5709 LP             1 S1                 0.0000
     68 ****         0.2457   3.7519  -0.0099 LP             1 S1                 0.0000
     69 ****        -3.5546   2.2139   0.0593 LP             1 S1                 0.0000
@<TRIPOS>BOND
    1    1    2 1     
    2    1   31 1     
    3    1   32 1     
    4    1   33 1     
    5    2    6 1     
    6    2    3 1     
    7    2   34 1     
    8    3    4 1     
    9    4    5 1     
   10    4   35 1     
   11    4   36 1     
   12    5    6 1     
   13    5   37 1     
   14    5   38 1     
   15    6    7 1     
   16    6    8 1     
   17    7   39 1     
   18    8    9 1     
   19    8   40 1     
   20    8   41 1     
   21    9   28 1     
   22    9   10 1     
   23   10   11 2     
   24   10   42 1     
   25   11   12 1     
   26   12   28 ar    
   27   12   13 ar    
   28   13   14 1     
   29   13   25 ar    
   30   14   23 1     
   31   14   15 1     
   32   15   16 1     
   33   15   43 1     
   34   15   44 1     
   35   16   17 1     
   36   16   45 1     
   37   16   46 1     
   38   17   29 1     
   39   17   18 1     
   40   17   23 1     
   41   18   19 1     
   42   18   20 1     
   43   18   59 1     
   44   19   47 1     
   45   19   48 1     
   46   19   49 1     
   47   20   21 1     
   48   20   50 1     
   49   20   51 1     
   50   21   22 1     
   51   21   52 1     
   52   21   53 1     
   53   22   54 1     
   54   23   30 1     
   55   23   24 1     
   56   24   55 1     
   57   24   56 1     
   58   24   57 1     
   59   25   26 ar    
   60   26   27 ar    
   61   26   58 1     
   62   27   28 ar    
   63    3   60 1     
   64    3   61 1     
   65    7   62 1     
   66    7   63 1     
   67   11   64 1     
   68   14   65 1     
   69   22   66 1     
   70   22   67 1     
   71   25   68 1     
   72   27   69 1     
@<TRIPOS>SUBSTRUCTURE
      1 S1             1
@<TRIPOS>SET
LONE_PAIRS      STATIC     ATOMS    <user>   **** ""
10 60 61 62 63 64 65 66 67 68 69
DONOR_HYDROGENS      STATIC     ATOMS    <user>   **** ""
3 39 59 54
ATOM$BLUE        STATIC     ATOMS    COLORGROUP SYSTEM
10 60 61 62 63 64 65 66 67 68 69
ATOM$RED        STATIC     ATOMS    COLORGROUP SYSTEM
3 39 59 54
