AV-unprocessed.smi:195|AV-procd|sdf|1524|dock10
  -GOLD-   2262019373D 1   1.00000     0.00000
 Structure written by MMmdl.
 45 48  0  0  0  0  0  0  0  0  1 V2000
  146.4863  136.1555  153.7044 N   0  0  0  0  0  0  0  0  0  0  0  0
  147.2104  135.6611  154.4592 C   0  0  0  0  0  0  0  0  0  0  0  0
  148.1325  135.0324  155.4182 C   0  0  0  0  0  0  0  0  0  0  0  0
  149.3915  134.4561  154.7639 C   0  0  0  0  0  0  0  0  0  0  0  0
  148.9193  133.4406  153.9036 O   0  0  0  0  0  0  0  0  0  0  0  0
  150.3689  135.4462  154.1237 C   0  0  0  0  0  0  0  0  0  0  0  0
  151.2071  135.3053  155.3118 N   0  0  0  0  0  0  0  0  0  0  0  0
  151.0958  136.3990  156.2273 C   0  0  0  0  0  0  0  0  0  0  0  0
  150.5691  136.2199  157.4691 N   0  0  0  0  0  0  0  0  0  0  0  0
  150.4669  137.2350  158.3316 C   0  0  0  0  0  0  0  0  0  0  0  0
  150.8338  138.5061  158.1684 N   0  0  0  0  0  0  0  0  0  0  0  0
  151.3824  138.7009  156.9364 C   0  0  0  0  0  0  0  0  0  0  0  0
  151.5541  137.7138  155.9244 C   0  0  0  0  0  0  0  0  0  0  0  0
  152.1627  138.2826  154.8118 N   0  0  0  0  0  0  0  0  0  0  0  0
  152.3335  139.5329  155.1431 C   0  0  0  0  0  0  0  0  0  0  0  0
  151.8737  139.8760  156.3945 N   0  0  0  0  0  0  0  0  0  0  0  0
  151.9395  141.1888  157.0142 C   0  0  0  0  0  0  0  0  0  0  0  0
  150.5542  141.8239  157.2755 C   0  0  2  0  0  0  0  0  0  0  0  0
  150.0694  142.2224  156.0091 O   0  0  0  0  0  0  0  0  0  0  0  0
  150.5580  143.0799  158.1779 C   0  0  2  0  0  0  0  0  0  0  0  0
  151.6641  144.1033  157.9106 C   0  0  0  0  0  0  0  0  0  0  0  0
  151.8115  144.8312  159.2357 C   0  0  0  0  0  0  0  0  0  0  0  0
  151.1741  143.8783  160.2482 C   0  0  0  0  0  0  0  0  0  0  0  0
  150.8741  142.7019  159.5104 O   0  0  0  0  0  0  0  0  0  0  0  0
  150.5544  134.0464  155.6737 C   0  0  0  0  0  0  0  0  0  0  0  0
  148.3865  135.7731  156.1771 H   0  0  0  0  0  0  0  0  0  0  0  0
  147.5684  134.2528  155.9297 H   0  0  0  0  0  0  0  0  0  0  0  0
  148.8338  133.8246  153.0441 H   0  0  0  0  0  0  0  0  0  0  0  0
  150.8617  135.0565  153.2319 H   0  0  0  0  0  0  0  0  0  0  0  0
  149.9492  136.4384  153.9538 H   0  0  0  0  0  0  0  0  0  0  0  0
  150.0284  136.9932  159.2886 H   0  0  0  0  0  0  0  0  0  0  0  0
  152.7967  140.2452  154.4756 H   0  0  0  0  0  0  0  0  0  0  0  0
  152.5082  141.1231  157.9426 H   0  0  0  0  0  0  0  0  0  0  0  0
  152.5194  141.8242  156.3431 H   0  0  0  0  0  0  0  0  0  0  0  0
  149.8708  141.0753  157.6781 H   0  0  0  0  0  0  0  0  0  0  0  0
  149.6681  143.0736  156.0956 H   0  0  0  0  0  0  0  0  0  0  0  0
  149.5863  143.5780  158.1573 H   0  0  0  0  0  0  0  0  0  0  0  0
  152.5997  143.5958  157.6714 H   0  0  0  0  0  0  0  0  0  0  0  0
  151.4246  144.7826  157.0931 H   0  0  0  0  0  0  0  0  0  0  0  0
  152.8589  145.0324  159.4631 H   0  0  0  0  0  0  0  0  0  0  0  0
  151.2798  145.7835  159.2234 H   0  0  0  0  0  0  0  0  0  0  0  0
  151.8357  143.6534  161.0851 H   0  0  0  0  0  0  0  0  0  0  0  0
  150.2508  144.3008  160.6466 H   0  0  0  0  0  0  0  0  0  0  0  0
  150.2911  133.9050  156.7218 H   0  0  0  0  0  0  0  0  0  0  0  0
  151.1109  133.1890  155.2923 H   0  0  0  0  0  0  0  0  0  0  0  0
  1  2  3  0  0  0  0
  2  3  1  0  0  0  0
  3  4  1  0  0  0  0
  3 26  1  0  0  0  0
  3 27  1  0  0  0  0
  4 25  1  0  0  0  0
  4  5  1  0  0  0  0
  4  6  1  0  0  0  0
  5 28  1  0  0  0  0
  6  7  1  0  0  0  0
  6 29  1  0  0  0  0
  6 30  1  0  0  0  0
  7  8  1  0  0  0  0
  7 25  1  0  0  0  0
  8 13  1  0  0  0  0
  8  9  2  0  0  0  0
  9 10  1  0  0  0  0
 10 11  2  0  0  0  0
 10 31  1  0  0  0  0
 11 12  1  0  0  0  0
 12 16  1  0  0  0  0
 12 13  2  0  0  0  0
 13 14  1  0  0  0  0
 14 15  2  0  0  0  0
 15 16  1  0  0  0  0
 15 32  1  0  0  0  0
 16 17  1  0  0  0  0
 17 18  1  0  0  0  0
 17 33  1  0  0  0  0
 17 34  1  0  0  0  0
 18 19  1  0  0  0  0
 18 20  1  0  0  0  0
 18 35  1  0  0  0  0
 19 36  1  0  0  0  0
 20 24  1  0  0  0  0
 20 21  1  0  0  0  0
 20 37  1  0  0  0  0
 21 22  1  0  0  0  0
 21 38  1  0  0  0  0
 21 39  1  0  0  0  0
 22 23  1  0  0  0  0
 22 40  1  0  0  0  0
 22 41  1  0  0  0  0
 23 24  1  0  0  0  0
 23 42  1  0  0  0  0
 23 43  1  0  0  0  0
 25 44  1  0  0  0  0
 25 45  1  0  0  0  0
M  END
> <s_m_source_file>
AV-unprocessed.smi

> <i_m_source_file_index>
195

> <i_lp_mmshare_version>
43012

> <i_f3d_flags>
0

> <s_epik_input>
TiNDW0NIMl1DMShbT0hdKVtDSDJdTihbQ0gyXTEpYyhuW2NIXW4yKWMoYzIzKW5bY0hdbjNbQ0gyXVtDQEhdKFtPSF0pW0NAQEhdNFtDSDJdW0NIMl1bQ0gyXU80

> <s_epik_cmdline>
J2VwaWtfcHl0aG9uJywgJy1waCcsICc3LjAnLCAnLXRuJywgJzgnLCAnLW1hJywgJzIwMCcsICctbWV0YWxfYmluZGluZycsICctaW1hZScsICc8aW5maWxlLm1hZT4nLCAnLW9tYWUnLCAnPG91dGZpbGUubWFlPic=

> <r_lp_tautomer_probability>
1

> <r_epik_Ionization_Penalty>
0.00307146

> <r_epik_Ionization_Penalty_Charging>
0

> <r_epik_Ionization_Penalty_Neutral>
0.00307146

> <r_epik_State_Penalty>
0.0020279

> <r_epik_Charging_Adjusted_Penalty>
0.0020279

> <i_epik_Tot_Q>
0

> <i_epik_Tot_abs_Q>
0

> <r_epik_Metal_State_Penalty>
-0

> <b_epik_Metal_Only>
0

> <s_lp_Force_Field>
OPLS_2005

> <r_lp_Energy>
46.5325

> <b_lp_Chiralities_Consistent>
1

> <s_lp_Variant>
AV-unprocessed.smi:195-1

> <Gold.Version>
5.8.1

> <Gold.Id.Protein>
6NUR|6NUR_protein|mol2

> <Gold.PLP.Fitness>
42.4018

> <Gold.PLP.PLP>
-36.0412

> <Gold.PLP.part.hbond>
-3.3567

> <Gold.PLP.part.metal>
0.0000

> <Gold.PLP.part.buried>
-6.3349

> <Gold.PLP.part.nonpolar>
-27.0851

> <Gold.PLP.part.repulsive>
0.1551

> <Gold.PLP.ligand.clash>
0.0000

> <Gold.PLP.ligand.torsion>
0.4329

> <Gold.PLP.Chemscore.Hbond>
2.2857

> <Gold.PLP.Chemscore.CHOScore>
0.0000

> <Gold.PLP.Chemscore.Metal>
0.0000

> <Gold.Chemscore.Hbonds>
donor molecule, donor type, donor heavy atom, donor atom, acceptor molecule, acceptor atom, score
      L1  H    19    36       P1  8028  1.00
      P1  H 10752 10763       L1     7  1.00

> <Gold.PLP.Chemscore.Internal.Correction>
0.3693

> <Gold.Rescore>
     Score         DG    S(hbond)    S(metal)    S(lipo)     H(rot)  DE(clash)    DE(int)     intcor
      8.34      -8.96       1.27        0.00      74.93       3.72       0.10       0.52       ----

> <Gold.Chemscore.Fitness>
8.3412

> <Gold.Chemscore.DG>
-8.9629

> <Gold.Chemscore.ZeroCoef>
-5.4800

> <Gold.Chemscore.Hbond>
1.2700

> <Gold.Chemscore.Metal>
0.0000

> <Gold.Chemscore.Lipo>
74.9295

> <Gold.Chemscore.Internal_Hbond>
0.0000

> <Gold.Chemscore.DEClash>
0.1042

> <Gold.Chemscore.DEInternal>
0.5175

> <Gold.Chemscore.Rot>
3.7210

> <Gold.Chemscore.Internal.Correction>
   9.000000E+99

> <Gold.Chemscore.Hbonds>
donor molecule, donor type, donor heavy atom, donor atom, acceptor molecule, acceptor atom, score
      L1  H    19    36       P1  8028  1.00
      P1  H 10752 10763       L1     7  0.17

> <Gold.Chemscore.Hbond.Weighted>
-4.2418

> <Gold.Chemscore.Metal.Weighted>
-0.0000

> <Gold.Chemscore.Lipo.Weighted>
-8.7667

> <Gold.Chemscore.Internal_Hbond.Weighted>
0.0000

> <Gold.Chemscore.DEClash.Weighted>
0.1042

> <Gold.Chemscore.DEInternal.Weighted>
0.5175

> <Gold.Chemscore.Rot.Weighted>
9.5256

> <Gold.Chemscore.Internal.Correction.Weighted>
   9.000000E+99

> <Gold.Protein.RotatedTorsions>
[ 6907 6896 6895 6894 ] final   57.48 input  -60.11 | X-H torsion
[ 7974 7965 7964 7962 ] final  103.63 input  175.53 | X-H torsion
[ 8008 7997 7996 7995 ] final  -50.72 input   59.86 | X-H torsion
[ 10167 10162 10161 10158 ] final   58.67 input  -65.29 | X-H torsion
[ 10718 10713 10712 10709 ] final    8.54 input   66.30 | X-H torsion
[ 10763 10752 10751 10750 ] final   73.35 input  -60.55 | X-H torsion
[ 11005 11000 10999 10996 ] final  -60.01 input  -57.11 | X-H torsion

> <Gold.Protein.ActiveResidues>
 VAL166  LYS551  ARG553  GLY616  TRP617  ASP618  TYR619  PRO620  LYS621  CYS622 
 ASP623  PHE694  ASN695  SER759  ASP760  ASP761  ALA762  ILE779  LEU786  VAL792 
 PHE793  MET794  SER795  GLU796  ALA797  LYS798  CYS799  TRP800  GLU811  SER814 

> <Gold.Protein.RotatedAtoms>
  152.3735  134.6698  160.0167 H   0  0  0  0  0  0  0  0  0  0  0  0  # atno 6907 bound_to 6896
  151.6983  133.3305  159.3268 H   0  0  0  0  0  0  0  0  0  0  0  0  # atno 6908 bound_to 6896
  150.7692  134.6573  159.6365 H   0  0  0  0  0  0  0  0  0  0  0  0  # atno 6909 bound_to 6896
  145.3434  139.2456  143.3597 H   0  0  0  0  0  0  0  0  0  0  0  0  # atno 7974 bound_to 7965
  154.4068  140.1265  156.4713 H   0  0  0  0  0  0  0  0  0  0  0  0  # atno 8008 bound_to 7997
  155.7177  140.3493  155.4982 H   0  0  0  0  0  0  0  0  0  0  0  0  # atno 8009 bound_to 7997
  155.9243  140.1058  157.1172 H   0  0  0  0  0  0  0  0  0  0  0  0  # atno 8010 bound_to 7997
  140.1847  144.4146  150.6598 H   0  0  0  0  0  0  0  0  0  0  0  0  # atno 10167 bound_to 10162
  156.9532  130.5905  149.5658 H   0  0  0  0  0  0  0  0  0  0  0  0  # atno 10718 bound_to 10713
  153.0516  135.5066  154.7881 H   0  0  0  0  0  0  0  0  0  0  0  0  # atno 10763 bound_to 10752
  154.6739  135.2957  154.9707 H   0  0  0  0  0  0  0  0  0  0  0  0  # atno 10764 bound_to 10752
  154.0517  135.6703  153.4854 H   0  0  0  0  0  0  0  0  0  0  0  0  # atno 10765 bound_to 10752
  141.1271  133.6619  156.5158 H   0  0  0  0  0  0  0  0  0  0  0  0  # atno 11005 bound_to 11000
  146.2998  140.4036  142.8708 LP  0  0  0  0  0  0  0  0  0  0  0  0  # atno 17320 bound_to 7965
  144.8773  140.7353  143.6009 LP  0  0  0  0  0  0  0  0  0  0  0  0  # atno 17321 bound_to 7965
  140.6496  143.2221  151.6108 LP  0  0  0  0  0  0  0  0  0  0  0  0  # atno 17342 bound_to 10162
  139.5281  144.2998  152.1083 LP  0  0  0  0  0  0  0  0  0  0  0  0  # atno 17343 bound_to 10162
  156.0354  130.5442  150.8640 LP  0  0  0  0  0  0  0  0  0  0  0  0  # atno 17370 bound_to 10713
  157.5708  131.0946  150.9420 LP  0  0  0  0  0  0  0  0  0  0  0  0  # atno 17371 bound_to 10713
  140.4332  134.7083  157.4953 LP  0  0  0  0  0  0  0  0  0  0  0  0  # atno 17394 bound_to 11000
  140.0280  134.6449  155.9146 LP  0  0  0  0  0  0  0  0  0  0  0  0  # atno 17395 bound_to 11000

$$$$
