#       Name:                AV-unprocessed.smi:1047
#       Creating user name   scv26
#       Creation time:       Fri Mar 27 03:07:31 2020


#       File generated by GOLD software.
#

@<TRIPOS>MOLECULE
AV-unprocessed.smi:1047
    62    64     1
SMALL
NO_CHARGES


@<TRIPOS>ATOM
      1 ****        -6.9064   2.6427   0.9988 C.3            1 S1                 0.0000
      2 ****        -6.3611   3.2643  -0.2948 C.3            1 S1                 0.0000
      3 ****        -4.9102   3.1828  -0.4537 N.3            1 S1                 0.0000
      4 ****        -4.4620   3.9912  -1.5818 C.3            1 S1                 0.0000
      5 ****        -2.9382   3.9157  -1.7727 C.3            1 S1                 0.0000
      6 ****        -2.5483   2.5557  -1.9304 O.3            1 S1                 0.0000
      7 ****        -2.9119   1.7395  -0.8190 C.3            1 S1                 0.0000
      8 ****        -2.4367   0.3069  -1.1003 C.3            1 S1                 0.0000
      9 ****        -0.9886   0.1981  -0.9581 N.3            1 S1                 0.0000
     10 ****        -0.4700  -1.1290  -1.2730 C.3            1 S1                 0.0000
     11 ****         1.0617  -1.1717  -1.1446 C.3            1 S1                 0.0000
     12 ****         1.6260  -0.5726  -2.2958 O.3            1 S1                 0.0000
     13 ****         1.5846  -2.6161  -1.0241 C.3            1 S1                 0.0000
     14 ****         3.0293  -2.6732  -0.8878 N.pl3          1 S1                 0.0000
     15 ****         3.9287  -2.9460  -1.8529 C.2            1 S1                 0.0000
     16 ****         5.2130  -2.9402  -1.5077 N.2            1 S1                 0.0000
     17 ****         5.1380  -2.6274  -0.1611 C.ar           1 S1                 0.0000
     18 ****         6.1592  -2.4620   0.8000 C.ar           1 S1                 0.0000
     19 ****         5.8478  -2.1396   2.1403 C.ar           1 S1                 0.0000
     20 ****         6.9779  -1.9680   3.1403 C.3            1 S1                 0.0000
     21 ****         4.4956  -1.9798   2.5371 C.ar           1 S1                 0.0000
     22 ****         4.1369  -1.6398   3.9729 C.3            1 S1                 0.0000
     23 ****         3.4633  -2.1384   1.5887 C.ar           1 S1                 0.0000
     24 ****         3.7862  -2.4575   0.2581 C.ar           1 S1                 0.0000
     25 ****        -4.4417   1.8106  -0.6387 C.3            1 S1                 0.0000
     26 ****        -7.9755   2.8337   1.0927 H              1 S1                 0.0000
     27 ****        -6.4166   3.0670   1.8757 H              1 S1                 0.0000
     28 ****        -6.7684   1.5621   1.0231 H              1 S1                 0.0000
     29 ****        -6.8553   2.8091  -1.1543 H              1 S1                 0.0000
     30 ****        -6.6570   4.3143  -0.3011 H              1 S1                 0.0000
     31 ****        -4.9560   3.6571  -2.4956 H              1 S1                 0.0000
     32 ****        -4.7546   5.0311  -1.4319 H              1 S1                 0.0000
     33 ****        -2.6379   4.4780  -2.6569 H              1 S1                 0.0000
     34 ****        -2.4181   4.3554  -0.9202 H              1 S1                 0.0000
     35 ****        -2.4284   2.1148   0.0854 H              1 S1                 0.0000
     36 ****        -2.9178  -0.3792  -0.4023 H              1 S1                 0.0000
     37 ****        -2.7485   0.0051  -2.1012 H              1 S1                 0.0000
     38 ****        -0.5360   0.8891  -1.5489 H              1 S1                 0.0000
     39 ****        -0.9092  -1.8502  -0.5826 H              1 S1                 0.0000
     40 ****        -0.7738  -1.4368  -2.2747 H              1 S1                 0.0000
     41 ****         1.3768  -0.6079  -0.2648 H              1 S1                 0.0000
     42 ****         1.3415  -1.0557  -3.0563 H              1 S1                 0.0000
     43 ****         1.1432  -3.1050  -0.1548 H              1 S1                 0.0000
     44 ****         1.2914  -3.2047  -1.8947 H              1 S1                 0.0000
     45 ****         3.6233  -3.1567  -2.8675 H              1 S1                 0.0000
     46 ****         7.1887  -2.5850   0.4973 H              1 S1                 0.0000
     47 ****         6.8927  -2.7017   3.9420 H              1 S1                 0.0000
     48 ****         6.9522  -0.9700   3.5786 H              1 S1                 0.0000
     49 ****         7.9516  -2.1000   2.6678 H              1 S1                 0.0000
     50 ****         3.0567  -1.5802   4.1093 H              1 S1                 0.0000
     51 ****         4.5648  -0.6781   4.2566 H              1 S1                 0.0000
     52 ****         4.5177  -2.4028   4.6524 H              1 S1                 0.0000
     53 ****         2.4294  -2.0162   1.8757 H              1 S1                 0.0000
     54 ****        -4.7189   1.2005   0.2205 H              1 S1                 0.0000
     55 ****        -4.9312   1.3675  -1.5076 H              1 S1                 0.0000
     56 ****        -4.5186   3.5357   0.3960 LP             1 S1                 0.0000
     57 ****        -1.5551   2.5197  -2.0409 LP             1 S1                 0.0000
     58 ****        -2.9884   2.1911  -2.7511 LP             1 S1                 0.0000
     59 ****        -0.7824   0.3645   0.0061 LP             1 S1                 0.0000
     60 ****         2.6238  -0.5979  -2.2343 LP             1 S1                 0.0000
     61 ****         1.3203   0.3769  -2.3659 LP             1 S1                 0.0000
     62 ****         6.0199  -3.1155  -2.0719 LP             1 S1                 0.0000
@<TRIPOS>BOND
    1    1    2 1     
    2    1   26 1     
    3    1   27 1     
    4    1   28 1     
    5    2    3 1     
    6    2   29 1     
    7    2   30 1     
    8    3   25 1     
    9    3    4 1     
   10    4    5 1     
   11    4   31 1     
   12    4   32 1     
   13    5    6 1     
   14    5   33 1     
   15    5   34 1     
   16    6    7 1     
   17    7    8 1     
   18    7   25 1     
   19    7   35 1     
   20    8    9 1     
   21    8   36 1     
   22    8   37 1     
   23    9   10 1     
   24    9   38 1     
   25   10   11 1     
   26   10   39 1     
   27   10   40 1     
   28   11   12 1     
   29   11   13 1     
   30   11   41 1     
   31   12   42 1     
   32   13   14 1     
   33   13   43 1     
   34   13   44 1     
   35   14   24 1     
   36   14   15 1     
   37   15   16 2     
   38   15   45 1     
   39   16   17 1     
   40   17   24 ar    
   41   17   18 ar    
   42   18   19 ar    
   43   18   46 1     
   44   19   20 1     
   45   19   21 ar    
   46   20   47 1     
   47   20   48 1     
   48   20   49 1     
   49   21   22 1     
   50   21   23 ar    
   51   22   50 1     
   52   22   51 1     
   53   22   52 1     
   54   23   24 ar    
   55   23   53 1     
   56   25   54 1     
   57   25   55 1     
   58    3   56 1     
   59    6   57 1     
   60    6   58 1     
   61    9   59 1     
   62   12   60 1     
   63   12   61 1     
   64   16   62 1     
@<TRIPOS>SUBSTRUCTURE
      1 S1             1
@<TRIPOS>SET
LONE_PAIRS      STATIC     ATOMS    <user>   **** ""
7 56 57 58 59 60 61 62
DONOR_HYDROGENS      STATIC     ATOMS    <user>   **** ""
2 38 42
ATOM$BLUE        STATIC     ATOMS    COLORGROUP SYSTEM
7 56 57 58 59 60 61 62
ATOM$RED        STATIC     ATOMS    COLORGROUP SYSTEM
2 38 42
