AV-unprocessed.smi:2744|AV-procd|sdf|10569|dock2
  -GOLD-   2272015 23D 1   1.00000     0.00000
 Structure written by MMmdl.
 40 41  0  0  0  0  0  0  0  0  1 V2000
  153.2113  142.0844  161.3928 C   0  0  0  0  0  0  0  0  0  0  0  0
  152.7940  143.3917  160.6991 C   0  0  0  0  0  0  0  0  0  0  0  0
  151.9784  143.2254  159.3904 C   0  0  2  0  0  0  0  0  0  0  0  0
  151.7782  144.5627  158.6525 C   0  0  0  0  0  0  0  0  0  0  0  0
  150.6951  142.7407  159.7385 O   0  0  0  0  0  0  0  0  0  0  0  0
  152.6337  142.2048  158.4236 C   0  0  0  0  0  0  0  0  0  0  0  0
  151.7715  141.7643  157.3373 N   0  0  0  0  0  0  0  0  0  0  0  0
  150.7520  142.4813  156.7508 C   0  0  0  0  0  0  0  0  0  0  0  0
  150.1191  141.8671  155.7884 N   0  0  0  0  0  0  0  0  0  0  0  0
  150.7429  140.6283  155.7147 C   0  0  0  0  0  0  0  0  0  0  0  0
  150.5584  139.4814  154.8998 C   0  0  0  0  0  0  0  0  0  0  0  0
  149.6018  139.4534  153.9450 N   0  0  0  0  0  0  0  0  0  0  0  0
  148.2052  139.7451  154.2565 C   0  0  0  0  0  0  0  0  0  0  0  0
  147.2896  138.5754  153.8588 C   0  0  0  0  0  0  0  0  0  0  0  0
  147.7741  141.0415  153.5585 C   0  0  0  0  0  0  0  0  0  0  0  0
  151.3714  138.4142  155.1179 N   0  0  0  0  0  0  0  0  0  0  0  0
  152.3074  138.4681  156.0707 C   0  0  0  0  0  0  0  0  0  0  0  0
  152.5942  139.4712  156.9040 N   0  0  0  0  0  0  0  0  0  0  0  0
  151.7798  140.5434  156.6856 C   0  0  0  0  0  0  0  0  0  0  0  0
  153.8346  142.2961  162.2618 H   0  0  0  0  0  0  0  0  0  0  0  0
  153.7872  141.4428  160.7254 H   0  0  0  0  0  0  0  0  0  0  0  0
  152.3485  141.5202  161.7459 H   0  0  0  0  0  0  0  0  0  0  0  0
  152.2186  143.9897  161.4068 H   0  0  0  0  0  0  0  0  0  0  0  0
  153.7014  143.9613  160.4964 H   0  0  0  0  0  0  0  0  0  0  0  0
  152.7357  145.0264  158.4133 H   0  0  0  0  0  0  0  0  0  0  0  0
  151.2027  145.2751  159.2439 H   0  0  0  0  0  0  0  0  0  0  0  0
  151.2396  144.4204  157.7149 H   0  0  0  0  0  0  0  0  0  0  0  0
  150.1393  143.4773  159.9425 H   0  0  0  0  0  0  0  0  0  0  0  0
  153.5416  142.6231  157.9865 H   0  0  0  0  0  0  0  0  0  0  0  0
  152.9488  141.3207  158.9796 H   0  0  0  0  0  0  0  0  0  0  0  0
  150.4966  143.4854  157.0568 H   0  0  0  0  0  0  0  0  0  0  0  0
  149.7863  139.1596  152.9966 H   0  0  0  0  0  0  0  0  0  0  0  0
  148.1100  139.9118  155.3302 H   0  0  0  0  0  0  0  0  0  0  0  0
  146.2499  138.7927  154.1047 H   0  0  0  0  0  0  0  0  0  0  0  0
  147.5608  137.6573  154.3801 H   0  0  0  0  0  0  0  0  0  0  0  0
  147.3436  138.3770  152.7878 H   0  0  0  0  0  0  0  0  0  0  0  0
  146.7418  141.2940  153.8028 H   0  0  0  0  0  0  0  0  0  0  0  0
  147.8477  140.9534  152.4738 H   0  0  0  0  0  0  0  0  0  0  0  0
  148.3989  141.8799  153.8681 H   0  0  0  0  0  0  0  0  0  0  0  0
  152.9128  137.5808  156.1813 H   0  0  0  0  0  0  0  0  0  0  0  0
  1  2  1  0  0  0  0
  1 20  1  0  0  0  0
  1 21  1  0  0  0  0
  1 22  1  0  0  0  0
  2  3  1  0  0  0  0
  2 23  1  0  0  0  0
  2 24  1  0  0  0  0
  3  4  1  0  0  0  0
  3  5  1  0  0  0  0
  3  6  1  0  0  0  0
  4 25  1  0  0  0  0
  4 26  1  0  0  0  0
  4 27  1  0  0  0  0
  5 28  1  0  0  0  0
  6  7  1  0  0  0  0
  6 29  1  0  0  0  0
  6 30  1  0  0  0  0
  7 19  1  0  0  0  0
  7  8  1  0  0  0  0
  8  9  2  0  0  0  0
  8 31  1  0  0  0  0
  9 10  1  0  0  0  0
 10 19  2  0  0  0  0
 10 11  1  0  0  0  0
 11 12  1  0  0  0  0
 11 16  2  0  0  0  0
 12 13  1  0  0  0  0
 12 32  1  0  0  0  0
 13 14  1  0  0  0  0
 13 15  1  0  0  0  0
 13 33  1  0  0  0  0
 14 34  1  0  0  0  0
 14 35  1  0  0  0  0
 14 36  1  0  0  0  0
 15 37  1  0  0  0  0
 15 38  1  0  0  0  0
 15 39  1  0  0  0  0
 16 17  1  0  0  0  0
 17 18  2  0  0  0  0
 17 40  1  0  0  0  0
 18 19  1  0  0  0  0
M  END
> <s_m_source_file>
AV-unprocessed.smi

> <i_m_source_file_index>
2744

> <i_lp_mmshare_version>
43012

> <i_f3d_flags>
0

> <s_epik_input>
W0NIM11bQ0gyXVtDQEBdKFtDSDNdKShbT0hdKVtDSDJdbihbY0hdbjEpYyhjMTIpbltjSF1uYzJbTkhdW0NIXShbQ0gzXSlbQ0gzXQ==

> <s_epik_cmdline>
J2VwaWtfcHl0aG9uJywgJy1waCcsICc3LjAnLCAnLXRuJywgJzgnLCAnLW1hJywgJzIwMCcsICctbWV0YWxfYmluZGluZycsICctaW1hZScsICc8aW5maWxlLm1hZT4nLCAnLW9tYWUnLCAnPG91dGZpbGUubWFlPic=

> <r_lp_tautomer_probability>
1

> <r_epik_Ionization_Penalty>
0.00217876

> <r_epik_Ionization_Penalty_Charging>
0

> <r_epik_Ionization_Penalty_Neutral>
0.00217876

> <r_epik_State_Penalty>
-0

> <r_epik_Charging_Adjusted_Penalty>
0

> <i_epik_Tot_Q>
0

> <i_epik_Tot_abs_Q>
0

> <r_epik_Metal_State_Penalty>
-0

> <b_epik_Metal_Only>
0

> <s_lp_Force_Field>
OPLS_2005

> <r_lp_Energy>
9.28896

> <b_lp_Chiralities_Consistent>
1

> <s_lp_Variant>
AV-unprocessed.smi:2744-2

> <Gold.Version>
5.8.1

> <Gold.Id.Protein>
6NUR|6NUR_protein|mol2

> <Gold.PLP.Fitness>
42.3107

> <Gold.PLP.PLP>
-36.6171

> <Gold.PLP.part.hbond>
-3.0000

> <Gold.PLP.part.metal>
0.0000

> <Gold.PLP.part.buried>
-3.9060

> <Gold.PLP.part.nonpolar>
-29.0275

> <Gold.PLP.part.repulsive>
1.0922

> <Gold.PLP.ligand.clash>
0.0179

> <Gold.PLP.ligand.torsion>
1.0806

> <Gold.PLP.Chemscore.Hbond>
1.9120

> <Gold.PLP.Chemscore.CHOScore>
0.6804

> <Gold.PLP.Chemscore.Metal>
0.0000

> <Gold.Chemscore.Hbonds>
donor molecule, donor type, donor heavy atom, donor atom, acceptor molecule, acceptor atom, score
      L1  H    12    32       P1  7957  0.70
      P1  H  7997  8008       L1    18  1.00
      L1  C     8    31       P1  8028  0.76

> <Gold.PLP.Chemscore.Internal.Correction>
0.0955

> <Gold.Rescore>
     Score         DG    S(hbond)    S(metal)    S(lipo)     H(rot)  DE(clash)    DE(int)     intcor
     11.74     -14.58       1.78        0.00      79.16       2.38       0.64       2.20       ----

> <Gold.Chemscore.Fitness>
11.7428

> <Gold.Chemscore.DG>
-14.5811

> <Gold.Chemscore.ZeroCoef>
-5.4800

> <Gold.Chemscore.Hbond>
1.7762

> <Gold.Chemscore.Metal>
0.0000

> <Gold.Chemscore.Lipo>
79.1608

> <Gold.Chemscore.Internal_Hbond>
0.0000

> <Gold.Chemscore.DEClash>
0.6420

> <Gold.Chemscore.DEInternal>
2.1964

> <Gold.Chemscore.Rot>
2.3802

> <Gold.Chemscore.Internal.Correction>
   9.000000E+99

> <Gold.Chemscore.Hbonds>
donor molecule, donor type, donor heavy atom, donor atom, acceptor molecule, acceptor atom, score
      L1  H    12    32       P1  7957  0.65
      P1  H  7997  8008       L1    18  0.29

> <Gold.Chemscore.Hbond.Weighted>
-5.9326

> <Gold.Chemscore.Metal.Weighted>
-0.0000

> <Gold.Chemscore.Lipo.Weighted>
-9.2618

> <Gold.Chemscore.Internal_Hbond.Weighted>
0.0000

> <Gold.Chemscore.DEClash.Weighted>
0.6420

> <Gold.Chemscore.DEInternal.Weighted>
2.1964

> <Gold.Chemscore.Rot.Weighted>
6.0933

> <Gold.Chemscore.Internal.Correction.Weighted>
   9.000000E+99

> <Gold.Protein.RotatedTorsions>
[ 6907 6896 6895 6894 ] final  -87.77 input  -60.11 | X-H torsion
[ 7974 7965 7964 7962 ] final  -48.20 input  175.53 | X-H torsion
[ 8008 7997 7996 7995 ] final  -50.20 input   59.86 | X-H torsion
[ 10167 10162 10161 10158 ] final  -47.72 input  -65.29 | X-H torsion
[ 10718 10713 10712 10709 ] final  101.32 input   66.30 | X-H torsion
[ 10763 10752 10751 10750 ] final -171.47 input  -60.55 | X-H torsion
[ 11005 11000 10999 10996 ] final   41.52 input  -57.11 | X-H torsion

> <Gold.Protein.ActiveResidues>
 VAL166  LYS551  ARG553  GLY616  TRP617  ASP618  TYR619  PRO620  LYS621  CYS622 
 ASP623  PHE694  ASN695  SER759  ASP760  ASP761  ALA762  ILE779  LEU786  VAL792 
 PHE793  MET794  SER795  GLU796  ALA797  LYS798  CYS799  TRP800  GLU811  SER814 

> <Gold.Protein.RotatedAtoms>
  150.6867  134.2845  159.4640 H   0  0  0  0  0  0  0  0  0  0  0  0  # atno 6907 bound_to 6896
  152.0756  134.9502  160.0583 H   0  0  0  0  0  0  0  0  0  0  0  0  # atno 6908 bound_to 6896
  152.0875  133.4149  159.4565 H   0  0  0  0  0  0  0  0  0  0  0  0  # atno 6909 bound_to 6896
  145.9537  140.7548  142.9492 H   0  0  0  0  0  0  0  0  0  0  0  0  # atno 7974 bound_to 7965
  154.4057  140.1278  156.4627 H   0  0  0  0  0  0  0  0  0  0  0  0  # atno 8008 bound_to 7997
  155.7257  140.3492  155.5016 H   0  0  0  0  0  0  0  0  0  0  0  0  # atno 8009 bound_to 7997
  155.9174  140.1046  157.1223 H   0  0  0  0  0  0  0  0  0  0  0  0  # atno 8010 bound_to 7997
  140.6763  143.2772  151.3967 H   0  0  0  0  0  0  0  0  0  0  0  0  # atno 10167 bound_to 10162
  157.6832  131.0723  150.5234 H   0  0  0  0  0  0  0  0  0  0  0  0  # atno 10718 bound_to 10713
  154.6301  135.2885  155.0226 H   0  0  0  0  0  0  0  0  0  0  0  0  # atno 10763 bound_to 10752
  154.1389  135.6521  153.4942 H   0  0  0  0  0  0  0  0  0  0  0  0  # atno 10764 bound_to 10752
  153.0276  135.5328  154.7126 H   0  0  0  0  0  0  0  0  0  0  0  0  # atno 10765 bound_to 10752
  140.1826  134.4085  155.8191 H   0  0  0  0  0  0  0  0  0  0  0  0  # atno 11005 bound_to 11000
  144.6801  140.2476  143.7336 LP  0  0  0  0  0  0  0  0  0  0  0  0  # atno 17320 bound_to 7965
  145.8136  139.2014  143.1978 LP  0  0  0  0  0  0  0  0  0  0  0  0  # atno 17321 bound_to 7965
  139.6057  144.1202  152.2246 LP  0  0  0  0  0  0  0  0  0  0  0  0  # atno 17342 bound_to 10162
  140.0600  144.5864  150.7270 LP  0  0  0  0  0  0  0  0  0  0  0  0  # atno 17343 bound_to 10162
  156.5547  130.4240  149.6091 LP  0  0  0  0  0  0  0  0  0  0  0  0  # atno 17370 bound_to 10713
  156.2873  130.7104  151.1944 LP  0  0  0  0  0  0  0  0  0  0  0  0  # atno 17371 bound_to 10713
  141.2223  133.7008  156.7957 LP  0  0  0  0  0  0  0  0  0  0  0  0  # atno 17394 bound_to 11000
  140.2250  134.8729  157.3417 LP  0  0  0  0  0  0  0  0  0  0  0  0  # atno 17395 bound_to 11000

$$$$
