AV-unprocessed.smi:2735|AV-procd|sdf|10541|dock3
  -GOLD-   2272014593D 1   1.00000     0.00000
 Structure written by MMmdl.
 42 42  0  0  0  0  0  0  0  0  2 V2000
  153.9862  140.4322  161.0520 C   0  0  0  0  0  0  0  0  0  0  0  0
  153.2657  141.4240  160.1875 C   0  0  0  0  0  0  0  0  0  0  0  0
  153.3896  142.8400  160.1797 C   0  0  0  0  0  0  0  0  0  0  0  0
  152.5244  143.2492  159.2046 C   0  0  0  0  0  0  0  0  0  0  0  0
  152.2238  144.6284  158.7158 C   0  0  0  0  0  0  0  0  0  0  0  0
  151.9184  142.1125  158.6926 N   0  0  0  0  0  0  0  0  0  0  0  0
  150.9514  142.0046  157.5992 C   0  0  2  0  0  0  0  0  0  0  0  0
  149.6209  142.7254  157.9003 C   0  0  0  0  0  0  0  0  0  0  0  0
  150.7269  140.5288  157.2387 C   0  0  0  0  0  0  0  0  0  0  0  0
  150.2933  139.7399  158.0791 O   0  0  0  0  0  0  0  0  0  0  0  0
  151.0343  140.1723  155.9816 N   0  0  0  0  0  0  0  0  0  0  0  0
  150.9712  138.8161  155.4392 C   0  0  1  0  0  0  0  0  0  0  0  0
  149.9330  138.7761  154.2922 C   0  0  0  0  0  0  0  0  0  0  0  0
  148.4552  138.8480  154.7406 C   0  0  0  0  0  0  0  0  0  0  0  0
  148.0444  137.6503  155.6137 C   0  0  0  0  0  0  0  0  0  0  0  0
  147.5275  138.9642  153.5218 C   0  0  0  0  0  0  0  0  0  0  0  0
  152.3433  138.4371  154.8583 C   0  0  0  0  0  0  0  0  0  0  0  0
  153.2345  139.3132  154.8939 O   0  0  0  0  0  0  0  0  0  0  0  0
  152.4844  137.2816  154.3969 O   0  5  0  0  0  0  0  0  0  0  0  0
  152.3927  140.9947  159.2928 N   0  0  0  0  0  0  0  0  0  0  0  0
  150.7047  138.0980  156.2162 H   0  0  0  0  0  0  0  0  0  0  0  0
  154.6874  140.9303  161.7218 H   0  0  0  0  0  0  0  0  0  0  0  0
  154.5518  139.7224  160.4480 H   0  0  0  0  0  0  0  0  0  0  0  0
  153.2860  139.8657  161.6659 H   0  0  0  0  0  0  0  0  0  0  0  0
  154.0260  143.4626  160.7910 H   0  0  0  0  0  0  0  0  0  0  0  0
  152.7902  145.3713  159.2773 H   0  0  0  0  0  0  0  0  0  0  0  0
  151.1650  144.8604  158.8288 H   0  0  0  0  0  0  0  0  0  0  0  0
  152.4879  144.7350  157.6640 H   0  0  0  0  0  0  0  0  0  0  0  0
  151.3862  142.5041  156.7324 H   0  0  0  0  0  0  0  0  0  0  0  0
  148.9551  142.6908  157.0374 H   0  0  0  0  0  0  0  0  0  0  0  0
  149.7926  143.7758  158.1364 H   0  0  0  0  0  0  0  0  0  0  0  0
  149.0892  142.2785  158.7414 H   0  0  0  0  0  0  0  0  0  0  0  0
  151.3940  140.8845  155.3636 H   0  0  0  0  0  0  0  0  0  0  0  0
  150.1268  139.6008  153.6037 H   0  0  0  0  0  0  0  0  0  0  0  0
  150.0755  137.8649  153.7084 H   0  0  0  0  0  0  0  0  0  0  0  0
  148.3146  139.7534  155.3317 H   0  0  0  0  0  0  0  0  0  0  0  0
  148.2128  136.7053  155.0963 H   0  0  0  0  0  0  0  0  0  0  0  0
  146.9874  137.7015  155.8761 H   0  0  0  0  0  0  0  0  0  0  0  0
  148.6032  137.6246  156.5488 H   0  0  0  0  0  0  0  0  0  0  0  0
  147.6072  138.0873  152.8784 H   0  0  0  0  0  0  0  0  0  0  0  0
  147.7732  139.8407  152.9218 H   0  0  0  0  0  0  0  0  0  0  0  0
  146.4853  139.0595  153.8274 H   0  0  0  0  0  0  0  0  0  0  0  0
  1  2  1  0  0  0  0
  1 22  1  0  0  0  0
  1 23  1  0  0  0  0
  1 24  1  0  0  0  0
  2 20  2  0  0  0  0
  2  3  1  0  0  0  0
  3  4  2  0  0  0  0
  3 25  1  0  0  0  0
  4  5  1  0  0  0  0
  4  6  1  0  0  0  0
  5 26  1  0  0  0  0
  5 27  1  0  0  0  0
  5 28  1  0  0  0  0
  6  7  1  0  0  0  0
  6 20  1  0  0  0  0
  7  8  1  0  0  0  0
  7  9  1  0  0  0  0
  7 29  1  0  0  0  0
  8 30  1  0  0  0  0
  8 31  1  0  0  0  0
  8 32  1  0  0  0  0
  9 10  2  0  0  0  0
  9 11  1  0  0  0  0
 11 12  1  0  0  0  0
 11 33  1  0  0  0  0
 12 21  1  0  0  0  0
 12 13  1  0  0  0  0
 12 17  1  0  0  0  0
 13 14  1  0  0  0  0
 13 34  1  0  0  0  0
 13 35  1  0  0  0  0
 14 15  1  0  0  0  0
 14 16  1  0  0  0  0
 14 36  1  0  0  0  0
 15 37  1  0  0  0  0
 15 38  1  0  0  0  0
 15 39  1  0  0  0  0
 16 40  1  0  0  0  0
 16 41  1  0  0  0  0
 16 42  1  0  0  0  0
 17 18  2  0  0  0  0
 17 19  1  0  0  0  0
M  CHG  1  19  -1
M  END
> <s_m_source_file>
AV-unprocessed.smi

> <i_m_source_file_index>
2735

> <i_lp_mmshare_version>
43012

> <i_f3d_flags>
0

> <s_epik_input>
W0NIM11jMVtjSF1jKFtDSDNdKW4objEpW0NASF0oW0NIM10pQyg9TylbTkhdW0NASF0oQyg9TylbT0hdKVtDSDJdW0NIXShbQ0gzXSlbQ0gzXQ==

> <s_epik_cmdline>
J2VwaWtfcHl0aG9uJywgJy1waCcsICc3LjAnLCAnLXRuJywgJzgnLCAnLW1hJywgJzIwMCcsICctbWV0YWxfYmluZGluZycsICctaW1hZScsICc8aW5maWxlLm1hZT4nLCAnLW9tYWUnLCAnPG91dGZpbGUubWFlPic=

> <r_lp_tautomer_probability>
1

> <r_epik_Ionization_Penalty>
0.0012303

> <r_epik_Ionization_Penalty_Charging>
0.000186407

> <r_epik_Ionization_Penalty_Neutral>
0.0010439

> <r_epik_State_Penalty>
-0

> <r_epik_Charging_Adjusted_Penalty>
0.000186407

> <i_epik_Tot_Q>
-1

> <i_epik_Tot_abs_Q>
1

> <r_epik_Metal_State_Penalty>
-0

> <b_epik_Metal_Only>
0

> <s_lp_Force_Field>
OPLS_2005

> <r_lp_Energy>
6.85708

> <b_lp_Chiralities_Consistent>
1

> <s_lp_Variant>
AV-unprocessed.smi:2735-1

> <Gold.Version>
5.8.1

> <Gold.Id.Protein>
6NUR|6NUR_protein|mol2

> <Gold.PLP.Fitness>
51.3616

> <Gold.PLP.PLP>
-41.9763

> <Gold.PLP.part.hbond>
-3.0000

> <Gold.PLP.part.metal>
0.0000

> <Gold.PLP.part.buried>
-4.7180

> <Gold.PLP.part.nonpolar>
-33.9811

> <Gold.PLP.part.repulsive>
0.2661

> <Gold.PLP.ligand.clash>
0.0000

> <Gold.PLP.ligand.torsion>
0.2159

> <Gold.PLP.Chemscore.Hbond>
3.2314

> <Gold.PLP.Chemscore.CHOScore>
0.0000

> <Gold.PLP.Chemscore.Metal>
0.0000

> <Gold.Chemscore.Hbonds>
donor molecule, donor type, donor heavy atom, donor atom, acceptor molecule, acceptor atom, score
      P1  H  7997  8008       L1    18  2.00
      P1  H 10752 10764       L1    19  1.31

> <Gold.PLP.Chemscore.Internal.Correction>
0.1227

> <Gold.Rescore>
     Score         DG    S(hbond)    S(metal)    S(lipo)     H(rot)  DE(clash)    DE(int)     intcor
     15.30     -17.10       1.85        0.00      95.39       2.24       0.18       1.62       ----

> <Gold.Chemscore.Fitness>
15.2956

> <Gold.Chemscore.DG>
-17.0975

> <Gold.Chemscore.ZeroCoef>
-5.4800

> <Gold.Chemscore.Hbond>
1.8529

> <Gold.Chemscore.Metal>
0.0000

> <Gold.Chemscore.Lipo>
95.3871

> <Gold.Chemscore.Internal_Hbond>
0.0000

> <Gold.Chemscore.DEClash>
0.1794

> <Gold.Chemscore.DEInternal>
1.6225

> <Gold.Chemscore.Rot>
2.2388

> <Gold.Chemscore.Internal.Correction>
   9.000000E+99

> <Gold.Chemscore.Hbonds>
donor molecule, donor type, donor heavy atom, donor atom, acceptor molecule, acceptor atom, score
      P1  H  7997  8008       L1    18  0.99
      P1  H 10752 10764       L1    19  0.66

> <Gold.Chemscore.Hbond.Weighted>
-6.1886

> <Gold.Chemscore.Metal.Weighted>
-0.0000

> <Gold.Chemscore.Lipo.Weighted>
-11.1603

> <Gold.Chemscore.Internal_Hbond.Weighted>
0.0000

> <Gold.Chemscore.DEClash.Weighted>
0.1794

> <Gold.Chemscore.DEInternal.Weighted>
1.6225

> <Gold.Chemscore.Rot.Weighted>
5.7314

> <Gold.Chemscore.Internal.Correction.Weighted>
   9.000000E+99

> <Gold.Protein.RotatedTorsions>
[ 6907 6896 6895 6894 ] final   22.87 input  -60.11 | X-H torsion
[ 7974 7965 7964 7962 ] final -166.01 input  175.53 | X-H torsion
[ 8008 7997 7996 7995 ] final  -26.73 input   59.86 | X-H torsion
[ 10167 10162 10161 10158 ] final   53.59 input  -65.29 | X-H torsion
[ 10718 10713 10712 10709 ] final  -65.83 input   66.30 | X-H torsion
[ 10763 10752 10751 10750 ] final  -85.95 input  -60.55 | X-H torsion
[ 11005 11000 10999 10996 ] final   71.56 input  -57.11 | X-H torsion

> <Gold.Protein.ActiveResidues>
 VAL166  LYS551  ARG553  GLY616  TRP617  ASP618  TYR619  PRO620  LYS621  CYS622 
 ASP623  PHE694  ASN695  SER759  ASP760  ASP761  ALA762  ILE779  LEU786  VAL792 
 PHE793  MET794  SER795  GLU796  ALA797  LYS798  CYS799  TRP800  GLU811  SER814 

> <Gold.Protein.RotatedAtoms>
  151.9337  135.0245  160.0530 H   0  0  0  0  0  0  0  0  0  0  0  0  # atno 6907 bound_to 6896
  152.2096  133.4897  159.5111 H   0  0  0  0  0  0  0  0  0  0  0  0  # atno 6908 bound_to 6896
  150.6973  134.1401  159.4144 H   0  0  0  0  0  0  0  0  0  0  0  0  # atno 6909 bound_to 6896
  144.7255  140.2729  143.6248 H   0  0  0  0  0  0  0  0  0  0  0  0  # atno 7974 bound_to 7965
  154.4411  140.1891  156.0821 H   0  0  0  0  0  0  0  0  0  0  0  0  # atno 8008 bound_to 7997
  156.0430  140.3317  155.7239 H   0  0  0  0  0  0  0  0  0  0  0  0  # atno 8009 bound_to 7997
  155.5671  140.0609  157.2806 H   0  0  0  0  0  0  0  0  0  0  0  0  # atno 8010 bound_to 7997
  140.2391  144.3603  150.6386 H   0  0  0  0  0  0  0  0  0  0  0  0  # atno 10167 bound_to 10162
  156.0647  130.4253  150.1620 H   0  0  0  0  0  0  0  0  0  0  0  0  # atno 10718 bound_to 10713
  154.6169  135.5467  153.7533 H   0  0  0  0  0  0  0  0  0  0  0  0  # atno 10763 bound_to 10752
  153.0220  135.6403  154.1497 H   0  0  0  0  0  0  0  0  0  0  0  0  # atno 10764 bound_to 10752
  154.1433  135.2907  155.3135 H   0  0  0  0  0  0  0  0  0  0  0  0  # atno 10765 bound_to 10752
  139.9537  134.7182  156.0803 H   0  0  0  0  0  0  0  0  0  0  0  0  # atno 11005 bound_to 11000
  145.8025  139.1970  143.2040 LP  0  0  0  0  0  0  0  0  0  0  0  0  # atno 17320 bound_to 7965
  146.0664  140.7915  142.9709 LP  0  0  0  0  0  0  0  0  0  0  0  0  # atno 17321 bound_to 7965
  140.6127  143.2170  151.6854 LP  0  0  0  0  0  0  0  0  0  0  0  0  # atno 17342 bound_to 10162
  139.5083  144.3615  152.0558 LP  0  0  0  0  0  0  0  0  0  0  0  0  # atno 17343 bound_to 10162
  156.9682  130.9826  151.3464 LP  0  0  0  0  0  0  0  0  0  0  0  0  # atno 17370 bound_to 10713
  157.5680  130.8291  149.8354 LP  0  0  0  0  0  0  0  0  0  0  0  0  # atno 17371 bound_to 10713
  141.1205  133.6614  156.3202 LP  0  0  0  0  0  0  0  0  0  0  0  0  # atno 17394 bound_to 11000
  140.5659  134.5888  157.5445 LP  0  0  0  0  0  0  0  0  0  0  0  0  # atno 17395 bound_to 11000

$$$$
