AV-unprocessed.smi:910|AV-procd|sdf|4121|dock8
  -GOLD-   22720 2 23D 1   1.00000     0.00000
 Structure written by MMmdl.
 46 47  0  0  0  0  0  0  0  0  1 V2000
  145.7612  132.3084  149.8733 C   0  0  0  0  0  0  0  0  0  0  0  0
  146.3381  132.8597  151.1585 C   0  0  0  0  0  0  0  0  0  0  0  0
  147.5802  132.5033  151.6088 N   0  0  0  0  0  0  0  0  0  0  0  0
  147.8139  133.1670  152.8029 C   0  0  0  0  0  0  0  0  0  0  0  0
  148.8702  133.1083  153.5531 N   0  0  0  0  0  0  0  0  0  0  0  0
  148.8813  133.8609  154.7152 C   0  0  0  0  0  0  0  0  0  0  0  0
  148.9170  133.4454  155.8780 O   0  0  0  0  0  0  0  0  0  0  0  0
  148.7679  135.1678  154.4315 N   0  0  0  0  0  0  0  0  0  0  0  0
  148.5852  136.2313  155.4150 C   0  0  0  0  0  0  0  0  0  0  0  0
  148.5655  137.6056  154.7314 C   0  0  0  0  0  0  0  0  0  0  0  0
  149.6079  138.3982  155.2799 O   0  0  0  0  0  0  0  0  0  0  0  0
  150.1749  139.3667  154.4064 C   0  0  1  0  0  0  0  0  0  0  0  0
  149.3457  140.6711  154.4085 C   0  0  0  0  0  0  0  0  0  0  0  0
  149.3381  141.3360  155.7947 C   0  0  0  0  0  0  0  0  0  0  0  0
  150.7681  141.6040  156.2846 C   0  0  0  0  0  0  0  0  0  0  0  0
  151.6110  140.3185  156.2803 C   0  0  0  0  0  0  0  0  0  0  0  0
  151.6154  139.6477  154.8906 C   0  0  1  0  0  0  0  0  0  0  0  0
  152.4889  138.3836  154.8706 C   0  0  0  0  0  0  0  0  0  0  0  0
  146.6947  133.9295  153.0496 O   0  0  0  0  0  0  0  0  0  0  0  0
  145.8149  133.7148  152.0333 C   0  0  0  0  0  0  0  0  0  0  0  0
  144.4813  134.4266  152.0610 C   0  0  0  0  0  0  0  0  0  0  0  0
  144.8379  131.7656  150.0770 H   0  0  0  0  0  0  0  0  0  0  0  0
  146.4622  131.6270  149.3900 H   0  0  0  0  0  0  0  0  0  0  0  0
  145.5383  133.1208  149.1813 H   0  0  0  0  0  0  0  0  0  0  0  0
  148.1871  131.8596  151.1220 H   0  0  0  0  0  0  0  0  0  0  0  0
  148.7378  135.4373  153.4590 H   0  0  0  0  0  0  0  0  0  0  0  0
  147.6757  136.0801  155.9985 H   0  0  0  0  0  0  0  0  0  0  0  0
  149.4150  136.1855  156.1206 H   0  0  0  0  0  0  0  0  0  0  0  0
  148.7160  137.4943  153.6570 H   0  0  0  0  0  0  0  0  0  0  0  0
  147.5899  138.0678  154.8782 H   0  0  0  0  0  0  0  0  0  0  0  0
  150.2162  138.9602  153.3945 H   0  0  0  0  0  0  0  0  0  0  0  0
  149.7731  141.3650  153.6835 H   0  0  0  0  0  0  0  0  0  0  0  0
  148.3242  140.4939  154.0755 H   0  0  0  0  0  0  0  0  0  0  0  0
  148.7781  142.2706  155.7566 H   0  0  0  0  0  0  0  0  0  0  0  0
  148.8192  140.6947  156.5080 H   0  0  0  0  0  0  0  0  0  0  0  0
  151.2388  142.3502  155.6436 H   0  0  0  0  0  0  0  0  0  0  0  0
  150.7420  142.0317  157.2865 H   0  0  0  0  0  0  0  0  0  0  0  0
  152.6313  140.5524  156.5856 H   0  0  0  0  0  0  0  0  0  0  0  0
  151.2206  139.6245  157.0261 H   0  0  0  0  0  0  0  0  0  0  0  0
  152.0641  140.3524  154.1889 H   0  0  0  0  0  0  0  0  0  0  0  0
  152.1222  137.6333  155.5720 H   0  0  0  0  0  0  0  0  0  0  0  0
  153.5185  138.6156  155.1438 H   0  0  0  0  0  0  0  0  0  0  0  0
  152.5050  137.9327  153.8781 H   0  0  0  0  0  0  0  0  0  0  0  0
  144.3142  134.9542  151.1218 H   0  0  0  0  0  0  0  0  0  0  0  0
  144.4505  135.1513  152.8751 H   0  0  0  0  0  0  0  0  0  0  0  0
  143.6734  133.7094  152.2058 H   0  0  0  0  0  0  0  0  0  0  0  0
  1 22  1  0  0  0  0
  1 23  1  0  0  0  0
  1 24  1  0  0  0  0
  1  2  1  0  0  0  0
  2  3  1  0  0  0  0
  2 20  2  0  0  0  0
  3 25  1  0  0  0  0
  3  4  1  0  0  0  0
  4 19  1  0  0  0  0
  4  5  2  0  0  0  0
  5  6  1  0  0  0  0
  6  8  1  0  0  0  0
  6  7  2  0  0  0  0
  8  9  1  0  0  0  0
  8 26  1  0  0  0  0
  9 10  1  0  0  0  0
  9 27  1  0  0  0  0
  9 28  1  0  0  0  0
 10 11  1  0  0  0  0
 10 29  1  0  0  0  0
 10 30  1  0  0  0  0
 11 12  1  0  0  0  0
 12 17  1  0  0  0  0
 12 13  1  0  0  0  0
 12 31  1  0  0  0  0
 13 14  1  0  0  0  0
 13 32  1  0  0  0  0
 13 33  1  0  0  0  0
 14 15  1  0  0  0  0
 14 34  1  0  0  0  0
 14 35  1  0  0  0  0
 15 16  1  0  0  0  0
 15 36  1  0  0  0  0
 15 37  1  0  0  0  0
 16 17  1  0  0  0  0
 16 38  1  0  0  0  0
 16 39  1  0  0  0  0
 17 18  1  0  0  0  0
 17 40  1  0  0  0  0
 18 41  1  0  0  0  0
 18 42  1  0  0  0  0
 18 43  1  0  0  0  0
 19 20  1  0  0  0  0
 20 21  1  0  0  0  0
 21 44  1  0  0  0  0
 21 45  1  0  0  0  0
 21 46  1  0  0  0  0
M  END
> <s_m_source_file>
AV-unprocessed.smi

> <i_m_source_file_index>
910

> <i_lp_mmshare_version>
43012

> <i_f3d_flags>
0

> <s_epik_input>
W0NIM11jMW5jKG9jMVtDSDNdKVtOSF1DKD1PKVtOSF1bQ0gyXVtDSDJdT1tDQEBIXTJbQ0gyXVtDSDJdW0NIMl1bQ0gyXVtDQEhdMltDSDNd

> <s_epik_cmdline>
J2VwaWtfcHl0aG9uJywgJy1waCcsICc3LjAnLCAnLXRuJywgJzgnLCAnLW1hJywgJzIwMCcsICctbWV0YWxfYmluZGluZycsICctaW1hZScsICc8aW5maWxlLm1hZT4nLCAnLW9tYWUnLCAnPG91dGZpbGUubWFlPic=

> <r_lp_tautomer_probability>
0.107061

> <r_epik_Ionization_Penalty>
0.727192

> <r_epik_Ionization_Penalty_Charging>
0.726719

> <r_epik_Ionization_Penalty_Neutral>
0.000473387

> <r_epik_State_Penalty>
2.53712

> <r_epik_Charging_Adjusted_Penalty>
3.26383

> <i_epik_Tot_Q>
0

> <i_epik_Tot_abs_Q>
0

> <r_epik_Metal_State_Penalty>
3.71015

> <b_epik_Metal_Only>
0

> <s_lp_Force_Field>
OPLS_2005

> <r_lp_Energy>
28.3743

> <b_lp_Chiralities_Consistent>
1

> <s_lp_Variant>
AV-unprocessed.smi:910-6

> <Gold.Version>
5.8.1

> <Gold.Id.Protein>
6NUR|6NUR_protein|mol2

> <Gold.PLP.Fitness>
39.3458

> <Gold.PLP.PLP>
-36.1850

> <Gold.PLP.part.hbond>
-2.0000

> <Gold.PLP.part.metal>
0.0000

> <Gold.PLP.part.buried>
-2.4988

> <Gold.PLP.part.nonpolar>
-32.8492

> <Gold.PLP.part.repulsive>
0.4110

> <Gold.PLP.ligand.clash>
0.0000

> <Gold.PLP.ligand.torsion>
1.4361

> <Gold.PLP.Chemscore.Hbond>
2.0000

> <Gold.PLP.Chemscore.CHOScore>
0.0000

> <Gold.PLP.Chemscore.Metal>
0.0000

> <Gold.Chemscore.Hbonds>
donor molecule, donor type, donor heavy atom, donor atom, acceptor molecule, acceptor atom, score
      L1  H     3    25       P1 10747  0.99
      L1  H     8    26       P1  7948  1.00

> <Gold.PLP.Chemscore.Internal.Correction>
0.0330

> <Gold.Rescore>
     Score         DG    S(hbond)    S(metal)    S(lipo)     H(rot)  DE(clash)    DE(int)     intcor
     14.72     -17.53       1.96        0.00      83.41       1.66       0.44       2.38       ----

> <Gold.Chemscore.Fitness>
14.7162

> <Gold.Chemscore.DG>
-17.5311

> <Gold.Chemscore.ZeroCoef>
-5.4800

> <Gold.Chemscore.Hbond>
1.9568

> <Gold.Chemscore.Metal>
0.0000

> <Gold.Chemscore.Lipo>
83.4093

> <Gold.Chemscore.Internal_Hbond>
0.0000

> <Gold.Chemscore.DEClash>
0.4377

> <Gold.Chemscore.DEInternal>
2.3772

> <Gold.Chemscore.Rot>
1.6576

> <Gold.Chemscore.Internal.Correction>
   9.000000E+99

> <Gold.Chemscore.Hbonds>
donor molecule, donor type, donor heavy atom, donor atom, acceptor molecule, acceptor atom, score
      L1  H     3    25       P1 10747  0.92
      L1  H     8    26       P1  7948  0.91

> <Gold.Chemscore.Hbond.Weighted>
-6.5358

> <Gold.Chemscore.Metal.Weighted>
-0.0000

> <Gold.Chemscore.Lipo.Weighted>
-9.7589

> <Gold.Chemscore.Internal_Hbond.Weighted>
0.0000

> <Gold.Chemscore.DEClash.Weighted>
0.4377

> <Gold.Chemscore.DEInternal.Weighted>
2.3772

> <Gold.Chemscore.Rot.Weighted>
4.2436

> <Gold.Chemscore.Internal.Correction.Weighted>
   9.000000E+99

> <Gold.Protein.RotatedTorsions>
[ 6907 6896 6895 6894 ] final  114.26 input  -60.11 | X-H torsion
[ 7974 7965 7964 7962 ] final   89.57 input  175.53 | X-H torsion
[ 8008 7997 7996 7995 ] final  -85.15 input   59.86 | X-H torsion
[ 10167 10162 10161 10158 ] final -135.77 input  -65.29 | X-H torsion
[ 10718 10713 10712 10709 ] final  102.68 input   66.30 | X-H torsion
[ 10763 10752 10751 10750 ] final  127.22 input  -60.55 | X-H torsion
[ 11005 11000 10999 10996 ] final -136.27 input  -57.11 | X-H torsion

> <Gold.Protein.ActiveResidues>
 VAL166  LYS551  ARG553  GLY616  TRP617  ASP618  TYR619  PRO620  LYS621  CYS622 
 ASP623  PHE694  ASN695  SER759  ASP760  ASP761  ALA762  ILE779  LEU786  VAL792 
 PHE793  MET794  SER795  GLU796  ALA797  LYS798  CYS799  TRP800  GLU811  SER814 

> <Gold.Protein.RotatedAtoms>
  152.4813  133.8261  159.7078 H   0  0  0  0  0  0  0  0  0  0  0  0  # atno 6907 bound_to 6896
  150.8865  133.7292  159.2923 H   0  0  0  0  0  0  0  0  0  0  0  0  # atno 6908 bound_to 6896
  151.4779  135.1054  159.9821 H   0  0  0  0  0  0  0  0  0  0  0  0  # atno 6909 bound_to 6896
  145.5306  139.2283  143.2621 H   0  0  0  0  0  0  0  0  0  0  0  0  # atno 7974 bound_to 7965
  154.6375  140.0595  156.9806 H   0  0  0  0  0  0  0  0  0  0  0  0  # atno 8008 bound_to 7997
  155.1568  140.3279  155.4401 H   0  0  0  0  0  0  0  0  0  0  0  0  # atno 8009 bound_to 7997
  156.2514  140.1938  156.6677 H   0  0  0  0  0  0  0  0  0  0  0  0  # atno 8010 bound_to 7997
  139.8745  143.6915  152.2635 H   0  0  0  0  0  0  0  0  0  0  0  0  # atno 10167 bound_to 10162
  157.6795  131.0759  150.5441 H   0  0  0  0  0  0  0  0  0  0  0  0  # atno 10718 bound_to 10713
  153.7059  135.3276  155.3235 H   0  0  0  0  0  0  0  0  0  0  0  0  # atno 10763 bound_to 10752
  154.8399  135.4465  154.1363 H   0  0  0  0  0  0  0  0  0  0  0  0  # atno 10764 bound_to 10752
  153.2443  135.6974  153.7827 H   0  0  0  0  0  0  0  0  0  0  0  0  # atno 10765 bound_to 10752
  140.8821  134.1919  157.4584 H   0  0  0  0  0  0  0  0  0  0  0  0  # atno 11005 bound_to 11000
  146.2047  140.6122  142.9086 LP  0  0  0  0  0  0  0  0  0  0  0  0  # atno 17320 bound_to 7965
  144.7628  140.5461  143.6724 LP  0  0  0  0  0  0  0  0  0  0  0  0  # atno 17321 bound_to 7965
  139.7253  144.7594  151.0890 LP  0  0  0  0  0  0  0  0  0  0  0  0  # atno 17342 bound_to 10162
  140.7755  143.5156  150.9598 LP  0  0  0  0  0  0  0  0  0  0  0  0  # atno 17343 bound_to 10162
  156.5747  130.4289  149.6004 LP  0  0  0  0  0  0  0  0  0  0  0  0  # atno 17370 bound_to 10713
  156.2711  130.7017  151.1815 LP  0  0  0  0  0  0  0  0  0  0  0  0  # atno 17371 bound_to 10713
  139.8720  134.9822  156.5145 LP  0  0  0  0  0  0  0  0  0  0  0  0  # atno 17394 bound_to 11000
  140.8449  133.8176  155.9111 LP  0  0  0  0  0  0  0  0  0  0  0  0  # atno 17395 bound_to 11000

$$$$
