AV-unprocessed.smi:3014|AV-procd|sdf|11467|dock1
  -GOLD-   2272016403D 1   1.00000     0.00000
 Structure written by MMmdl.
 45 46  0  0  0  0  0  0  0  0  1 V2000
  150.8141  144.9671  158.5291 C   0  0  0  0  0  0  0  0  0  0  0  0
  151.7971  143.8417  158.8827 C   0  0  1  0  0  0  0  0  0  0  0  0
  152.3333  143.9949  160.3193 C   0  0  0  0  0  0  0  0  0  0  0  0
  153.3062  142.8624  160.6843 C   0  0  0  0  0  0  0  0  0  0  0  0
  152.6540  141.4857  160.4854 C   0  0  0  0  0  0  0  0  0  0  0  0
  152.1397  141.3176  159.0462 C   0  0  1  0  0  0  0  0  0  0  0  0
  151.4936  140.0540  158.9631 O   0  0  0  0  0  0  0  0  0  0  0  0
  151.1385  139.6681  157.6405 C   0  0  0  0  0  0  0  0  0  0  0  0
  150.2161  138.4481  157.6824 C   0  0  0  0  0  0  0  0  0  0  0  0
  149.9392  137.8756  156.6285 O   0  0  0  0  0  0  0  0  0  0  0  0
  149.7902  138.0536  158.8979 N   0  0  0  0  0  0  0  0  0  0  0  0
  148.9438  136.9616  159.2242 C   0  0  0  0  0  0  0  0  0  0  0  0
  148.4984  136.0550  158.2304 C   0  0  0  0  0  0  0  0  0  0  0  0
  147.6428  135.0178  158.6465 C   0  0  0  0  0  0  0  0  0  0  0  0
  147.2499  134.8926  159.9300 N   0  0  0  0  0  0  0  0  0  0  0  0
  147.7007  135.8018  160.8022 C   0  0  0  0  0  0  0  0  0  0  0  0
  147.2885  135.6783  162.1324 N   0  0  0  0  0  0  0  0  0  0  0  0
  147.6483  136.6801  163.1318 C   0  0  0  0  0  0  0  0  0  0  0  0
  146.4853  134.5409  162.5724 C   0  0  0  0  0  0  0  0  0  0  0  0
  148.5158  136.8218  160.4999 N   0  0  0  0  0  0  0  0  0  0  0  0
  151.1579  142.4525  158.6877 C   0  0  0  0  0  0  0  0  0  0  0  0
  149.9443  144.9558  159.1871 H   0  0  0  0  0  0  0  0  0  0  0  0
  150.4570  144.8699  157.5035 H   0  0  0  0  0  0  0  0  0  0  0  0
  151.2881  145.9448  158.6209 H   0  0  0  0  0  0  0  0  0  0  0  0
  152.6434  143.9186  158.1985 H   0  0  0  0  0  0  0  0  0  0  0  0
  152.8356  144.9566  160.4291 H   0  0  0  0  0  0  0  0  0  0  0  0
  151.5015  143.9992  161.0252 H   0  0  0  0  0  0  0  0  0  0  0  0
  154.2021  142.9359  160.0664 H   0  0  0  0  0  0  0  0  0  0  0  0
  153.6340  142.9728  161.7183 H   0  0  0  0  0  0  0  0  0  0  0  0
  153.3720  140.6985  160.7182 H   0  0  0  0  0  0  0  0  0  0  0  0
  151.8281  141.3690  161.1886 H   0  0  0  0  0  0  0  0  0  0  0  0
  152.9984  141.3440  158.3724 H   0  0  0  0  0  0  0  0  0  0  0  0
  150.6286  140.4797  157.1208 H   0  0  0  0  0  0  0  0  0  0  0  0
  152.0318  139.4142  157.0682 H   0  0  0  0  0  0  0  0  0  0  0  0
  150.1845  138.5491  159.6846 H   0  0  0  0  0  0  0  0  0  0  0  0
  148.7793  136.1416  157.1918 H   0  0  0  0  0  0  0  0  0  0  0  0
  147.2658  134.2891  157.9443 H   0  0  0  0  0  0  0  0  0  0  0  0
  148.7314  136.7975  163.1815 H   0  0  0  0  0  0  0  0  0  0  0  0
  147.2992  136.4066  164.1275 H   0  0  0  0  0  0  0  0  0  0  0  0
  147.2086  137.6450  162.8769 H   0  0  0  0  0  0  0  0  0  0  0  0
  145.5658  134.4752  161.9898 H   0  0  0  0  0  0  0  0  0  0  0  0
  146.2056  134.6203  163.6230 H   0  0  0  0  0  0  0  0  0  0  0  0
  147.0409  133.6114  162.4438 H   0  0  0  0  0  0  0  0  0  0  0  0
  150.2647  142.3697  159.3088 H   0  0  0  0  0  0  0  0  0  0  0  0
  150.8239  142.3518  157.6553 H   0  0  0  0  0  0  0  0  0  0  0  0
  1  2  1  0  0  0  0
  1 22  1  0  0  0  0
  1 23  1  0  0  0  0
  1 24  1  0  0  0  0
  2 21  1  0  0  0  0
  2  3  1  0  0  0  0
  2 25  1  0  0  0  0
  3  4  1  0  0  0  0
  3 26  1  0  0  0  0
  3 27  1  0  0  0  0
  4  5  1  0  0  0  0
  4 28  1  0  0  0  0
  4 29  1  0  0  0  0
  5  6  1  0  0  0  0
  5 30  1  0  0  0  0
  5 31  1  0  0  0  0
  6  7  1  0  0  0  0
  6 21  1  0  0  0  0
  6 32  1  0  0  0  0
  7  8  1  0  0  0  0
  8  9  1  0  0  0  0
  8 33  1  0  0  0  0
  8 34  1  0  0  0  0
  9 10  2  0  0  0  0
  9 11  1  0  0  0  0
 11 12  1  0  0  0  0
 11 35  1  0  0  0  0
 12 20  1  0  0  0  0
 12 13  2  0  0  0  0
 13 14  1  0  0  0  0
 13 36  1  0  0  0  0
 14 15  2  0  0  0  0
 14 37  1  0  0  0  0
 15 16  1  0  0  0  0
 16 17  1  0  0  0  0
 16 20  2  0  0  0  0
 17 18  1  0  0  0  0
 17 19  1  0  0  0  0
 18 38  1  0  0  0  0
 18 39  1  0  0  0  0
 18 40  1  0  0  0  0
 19 41  1  0  0  0  0
 19 42  1  0  0  0  0
 19 43  1  0  0  0  0
 21 44  1  0  0  0  0
 21 45  1  0  0  0  0
M  END
> <s_m_source_file>
AV-unprocessed.smi

> <i_m_source_file_index>
3014

> <i_lp_mmshare_version>
43012

> <i_f3d_flags>
0

> <s_epik_input>
W0NIM11bQ0BASF0xW0NIMl1bQ0gyXVtDSDJdW0NASF0oW0NIMl0xKU9bQ0gyXUMoPU8pW05IXWMyW2NIXVtjSF1uYyhuMilOKFtDSDNdKVtDSDNd

> <s_epik_cmdline>
J2VwaWtfcHl0aG9uJywgJy1waCcsICc3LjAnLCAnLXRuJywgJzgnLCAnLW1hJywgJzIwMCcsICctbWV0YWxfYmluZGluZycsICctaW1hZScsICc8aW5maWxlLm1hZT4nLCAnLW9tYWUnLCAnPG91dGZpbGUubWFlPic=

> <r_lp_tautomer_probability>
1

> <r_epik_Ionization_Penalty>
0.000308195

> <r_epik_Ionization_Penalty_Charging>
0

> <r_epik_Ionization_Penalty_Neutral>
0.000308195

> <r_epik_State_Penalty>
-0

> <r_epik_Charging_Adjusted_Penalty>
0

> <i_epik_Tot_Q>
0

> <i_epik_Tot_abs_Q>
0

> <r_epik_Metal_State_Penalty>
-0

> <b_epik_Metal_Only>
0

> <s_lp_Force_Field>
OPLS_2005

> <r_lp_Energy>
10.093

> <b_lp_Chiralities_Consistent>
1

> <s_lp_Variant>
AV-unprocessed.smi:3014-2

> <Gold.Version>
5.8.1

> <Gold.Id.Protein>
6NUR|6NUR_protein|mol2

> <Gold.PLP.Fitness>
44.4661

> <Gold.PLP.PLP>
-42.2154

> <Gold.PLP.part.hbond>
-1.0000

> <Gold.PLP.part.metal>
0.0000

> <Gold.PLP.part.buried>
-5.5987

> <Gold.PLP.part.nonpolar>
-35.2753

> <Gold.PLP.part.repulsive>
0.2070

> <Gold.PLP.ligand.clash>
0.0000

> <Gold.PLP.ligand.torsion>
0.1465

> <Gold.PLP.Chemscore.Hbond>
0.8406

> <Gold.PLP.Chemscore.CHOScore>
0.0000

> <Gold.PLP.Chemscore.Metal>
0.0000

> <Gold.Chemscore.Hbonds>
donor molecule, donor type, donor heavy atom, donor atom, acceptor molecule, acceptor atom, score
      P1  H  6931  6943       L1    20  0.80

> <Gold.PLP.Chemscore.Internal.Correction>
0.0219

> <Gold.Rescore>
     Score         DG    S(hbond)    S(metal)    S(lipo)     H(rot)  DE(clash)    DE(int)     intcor
     15.65     -17.15       0.85        0.00     106.87       1.43       0.01       1.49       ----

> <Gold.Chemscore.Fitness>
15.6486

> <Gold.Chemscore.DG>
-17.1492

> <Gold.Chemscore.ZeroCoef>
-5.4800

> <Gold.Chemscore.Hbond>
0.8470

> <Gold.Chemscore.Metal>
0.0000

> <Gold.Chemscore.Lipo>
106.8670

> <Gold.Chemscore.Internal_Hbond>
0.0000

> <Gold.Chemscore.DEClash>
0.0149

> <Gold.Chemscore.DEInternal>
1.4857

> <Gold.Chemscore.Rot>
1.4310

> <Gold.Chemscore.Internal.Correction>
   9.000000E+99

> <Gold.Chemscore.Hbonds>
donor molecule, donor type, donor heavy atom, donor atom, acceptor molecule, acceptor atom, score
      P1  H  6931  6943       L1    20  0.72

> <Gold.Chemscore.Hbond.Weighted>
-2.8290

> <Gold.Chemscore.Metal.Weighted>
-0.0000

> <Gold.Chemscore.Lipo.Weighted>
-12.5034

> <Gold.Chemscore.Internal_Hbond.Weighted>
0.0000

> <Gold.Chemscore.DEClash.Weighted>
0.0149

> <Gold.Chemscore.DEInternal.Weighted>
1.4857

> <Gold.Chemscore.Rot.Weighted>
3.6632

> <Gold.Chemscore.Internal.Correction.Weighted>
   9.000000E+99

> <Gold.Protein.RotatedTorsions>
[ 6907 6896 6895 6894 ] final  -19.23 input  -60.11 | X-H torsion
[ 7974 7965 7964 7962 ] final -136.18 input  175.53 | X-H torsion
[ 8008 7997 7996 7995 ] final  -60.20 input   59.86 | X-H torsion
[ 10167 10162 10161 10158 ] final   -8.65 input  -65.29 | X-H torsion
[ 10718 10713 10712 10709 ] final -116.14 input   66.30 | X-H torsion
[ 10763 10752 10751 10750 ] final  -76.96 input  -60.55 | X-H torsion
[ 11005 11000 10999 10996 ] final   20.61 input  -57.11 | X-H torsion

> <Gold.Protein.ActiveResidues>
 VAL166  LYS551  ARG553  GLY616  TRP617  ASP618  TYR619  PRO620  LYS621  CYS622 
 ASP623  PHE694  ASN695  SER759  ASP760  ASP761  ALA762  ILE779  LEU786  VAL792 
 PHE793  MET794  SER795  GLU796  ALA797  LYS798  CYS799  TRP800  GLU811  SER814 

> <Gold.Protein.RotatedAtoms>
  151.2662  135.0670  159.9116 H   0  0  0  0  0  0  0  0  0  0  0  0  # atno 6907 bound_to 6896
  152.5358  134.0179  159.7978 H   0  0  0  0  0  0  0  0  0  0  0  0  # atno 6908 bound_to 6896
  151.0410  133.5656  159.2682 H   0  0  0  0  0  0  0  0  0  0  0  0  # atno 6909 bound_to 6896
  144.8949  140.6693  143.5122 H   0  0  0  0  0  0  0  0  0  0  0  0  # atno 7974 bound_to 7965
  154.4387  140.1045  156.6236 H   0  0  0  0  0  0  0  0  0  0  0  0  # atno 8008 bound_to 7997
  155.5680  140.3488  155.4489 H   0  0  0  0  0  0  0  0  0  0  0  0  # atno 8009 bound_to 7997
  156.0410  140.1282  157.0144 H   0  0  0  0  0  0  0  0  0  0  0  0  # atno 8010 bound_to 7997
  140.7065  143.5945  150.8859 H   0  0  0  0  0  0  0  0  0  0  0  0  # atno 10167 bound_to 10162
  156.0943  130.6119  150.8997 H   0  0  0  0  0  0  0  0  0  0  0  0  # atno 10718 bound_to 10713
  154.5067  135.5780  153.6573 H   0  0  0  0  0  0  0  0  0  0  0  0  # atno 10763 bound_to 10752
  152.9889  135.6149  154.2932 H   0  0  0  0  0  0  0  0  0  0  0  0  # atno 10764 bound_to 10752
  154.2843  135.2850  155.2662 H   0  0  0  0  0  0  0  0  0  0  0  0  # atno 10765 bound_to 10752
  140.4007  134.1721  155.7664 H   0  0  0  0  0  0  0  0  0  0  0  0  # atno 11005 bound_to 11000
  145.3718  139.1657  143.4328 LP  0  0  0  0  0  0  0  0  0  0  0  0  # atno 17320 bound_to 7965
  146.3075  140.3790  142.8682 LP  0  0  0  0  0  0  0  0  0  0  0  0  # atno 17321 bound_to 7965
  139.9671  143.6099  152.2985 LP  0  0  0  0  0  0  0  0  0  0  0  0  # atno 17342 bound_to 10162
  139.6672  144.7662  151.1851 LP  0  0  0  0  0  0  0  0  0  0  0  0  # atno 17343 bound_to 10162
  157.6100  131.0937  150.8811 LP  0  0  0  0  0  0  0  0  0  0  0  0  # atno 17370 bound_to 10713
  156.8952  130.5227  149.5284 LP  0  0  0  0  0  0  0  0  0  0  0  0  # atno 17371 bound_to 10713
  141.1858  133.8316  157.1093 LP  0  0  0  0  0  0  0  0  0  0  0  0  # atno 17394 bound_to 11000
  140.0338  134.9888  157.0832 LP  0  0  0  0  0  0  0  0  0  0  0  0  # atno 17395 bound_to 11000

$$$$
