#       Name:                AV-unprocessed.smi:436
#       Creating user name   scv26
#       Creation time:       Thu Mar 26 22:52:37 2020


#       File generated by GOLD software.
#

@<TRIPOS>MOLECULE
AV-unprocessed.smi:436
    49    50     1
SMALL
NO_CHARGES


@<TRIPOS>ATOM
      1 ****        -5.5914  -0.7687   2.6709 C.3            1 S1                 0.0000
      2 ****        -4.7724  -2.0489   2.8697 C.3            1 S1                 0.0000
      3 ****        -3.2599  -1.7950   2.8035 C.3            1 S1                 0.0000
      4 ****        -2.4345  -3.0786   3.0029 C.3            1 S1                 0.0000
      5 ****        -0.9126  -2.8409   3.0229 C.3            1 S1                 0.0000
      6 ****        -0.3582  -2.3682   1.6757 C.2            1 S1                 0.0000
      7 ****        -0.4798  -3.0883   0.6847 O.2            1 S1                 0.0000
      8 ****         0.2358  -1.1601   1.6779 N.am           1 S1                 0.0000
      9 ****         0.8405  -0.4749   0.5912 C.ar           1 S1                 0.0000
     10 ****         1.2841   0.8326   0.8800 C.ar           1 S1                 0.0000
     11 ****         1.9034   1.5929  -0.1297 C.ar           1 S1                 0.0000
     12 ****         2.0751   1.0373  -1.4172 C.ar           1 S1                 0.0000
     13 ****         2.7008   1.7801  -2.4413 N.3            1 S1                 0.0000
     14 ****         2.1490   3.1084  -2.6960 C.3            1 S1                 0.0000
     15 ****         3.1095   3.9266  -3.5772 C.3            1 S1                 0.0000
     16 ****         3.4027   3.2066  -4.7704 O.3            1 S1                 0.0000
     17 ****         4.0439   1.9655  -4.4953 C.3            1 S1                 0.0000
     18 ****         3.1128   1.0772  -3.6527 C.3            1 S1                 0.0000
     19 ****         1.6016  -0.2838  -1.6065 C.ar           1 S1                 0.0000
     20 ****         1.0040  -1.0128  -0.6408 N.ar           1 S1                 0.0000
     21 ****        -6.6598  -0.9780   2.7264 H              1 S1                 0.0000
     22 ****        -5.3906  -0.3196   1.6979 H              1 S1                 0.0000
     23 ****        -5.3573  -0.0291   3.4368 H              1 S1                 0.0000
     24 ****        -5.0275  -2.4918   3.8331 H              1 S1                 0.0000
     25 ****        -5.0551  -2.7781   2.1098 H              1 S1                 0.0000
     26 ****        -3.0165  -1.3428   1.8414 H              1 S1                 0.0000
     27 ****        -2.9830  -1.0658   3.5657 H              1 S1                 0.0000
     28 ****        -2.7229  -3.5426   3.9467 H              1 S1                 0.0000
     29 ****        -2.6874  -3.8023   2.2266 H              1 S1                 0.0000
     30 ****        -0.6581  -2.1281   3.8090 H              1 S1                 0.0000
     31 ****        -0.4064  -3.7714   3.2819 H              1 S1                 0.0000
     32 ****         0.2433  -0.6692   2.5598 H              1 S1                 0.0000
     33 ****         1.1556   1.2543   1.8664 H              1 S1                 0.0000
     34 ****         2.2541   2.5879   0.1003 H              1 S1                 0.0000
     35 ****         1.1868   2.9989  -3.1978 H              1 S1                 0.0000
     36 ****         1.9636   3.6534  -1.7714 H              1 S1                 0.0000
     37 ****         2.6545   4.8810  -3.8421 H              1 S1                 0.0000
     38 ****         4.0320   4.1525  -3.0398 H              1 S1                 0.0000
     39 ****         4.2821   1.4716  -5.4374 H              1 S1                 0.0000
     40 ****         4.9893   2.1386  -3.9786 H              1 S1                 0.0000
     41 ****         3.6325   0.1535  -3.3952 H              1 S1                 0.0000
     42 ****         2.2297   0.8084  -4.2340 H              1 S1                 0.0000
     43 ****         1.6857  -0.7863  -2.5582 H              1 S1                 0.0000
     44 ****        -0.9375  -3.9740   0.7633 LP             1 S1                 0.0000
     45 ****        -0.1208  -2.7877  -0.1989 LP             1 S1                 0.0000
     46 ****         3.5777   1.9402  -1.9880 LP             1 S1                 0.0000
     47 ****         4.0050   3.7619  -5.3438 LP             1 S1                 0.0000
     48 ****         2.5486   3.0283  -5.2590 LP             1 S1                 0.0000
     49 ****         0.6851  -1.9409  -0.8330 LP             1 S1                 0.0000
@<TRIPOS>BOND
    1    1    2 1     
    2    1   21 1     
    3    1   22 1     
    4    1   23 1     
    5    2    3 1     
    6    2   24 1     
    7    2   25 1     
    8    3    4 1     
    9    3   26 1     
   10    3   27 1     
   11    4    5 1     
   12    4   28 1     
   13    4   29 1     
   14    5    6 1     
   15    5   30 1     
   16    5   31 1     
   17    6    7 2     
   18    6    8 am    
   19    8    9 1     
   20    8   32 1     
   21    9   20 ar    
   22    9   10 ar    
   23   10   11 ar    
   24   10   33 1     
   25   11   12 ar    
   26   11   34 1     
   27   12   13 1     
   28   12   19 ar    
   29   13   18 1     
   30   13   14 1     
   31   14   15 1     
   32   14   35 1     
   33   14   36 1     
   34   15   16 1     
   35   15   37 1     
   36   15   38 1     
   37   16   17 1     
   38   17   18 1     
   39   17   39 1     
   40   17   40 1     
   41   18   41 1     
   42   18   42 1     
   43   19   20 ar    
   44   19   43 1     
   45    7   44 1     
   46    7   45 1     
   47   13   46 1     
   48   16   47 1     
   49   16   48 1     
   50   20   49 1     
@<TRIPOS>SUBSTRUCTURE
      1 S1             1
@<TRIPOS>SET
LONE_PAIRS      STATIC     ATOMS    <user>   **** ""
6 44 45 46 47 48 49
DONOR_HYDROGENS      STATIC     ATOMS    <user>   **** ""
1 32
ATOM$BLUE        STATIC     ATOMS    COLORGROUP SYSTEM
6 44 45 46 47 48 49
ATOM$RED        STATIC     ATOMS    COLORGROUP SYSTEM
1 32
