#       Name:                AV-unprocessed.smi:2050
#       Creating user name   scv26
#       Creation time:       Fri Mar 27 10:59:08 2020


#       File generated by GOLD software.
#

@<TRIPOS>MOLECULE
AV-unprocessed.smi:2050
    38    39     1
SMALL
NO_CHARGES


@<TRIPOS>ATOM
      1 ****        -6.1356  -2.5636  -0.2782 C.3            1 S1                 0.0000
      2 ****        -4.8354  -1.8556  -0.4491 C.2            1 S1                 0.0000
      3 ****        -3.5466  -2.2930  -0.5733 C.2            1 S1                 0.0000
      4 ****        -2.8099  -1.0852  -0.7001 C.2            1 S1                 0.0000
      5 ****        -1.4000  -1.1057  -0.8520 N.am           1 S1                 0.0000
      6 ****        -0.5740  -0.0530  -0.9782 C.2            1 S1                 0.0000
      7 ****        -0.9250   1.1272  -0.9838 O.2            1 S1                 0.0000
      8 ****         0.7020  -0.4485  -1.0965 N.am           1 S1                 0.0000
      9 ****         1.8537   0.4350  -1.2536 C.3            1 S1                 0.0000
     10 ****         2.5944   0.6577   0.0787 C.3            1 S1                 0.0000
     11 ****         3.8893   1.4737  -0.1020 C.3            1 S1                 0.0000
     12 ****         4.4203   1.8615   1.2814 C.3            1 S1                 0.0000
     13 ****         2.9359   2.1316   2.3189 S.o2           1 S1                 0.0000
     14 ****         3.0429   1.3051   3.5308 O.2            1 S1                 0.0000
     15 ****         2.6542   3.5723   2.4071 O.2            1 S1                 0.0000
     16 ****         1.7483   1.3628   1.1533 C.3            1 S1                 0.0000
     17 ****        -3.5790  -0.0082  -0.6580 N.2            1 S1                 0.0000
     18 ****        -4.8811  -0.4965  -0.4967 O.3            1 S1                 0.0000
     19 ****        -5.9874  -3.6418  -0.2151 H              1 S1                 0.0000
     20 ****        -6.7990  -2.3621  -1.1194 H              1 S1                 0.0000
     21 ****        -6.6362  -2.2372   0.6335 H              1 S1                 0.0000
     22 ****        -3.1924  -3.3132  -0.5725 H              1 S1                 0.0000
     23 ****        -0.9748  -2.0209  -0.8648 H              1 S1                 0.0000
     24 ****         0.8934  -1.4395  -1.0782 H              1 S1                 0.0000
     25 ****         2.5283  -0.0326  -1.9713 H              1 S1                 0.0000
     26 ****         1.5592   1.3898  -1.6931 H              1 S1                 0.0000
     27 ****         2.8845  -0.3158   0.4775 H              1 S1                 0.0000
     28 ****         4.6373   0.9243  -0.6743 H              1 S1                 0.0000
     29 ****         3.6653   2.3835  -0.6608 H              1 S1                 0.0000
     30 ****         4.9938   1.0437   1.7185 H              1 S1                 0.0000
     31 ****         5.0415   2.7569   1.2671 H              1 S1                 0.0000
     32 ****         1.1481   2.1623   0.7175 H              1 S1                 0.0000
     33 ****         1.0836   0.6839   1.6877 H              1 S1                 0.0000
     34 ****        -1.8925   1.3616  -0.8894 LP             1 S1                 0.0000
     35 ****        -0.2425   1.8514  -1.0828 LP             1 S1                 0.0000
     36 ****        -3.2919   0.9473  -0.7266 LP             1 S1                 0.0000
     37 ****        -5.2699  -0.1430   0.3541 LP             1 S1                 0.0000
     38 ****        -5.4473  -0.2058  -1.2680 LP             1 S1                 0.0000
@<TRIPOS>BOND
    1    1    2 1     
    2    1   19 1     
    3    1   20 1     
    4    1   21 1     
    5    2   18 1     
    6    2    3 2     
    7    3    4 1     
    8    3   22 1     
    9    4    5 1     
   10    4   17 2     
   11    5    6 am    
   12    5   23 1     
   13    6    7 2     
   14    6    8 am    
   15    8    9 1     
   16    8   24 1     
   17    9   10 1     
   18    9   25 1     
   19    9   26 1     
   20   10   16 1     
   21   10   11 1     
   22   10   27 1     
   23   11   12 1     
   24   11   28 1     
   25   11   29 1     
   26   12   13 1     
   27   12   30 1     
   28   12   31 1     
   29   13   14 2     
   30   13   15 2     
   31   13   16 1     
   32   16   32 1     
   33   16   33 1     
   34   17   18 1     
   35    7   34 1     
   36    7   35 1     
   37   17   36 1     
   38   18   37 1     
   39   18   38 1     
@<TRIPOS>SUBSTRUCTURE
      1 S1             1
@<TRIPOS>SET
LONE_PAIRS      STATIC     ATOMS    <user>   **** ""
7 34 35 14 15 36 37 38
DONOR_HYDROGENS      STATIC     ATOMS    <user>   **** ""
2 23 24
ATOM$BLUE        STATIC     ATOMS    COLORGROUP SYSTEM
7 34 35 14 15 36 37 38
ATOM$RED        STATIC     ATOMS    COLORGROUP SYSTEM
2 23 24
