AV-unprocessed.smi:910|AV-procd|sdf|4117|dock10
  -GOLD-   22720 2 13D 1   1.00000     0.00000
 Structure written by MMmdl.
 46 47  0  0  0  0  0  0  0  0  1 V2000
  144.4773  132.3471  149.6490 C   0  0  0  0  0  0  0  0  0  0  0  0
  145.4762  132.4149  150.7612 C   0  0  0  0  0  0  0  0  0  0  0  0
  146.1145  133.5964  151.1113 N   0  0  0  0  0  0  0  0  0  0  0  0
  146.9135  133.2579  152.1245 C   0  0  0  0  0  0  0  0  0  0  0  0
  147.7879  134.1180  152.8340 N   0  0  0  0  0  0  0  0  0  0  0  0
  148.2769  133.9463  154.0732 C   0  0  0  0  0  0  0  0  0  0  0  0
  148.0740  132.9641  154.7874 O   0  0  0  0  0  0  0  0  0  0  0  0
  149.0172  134.9978  154.4519 N   0  0  0  0  0  0  0  0  0  0  0  0
  149.6186  135.1775  155.7696 C   0  0  0  0  0  0  0  0  0  0  0  0
  151.0383  135.7566  155.6723 C   0  0  0  0  0  0  0  0  0  0  0  0
  151.0725  136.9895  156.3755 O   0  0  0  0  0  0  0  0  0  0  0  0
  152.1494  137.8476  156.0195 C   0  0  1  0  0  0  0  0  0  0  0  0
  151.9363  138.4019  154.5964 C   0  0  0  0  0  0  0  0  0  0  0  0
  150.7001  139.3132  154.5194 C   0  0  0  0  0  0  0  0  0  0  0  0
  150.7793  140.4483  155.5517 C   0  0  0  0  0  0  0  0  0  0  0  0
  150.9790  139.8979  156.9730 C   0  0  0  0  0  0  0  0  0  0  0  0
  152.2214  138.9888  157.0580 C   0  0  1  0  0  0  0  0  0  0  0  0
  152.4436  138.4544  158.4825 C   0  0  0  0  0  0  0  0  0  0  0  0
  146.8458  131.9430  152.4633 O   0  0  0  0  0  0  0  0  0  0  0  0
  145.9312  131.4197  151.5887 C   0  0  0  0  0  0  0  0  0  0  0  0
  145.6213  129.9652  151.6938 C   0  0  0  0  0  0  0  0  0  0  0  0
  144.8596  131.7588  148.8149 H   0  0  0  0  0  0  0  0  0  0  0  0
  144.2316  133.3393  149.2691 H   0  0  0  0  0  0  0  0  0  0  0  0
  143.5491  131.8833  149.9832 H   0  0  0  0  0  0  0  0  0  0  0  0
  148.0438  134.9702  152.3581 H   0  0  0  0  0  0  0  0  0  0  0  0
  149.1328  135.7572  153.7970 H   0  0  0  0  0  0  0  0  0  0  0  0
  148.9865  135.8194  156.3849 H   0  0  0  0  0  0  0  0  0  0  0  0
  149.6513  134.2053  156.2620 H   0  0  0  0  0  0  0  0  0  0  0  0
  151.7568  135.0545  156.0974 H   0  0  0  0  0  0  0  0  0  0  0  0
  151.3109  135.9064  154.6275 H   0  0  0  0  0  0  0  0  0  0  0  0
  153.0928  137.2999  156.0551 H   0  0  0  0  0  0  0  0  0  0  0  0
  152.8178  138.9705  154.2981 H   0  0  0  0  0  0  0  0  0  0  0  0
  151.8448  137.5886  153.8767 H   0  0  0  0  0  0  0  0  0  0  0  0
  150.6087  139.7300  153.5161 H   0  0  0  0  0  0  0  0  0  0  0  0
  149.7989  138.7238  154.6923 H   0  0  0  0  0  0  0  0  0  0  0  0
  151.6048  141.1149  155.2990 H   0  0  0  0  0  0  0  0  0  0  0  0
  149.8720  141.0511  155.5110 H   0  0  0  0  0  0  0  0  0  0  0  0
  151.0761  140.7275  157.6740 H   0  0  0  0  0  0  0  0  0  0  0  0
  150.0910  139.3418  157.2768 H   0  0  0  0  0  0  0  0  0  0  0  0
  153.0902  139.6003  156.8097 H   0  0  0  0  0  0  0  0  0  0  0  0
  151.6009  137.8501  158.8197 H   0  0  0  0  0  0  0  0  0  0  0  0
  152.5693  139.2719  159.1925 H   0  0  0  0  0  0  0  0  0  0  0  0
  153.3379  137.8328  158.5343 H   0  0  0  0  0  0  0  0  0  0  0  0
  144.6674  129.8103  152.1979 H   0  0  0  0  0  0  0  0  0  0  0  0
  146.3918  129.4402  152.2587 H   0  0  0  0  0  0  0  0  0  0  0  0
  145.5598  129.5104  150.7050 H   0  0  0  0  0  0  0  0  0  0  0  0
  1  2  1  0  0  0  0
  1 22  1  0  0  0  0
  1 23  1  0  0  0  0
  1 24  1  0  0  0  0
  2 20  2  0  0  0  0
  2  3  1  0  0  0  0
  3  4  2  0  0  0  0
  4  5  1  0  0  0  0
  4 19  1  0  0  0  0
  5  6  1  0  0  0  0
  5 25  1  0  0  0  0
  6  7  2  0  0  0  0
  6  8  1  0  0  0  0
  8  9  1  0  0  0  0
  8 26  1  0  0  0  0
  9 10  1  0  0  0  0
  9 27  1  0  0  0  0
  9 28  1  0  0  0  0
 10 11  1  0  0  0  0
 10 29  1  0  0  0  0
 10 30  1  0  0  0  0
 11 12  1  0  0  0  0
 12 17  1  0  0  0  0
 12 13  1  0  0  0  0
 12 31  1  0  0  0  0
 13 14  1  0  0  0  0
 13 32  1  0  0  0  0
 13 33  1  0  0  0  0
 14 15  1  0  0  0  0
 14 34  1  0  0  0  0
 14 35  1  0  0  0  0
 15 16  1  0  0  0  0
 15 36  1  0  0  0  0
 15 37  1  0  0  0  0
 16 17  1  0  0  0  0
 16 38  1  0  0  0  0
 16 39  1  0  0  0  0
 17 18  1  0  0  0  0
 17 40  1  0  0  0  0
 18 41  1  0  0  0  0
 18 42  1  0  0  0  0
 18 43  1  0  0  0  0
 19 20  1  0  0  0  0
 20 21  1  0  0  0  0
 21 44  1  0  0  0  0
 21 45  1  0  0  0  0
 21 46  1  0  0  0  0
M  END
> <s_m_source_file>
AV-unprocessed.smi

> <i_m_source_file_index>
910

> <i_lp_mmshare_version>
43012

> <i_f3d_flags>
0

> <s_epik_input>
W0NIM11jMW5jKG9jMVtDSDNdKVtOSF1DKD1PKVtOSF1bQ0gyXVtDSDJdT1tDQEBIXTJbQ0gyXVtDSDJdW0NIMl1bQ0gyXVtDQEhdMltDSDNd

> <s_epik_cmdline>
J2VwaWtfcHl0aG9uJywgJy1waCcsICc3LjAnLCAnLXRuJywgJzgnLCAnLW1hJywgJzIwMCcsICctbWV0YWxfYmluZGluZycsICctaW1hZScsICc8aW5maWxlLm1hZT4nLCAnLW9tYWUnLCAnPG91dGZpbGUubWFlPic=

> <r_lp_tautomer_probability>
0.785861

> <r_epik_Ionization_Penalty>
4.15957e-05

> <r_epik_Ionization_Penalty_Charging>
0

> <r_epik_Ionization_Penalty_Neutral>
4.15957e-05

> <r_epik_State_Penalty>
0.0240523

> <r_epik_Charging_Adjusted_Penalty>
0.0240523

> <i_epik_Tot_Q>
0

> <i_epik_Tot_abs_Q>
0

> <r_epik_Metal_State_Penalty>
0.057053

> <b_epik_Metal_Only>
0

> <s_lp_Force_Field>
OPLS_2005

> <r_lp_Energy>
9.72379

> <b_lp_Chiralities_Consistent>
1

> <s_lp_Variant>
AV-unprocessed.smi:910-2

> <Gold.Version>
5.8.1

> <Gold.Id.Protein>
6NUR|6NUR_protein|mol2

> <Gold.PLP.Fitness>
38.3307

> <Gold.PLP.PLP>
-34.2991

> <Gold.PLP.part.hbond>
-2.0000

> <Gold.PLP.part.metal>
0.0000

> <Gold.PLP.part.buried>
-3.2284

> <Gold.PLP.part.nonpolar>
-28.1371

> <Gold.PLP.part.repulsive>
0.3238

> <Gold.PLP.ligand.clash>
0.0000

> <Gold.PLP.ligand.torsion>
0.7718

> <Gold.PLP.Chemscore.Hbond>
1.8480

> <Gold.PLP.Chemscore.CHOScore>
0.0000

> <Gold.PLP.Chemscore.Metal>
0.0000

> <Gold.Chemscore.Hbonds>
donor molecule, donor type, donor heavy atom, donor atom, acceptor molecule, acceptor atom, score
      L1  H     5    25       P1  7948  1.00
      L1  H     8    26       P1  7948  0.85

> <Gold.PLP.Chemscore.Internal.Correction>
0.0312

> <Gold.Rescore>
     Score         DG    S(hbond)    S(metal)    S(lipo)     H(rot)  DE(clash)    DE(int)     intcor
     15.57     -17.83       1.70        0.00      93.17       1.66       0.12       2.14       ----

> <Gold.Chemscore.Fitness>
15.5683

> <Gold.Chemscore.DG>
-17.8307

> <Gold.Chemscore.ZeroCoef>
-5.4800

> <Gold.Chemscore.Hbond>
1.7047

> <Gold.Chemscore.Metal>
0.0000

> <Gold.Chemscore.Lipo>
93.1662

> <Gold.Chemscore.Internal_Hbond>
0.0000

> <Gold.Chemscore.DEClash>
0.1188

> <Gold.Chemscore.DEInternal>
2.1436

> <Gold.Chemscore.Rot>
1.6576

> <Gold.Chemscore.Internal.Correction>
   9.000000E+99

> <Gold.Chemscore.Hbonds>
donor molecule, donor type, donor heavy atom, donor atom, acceptor molecule, acceptor atom, score
      L1  H     5    25       P1  7948  0.73
      L1  H     8    26       P1  7948  0.67

> <Gold.Chemscore.Hbond.Weighted>
-5.6938

> <Gold.Chemscore.Metal.Weighted>
-0.0000

> <Gold.Chemscore.Lipo.Weighted>
-10.9004

> <Gold.Chemscore.Internal_Hbond.Weighted>
0.0000

> <Gold.Chemscore.DEClash.Weighted>
0.1188

> <Gold.Chemscore.DEInternal.Weighted>
2.1436

> <Gold.Chemscore.Rot.Weighted>
4.2436

> <Gold.Chemscore.Internal.Correction.Weighted>
   9.000000E+99

> <Gold.Protein.RotatedTorsions>
[ 6907 6896 6895 6894 ] final -151.16 input  -60.11 | X-H torsion
[ 7974 7965 7964 7962 ] final -115.49 input  175.53 | X-H torsion
[ 8008 7997 7996 7995 ] final   13.33 input   59.86 | X-H torsion
[ 10167 10162 10161 10158 ] final   51.66 input  -65.29 | X-H torsion
[ 10718 10713 10712 10709 ] final   36.99 input   66.30 | X-H torsion
[ 10763 10752 10751 10750 ] final  -31.43 input  -60.55 | X-H torsion
[ 11005 11000 10999 10996 ] final  -70.59 input  -57.11 | X-H torsion

> <Gold.Protein.ActiveResidues>
 VAL166  LYS551  ARG553  GLY616  TRP617  ASP618  TYR619  PRO620  LYS621  CYS622 
 ASP623  PHE694  ASN695  SER759  ASP760  ASP761  ALA762  ILE779  LEU786  VAL792 
 PHE793  MET794  SER795  GLU796  ALA797  LYS798  CYS799  TRP800  GLU811  SER814 

> <Gold.Protein.RotatedAtoms>
  151.2090  133.4567  159.2597 H   0  0  0  0  0  0  0  0  0  0  0  0  # atno 6907 bound_to 6896
  151.0995  134.9964  159.8452 H   0  0  0  0  0  0  0  0  0  0  0  0  # atno 6908 bound_to 6896
  152.5442  134.2018  159.8768 H   0  0  0  0  0  0  0  0  0  0  0  0  # atno 6909 bound_to 6896
  145.1078  140.8592  143.3888 H   0  0  0  0  0  0  0  0  0  0  0  0  # atno 7974 bound_to 7965
  154.8329  140.2902  155.5710 H   0  0  0  0  0  0  0  0  0  0  0  0  # atno 8008 bound_to 7997
  156.3007  140.2528  156.3189 H   0  0  0  0  0  0  0  0  0  0  0  0  # atno 8009 bound_to 7997
  154.9211  140.0386  157.1987 H   0  0  0  0  0  0  0  0  0  0  0  0  # atno 8010 bound_to 7997
  140.2595  144.3389  150.6322 H   0  0  0  0  0  0  0  0  0  0  0  0  # atno 10167 bound_to 10162
  157.3416  130.7550  149.6915 H   0  0  0  0  0  0  0  0  0  0  0  0  # atno 10718 bound_to 10713
  153.7972  135.6893  153.4861 H   0  0  0  0  0  0  0  0  0  0  0  0  # atno 10763 bound_to 10752
  153.1712  135.4542  154.9903 H   0  0  0  0  0  0  0  0  0  0  0  0  # atno 10764 bound_to 10752
  154.8021  135.3342  154.7463 H   0  0  0  0  0  0  0  0  0  0  0  0  # atno 10765 bound_to 10752
  141.1577  133.6794  156.6776 H   0  0  0  0  0  0  0  0  0  0  0  0  # atno 11005 bound_to 11000
  145.0881  139.2910  143.5749 LP  0  0  0  0  0  0  0  0  0  0  0  0  # atno 17320 bound_to 7965
  146.3527  140.0410  142.8643 LP  0  0  0  0  0  0  0  0  0  0  0  0  # atno 17321 bound_to 7965
  140.5977  143.2167  151.7132 LP  0  0  0  0  0  0  0  0  0  0  0  0  # atno 17342 bound_to 10162
  139.5021  144.3842  152.0346 LP  0  0  0  0  0  0  0  0  0  0  0  0  # atno 17343 bound_to 10162
  155.9708  130.4166  150.4239 LP  0  0  0  0  0  0  0  0  0  0  0  0  # atno 17370 bound_to 10713
  157.2287  131.0499  151.2504 LP  0  0  0  0  0  0  0  0  0  0  0  0  # atno 17371 bound_to 10713
  140.3127  134.8073  157.4189 LP  0  0  0  0  0  0  0  0  0  0  0  0  # atno 17394 bound_to 11000
  140.1165  134.5277  155.8221 LP  0  0  0  0  0  0  0  0  0  0  0  0  # atno 17395 bound_to 11000

$$$$
