AV-unprocessed.smi:119|AV-procd|sdf|1136|dock4
  -GOLD-   2262018263D 1   1.00000     0.00000
 Structure written by MMmdl.
 51 54  0  0  0  0  0  0  0  0  1 V2000
  147.4494  139.9795  153.0056 C   0  0  0  0  0  0  0  0  0  0  0  0
  148.4698  138.9659  153.5397 C   0  0  1  0  0  0  0  0  0  0  0  0
  149.7963  139.6554  153.9080 C   0  0  0  0  0  0  0  0  0  0  0  0
  150.9584  138.6876  154.1982 C   0  0  0  0  0  0  0  0  0  0  0  0
  150.8026  137.9733  155.4723 N   0  0  0  0  0  0  0  0  0  0  0  0
  151.2394  138.4591  156.6640 C   0  0  0  0  0  0  0  0  0  0  0  0
  151.0552  137.8525  157.7227 O   0  0  0  0  0  0  0  0  0  0  0  0
  151.9890  139.8099  156.7013 C   0  0  0  0  0  0  0  0  0  0  0  0
  152.3895  140.2283  158.0633 N   0  0  0  0  0  0  0  0  0  0  0  0
  153.1319  139.3215  158.8585 C   0  0  0  0  0  0  0  0  0  0  0  0
  153.4376  138.2048  158.4373 O   0  0  0  0  0  0  0  0  0  0  0  0
  153.5016  139.8049  160.1830 C   0  0  0  0  0  0  0  0  0  0  0  0
  154.1920  139.0049  161.0134 F   0  0  0  0  0  0  0  0  0  0  0  0
  153.1573  141.0428  160.5948 C   0  0  0  0  0  0  0  0  0  0  0  0
  152.4408  141.9261  159.8043 N   0  0  0  0  0  0  0  0  0  0  0  0
  152.0857  143.3335  160.2432 C   0  0  1  0  0  0  0  0  0  0  0  0
  152.5109  144.4555  159.2920 C   0  0  0  0  0  0  0  0  0  0  0  0
  151.5681  145.5462  159.7435 C   0  0  0  0  0  0  0  0  0  0  0  0
  150.2834  144.7547  159.9884 C   0  0  0  0  0  0  0  0  0  0  0  0
  150.6956  143.4320  160.3318 O   0  0  0  0  0  0  0  0  0  0  0  0
  152.0445  141.5271  158.5078 C   0  0  0  0  0  0  0  0  0  0  0  0
  151.4143  142.2971  157.7792 O   0  0  0  0  0  0  0  0  0  0  0  0
  150.1444  136.7143  155.4163 C   0  0  0  0  0  0  0  0  0  0  0  0
  150.8955  135.5328  155.6098 C   0  0  0  0  0  0  0  0  0  0  0  0
  150.2668  134.2743  155.5593 C   0  0  0  0  0  0  0  0  0  0  0  0
  148.8835  134.1884  155.3146 C   0  0  0  0  0  0  0  0  0  0  0  0
  148.1292  135.3610  155.1206 C   0  0  0  0  0  0  0  0  0  0  0  0
  148.7534  136.6236  155.1656 C   0  0  0  0  0  0  0  0  0  0  0  0
  147.7559  138.0656  154.9450 S   0  0  0  0  0  0  0  0  0  0  0  0
  147.8275  140.4901  152.1194 H   0  0  0  0  0  0  0  0  0  0  0  0
  147.2153  140.7375  153.7538 H   0  0  0  0  0  0  0  0  0  0  0  0
  146.5174  139.4870  152.7269 H   0  0  0  0  0  0  0  0  0  0  0  0
  148.6572  138.2370  152.7504 H   0  0  0  0  0  0  0  0  0  0  0  0
  150.0979  140.2870  153.0717 H   0  0  0  0  0  0  0  0  0  0  0  0
  149.6391  140.3337  154.7468 H   0  0  0  0  0  0  0  0  0  0  0  0
  151.0306  137.9605  153.3879 H   0  0  0  0  0  0  0  0  0  0  0  0
  151.9055  139.2248  154.1608 H   0  0  0  0  0  0  0  0  0  0  0  0
  152.8624  139.7420  156.0519 H   0  0  0  0  0  0  0  0  0  0  0  0
  151.3739  140.5838  156.2430 H   0  0  0  0  0  0  0  0  0  0  0  0
  153.4578  141.3155  161.5928 H   0  0  0  0  0  0  0  0  0  0  0  0
  152.5370  143.4534  161.2306 H   0  0  0  0  0  0  0  0  0  0  0  0
  153.5686  144.6985  159.3960 H   0  0  0  0  0  0  0  0  0  0  0  0
  152.2762  144.2099  158.2568 H   0  0  0  0  0  0  0  0  0  0  0  0
  151.9239  145.9907  160.6741 H   0  0  0  0  0  0  0  0  0  0  0  0
  151.4455  146.3417  159.0080 H   0  0  0  0  0  0  0  0  0  0  0  0
  149.6717  145.1969  160.7752 H   0  0  0  0  0  0  0  0  0  0  0  0
  149.6825  144.7046  159.0796 H   0  0  0  0  0  0  0  0  0  0  0  0
  151.9577  135.5900  155.7993 H   0  0  0  0  0  0  0  0  0  0  0  0
  150.8460  133.3752  155.7105 H   0  0  0  0  0  0  0  0  0  0  0  0
  148.4004  133.2233  155.2782 H   0  0  0  0  0  0  0  0  0  0  0  0
  147.0669  135.2887  154.9380 H   0  0  0  0  0  0  0  0  0  0  0  0
  1  2  1  0  0  0  0
  1 30  1  0  0  0  0
  1 31  1  0  0  0  0
  1 32  1  0  0  0  0
  2 29  1  0  0  0  0
  2  3  1  0  0  0  0
  2 33  1  0  0  0  0
  3  4  1  0  0  0  0
  3 34  1  0  0  0  0
  3 35  1  0  0  0  0
  4  5  1  0  0  0  0
  4 36  1  0  0  0  0
  4 37  1  0  0  0  0
  5  6  1  0  0  0  0
  5 23  1  0  0  0  0
  6  7  2  0  0  0  0
  6  8  1  0  0  0  0
  8  9  1  0  0  0  0
  8 38  1  0  0  0  0
  8 39  1  0  0  0  0
  9 21  1  0  0  0  0
  9 10  1  0  0  0  0
 10 11  2  0  0  0  0
 10 12  1  0  0  0  0
 12 13  1  0  0  0  0
 12 14  2  0  0  0  0
 14 15  1  0  0  0  0
 14 40  1  0  0  0  0
 15 16  1  0  0  0  0
 15 21  1  0  0  0  0
 16 20  1  0  0  0  0
 16 17  1  0  0  0  0
 16 41  1  0  0  0  0
 17 18  1  0  0  0  0
 17 42  1  0  0  0  0
 17 43  1  0  0  0  0
 18 19  1  0  0  0  0
 18 44  1  0  0  0  0
 18 45  1  0  0  0  0
 19 20  1  0  0  0  0
 19 46  1  0  0  0  0
 19 47  1  0  0  0  0
 21 22  2  0  0  0  0
 23 28  2  0  0  0  0
 23 24  1  0  0  0  0
 24 25  2  0  0  0  0
 24 48  1  0  0  0  0
 25 26  1  0  0  0  0
 25 49  1  0  0  0  0
 26 27  2  0  0  0  0
 26 50  1  0  0  0  0
 27 28  1  0  0  0  0
 27 51  1  0  0  0  0
 28 29  1  0  0  0  0
M  END
> <s_m_source_file>
AV-unprocessed.smi

> <i_m_source_file_index>
119

> <i_lp_mmshare_version>
43012

> <i_f3d_flags>
0

> <s_epik_input>
W2NIXTFbY0hdW2NIXVtjSF1jKGMxMilTW0NASF0oW0NIM10pW0NIMl1bQ0gyXU4yQyg9TylbQ0gyXW4zYyg9TyljKEYpW2NIXW4oYzM9TylbQ0BASF00W0NIMl1bQ0gyXVtDSDJdTzQ=

> <s_epik_cmdline>
J2VwaWtfcHl0aG9uJywgJy1waCcsICc3LjAnLCAnLXRuJywgJzgnLCAnLW1hJywgJzIwMCcsICctbWV0YWxfYmluZGluZycsICctaW1hZScsICc8aW5maWxlLm1hZT4nLCAnLW9tYWUnLCAnPG91dGZpbGUubWFlPic=

> <r_lp_tautomer_probability>
1

> <r_epik_Ionization_Penalty>
1.68882e-06

> <r_epik_Ionization_Penalty_Charging>
3.67303e-09

> <r_epik_Ionization_Penalty_Neutral>
1.68515e-06

> <r_epik_State_Penalty>
-0

> <r_epik_Charging_Adjusted_Penalty>
3.67303e-09

> <i_epik_Tot_Q>
0

> <i_epik_Tot_abs_Q>
0

> <r_epik_Metal_State_Penalty>
-0

> <b_epik_Metal_Only>
0

> <s_epik_Chemistry_Notes>
This compound contains an acetal/aminal-like group ( X-CH(R)-Y where X, Y are N, S, or O) that may be acid/base labile, releasing an aldehyde.

> <s_lp_Force_Field>
OPLS_2005

> <r_lp_Energy>
51.7973

> <b_lp_Chiralities_Consistent>
1

> <s_lp_Variant>
AV-unprocessed.smi:119-4

> <Gold.Version>
5.8.1

> <Gold.Id.Protein>
6NUR|6NUR_protein|mol2

> <Gold.PLP.Fitness>
48.9042

> <Gold.PLP.PLP>
-49.1424

> <Gold.PLP.part.hbond>
-1.0091

> <Gold.PLP.part.metal>
0.0000

> <Gold.PLP.part.buried>
-3.7718

> <Gold.PLP.part.nonpolar>
-44.4368

> <Gold.PLP.part.repulsive>
0.1449

> <Gold.PLP.ligand.clash>
0.0000

> <Gold.PLP.ligand.torsion>
0.1258

> <Gold.PLP.Chemscore.Hbond>
0.0000

> <Gold.PLP.Chemscore.CHOScore>
0.0000

> <Gold.PLP.Chemscore.Metal>
0.0000

> <Gold.PLP.Chemscore.Internal.Correction>
0.0135

> <Gold.Rescore>
     Score         DG    S(hbond)    S(metal)    S(lipo)     H(rot)  DE(clash)    DE(int)     intcor
      7.52     -14.33       0.21        0.00     103.14       1.53       0.45       6.36       ----

> <Gold.Chemscore.Fitness>
7.5198

> <Gold.Chemscore.DG>
-14.3288

> <Gold.Chemscore.ZeroCoef>
-5.4800

> <Gold.Chemscore.Hbond>
0.2066

> <Gold.Chemscore.Metal>
0.0000

> <Gold.Chemscore.Lipo>
103.1352

> <Gold.Chemscore.Internal_Hbond>
0.0000

> <Gold.Chemscore.DEClash>
0.4509

> <Gold.Chemscore.DEInternal>
6.3582

> <Gold.Chemscore.Rot>
1.5266

> <Gold.Chemscore.Internal.Correction>
   9.000000E+99

> <Gold.Chemscore.Hbond.Weighted>
-0.6900

> <Gold.Chemscore.Metal.Weighted>
-0.0000

> <Gold.Chemscore.Lipo.Weighted>
-12.0668

> <Gold.Chemscore.Internal_Hbond.Weighted>
0.0000

> <Gold.Chemscore.DEClash.Weighted>
0.4509

> <Gold.Chemscore.DEInternal.Weighted>
6.3582

> <Gold.Chemscore.Rot.Weighted>
3.9081

> <Gold.Chemscore.Internal.Correction.Weighted>
   9.000000E+99

> <Gold.Protein.RotatedTorsions>
[ 6907 6896 6895 6894 ] final -173.62 input  -60.11 | X-H torsion
[ 7974 7965 7964 7962 ] final -153.47 input  175.53 | X-H torsion
[ 8008 7997 7996 7995 ] final  137.07 input   59.86 | X-H torsion
[ 10167 10162 10161 10158 ] final   65.05 input  -65.29 | X-H torsion
[ 10718 10713 10712 10709 ] final  -15.13 input   66.30 | X-H torsion
[ 10763 10752 10751 10750 ] final  104.56 input  -60.55 | X-H torsion
[ 11005 11000 10999 10996 ] final  161.32 input  -57.11 | X-H torsion

> <Gold.Protein.ActiveResidues>
 VAL166  LYS551  ARG553  GLY616  TRP617  ASP618  TYR619  PRO620  LYS621  CYS622 
 ASP623  PHE694  ASN695  SER759  ASP760  ASP761  ALA762  ILE779  LEU786  VAL792 
 PHE793  MET794  SER795  GLU796  ALA797  LYS798  CYS799  TRP800  GLU811  SER814 

> <Gold.Protein.RotatedAtoms>
  151.5592  133.3406  159.2967 H   0  0  0  0  0  0  0  0  0  0  0  0  # atno 6907 bound_to 6896
  150.8433  134.7735  159.6961 H   0  0  0  0  0  0  0  0  0  0  0  0  # atno 6908 bound_to 6896
  152.4496  134.5429  159.9896 H   0  0  0  0  0  0  0  0  0  0  0  0  # atno 6909 bound_to 6896
  144.7739  140.4521  143.5887 H   0  0  0  0  0  0  0  0  0  0  0  0  # atno 7974 bound_to 7965
  156.3003  140.2429  156.3849 H   0  0  0  0  0  0  0  0  0  0  0  0  # atno 8008 bound_to 7997
  154.8667  140.0418  157.1719 H   0  0  0  0  0  0  0  0  0  0  0  0  # atno 8009 bound_to 7997
  154.8839  140.2953  155.5413 H   0  0  0  0  0  0  0  0  0  0  0  0  # atno 8010 bound_to 7997
  140.1155  144.4779  150.6952 H   0  0  0  0  0  0  0  0  0  0  0  0  # atno 10167 bound_to 10162
  156.6061  130.4837  149.6220 H   0  0  0  0  0  0  0  0  0  0  0  0  # atno 10718 bound_to 10713
  153.3676  135.3939  155.1764 H   0  0  0  0  0  0  0  0  0  0  0  0  # atno 10763 bound_to 10752
  154.8689  135.3694  154.5019 H   0  0  0  0  0  0  0  0  0  0  0  0  # atno 10764 bound_to 10752
  153.5484  135.7083  153.5663 H   0  0  0  0  0  0  0  0  0  0  0  0  # atno 10765 bound_to 10752
  140.2146  134.8241  157.3157 H   0  0  0  0  0  0  0  0  0  0  0  0  # atno 11005 bound_to 11000
  145.6243  139.1528  143.3005 LP  0  0  0  0  0  0  0  0  0  0  0  0  # atno 17320 bound_to 7965
  146.1905  140.6351  142.9148 LP  0  0  0  0  0  0  0  0  0  0  0  0  # atno 17321 bound_to 7965
  140.6902  143.2371  151.5153 LP  0  0  0  0  0  0  0  0  0  0  0  0  # atno 17342 bound_to 10162
  139.5596  144.2189  152.1670 LP  0  0  0  0  0  0  0  0  0  0  0  0  # atno 17343 bound_to 10162
  156.2429  130.6861  151.1572 LP  0  0  0  0  0  0  0  0  0  0  0  0  # atno 17370 bound_to 10713
  157.7267  131.0644  150.5899 LP  0  0  0  0  0  0  0  0  0  0  0  0  # atno 17371 bound_to 10713
  140.1914  134.4367  155.7714 LP  0  0  0  0  0  0  0  0  0  0  0  0  # atno 17394 bound_to 11000
  141.2225  133.7029  156.8033 LP  0  0  0  0  0  0  0  0  0  0  0  0  # atno 17395 bound_to 11000

$$$$
