AV-unprocessed.smi:2840|AV-procd|sdf|10932|dock9
  -GOLD-   2272015383D 1   1.00000     0.00000
 Structure written by MMmdl.
 36 37  0  0  0  0  0  0  0  0  1 V2000
  145.3833  143.4487  155.0727 C   0  0  0  0  0  0  0  0  0  0  0  0
  145.9241  142.0243  154.8615 C   0  0  1  0  0  0  0  0  0  0  0  0
  146.8076  141.9344  153.5999 C   0  0  0  0  0  0  0  0  0  0  0  0
  147.2941  140.4977  153.3526 C   0  0  0  0  0  0  0  0  0  0  0  0
  148.0361  139.9403  154.5763 C   0  0  0  0  0  0  0  0  0  0  0  0
  147.1659  140.0266  155.8424 C   0  0  0  0  0  0  0  0  0  0  0  0
  146.6572  141.4586  156.1054 C   0  0  1  0  0  0  0  0  0  0  0  0
  147.7742  142.3115  156.5185 N   0  0  0  0  0  0  0  0  0  0  0  0
  148.7104  142.0041  157.4288 C   0  0  0  0  0  0  0  0  0  0  0  0
  148.7235  140.9503  158.0657 O   0  0  0  0  0  0  0  0  0  0  0  0
  149.6142  142.9929  157.5439 N   0  0  0  0  0  0  0  0  0  0  0  0
  150.7677  143.0375  158.3718 C   0  0  0  0  0  0  0  0  0  0  0  0
  151.6201  144.1430  158.1511 C   0  0  0  0  0  0  0  0  0  0  0  0
  152.7952  144.2761  158.9161 C   0  0  0  0  0  0  0  0  0  0  0  0
  153.0871  143.2997  159.8849 C   0  0  0  0  0  0  0  0  0  0  0  0
  152.1843  142.2321  160.0434 C   0  0  0  0  0  0  0  0  0  0  0  0
  151.0582  142.1021  159.3106 N   0  0  0  0  0  0  0  0  0  0  0  0
  146.1889  144.1745  155.1839 H   0  0  0  0  0  0  0  0  0  0  0  0
  144.7596  143.5022  155.9655 H   0  0  0  0  0  0  0  0  0  0  0  0
  144.7726  143.7636  154.2262 H   0  0  0  0  0  0  0  0  0  0  0  0
  145.0557  141.3865  154.6896 H   0  0  0  0  0  0  0  0  0  0  0  0
  146.2495  142.2821  152.7298 H   0  0  0  0  0  0  0  0  0  0  0  0
  147.6667  142.5993  153.6980 H   0  0  0  0  0  0  0  0  0  0  0  0
  146.4411  139.8585  153.1210 H   0  0  0  0  0  0  0  0  0  0  0  0
  147.9462  140.4714  152.4793 H   0  0  0  0  0  0  0  0  0  0  0  0
  148.3233  138.9043  154.3946 H   0  0  0  0  0  0  0  0  0  0  0  0
  148.9638  140.4936  154.7252 H   0  0  0  0  0  0  0  0  0  0  0  0
  146.3108  139.3589  155.7302 H   0  0  0  0  0  0  0  0  0  0  0  0
  147.7238  139.6592  156.7048 H   0  0  0  0  0  0  0  0  0  0  0  0
  145.9355  141.3957  156.9216 H   0  0  0  0  0  0  0  0  0  0  0  0
  147.8457  143.2061  156.0565 H   0  0  0  0  0  0  0  0  0  0  0  0
  149.4714  143.8006  156.9561 H   0  0  0  0  0  0  0  0  0  0  0  0
  151.3808  144.8839  157.4020 H   0  0  0  0  0  0  0  0  0  0  0  0
  153.4607  145.1125  158.7609 H   0  0  0  0  0  0  0  0  0  0  0  0
  153.9785  143.3669  160.4907 H   0  0  0  0  0  0  0  0  0  0  0  0
  152.3712  141.4618  160.7769 H   0  0  0  0  0  0  0  0  0  0  0  0
  1  2  1  0  0  0  0
  1 18  1  0  0  0  0
  1 19  1  0  0  0  0
  1 20  1  0  0  0  0
  2  7  1  0  0  0  0
  2  3  1  0  0  0  0
  2 21  1  0  0  0  0
  3  4  1  0  0  0  0
  3 22  1  0  0  0  0
  3 23  1  0  0  0  0
  4  5  1  0  0  0  0
  4 24  1  0  0  0  0
  4 25  1  0  0  0  0
  5  6  1  0  0  0  0
  5 26  1  0  0  0  0
  5 27  1  0  0  0  0
  6  7  1  0  0  0  0
  6 28  1  0  0  0  0
  6 29  1  0  0  0  0
  7  8  1  0  0  0  0
  7 30  1  0  0  0  0
  8  9  1  0  0  0  0
  8 31  1  0  0  0  0
  9 10  2  0  0  0  0
  9 11  1  0  0  0  0
 11 12  1  0  0  0  0
 11 32  1  0  0  0  0
 12 17  1  0  0  0  0
 12 13  2  0  0  0  0
 13 14  1  0  0  0  0
 13 33  1  0  0  0  0
 14 15  2  0  0  0  0
 14 34  1  0  0  0  0
 15 16  1  0  0  0  0
 15 35  1  0  0  0  0
 16 17  2  0  0  0  0
 16 36  1  0  0  0  0
M  END
> <s_m_source_file>
AV-unprocessed.smi

> <i_m_source_file_index>
2840

> <i_lp_mmshare_version>
43012

> <i_f3d_flags>
0

> <s_epik_input>
W0NIM11bQ0BASF0xW0NIMl1bQ0gyXVtDSDJdW0NIMl1bQ0BIXTFbTkhdQyg9TylbTkhdYzJbY0hdW2NIXVtjSF1bY0hdbjI=

> <s_epik_cmdline>
J2VwaWtfcHl0aG9uJywgJy1waCcsICc3LjAnLCAnLXRuJywgJzgnLCAnLW1hJywgJzIwMCcsICctbWV0YWxfYmluZGluZycsICctaW1hZScsICc8aW5maWxlLm1hZT4nLCAnLW9tYWUnLCAnPG91dGZpbGUubWFlPic=

> <r_lp_tautomer_probability>
1

> <r_epik_Ionization_Penalty>
5.29956e-05

> <r_epik_Ionization_Penalty_Charging>
0

> <r_epik_Ionization_Penalty_Neutral>
5.29956e-05

> <r_epik_State_Penalty>
-0

> <r_epik_Charging_Adjusted_Penalty>
0

> <i_epik_Tot_Q>
0

> <i_epik_Tot_abs_Q>
0

> <r_epik_Metal_State_Penalty>
-0

> <b_epik_Metal_Only>
0

> <s_lp_Force_Field>
OPLS_2005

> <r_lp_Energy>
11.7155

> <b_lp_Chiralities_Consistent>
1

> <s_lp_Variant>
AV-unprocessed.smi:2840-2

> <Gold.Version>
5.8.1

> <Gold.Id.Protein>
6NUR|6NUR_protein|mol2

> <Gold.PLP.Fitness>
39.0592

> <Gold.PLP.PLP>
-33.3607

> <Gold.PLP.part.hbond>
-2.6345

> <Gold.PLP.part.metal>
0.0000

> <Gold.PLP.part.buried>
-4.3965

> <Gold.PLP.part.nonpolar>
-26.2428

> <Gold.PLP.part.repulsive>
0.0580

> <Gold.PLP.ligand.clash>
0.0000

> <Gold.PLP.ligand.torsion>
0.1422

> <Gold.PLP.Chemscore.Hbond>
1.9920

> <Gold.PLP.Chemscore.CHOScore>
0.0000

> <Gold.PLP.Chemscore.Metal>
0.0000

> <Gold.Chemscore.Hbonds>
donor molecule, donor type, donor heavy atom, donor atom, acceptor molecule, acceptor atom, score
      L1  H     8    31       P1  8028  0.99
      L1  H    11    32       P1  8028  1.00

> <Gold.PLP.Chemscore.Internal.Correction>
0.0069

> <Gold.Rescore>
     Score         DG    S(hbond)    S(metal)    S(lipo)     H(rot)  DE(clash)    DE(int)     intcor
     15.37     -17.60       1.60        0.00      79.80       1.00       0.10       2.12       ----

> <Gold.Chemscore.Fitness>
15.3727

> <Gold.Chemscore.DG>
-17.5956

> <Gold.Chemscore.ZeroCoef>
-5.4800

> <Gold.Chemscore.Hbond>
1.5986

> <Gold.Chemscore.Metal>
0.0000

> <Gold.Chemscore.Lipo>
79.7973

> <Gold.Chemscore.Internal_Hbond>
0.0000

> <Gold.Chemscore.DEClash>
0.1042

> <Gold.Chemscore.DEInternal>
2.1186

> <Gold.Chemscore.Rot>
1.0000

> <Gold.Chemscore.Internal.Correction>
   9.000000E+99

> <Gold.Chemscore.Hbonds>
donor molecule, donor type, donor heavy atom, donor atom, acceptor molecule, acceptor atom, score
      L1  H     8    31       P1  8028  0.24
      L1  H    11    32       P1  8028  0.85

> <Gold.Chemscore.Hbond.Weighted>
-5.3393

> <Gold.Chemscore.Metal.Weighted>
-0.0000

> <Gold.Chemscore.Lipo.Weighted>
-9.3363

> <Gold.Chemscore.Internal_Hbond.Weighted>
0.0000

> <Gold.Chemscore.DEClash.Weighted>
0.1042

> <Gold.Chemscore.DEInternal.Weighted>
2.1186

> <Gold.Chemscore.Rot.Weighted>
2.5600

> <Gold.Chemscore.Internal.Correction.Weighted>
   9.000000E+99

> <Gold.Protein.RotatedTorsions>
[ 6907 6896 6895 6894 ] final    7.15 input  -60.11 | X-H torsion
[ 7974 7965 7964 7962 ] final -117.05 input  175.53 | X-H torsion
[ 8008 7997 7996 7995 ] final  107.47 input   59.86 | X-H torsion
[ 10167 10162 10161 10158 ] final  -57.14 input  -65.29 | X-H torsion
[ 10718 10713 10712 10709 ] final  168.14 input   66.30 | X-H torsion
[ 10763 10752 10751 10750 ] final -142.21 input  -60.55 | X-H torsion
[ 11005 11000 10999 10996 ] final  -10.56 input  -57.11 | X-H torsion

> <Gold.Protein.ActiveResidues>
 VAL166  LYS551  ARG553  GLY616  TRP617  ASP618  TYR619  PRO620  LYS621  CYS622 
 ASP623  PHE694  ASN695  SER759  ASP760  ASP761  ALA762  ILE779  LEU786  VAL792 
 PHE793  MET794  SER795  GLU796  ALA797  LYS798  CYS799  TRP800  GLU811  SER814 

> <Gold.Protein.RotatedAtoms>
  151.6853  135.0955  160.0223 H   0  0  0  0  0  0  0  0  0  0  0  0  # atno 6907 bound_to 6896
  152.3811  133.6543  159.6170 H   0  0  0  0  0  0  0  0  0  0  0  0  # atno 6908 bound_to 6896
  150.7748  133.9028  159.3388 H   0  0  0  0  0  0  0  0  0  0  0  0  # atno 6909 bound_to 6896
  145.0896  140.8481  143.3990 H   0  0  0  0  0  0  0  0  0  0  0  0  # atno 7974 bound_to 7965
  156.1826  140.3094  155.9178 H   0  0  0  0  0  0  0  0  0  0  0  0  # atno 8008 bound_to 7997
  155.3350  140.0463  157.3060 H   0  0  0  0  0  0  0  0  0  0  0  0  # atno 8009 bound_to 7997
  154.5360  140.2246  155.8732 H   0  0  0  0  0  0  0  0  0  0  0  0  # atno 8010 bound_to 7997
  140.6275  143.2445  151.5325 H   0  0  0  0  0  0  0  0  0  0  0  0  # atno 10167 bound_to 10162
  157.0415  131.0288  151.2712 H   0  0  0  0  0  0  0  0  0  0  0  0  # atno 10718 bound_to 10713
  154.8517  135.3502  154.5992 H   0  0  0  0  0  0  0  0  0  0  0  0  # atno 10763 bound_to 10752
  153.6600  135.6990  153.5185 H   0  0  0  0  0  0  0  0  0  0  0  0  # atno 10764 bound_to 10752
  153.2825  135.4259  155.1049 H   0  0  0  0  0  0  0  0  0  0  0  0  # atno 10765 bound_to 10752
  140.7460  133.8631  155.9006 H   0  0  0  0  0  0  0  0  0  0  0  0  # atno 11005 bound_to 11000
  145.1081  139.2776  143.5651 LP  0  0  0  0  0  0  0  0  0  0  0  0  # atno 17320 bound_to 7965
  146.3531  140.0668  142.8626 LP  0  0  0  0  0  0  0  0  0  0  0  0  # atno 17321 bound_to 7965
  139.5494  144.2436  152.1502 LP  0  0  0  0  0  0  0  0  0  0  0  0  # atno 17342 bound_to 10162
  140.1671  144.4971  150.6600 LP  0  0  0  0  0  0  0  0  0  0  0  0  # atno 17343 bound_to 10162
  157.5101  130.7933  149.7696 LP  0  0  0  0  0  0  0  0  0  0  0  0  # atno 17370 bound_to 10713
  156.0036  130.3867  150.2511 LP  0  0  0  0  0  0  0  0  0  0  0  0  # atno 17371 bound_to 10713
  140.9794  134.1426  157.4508 LP  0  0  0  0  0  0  0  0  0  0  0  0  # atno 17394 bound_to 11000
  139.8796  135.0005  156.6015 LP  0  0  0  0  0  0  0  0  0  0  0  0  # atno 17395 bound_to 11000

$$$$
