#       Name:                AV-unprocessed.smi:3284
#       Creating user name   scv26
#       Creation time:       Fri Mar 27 18:49:55 2020


#       File generated by GOLD software.
#

@<TRIPOS>MOLECULE
AV-unprocessed.smi:3284
    45    46     1
SMALL
NO_CHARGES


@<TRIPOS>ATOM
      1 ****         0.2654   2.0592  -1.5178 C.3            1 S1                 0.0000
      2 ****        -1.1624   1.5394  -1.4972 C.2            1 S1                 0.0000
      3 ****        -1.9891   1.7547  -2.5396 C.2            1 S1                 0.0000
      4 ****        -3.4434   1.3213  -2.5967 C.3            1 S1                 0.0000
      5 ****        -3.8582   0.4364  -1.4096 C.3            1 S1                 0.0000
      6 ****        -3.1742   0.8843  -0.1062 C.3            1 S1                 0.0000
      7 ****        -3.7504   0.1659   1.1261 C.3            1 S1                 0.0000
      8 ****        -1.6265   0.8038  -0.2329 C.3            1 S1                 0.0000
      9 ****        -1.0879  -0.6497  -0.1699 C.3            1 S1                 0.0000
     10 ****         0.3838  -0.7128  -0.0762 N.4            1 S1                 1.0000
     11 ****         0.9291  -2.0853  -0.0503 C.3            1 S1                 0.0000
     12 ****         2.4645  -2.0929   0.0240 C.3            1 S1                 0.0000
     13 ****         3.0150  -1.5033   1.2896 C.2            1 S1                 0.0000
     14 ****         3.0438  -2.1192   2.4780 N.pl3          1 S1                 1.0000
     15 ****         3.6073  -1.3072   3.4243 C.2            1 S1                 0.0000
     16 ****         3.9352  -0.1399   2.7864 C.2            1 S1                 0.0000
     17 ****         3.5595  -0.2882   1.4758 N.pl3          1 S1                 0.0000
     18 ****         3.7160   0.7059   0.4121 C.3            1 S1                 0.0000
     19 ****         0.5090   2.5540  -0.5775 H              1 S1                 0.0000
     20 ****         0.4044   2.7860  -2.3190 H              1 S1                 0.0000
     21 ****         0.9777   1.2536  -1.6870 H              1 S1                 0.0000
     22 ****        -1.6304   2.2972  -3.4023 H              1 S1                 0.0000
     23 ****        -4.0521   2.2260  -2.6097 H              1 S1                 0.0000
     24 ****        -3.6322   0.8019  -3.5365 H              1 S1                 0.0000
     25 ****        -4.9431   0.4654  -1.3016 H              1 S1                 0.0000
     26 ****        -3.6053  -0.6028  -1.6207 H              1 S1                 0.0000
     27 ****        -3.4202   1.9391   0.0298 H              1 S1                 0.0000
     28 ****        -3.6977  -0.9185   1.0302 H              1 S1                 0.0000
     29 ****        -4.8009   0.4231   1.2648 H              1 S1                 0.0000
     30 ****        -3.2213   0.4541   2.0350 H              1 S1                 0.0000
     31 ****        -1.2195   1.3469   0.6214 H              1 S1                 0.0000
     32 ****        -1.4818  -1.1699   0.7021 H              1 S1                 0.0000
     33 ****        -1.4114  -1.2093  -1.0480 H              1 S1                 0.0000
     34 ****         0.7692  -0.2289  -0.8749 H              1 S1                 0.0000
     35 ****         0.5096  -2.6295   0.7969 H              1 S1                 0.0000
     36 ****         0.6094  -2.6060  -0.9536 H              1 S1                 0.0000
     37 ****         2.8356  -3.1173  -0.0240 H              1 S1                 0.0000
     38 ****         2.9000  -1.5615  -0.8220 H              1 S1                 0.0000
     39 ****         3.7306  -1.6130   4.4533 H              1 S1                 0.0000
     40 ****         4.3991   0.7620   3.1600 H              1 S1                 0.0000
     41 ****         4.2061   1.5940   0.8126 H              1 S1                 0.0000
     42 ****         2.7350   0.9810   0.0264 H              1 S1                 0.0000
     43 ****         4.3290   0.2898  -0.3879 H              1 S1                 0.0000
     44 ****         0.6697  -0.2306   0.7638 H              1 S1                 0.0000
     45 ****         2.7048  -3.0576   2.6504 H              1 S1                 0.0000
@<TRIPOS>BOND
    1    1    2 1     
    2    1   19 1     
    3    1   20 1     
    4    1   21 1     
    5    2    8 1     
    6    2    3 2     
    7    3    4 1     
    8    3   22 1     
    9    4    5 1     
   10    4   23 1     
   11    4   24 1     
   12    5    6 1     
   13    5   25 1     
   14    5   26 1     
   15    6    7 1     
   16    6    8 1     
   17    6   27 1     
   18    7   28 1     
   19    7   29 1     
   20    7   30 1     
   21    8    9 1     
   22    8   31 1     
   23    9   10 1     
   24    9   32 1     
   25    9   33 1     
   26   10   11 1     
   27   10   34 1     
   28   10   44 1     
   29   11   12 1     
   30   11   35 1     
   31   11   36 1     
   32   12   13 1     
   33   12   37 1     
   34   12   38 1     
   35   13   17 1     
   36   13   14 2     
   37   14   15 1     
   38   14   45 1     
   39   15   16 2     
   40   15   39 1     
   41   16   17 1     
   42   16   40 1     
   43   17   18 1     
   44   18   41 1     
   45   18   42 1     
   46   18   43 1     
@<TRIPOS>SUBSTRUCTURE
      1 S1             1
@<TRIPOS>SET
DONOR_HYDROGENS      STATIC     ATOMS    <user>   **** ""
3 34 44 45
ATOM$RED        STATIC     ATOMS    COLORGROUP SYSTEM
3 34 44 45
