AV-unprocessed.smi:974|AV-procd|sdf|4300|dock3
  -GOLD-   22720 2203D 1   1.00000     0.00000
 Structure written by MMmdl.
 31 32  0  0  0  0  0  0  0  0  1 V2000
  151.1334  136.0574  155.3645 N   0  0  0  0  0  0  0  0  0  0  0  0
  150.9538  137.4486  155.2493 C   0  0  0  0  0  0  0  0  0  0  0  0
  150.8515  138.2543  154.0805 C   0  0  0  0  0  0  0  0  0  0  0  0
  150.6855  139.5375  154.3589 N   0  0  0  0  0  0  0  0  0  0  0  0
  150.6762  139.5930  155.7092 N   0  0  0  0  0  0  0  0  0  0  0  0
  150.5059  140.8690  156.3801 C   0  0  0  0  0  0  0  0  0  0  0  0
  151.6788  141.1569  157.3175 C   0  0  0  0  0  0  0  0  0  0  0  0
  152.5874  140.3352  157.4369 O   0  0  0  0  0  0  0  0  0  0  0  0
  151.6457  142.3265  157.9746 N   0  0  0  0  0  0  0  0  0  0  0  0
  152.6552  142.7878  158.9235 C   0  0  0  0  0  0  0  0  0  0  0  0
  152.6617  141.9057  160.1871 C   0  0  0  0  0  0  0  0  0  0  0  0
  152.6481  142.8679  161.3765 C   0  0  0  0  0  0  0  0  0  0  0  0
  151.9078  144.0967  160.8585 C   0  0  0  0  0  0  0  0  0  0  0  0
  152.3681  144.2241  159.4063 C   0  0  0  0  0  0  0  0  0  0  0  0
  150.8359  138.3441  156.2734 C   0  0  0  0  0  0  0  0  0  0  0  0
  151.1908  135.5996  156.2629 H   0  0  0  0  0  0  0  0  0  0  0  0
  151.2020  135.4585  154.5542 H   0  0  0  0  0  0  0  0  0  0  0  0
  150.8927  137.9482  153.0456 H   0  0  0  0  0  0  0  0  0  0  0  0
  150.4313  141.6536  155.6260 H   0  0  0  0  0  0  0  0  0  0  0  0
  149.5674  140.8693  156.9372 H   0  0  0  0  0  0  0  0  0  0  0  0
  150.8566  142.9362  157.8155 H   0  0  0  0  0  0  0  0  0  0  0  0
  153.6391  142.7526  158.4518 H   0  0  0  0  0  0  0  0  0  0  0  0
  151.7664  141.2827  160.2266 H   0  0  0  0  0  0  0  0  0  0  0  0
  153.5206  141.2342  160.2164 H   0  0  0  0  0  0  0  0  0  0  0  0
  152.1792  142.4360  162.2612 H   0  0  0  0  0  0  0  0  0  0  0  0
  153.6706  143.1411  161.6409 H   0  0  0  0  0  0  0  0  0  0  0  0
  150.8322  143.9176  160.8889 H   0  0  0  0  0  0  0  0  0  0  0  0
  152.1146  144.9921  161.4452 H   0  0  0  0  0  0  0  0  0  0  0  0
  153.2921  144.8029  159.3723 H   0  0  0  0  0  0  0  0  0  0  0  0
  151.6382  144.7541  158.7928 H   0  0  0  0  0  0  0  0  0  0  0  0
  150.8507  138.2012  157.3442 H   0  0  0  0  0  0  0  0  0  0  0  0
  1  2  1  0  0  0  0
  1 16  1  0  0  0  0
  1 17  1  0  0  0  0
  2 15  2  0  0  0  0
  2  3  1  0  0  0  0
  3  4  2  0  0  0  0
  3 18  1  0  0  0  0
  4  5  1  0  0  0  0
  5  6  1  0  0  0  0
  5 15  1  0  0  0  0
  6  7  1  0  0  0  0
  6 19  1  0  0  0  0
  6 20  1  0  0  0  0
  7  8  2  0  0  0  0
  7  9  1  0  0  0  0
  9 10  1  0  0  0  0
  9 21  1  0  0  0  0
 10 14  1  0  0  0  0
 10 11  1  0  0  0  0
 10 22  1  0  0  0  0
 11 12  1  0  0  0  0
 11 23  1  0  0  0  0
 11 24  1  0  0  0  0
 12 13  1  0  0  0  0
 12 25  1  0  0  0  0
 12 26  1  0  0  0  0
 13 14  1  0  0  0  0
 13 27  1  0  0  0  0
 13 28  1  0  0  0  0
 14 29  1  0  0  0  0
 14 30  1  0  0  0  0
 15 31  1  0  0  0  0
M  END
> <s_m_source_file>
AV-unprocessed.smi

> <i_m_source_file_index>
974

> <i_lp_mmshare_version>
43012

> <i_f3d_flags>
0

> <s_epik_input>
W05IMl1jMVtjSF1ubihbY0hdMSlbQ0gyXUMoPU8pW05IXVtDSF0yW0NIMl1bQ0gyXVtDSDJdW0NIMl0y

> <s_epik_cmdline>
J2VwaWtfcHl0aG9uJywgJy1waCcsICc3LjAnLCAnLXRuJywgJzgnLCAnLW1hJywgJzIwMCcsICctbWV0YWxfYmluZGluZycsICctaW1hZScsICc8aW5maWxlLm1hZT4nLCAnLW9tYWUnLCAnPG91dGZpbGUubWFlPic=

> <r_lp_tautomer_probability>
1

> <r_epik_Ionization_Penalty>
0.000104856

> <r_epik_Ionization_Penalty_Charging>
0

> <r_epik_Ionization_Penalty_Neutral>
0.000104856

> <r_epik_State_Penalty>
-0

> <r_epik_Charging_Adjusted_Penalty>
0

> <i_epik_Tot_Q>
0

> <i_epik_Tot_abs_Q>
0

> <r_epik_Metal_State_Penalty>
-0

> <b_epik_Metal_Only>
0

> <s_lp_Force_Field>
OPLS_2005

> <r_lp_Energy>
19.843

> <b_lp_Chiralities_Consistent>
1

> <s_lp_Variant>
AV-unprocessed.smi:974-1

> <Gold.Version>
5.8.1

> <Gold.Id.Protein>
6NUR|6NUR_protein|mol2

> <Gold.PLP.Fitness>
41.1997

> <Gold.PLP.PLP>
-32.2315

> <Gold.PLP.part.hbond>
-2.0000

> <Gold.PLP.part.metal>
0.0000

> <Gold.PLP.part.buried>
-3.5064

> <Gold.PLP.part.nonpolar>
-26.2450

> <Gold.PLP.part.repulsive>
0.2852

> <Gold.PLP.ligand.clash>
0.0000

> <Gold.PLP.ligand.torsion>
0.0418

> <Gold.PLP.Chemscore.Hbond>
1.9516

> <Gold.PLP.Chemscore.CHOScore>
1.0647

> <Gold.PLP.Chemscore.Metal>
0.0000

> <Gold.Chemscore.Hbonds>
donor molecule, donor type, donor heavy atom, donor atom, acceptor molecule, acceptor atom, score
      P1  H  7989  7998       L1     4  1.00
      P1  H  7997  8009       L1     8  0.96
      L1  C     3    18       P1  7948  0.10
      L1  C     3    18       P1  7949  0.93

> <Gold.PLP.Chemscore.Internal.Correction>
0.0031

> <Gold.Rescore>
     Score         DG    S(hbond)    S(metal)    S(lipo)     H(rot)  DE(clash)    DE(int)     intcor
     16.36     -17.52       1.94        0.00      82.74       1.61       0.04       1.13       ----

> <Gold.Chemscore.Fitness>
16.3586

> <Gold.Chemscore.DG>
-17.5245

> <Gold.Chemscore.ZeroCoef>
-5.4800

> <Gold.Chemscore.Hbond>
1.9410

> <Gold.Chemscore.Metal>
0.0000

> <Gold.Chemscore.Lipo>
82.7372

> <Gold.Chemscore.Internal_Hbond>
0.0000

> <Gold.Chemscore.DEClash>
0.0376

> <Gold.Chemscore.DEInternal>
1.1283

> <Gold.Chemscore.Rot>
1.6089

> <Gold.Chemscore.Internal.Correction>
   9.000000E+99

> <Gold.Chemscore.Hbonds>
donor molecule, donor type, donor heavy atom, donor atom, acceptor molecule, acceptor atom, score
      P1  H  7989  7998       L1     4  0.93
      P1  H  7997  8009       L1     8  0.91

> <Gold.Chemscore.Hbond.Weighted>
-6.4831

> <Gold.Chemscore.Metal.Weighted>
-0.0000

> <Gold.Chemscore.Lipo.Weighted>
-9.6802

> <Gold.Chemscore.Internal_Hbond.Weighted>
0.0000

> <Gold.Chemscore.DEClash.Weighted>
0.0376

> <Gold.Chemscore.DEInternal.Weighted>
1.1283

> <Gold.Chemscore.Rot.Weighted>
4.1188

> <Gold.Chemscore.Internal.Correction.Weighted>
   9.000000E+99

> <Gold.Protein.RotatedTorsions>
[ 6907 6896 6895 6894 ] final  -20.40 input  -60.11 | X-H torsion
[ 7974 7965 7964 7962 ] final  -71.87 input  175.53 | X-H torsion
[ 8008 7997 7996 7995 ] final  175.02 input   59.86 | X-H torsion
[ 10167 10162 10161 10158 ] final    4.48 input  -65.29 | X-H torsion
[ 10718 10713 10712 10709 ] final  -86.94 input   66.30 | X-H torsion
[ 10763 10752 10751 10750 ] final   27.60 input  -60.55 | X-H torsion
[ 11005 11000 10999 10996 ] final   77.46 input  -57.11 | X-H torsion

> <Gold.Protein.ActiveResidues>
 VAL166  LYS551  ARG553  GLY616  TRP617  ASP618  TYR619  PRO620  LYS621  CYS622 
 ASP623  PHE694  ASN695  SER759  ASP760  ASP761  ALA762  ILE779  LEU786  VAL792 
 PHE793  MET794  SER795  GLU796  ALA797  LYS798  CYS799  TRP800  GLU811  SER814 

> <Gold.Protein.RotatedAtoms>
  151.2487  135.0614  159.9053 H   0  0  0  0  0  0  0  0  0  0  0  0  # atno 6907 bound_to 6896
  152.5383  134.0356  159.8054 H   0  0  0  0  0  0  0  0  0  0  0  0  # atno 6908 bound_to 6896
  151.0560  133.5534  159.2669 H   0  0  0  0  0  0  0  0  0  0  0  0  # atno 6909 bound_to 6896
  145.6725  140.9216  143.0875 H   0  0  0  0  0  0  0  0  0  0  0  0  # atno 7974 bound_to 7965
  156.0914  140.1419  156.9587 H   0  0  0  0  0  0  0  0  0  0  0  0  # atno 8008 bound_to 7997
  154.4644  140.0931  156.7027 H   0  0  0  0  0  0  0  0  0  0  0  0  # atno 8009 bound_to 7997
  155.4914  140.3448  155.4358 H   0  0  0  0  0  0  0  0  0  0  0  0  # atno 8010 bound_to 7997
  140.6533  143.7491  150.7610 H   0  0  0  0  0  0  0  0  0  0  0  0  # atno 10167 bound_to 10162
  155.9987  130.4782  150.4791 H   0  0  0  0  0  0  0  0  0  0  0  0  # atno 10718 bound_to 10713
  153.0545  135.6533  154.0610 H   0  0  0  0  0  0  0  0  0  0  0  0  # atno 10763 bound_to 10752
  154.0291  135.2913  155.3372 H   0  0  0  0  0  0  0  0  0  0  0  0  # atno 10764 bound_to 10752
  154.6853  135.5304  153.8385 H   0  0  0  0  0  0  0  0  0  0  0  0  # atno 10765 bound_to 10752
  139.9253  134.7685  156.1525 H   0  0  0  0  0  0  0  0  0  0  0  0  # atno 11005 bound_to 11000
  144.7052  139.8591  143.7432 LP  0  0  0  0  0  0  0  0  0  0  0  0  # atno 17320 bound_to 7965
  146.1033  139.4030  143.0333 LP  0  0  0  0  0  0  0  0  0  0  0  0  # atno 17321 bound_to 7965
  140.1146  143.4667  152.2350 LP  0  0  0  0  0  0  0  0  0  0  0  0  # atno 17342 bound_to 10162
  139.5751  144.7483  151.3787 LP  0  0  0  0  0  0  0  0  0  0  0  0  # atno 17343 bound_to 10162
  157.2798  131.0604  151.2205 LP  0  0  0  0  0  0  0  0  0  0  0  0  # atno 17370 bound_to 10713
  157.3255  130.6959  149.6294 LP  0  0  0  0  0  0  0  0  0  0  0  0  # atno 17371 bound_to 10713
  141.0806  133.6756  156.2329 LP  0  0  0  0  0  0  0  0  0  0  0  0  # atno 17394 bound_to 11000
  140.6353  134.5222  157.5564 LP  0  0  0  0  0  0  0  0  0  0  0  0  # atno 17395 bound_to 11000

$$$$
