AV-unprocessed.smi:1691|AV-procd|sdf|6777|dock2
  -GOLD-   22720 7533D 1   1.00000     0.00000
 Structure written by MMmdl.
 43 44  0  0  0  0  0  0  0  0  1 V2000
  149.0755  141.5222  154.3703 C   0  0  0  0  0  0  0  0  0  0  0  0
  148.3148  140.5554  155.2994 C   0  0  0  0  0  0  0  0  0  0  0  0
  149.0037  140.4474  156.6706 C   0  0  0  0  0  0  0  0  0  0  0  0
  147.9438  139.1575  154.7090 C   0  0  1  0  0  0  0  0  0  0  0  0
  147.1372  139.2307  153.3810 C   0  0  0  0  0  0  0  0  0  0  0  0
  147.1117  137.9613  152.6610 N   0  0  0  0  0  0  0  0  0  0  0  0
  145.9999  137.3169  152.2802 C   0  0  0  0  0  0  0  0  0  0  0  0
  144.8623  137.7295  152.5080 O   0  0  0  0  0  0  0  0  0  0  0  0
  146.2936  136.1817  151.6254 N   0  0  0  0  0  0  0  0  0  0  0  0
  145.3826  135.2501  151.0662 C   0  0  0  0  0  0  0  0  0  0  0  0
  145.6511  133.8667  150.8813 C   0  0  0  0  0  0  0  0  0  0  0  0
  144.6169  133.2419  150.3366 N   0  0  0  0  0  0  0  0  0  0  0  0
  143.6909  134.2133  150.1717 N   0  0  0  0  0  0  0  0  0  0  0  0
  144.1130  135.4519  150.6019 C   0  0  0  0  0  0  0  0  0  0  0  0
  149.0400  138.1687  154.7109 N   0  0  0  0  0  0  0  0  0  0  0  0
  149.1390  137.3391  155.9111 C   0  0  0  0  0  0  0  0  0  0  0  0
  150.2486  136.2810  155.7805 C   0  0  0  0  0  0  0  0  0  0  0  0
  151.4895  136.9166  155.4917 O   0  0  0  0  0  0  0  0  0  0  0  0
  151.4429  137.6942  154.3000 C   0  0  0  0  0  0  0  0  0  0  0  0
  150.3449  138.7634  154.4273 C   0  0  0  0  0  0  0  0  0  0  0  0
  142.7852  134.0174  149.7694 H   0  0  0  0  0  0  0  0  0  0  0  0
  150.1187  141.2445  154.2391 H   0  0  0  0  0  0  0  0  0  0  0  0
  149.0780  142.5257  154.7965 H   0  0  0  0  0  0  0  0  0  0  0  0
  148.6152  141.6013  153.3865 H   0  0  0  0  0  0  0  0  0  0  0  0
  147.3635  141.0496  155.4997 H   0  0  0  0  0  0  0  0  0  0  0  0
  150.0031  140.0195  156.5843 H   0  0  0  0  0  0  0  0  0  0  0  0
  148.4291  139.8188  157.3514 H   0  0  0  0  0  0  0  0  0  0  0  0
  149.1055  141.4278  157.1366 H   0  0  0  0  0  0  0  0  0  0  0  0
  147.2291  138.7791  155.4412 H   0  0  0  0  0  0  0  0  0  0  0  0
  146.1046  139.5212  153.5716 H   0  0  0  0  0  0  0  0  0  0  0  0
  147.5414  139.9949  152.7169 H   0  0  0  0  0  0  0  0  0  0  0  0
  148.0047  137.5501  152.4315 H   0  0  0  0  0  0  0  0  0  0  0  0
  147.2721  135.9616  151.5115 H   0  0  0  0  0  0  0  0  0  0  0  0
  146.5433  133.3068  151.1196 H   0  0  0  0  0  0  0  0  0  0  0  0
  143.4882  136.3302  150.5377 H   0  0  0  0  0  0  0  0  0  0  0  0
  149.3469  137.9611  156.7821 H   0  0  0  0  0  0  0  0  0  0  0  0
  148.2030  136.8264  156.1061 H   0  0  0  0  0  0  0  0  0  0  0  0
  150.3447  135.7166  156.7081 H   0  0  0  0  0  0  0  0  0  0  0  0
  150.0075  135.5648  154.9934 H   0  0  0  0  0  0  0  0  0  0  0  0
  152.4136  138.1645  154.1424 H   0  0  0  0  0  0  0  0  0  0  0  0
  151.2555  137.0476  153.4413 H   0  0  0  0  0  0  0  0  0  0  0  0
  150.2998  139.3399  153.5028 H   0  0  0  0  0  0  0  0  0  0  0  0
  150.6250  139.4594  155.2179 H   0  0  0  0  0  0  0  0  0  0  0  0
  1  2  1  0  0  0  0
  1 22  1  0  0  0  0
  1 23  1  0  0  0  0
  1 24  1  0  0  0  0
  2  3  1  0  0  0  0
  2  4  1  0  0  0  0
  2 25  1  0  0  0  0
  3 26  1  0  0  0  0
  3 27  1  0  0  0  0
  3 28  1  0  0  0  0
  4  5  1  0  0  0  0
  4 15  1  0  0  0  0
  4 29  1  0  0  0  0
  5  6  1  0  0  0  0
  5 30  1  0  0  0  0
  5 31  1  0  0  0  0
  6  7  1  0  0  0  0
  6 32  1  0  0  0  0
  7  8  2  0  0  0  0
  7  9  1  0  0  0  0
  9 10  1  0  0  0  0
  9 33  1  0  0  0  0
 10 14  2  0  0  0  0
 10 11  1  0  0  0  0
 11 12  2  0  0  0  0
 11 34  1  0  0  0  0
 12 13  1  0  0  0  0
 13 21  1  0  0  0  0
 13 14  1  0  0  0  0
 14 35  1  0  0  0  0
 15 20  1  0  0  0  0
 15 16  1  0  0  0  0
 16 17  1  0  0  0  0
 16 36  1  0  0  0  0
 16 37  1  0  0  0  0
 17 18  1  0  0  0  0
 17 38  1  0  0  0  0
 17 39  1  0  0  0  0
 18 19  1  0  0  0  0
 19 20  1  0  0  0  0
 19 40  1  0  0  0  0
 19 41  1  0  0  0  0
 20 42  1  0  0  0  0
 20 43  1  0  0  0  0
M  END
> <s_m_source_file>
AV-unprocessed.smi

> <i_m_source_file_index>
1691

> <i_lp_mmshare_version>
43012

> <i_f3d_flags>
0

> <s_epik_input>
W0NIMl0xW0NIMl1PW0NIMl1bQ0gyXU4xW0NASF0oW0NIXShbQ0gzXSlbQ0gzXSlbQ0gyXVtOSF1DKD1PKVtOSF1jMltjSF1uW25IXVtjSF0y

> <s_epik_cmdline>
J2VwaWtfcHl0aG9uJywgJy1waCcsICc3LjAnLCAnLXRuJywgJzgnLCAnLW1hJywgJzIwMCcsICctbWV0YWxfYmluZGluZycsICctaW1hZScsICc8aW5maWxlLm1hZT4nLCAnLW9tYWUnLCAnPG91dGZpbGUubWFlPic=

> <r_lp_tautomer_probability>
0.5

> <r_epik_Ionization_Penalty>
0.462189

> <r_epik_Ionization_Penalty_Charging>
0

> <r_epik_Ionization_Penalty_Neutral>
0.462189

> <r_epik_State_Penalty>
0.465733

> <r_epik_Charging_Adjusted_Penalty>
0.465733

> <i_epik_Tot_Q>
0

> <i_epik_Tot_abs_Q>
0

> <r_epik_Metal_State_Penalty>
0.465732

> <b_epik_Metal_Only>
0

> <s_lp_Force_Field>
OPLS_2005

> <r_lp_Energy>
41.1245

> <b_lp_Chiralities_Consistent>
1

> <s_lp_Variant>
AV-unprocessed.smi:1691-4

> <Gold.Version>
5.8.1

> <Gold.Id.Protein>
6NUR|6NUR_protein|mol2

> <Gold.PLP.Fitness>
41.3947

> <Gold.PLP.PLP>
-28.7619

> <Gold.PLP.part.hbond>
-4.0000

> <Gold.PLP.part.metal>
0.0000

> <Gold.PLP.part.buried>
-4.6385

> <Gold.PLP.part.nonpolar>
-21.9965

> <Gold.PLP.part.repulsive>
1.2127

> <Gold.PLP.ligand.clash>
0.0000

> <Gold.PLP.ligand.torsion>
1.4449

> <Gold.PLP.Chemscore.Hbond>
3.9760

> <Gold.PLP.Chemscore.CHOScore>
1.0000

> <Gold.PLP.Chemscore.Metal>
0.0000

> <Gold.Chemscore.Hbonds>
donor molecule, donor type, donor heavy atom, donor atom, acceptor molecule, acceptor atom, score
      L1  H     6    32       P1  7948  1.00
      L1  H     9    33       P1  7948  1.00
      L1  H    13    21       P1 10186  1.00
      P1  H 10752 10764       L1    18  0.50
      L1  C    14    35       P1 10171  1.00

> <Gold.PLP.Chemscore.Internal.Correction>
0.5947

> <Gold.Rescore>
     Score         DG    S(hbond)    S(metal)    S(lipo)     H(rot)  DE(clash)    DE(int)     intcor
     17.45     -19.20       3.28        0.00      62.80       1.79       0.24       1.51       ----

> <Gold.Chemscore.Fitness>
17.4482

> <Gold.Chemscore.DG>
-19.1996

> <Gold.Chemscore.ZeroCoef>
-5.4800

> <Gold.Chemscore.Hbond>
3.2792

> <Gold.Chemscore.Metal>
0.0000

> <Gold.Chemscore.Lipo>
62.7991

> <Gold.Chemscore.Internal_Hbond>
0.0000

> <Gold.Chemscore.DEClash>
0.2425

> <Gold.Chemscore.DEInternal>
1.5089

> <Gold.Chemscore.Rot>
1.7893

> <Gold.Chemscore.Internal.Correction>
   9.000000E+99

> <Gold.Chemscore.Hbonds>
donor molecule, donor type, donor heavy atom, donor atom, acceptor molecule, acceptor atom, score
      L1  H     6    32       P1  7948  0.96
      L1  H     9    33       P1  7948  0.97
      L1  H    13    21       P1 10186  0.95
      P1  H 10752 10764       L1    18  0.04

> <Gold.Chemscore.Hbond.Weighted>
-10.9526

> <Gold.Chemscore.Metal.Weighted>
-0.0000

> <Gold.Chemscore.Lipo.Weighted>
-7.3475

> <Gold.Chemscore.Internal_Hbond.Weighted>
0.0000

> <Gold.Chemscore.DEClash.Weighted>
0.2425

> <Gold.Chemscore.DEInternal.Weighted>
1.5089

> <Gold.Chemscore.Rot.Weighted>
4.5805

> <Gold.Chemscore.Internal.Correction.Weighted>
   9.000000E+99

> <Gold.Protein.RotatedTorsions>
[ 6907 6896 6895 6894 ] final  109.07 input  -60.11 | X-H torsion
[ 7974 7965 7964 7962 ] final   81.67 input  175.53 | X-H torsion
[ 8008 7997 7996 7995 ] final  -36.67 input   59.86 | X-H torsion
[ 10167 10162 10161 10158 ] final   63.76 input  -65.29 | X-H torsion
[ 10718 10713 10712 10709 ] final   34.24 input   66.30 | X-H torsion
[ 10763 10752 10751 10750 ] final  -51.13 input  -60.55 | X-H torsion
[ 11005 11000 10999 10996 ] final   41.73 input  -57.11 | X-H torsion

> <Gold.Protein.ActiveResidues>
 VAL166  LYS551  ARG553  GLY616  TRP617  ASP618  TYR619  PRO620  LYS621  CYS622 
 ASP623  PHE694  ASN695  SER759  ASP760  ASP761  ALA762  ILE779  LEU786  VAL792 
 PHE793  MET794  SER795  GLU796  ALA797  LYS798  CYS799  TRP800  GLU811  SER814 

> <Gold.Protein.RotatedAtoms>
  152.5084  133.8997  159.7434 H   0  0  0  0  0  0  0  0  0  0  0  0  # atno 6907 bound_to 6896
  150.9416  133.6642  159.2796 H   0  0  0  0  0  0  0  0  0  0  0  0  # atno 6908 bound_to 6896
  151.3952  135.0967  159.9591 H   0  0  0  0  0  0  0  0  0  0  0  0  # atno 6909 bound_to 6896
  145.6351  139.2413  143.2062 H   0  0  0  0  0  0  0  0  0  0  0  0  # atno 7974 bound_to 7965
  154.4068  140.1624  156.2411 H   0  0  0  0  0  0  0  0  0  0  0  0  # atno 8008 bound_to 7997
  155.9200  140.3422  155.6143 H   0  0  0  0  0  0  0  0  0  0  0  0  # atno 8009 bound_to 7997
  155.7233  140.0771  157.2311 H   0  0  0  0  0  0  0  0  0  0  0  0  # atno 8010 bound_to 7997
  140.1295  144.4656  150.6873 H   0  0  0  0  0  0  0  0  0  0  0  0  # atno 10167 bound_to 10162
  157.3079  130.7384  149.6707 H   0  0  0  0  0  0  0  0  0  0  0  0  # atno 10718 bound_to 10713
  154.1216  135.6534  153.4904 H   0  0  0  0  0  0  0  0  0  0  0  0  # atno 10763 bound_to 10752
  153.0223  135.5271  154.7091 H   0  0  0  0  0  0  0  0  0  0  0  0  # atno 10764 bound_to 10752
  154.6300  135.2975  155.0197 H   0  0  0  0  0  0  0  0  0  0  0  0  # atno 10765 bound_to 10752
  140.1806  134.4108  155.8202 H   0  0  0  0  0  0  0  0  0  0  0  0  # atno 11005 bound_to 11000
  146.1325  140.7166  142.9405 LP  0  0  0  0  0  0  0  0  0  0  0  0  # atno 17320 bound_to 7965
  144.7178  140.4271  143.7031 LP  0  0  0  0  0  0  0  0  0  0  0  0  # atno 17321 bound_to 7965
  140.6825  143.2333  151.5347 LP  0  0  0  0  0  0  0  0  0  0  0  0  # atno 17342 bound_to 10162
  139.5527  144.2355  152.1558 LP  0  0  0  0  0  0  0  0  0  0  0  0  # atno 17343 bound_to 10162
  155.9676  130.4260  150.4679 LP  0  0  0  0  0  0  0  0  0  0  0  0  # atno 17370 bound_to 10713
  157.2672  131.0579  151.2283 LP  0  0  0  0  0  0  0  0  0  0  0  0  # atno 17371 bound_to 10713
  141.2223  133.6999  156.7924 LP  0  0  0  0  0  0  0  0  0  0  0  0  # atno 17394 bound_to 11000
  140.2271  134.8713  157.3438 LP  0  0  0  0  0  0  0  0  0  0  0  0  # atno 17395 bound_to 11000

$$$$
