#       Name:                AV-unprocessed.smi:45
#       Creating user name   scv26
#       Creation time:       Thu Mar 26 16:27:37 2020


#       File generated by GOLD software.
#

@<TRIPOS>MOLECULE
AV-unprocessed.smi:45
    70    73     1
SMALL
NO_CHARGES


@<TRIPOS>ATOM
      1 ****        -7.9160  -0.2101   1.4594 C.3            1 S1                 0.0000
      2 ****        -7.2832  -0.6557   0.2686 O.3            1 S1                 0.0000
      3 ****        -5.9087  -0.7751   0.2648 C.ar           1 S1                 0.0000
      4 ****        -5.0877  -0.4792   1.3828 C.ar           1 S1                 0.0000
      5 ****        -3.6892  -0.6234   1.3022 C.ar           1 S1                 0.0000
      6 ****        -3.0872  -1.0642   0.1071 C.ar           1 S1                 0.0000
      7 ****        -1.5810  -1.2135   0.0198 C.3            1 S1                 0.0000
      8 ****        -0.8723   0.0391   0.2374 N.pl3          1 S1                 0.0000
      9 ****         0.5287   0.1091   0.1770 C.ar           1 S1                 0.0000
     10 ****         1.1218   1.3101   0.4096 N.pl3          1 S1                 1.0000
     11 ****         2.4585   1.4391   0.3824 C.ar           1 S1                 0.0000
     12 ****         3.0298   2.6881   0.6209 N.pl3          1 S1                 0.0000
     13 ****         4.3226   3.0545   0.0516 C.3            1 S1                 0.0000
     14 ****         4.2661   4.5622  -0.1893 C.3            1 S1                 0.0000
     15 ****         3.2887   5.0424   0.8756 C.3            1 S1                 0.0000
     16 ****         2.2764   3.8921   0.9755 C.3            1 S1                 0.0000
     17 ****         1.6095   3.8098   2.3651 C.3            1 S1                 0.0000
     18 ****         0.8098   4.9523   2.5808 O.3            1 S1                 0.0000
     19 ****         3.2651   0.4025   0.1205 N.ar           1 S1                 0.0000
     20 ****         2.7281  -0.8085  -0.1181 C.ar           1 S1                 0.0000
     21 ****         1.3365  -1.0247  -0.0972 C.ar           1 S1                 0.0000
     22 ****         0.7711  -2.3857  -0.4012 C.2            1 S1                 0.0000
     23 ****        -0.2245  -2.5192  -1.1128 O.2            1 S1                 0.0000
     24 ****         1.4151  -3.4143   0.1728 N.am           1 S1                 0.0000
     25 ****         1.0852  -4.8195  -0.0323 C.3            1 S1                 0.0000
     26 ****         1.5959  -5.3443  -1.3632 C.ar           1 S1                 0.0000
     27 ****         0.6770  -5.7273  -2.2553 N.ar           1 S1                 0.0000
     28 ****         1.1313  -6.1806  -3.4439 C.ar           1 S1                 0.0000
     29 ****         2.5090  -6.2483  -3.7340 C.ar           1 S1                 0.0000
     30 ****         3.3827  -5.8163  -2.7161 C.ar           1 S1                 0.0000
     31 ****         2.9230  -5.3632  -1.5296 N.ar           1 S1                 0.0000
     32 ****        -3.8963  -1.3634  -1.0065 C.ar           1 S1                 0.0000
     33 ****        -5.2955  -1.2188  -0.9283 C.ar           1 S1                 0.0000
     34 ****        -6.2575  -1.5900  -2.3143 Cl             1 S1                 0.0000
     35 ****         1.5102   4.0298   0.2107 H              1 S1                 0.0000
     36 ****        -8.9933  -0.1675   1.2999 H              1 S1                 0.0000
     37 ****        -7.5846   0.7916   1.7365 H              1 S1                 0.0000
     38 ****        -7.7329  -0.8950   2.2884 H              1 S1                 0.0000
     39 ****        -5.5067  -0.1376   2.3169 H              1 S1                 0.0000
     40 ****        -3.0787  -0.3925   2.1631 H              1 S1                 0.0000
     41 ****        -1.2622  -1.9428   0.7655 H              1 S1                 0.0000
     42 ****        -1.3101  -1.6142  -0.9580 H              1 S1                 0.0000
     43 ****        -1.4103   0.8798   0.3963 H              1 S1                 0.0000
     44 ****         5.1043   2.8070   0.7707 H              1 S1                 0.0000
     45 ****         4.5341   2.5210  -0.8760 H              1 S1                 0.0000
     46 ****         5.2437   5.0404  -0.1223 H              1 S1                 0.0000
     47 ****         3.8581   4.7641  -1.1808 H              1 S1                 0.0000
     48 ****         3.8195   5.1691   1.8206 H              1 S1                 0.0000
     49 ****         2.8218   5.9954   0.6246 H              1 S1                 0.0000
     50 ****         0.9678   2.9348   2.4585 H              1 S1                 0.0000
     51 ****         2.3594   3.7390   3.1538 H              1 S1                 0.0000
     52 ****         0.4253   4.8955   3.4426 H              1 S1                 0.0000
     53 ****         3.4228  -1.6069  -0.3356 H              1 S1                 0.0000
     54 ****         2.2135  -3.2189   0.7587 H              1 S1                 0.0000
     55 ****         1.5386  -5.4006   0.7712 H              1 S1                 0.0000
     56 ****         0.0070  -4.9690   0.0529 H              1 S1                 0.0000
     57 ****         0.3920  -6.4913  -4.1670 H              1 S1                 0.0000
     58 ****         2.8747  -6.6107  -4.6834 H              1 S1                 0.0000
     59 ****         4.4535  -5.8327  -2.8549 H              1 S1                 0.0000
     60 ****        -3.4460  -1.7021  -1.9280 H              1 S1                 0.0000
     61 ****         0.5334   2.1193   0.6062 H              1 S1                 0.0000
     62 ****        -7.5266  -0.0104  -0.4555 LP             1 S1                 0.0000
     63 ****        -7.6595  -1.5566   0.0525 LP             1 S1                 0.0000
     64 ****         0.0863   4.9914   1.8916 LP             1 S1                 0.0000
     65 ****         1.3747   5.7750   2.5181 LP             1 S1                 0.0000
     66 ****         4.2571   0.5270   0.1024 LP             1 S1                 0.0000
     67 ****        -0.6733  -1.7142  -1.5009 LP             1 S1                 0.0000
     68 ****        -0.5845  -3.4326  -1.3027 LP             1 S1                 0.0000
     69 ****        -0.3011  -5.6804  -2.0522 LP             1 S1                 0.0000
     70 ****         3.5454  -5.0564  -0.8095 LP             1 S1                 0.0000
@<TRIPOS>BOND
    1    1    2 1     
    2    1   36 1     
    3    1   37 1     
    4    1   38 1     
    5    2    3 1     
    6    3   33 ar    
    7    3    4 ar    
    8    4    5 ar    
    9    4   39 1     
   10    5    6 ar    
   11    5   40 1     
   12    6    7 1     
   13    6   32 ar    
   14    7    8 1     
   15    7   41 1     
   16    7   42 1     
   17    8    9 1     
   18    8   43 1     
   19    9   21 ar    
   20    9   10 ar    
   21   10   11 ar    
   22   10   61 1     
   23   11   12 1     
   24   11   19 ar    
   25   12   16 1     
   26   12   13 1     
   27   13   14 1     
   28   13   44 1     
   29   13   45 1     
   30   14   15 1     
   31   14   46 1     
   32   14   47 1     
   33   15   16 1     
   34   15   48 1     
   35   15   49 1     
   36   16   35 1     
   37   16   17 1     
   38   17   18 1     
   39   17   50 1     
   40   17   51 1     
   41   18   52 1     
   42   19   20 ar    
   43   20   21 ar    
   44   20   53 1     
   45   21   22 1     
   46   22   23 2     
   47   22   24 am    
   48   24   25 1     
   49   24   54 1     
   50   25   26 1     
   51   25   55 1     
   52   25   56 1     
   53   26   31 ar    
   54   26   27 ar    
   55   27   28 ar    
   56   28   29 ar    
   57   28   57 1     
   58   29   30 ar    
   59   29   58 1     
   60   30   31 ar    
   61   30   59 1     
   62   32   33 ar    
   63   32   60 1     
   64   33   34 1     
   65    2   62 1     
   66    2   63 1     
   67   18   64 1     
   68   18   65 1     
   69   19   66 1     
   70   23   67 1     
   71   23   68 1     
   72   27   69 1     
   73   31   70 1     
@<TRIPOS>SUBSTRUCTURE
      1 S1             1
@<TRIPOS>SET
LONE_PAIRS      STATIC     ATOMS    <user>   **** ""
9 62 63 64 65 66 67 68 69 70
DONOR_HYDROGENS      STATIC     ATOMS    <user>   **** ""
4 43 61 52 54
ATOM$BLUE        STATIC     ATOMS    COLORGROUP SYSTEM
9 62 63 64 65 66 67 68 69 70
ATOM$RED        STATIC     ATOMS    COLORGROUP SYSTEM
4 43 61 52 54
