AV-unprocessed.smi:1823|AV-procd|sdf|7391|dock1
  -GOLD-   22720 9 63D 1   1.00000     0.00000
 Structure written by MMmdl.
 43 44  0  0  0  0  0  0  0  0  1 V2000
  145.9380  132.6537  150.8922 C   0  0  0  0  0  0  0  0  0  0  0  0
  146.7407  132.3599  152.1128 C   0  0  0  0  0  0  0  0  0  0  0  0
  146.6713  131.1759  152.7085 N   0  0  0  0  0  0  0  0  0  0  0  0
  147.5651  131.3018  153.7814 O   0  0  0  0  0  0  0  0  0  0  0  0
  148.0584  132.5620  153.7063 C   0  0  0  0  0  0  0  0  0  0  0  0
  149.1076  132.9872  154.6834 C   0  0  0  0  0  0  0  0  0  0  0  0
  148.7866  134.3023  155.4208 C   0  0  0  0  0  0  0  0  0  0  0  0
  149.2768  135.4795  154.7070 N   0  0  0  0  0  0  0  0  0  0  0  0
  150.0597  136.4359  155.2316 C   0  0  0  0  0  0  0  0  0  0  0  0
  150.4948  136.3968  156.3833 O   0  0  0  0  0  0  0  0  0  0  0  0
  150.3739  137.6375  154.3278 C   0  0  2  0  0  0  0  0  0  0  0  0
  151.8808  137.7464  154.0223 C   0  0  0  0  0  0  0  0  0  0  0  0
  152.3163  138.9968  154.7677 C   0  0  0  0  0  0  0  0  0  0  0  0
  153.4949  139.3353  154.8666 O   0  0  0  0  0  0  0  0  0  0  0  0
  151.2640  139.6367  155.2911 N   0  0  0  0  0  0  0  0  0  0  0  0
  151.2986  140.8227  156.1471 C   0  0  0  0  0  0  0  0  0  0  0  0
  150.9453  140.5181  157.6200 C   0  0  0  0  0  0  0  0  0  0  0  0
  150.8532  141.7779  158.4985 C   0  0  0  0  0  0  0  0  0  0  0  0
  151.9504  139.5219  158.2169 C   0  0  0  0  0  0  0  0  0  0  0  0
  150.0022  138.9760  155.0013 C   0  0  0  0  0  0  0  0  0  0  0  0
  147.5826  133.2657  152.6822 N   0  0  0  0  0  0  0  0  0  0  0  0
  144.8739  132.5523  151.1064 H   0  0  0  0  0  0  0  0  0  0  0  0
  146.2001  131.9608  150.0922 H   0  0  0  0  0  0  0  0  0  0  0  0
  146.1244  133.6696  150.5426 H   0  0  0  0  0  0  0  0  0  0  0  0
  149.2495  132.1859  155.4088 H   0  0  0  0  0  0  0  0  0  0  0  0
  150.0532  133.0874  154.1494 H   0  0  0  0  0  0  0  0  0  0  0  0
  147.7116  134.3789  155.5929 H   0  0  0  0  0  0  0  0  0  0  0  0
  149.2490  134.2873  156.4078 H   0  0  0  0  0  0  0  0  0  0  0  0
  148.9663  135.5947  153.7530 H   0  0  0  0  0  0  0  0  0  0  0  0
  149.8186  137.5341  153.3939 H   0  0  0  0  0  0  0  0  0  0  0  0
  152.4609  136.8825  154.3517 H   0  0  0  0  0  0  0  0  0  0  0  0
  152.0564  137.8817  152.9548 H   0  0  0  0  0  0  0  0  0  0  0  0
  152.2973  141.2583  156.0916 H   0  0  0  0  0  0  0  0  0  0  0  0
  150.6236  141.5840  155.7516 H   0  0  0  0  0  0  0  0  0  0  0  0
  149.9669  140.0358  157.6358 H   0  0  0  0  0  0  0  0  0  0  0  0
  151.7831  142.3470  158.4732 H   0  0  0  0  0  0  0  0  0  0  0  0
  150.6513  141.5167  159.5377 H   0  0  0  0  0  0  0  0  0  0  0  0
  150.0480  142.4367  158.1738 H   0  0  0  0  0  0  0  0  0  0  0  0
  152.9588  139.9370  158.2297 H   0  0  0  0  0  0  0  0  0  0  0  0
  151.9786  138.5973  157.6395 H   0  0  0  0  0  0  0  0  0  0  0  0
  151.6851  139.2600  159.2415 H   0  0  0  0  0  0  0  0  0  0  0  0
  149.4168  139.5995  154.3244 H   0  0  0  0  0  0  0  0  0  0  0  0
  149.4175  138.8461  155.9138 H   0  0  0  0  0  0  0  0  0  0  0  0
  1  2  1  0  0  0  0
  1 22  1  0  0  0  0
  1 23  1  0  0  0  0
  1 24  1  0  0  0  0
  2 21  1  0  0  0  0
  2  3  2  0  0  0  0
  3  4  1  0  0  0  0
  4  5  1  0  0  0  0
  5  6  1  0  0  0  0
  5 21  2  0  0  0  0
  6  7  1  0  0  0  0
  6 25  1  0  0  0  0
  6 26  1  0  0  0  0
  7  8  1  0  0  0  0
  7 27  1  0  0  0  0
  7 28  1  0  0  0  0
  8  9  1  0  0  0  0
  8 29  1  0  0  0  0
  9 10  2  0  0  0  0
  9 11  1  0  0  0  0
 11 20  1  0  0  0  0
 11 12  1  0  0  0  0
 11 30  1  0  0  0  0
 12 13  1  0  0  0  0
 12 31  1  0  0  0  0
 12 32  1  0  0  0  0
 13 14  2  0  0  0  0
 13 15  1  0  0  0  0
 15 16  1  0  0  0  0
 15 20  1  0  0  0  0
 16 17  1  0  0  0  0
 16 33  1  0  0  0  0
 16 34  1  0  0  0  0
 17 18  1  0  0  0  0
 17 19  1  0  0  0  0
 17 35  1  0  0  0  0
 18 36  1  0  0  0  0
 18 37  1  0  0  0  0
 18 38  1  0  0  0  0
 19 39  1  0  0  0  0
 19 40  1  0  0  0  0
 19 41  1  0  0  0  0
 20 42  1  0  0  0  0
 20 43  1  0  0  0  0
M  END
> <s_m_source_file>
AV-unprocessed.smi

> <i_m_source_file_index>
1823

> <i_lp_mmshare_version>
43012

> <i_f3d_flags>
0

> <s_epik_input>
W0NIM11jMW5vYyhuMSlbQ0gyXVtDSDJdW05IXUMoPU8pW0NAQEhdMltDSDJdQyg9TylOKFtDSDJdMilbQ0gyXVtDSF0oW0NIM10pW0NIM10=

> <s_epik_cmdline>
J2VwaWtfcHl0aG9uJywgJy1waCcsICc3LjAnLCAnLXRuJywgJzgnLCAnLW1hJywgJzIwMCcsICctbWV0YWxfYmluZGluZycsICctaW1hZScsICc8aW5maWxlLm1hZT4nLCAnLW9tYWUnLCAnPG91dGZpbGUubWFlPic=

> <r_lp_tautomer_probability>
1

> <r_epik_Ionization_Penalty>
3.64678e-08

> <r_epik_Ionization_Penalty_Charging>
0

> <r_epik_Ionization_Penalty_Neutral>
3.64678e-08

> <r_epik_State_Penalty>
-0

> <r_epik_Charging_Adjusted_Penalty>
0

> <i_epik_Tot_Q>
0

> <i_epik_Tot_abs_Q>
0

> <r_epik_Metal_State_Penalty>
-0

> <b_epik_Metal_Only>
0

> <s_lp_Force_Field>
OPLS_2005

> <r_lp_Energy>
11.1624

> <b_lp_Chiralities_Consistent>
1

> <s_lp_Variant>
AV-unprocessed.smi:1823-1

> <Gold.Version>
5.8.1

> <Gold.Id.Protein>
6NUR|6NUR_protein|mol2

> <Gold.PLP.Fitness>
40.3625

> <Gold.PLP.PLP>
-35.0295

> <Gold.PLP.part.hbond>
-1.8456

> <Gold.PLP.part.metal>
0.0000

> <Gold.PLP.part.buried>
-3.4934

> <Gold.PLP.part.nonpolar>
-31.1494

> <Gold.PLP.part.repulsive>
0.9761

> <Gold.PLP.ligand.clash>
0.0000

> <Gold.PLP.ligand.torsion>
0.4004

> <Gold.PLP.Chemscore.Hbond>
2.0000

> <Gold.PLP.Chemscore.CHOScore>
0.0000

> <Gold.PLP.Chemscore.Metal>
0.0000

> <Gold.Chemscore.Hbonds>
donor molecule, donor type, donor heavy atom, donor atom, acceptor molecule, acceptor atom, score
      L1  H     8    29       P1  7948  1.00
      P1  H  7997  8008       L1    14  1.00

> <Gold.PLP.Chemscore.Internal.Correction>
0.1339

> <Gold.Rescore>
     Score         DG    S(hbond)    S(metal)    S(lipo)     H(rot)  DE(clash)    DE(int)     intcor
     12.50     -13.13       1.95        0.00      62.23       2.40       0.27       0.35       ----

> <Gold.Chemscore.Fitness>
12.5043

> <Gold.Chemscore.DG>
-13.1300

> <Gold.Chemscore.ZeroCoef>
-5.4800

> <Gold.Chemscore.Hbond>
1.9468

> <Gold.Chemscore.Metal>
0.0000

> <Gold.Chemscore.Lipo>
62.2260

> <Gold.Chemscore.Internal_Hbond>
0.0000

> <Gold.Chemscore.DEClash>
0.2737

> <Gold.Chemscore.DEInternal>
0.3519

> <Gold.Chemscore.Rot>
2.3957

> <Gold.Chemscore.Internal.Correction>
   9.000000E+99

> <Gold.Chemscore.Hbonds>
donor molecule, donor type, donor heavy atom, donor atom, acceptor molecule, acceptor atom, score
      L1  H     8    29       P1  7948  0.83
      P1  H  7997  8008       L1    14  0.99

> <Gold.Chemscore.Hbond.Weighted>
-6.5024

> <Gold.Chemscore.Metal.Weighted>
-0.0000

> <Gold.Chemscore.Lipo.Weighted>
-7.2804

> <Gold.Chemscore.Internal_Hbond.Weighted>
0.0000

> <Gold.Chemscore.DEClash.Weighted>
0.2737

> <Gold.Chemscore.DEInternal.Weighted>
0.3519

> <Gold.Chemscore.Rot.Weighted>
6.1329

> <Gold.Chemscore.Internal.Correction.Weighted>
   9.000000E+99

> <Gold.Protein.RotatedTorsions>
[ 6907 6896 6895 6894 ] final -133.99 input  -60.11 | X-H torsion
[ 7974 7965 7964 7962 ] final  -52.15 input  175.53 | X-H torsion
[ 8008 7997 7996 7995 ] final   -1.71 input   59.86 | X-H torsion
[ 10167 10162 10161 10158 ] final   19.10 input  -65.29 | X-H torsion
[ 10718 10713 10712 10709 ] final -132.89 input   66.30 | X-H torsion
[ 10763 10752 10751 10750 ] final   18.70 input  -60.55 | X-H torsion
[ 11005 11000 10999 10996 ] final  -51.91 input  -57.11 | X-H torsion

> <Gold.Protein.ActiveResidues>
 VAL166  LYS551  ARG553  GLY616  TRP617  ASP618  TYR619  PRO620  LYS621  CYS622 
 ASP623  PHE694  ASN695  SER759  ASP760  ASP761  ALA762  ILE779  LEU786  VAL792 
 PHE793  MET794  SER795  GLU796  ALA797  LYS798  CYS799  TRP800  GLU811  SER814 

> <Gold.Protein.RotatedAtoms>
  150.9805  133.6250  159.2723 H   0  0  0  0  0  0  0  0  0  0  0  0  # atno 6907 bound_to 6896
  151.3507  135.0883  159.9412 H   0  0  0  0  0  0  0  0  0  0  0  0  # atno 6908 bound_to 6896
  152.5214  133.9398  159.7675 H   0  0  0  0  0  0  0  0  0  0  0  0  # atno 6909 bound_to 6896
  145.9112  140.7914  142.9694 H   0  0  0  0  0  0  0  0  0  0  0  0  # atno 7974 bound_to 7965
  154.6438  140.2552  155.7292 H   0  0  0  0  0  0  0  0  0  0  0  0  # atno 8008 bound_to 7997
  156.2542  140.2882  156.0763 H   0  0  0  0  0  0  0  0  0  0  0  0  # atno 8009 bound_to 7997
  155.1556  140.0383  157.2821 H   0  0  0  0  0  0  0  0  0  0  0  0  # atno 8010 bound_to 7997
  140.5604  143.9348  150.6638 H   0  0  0  0  0  0  0  0  0  0  0  0  # atno 10167 bound_to 10162
  156.2392  130.7085  151.0939 H   0  0  0  0  0  0  0  0  0  0  0  0  # atno 10718 bound_to 10713
  153.1226  135.6722  153.9311 H   0  0  0  0  0  0  0  0  0  0  0  0  # atno 10763 bound_to 10752
  153.8821  135.3057  155.3447 H   0  0  0  0  0  0  0  0  0  0  0  0  # atno 10764 bound_to 10752
  154.7635  135.4976  153.9590 H   0  0  0  0  0  0  0  0  0  0  0  0  # atno 10765 bound_to 10752
  141.0896  133.6635  156.3947 H   0  0  0  0  0  0  0  0  0  0  0  0  # atno 11005 bound_to 11000
  144.6743  140.1828  143.7404 LP  0  0  0  0  0  0  0  0  0  0  0  0  # atno 17320 bound_to 7965
  145.8670  139.2252  143.1683 LP  0  0  0  0  0  0  0  0  0  0  0  0  # atno 17321 bound_to 7965
  140.2797  143.3398  152.1162 LP  0  0  0  0  0  0  0  0  0  0  0  0  # atno 17342 bound_to 10162
  139.5067  144.6819  151.5987 LP  0  0  0  0  0  0  0  0  0  0  0  0  # atno 17343 bound_to 10162
  157.7168  131.0705  150.6296 LP  0  0  0  0  0  0  0  0  0  0  0  0  # atno 17370 bound_to 10713
  156.6368  130.4447  149.5767 LP  0  0  0  0  0  0  0  0  0  0  0  0  # atno 17371 bound_to 10713
  140.5282  134.6238  157.5341 LP  0  0  0  0  0  0  0  0  0  0  0  0  # atno 17394 bound_to 11000
  139.9720  134.7277  156.0023 LP  0  0  0  0  0  0  0  0  0  0  0  0  # atno 17395 bound_to 11000

$$$$
