#       Name:                AV-unprocessed.smi:3114
#       Creating user name   scv26
#       Creation time:       Fri Mar 27 17:24:02 2020


#       File generated by GOLD software.
#

@<TRIPOS>MOLECULE
AV-unprocessed.smi:3114
    38    38     1
SMALL
NO_CHARGES


@<TRIPOS>ATOM
      1 ****        -2.0270   0.0341   3.3377 C.3            1 S1                 0.0000
      2 ****        -1.6199  -0.5738   2.1211 O.3            1 S1                 0.0000
      3 ****        -1.7087   0.1798   0.9723 C.ar           1 S1                 0.0000
      4 ****        -2.1900   1.5054   0.9031 C.ar           1 S1                 0.0000
      5 ****        -2.1982   2.1105  -0.3666 C.ar           1 S1                 0.0000
      6 ****        -1.7547   1.4333  -1.4535 N.pl3          1 S1                 1.0000
      7 ****        -1.3030   0.1778  -1.3171 C.ar           1 S1                 0.0000
      8 ****        -0.8333  -0.4588  -2.4535 N.pl3          1 S1                 0.0000
      9 ****        -0.8039   0.1559  -3.7751 C.3            1 S1                 0.0000
     10 ****        -2.1980   0.2085  -4.4187 C.3            1 S1                 0.0000
     11 ****        -2.9406   1.2532  -3.8154 O.3            1 S1                 0.0000
     12 ****        -4.3086   1.2627  -4.1801 C.3            1 S1                 0.0000
     13 ****        -4.9931   2.4247  -3.4505 C.3            1 S1                 0.0000
     14 ****        -5.2711   2.0603  -2.1145 O.3            1 S1                 0.0000
     15 ****        -1.2853  -0.4579  -0.1370 N.ar           1 S1                 0.0000
     16 ****        -1.8945  -0.6732   4.1562 H              1 S1                 0.0000
     17 ****        -3.0812   0.3135   3.3098 H              1 S1                 0.0000
     18 ****        -1.4256   0.9161   3.5627 H              1 S1                 0.0000
     19 ****        -2.5390   2.0506   1.7672 H              1 S1                 0.0000
     20 ****        -2.5412   3.1186  -0.5480 H              1 S1                 0.0000
     21 ****        -0.7866  -1.4666  -2.4184 H              1 S1                 0.0000
     22 ****        -0.3559   1.1493  -3.7317 H              1 S1                 0.0000
     23 ****        -0.1458  -0.4512  -4.3968 H              1 S1                 0.0000
     24 ****        -2.1092   0.4116  -5.4867 H              1 S1                 0.0000
     25 ****        -2.7032  -0.7530  -4.3103 H              1 S1                 0.0000
     26 ****        -4.3840   1.4112  -5.2584 H              1 S1                 0.0000
     27 ****        -4.7927   0.3131  -3.9453 H              1 S1                 0.0000
     28 ****        -4.3822   3.3276  -3.4800 H              1 S1                 0.0000
     29 ****        -5.9412   2.6582  -3.9354 H              1 S1                 0.0000
     30 ****        -5.7223   2.7779  -1.6963 H              1 S1                 0.0000
     31 ****        -1.7581   1.8916  -2.3649 H              1 S1                 0.0000
     32 ****        -2.1852  -1.3881   1.9894 LP             1 S1                 0.0000
     33 ****        -0.6634  -0.8457   2.2276 LP             1 S1                 0.0000
     34 ****        -2.5353   2.1262  -4.0869 LP             1 S1                 0.0000
     35 ****        -2.8791   1.1517  -2.8225 LP             1 S1                 0.0000
     36 ****        -4.4162   1.8717  -1.6313 LP             1 S1                 0.0000
     37 ****        -5.8490   1.2443  -2.1005 LP             1 S1                 0.0000
     38 ****        -0.9592  -1.4015  -0.0800 LP             1 S1                 0.0000
@<TRIPOS>BOND
    1    1    2 1     
    2    1   16 1     
    3    1   17 1     
    4    1   18 1     
    5    2    3 1     
    6    3   15 ar    
    7    3    4 ar    
    8    4    5 ar    
    9    4   19 1     
   10    5    6 ar    
   11    5   20 1     
   12    6    7 ar    
   13    6   31 1     
   14    7    8 1     
   15    7   15 ar    
   16    8    9 1     
   17    8   21 1     
   18    9   10 1     
   19    9   22 1     
   20    9   23 1     
   21   10   11 1     
   22   10   24 1     
   23   10   25 1     
   24   11   12 1     
   25   12   13 1     
   26   12   26 1     
   27   12   27 1     
   28   13   14 1     
   29   13   28 1     
   30   13   29 1     
   31   14   30 1     
   32    2   32 1     
   33    2   33 1     
   34   11   34 1     
   35   11   35 1     
   36   14   36 1     
   37   14   37 1     
   38   15   38 1     
@<TRIPOS>SUBSTRUCTURE
      1 S1             1
@<TRIPOS>SET
LONE_PAIRS      STATIC     ATOMS    <user>   **** ""
7 32 33 34 35 36 37 38
DONOR_HYDROGENS      STATIC     ATOMS    <user>   **** ""
3 31 21 30
ATOM$BLUE        STATIC     ATOMS    COLORGROUP SYSTEM
7 32 33 34 35 36 37 38
ATOM$RED        STATIC     ATOMS    COLORGROUP SYSTEM
3 31 21 30
