AV-unprocessed.smi:1527|AV-procd|sdf|6149|dock8
  -GOLD-   22720 6293D 1   1.00000     0.00000
 Structure written by MMmdl.
 31 31  0  0  0  0  0  0  0  0  1 V2000
  150.9850  145.0687  159.3647 C   0  0  0  0  0  0  0  0  0  0  0  0
  152.0835  144.3441  160.1568 C   0  0  0  0  0  0  0  0  0  0  0  0
  152.1285  142.8264  159.9000 C   0  0  2  0  0  0  0  0  0  0  0  0
  153.4013  142.1866  160.4743 C   0  0  0  0  0  0  0  0  0  0  0  0
  152.0423  142.5563  158.4667 N   0  0  0  0  0  0  0  0  0  0  0  0
  151.0724  141.8555  157.8597 C   0  0  0  0  0  0  0  0  0  0  0  0
  150.1439  141.3176  158.4645 O   0  0  0  0  0  0  0  0  0  0  0  0
  151.1851  141.7296  156.3340 C   0  0  0  0  0  0  0  0  0  0  0  0
  151.2916  140.3350  155.8829 N   0  0  0  0  0  0  0  0  0  0  0  0
  150.4277  140.0041  154.8500 N   0  0  0  0  0  0  0  0  0  0  0  0
  150.4365  138.8105  154.3603 C   0  0  0  0  0  0  0  0  0  0  0  0
  149.5675  138.5273  153.3355 O   0  0  0  0  0  0  0  0  0  0  0  0
  151.3325  137.7972  154.8723 C   0  0  0  0  0  0  0  0  0  0  0  0
  152.1680  138.1282  155.8811 C   0  0  0  0  0  0  0  0  0  0  0  0
  152.1859  139.4733  156.4587 C   0  0  0  0  0  0  0  0  0  0  0  0
  152.9358  139.8026  157.3778 O   0  0  0  0  0  0  0  0  0  0  0  0
  149.6653  139.2383  152.7208 H   0  0  0  0  0  0  0  0  0  0  0  0
  150.9657  146.1301  159.6125 H   0  0  0  0  0  0  0  0  0  0  0  0
  150.0011  144.6569  159.5910 H   0  0  0  0  0  0  0  0  0  0  0  0
  151.1426  144.9855  158.2891 H   0  0  0  0  0  0  0  0  0  0  0  0
  153.0512  144.7890  159.9211 H   0  0  0  0  0  0  0  0  0  0  0  0
  151.9198  144.5222  161.2202 H   0  0  0  0  0  0  0  0  0  0  0  0
  151.2705  142.3823  160.4083 H   0  0  0  0  0  0  0  0  0  0  0  0
  153.4766  142.3599  161.5482 H   0  0  0  0  0  0  0  0  0  0  0  0
  154.2981  142.5956  160.0076 H   0  0  0  0  0  0  0  0  0  0  0  0
  153.4051  141.1076  160.3160 H   0  0  0  0  0  0  0  0  0  0  0  0
  152.7673  142.9545  157.8873 H   0  0  0  0  0  0  0  0  0  0  0  0
  150.3294  142.2095  155.8548 H   0  0  0  0  0  0  0  0  0  0  0  0
  152.0583  142.3003  156.0133 H   0  0  0  0  0  0  0  0  0  0  0  0
  151.3263  136.8024  154.4517 H   0  0  0  0  0  0  0  0  0  0  0  0
  152.8425  137.3814  156.2734 H   0  0  0  0  0  0  0  0  0  0  0  0
  1  2  1  0  0  0  0
  1 18  1  0  0  0  0
  1 19  1  0  0  0  0
  1 20  1  0  0  0  0
  2  3  1  0  0  0  0
  2 21  1  0  0  0  0
  2 22  1  0  0  0  0
  3  4  1  0  0  0  0
  3  5  1  0  0  0  0
  3 23  1  0  0  0  0
  4 24  1  0  0  0  0
  4 25  1  0  0  0  0
  4 26  1  0  0  0  0
  5  6  1  0  0  0  0
  5 27  1  0  0  0  0
  6  7  2  0  0  0  0
  6  8  1  0  0  0  0
  8 28  1  0  0  0  0
  8 29  1  0  0  0  0
  8  9  1  0  0  0  0
  9 10  1  0  0  0  0
  9 15  1  0  0  0  0
 10 11  2  0  0  0  0
 11 12  1  0  0  0  0
 11 13  1  0  0  0  0
 12 17  1  0  0  0  0
 13 30  1  0  0  0  0
 13 14  2  0  0  0  0
 14 31  1  0  0  0  0
 14 15  1  0  0  0  0
 15 16  2  0  0  0  0
M  END
> <s_m_source_file>
AV-unprocessed.smi

> <i_m_source_file_index>
1527

> <i_lp_mmshare_version>
43012

> <i_f3d_flags>
0

> <s_epik_input>
W0NIM11bQ0gyXVtDQEhdKFtDSDNdKVtOSF1DKD1PKVtDSDJdbjFbbkhdYyg9TylbY0hdW2NIXWMxPU8=

> <s_epik_cmdline>
J2VwaWtfcHl0aG9uJywgJy1waCcsICc3LjAnLCAnLXRuJywgJzgnLCAnLW1hJywgJzIwMCcsICctbWV0YWxfYmluZGluZycsICctaW1hZScsICc8aW5maWxlLm1hZT4nLCAnLW9tYWUnLCAnPG91dGZpbGUubWFlPic=

> <r_lp_tautomer_probability>
0.9996

> <r_epik_Ionization_Penalty>
2.12171

> <r_epik_Ionization_Penalty_Charging>
3.79077e-08

> <r_epik_Ionization_Penalty_Neutral>
2.12171

> <r_epik_State_Penalty>
1.69857

> <r_epik_Charging_Adjusted_Penalty>
1.69857

> <i_epik_Tot_Q>
0

> <i_epik_Tot_abs_Q>
0

> <r_epik_Metal_State_Penalty>
1.69857

> <b_epik_Metal_Only>
0

> <s_lp_Force_Field>
OPLS_2005

> <r_lp_Energy>
14.661

> <b_lp_Chiralities_Consistent>
1

> <s_lp_Variant>
AV-unprocessed.smi:1527-3

> <Gold.Version>
5.8.1

> <Gold.Id.Protein>
6NUR|6NUR_protein|mol2

> <Gold.PLP.Fitness>
44.1902

> <Gold.PLP.PLP>
-36.1743

> <Gold.PLP.part.hbond>
-3.8727

> <Gold.PLP.part.metal>
0.0000

> <Gold.PLP.part.buried>
-5.5553

> <Gold.PLP.part.nonpolar>
-26.6696

> <Gold.PLP.part.repulsive>
0.1557

> <Gold.PLP.ligand.clash>
0.0000

> <Gold.PLP.ligand.torsion>
0.1989

> <Gold.PLP.Chemscore.Hbond>
2.8000

> <Gold.PLP.Chemscore.CHOScore>
0.0000

> <Gold.PLP.Chemscore.Metal>
0.0000

> <Gold.Chemscore.Hbonds>
donor molecule, donor type, donor heavy atom, donor atom, acceptor molecule, acceptor atom, score
      L1  H    12    17       P1  7957  1.00
      P1  H  7989  7998       L1    10  0.54
      P1  H  7997  8009       L1    16  1.00

> <Gold.PLP.Chemscore.Internal.Correction>
0.0138

> <Gold.Rescore>
     Score         DG    S(hbond)    S(metal)    S(lipo)     H(rot)  DE(clash)    DE(int)     intcor
     11.84     -13.25       1.98        0.00      66.18       2.58       0.00       1.40       ----

> <Gold.Chemscore.Fitness>
11.8435

> <Gold.Chemscore.DG>
-13.2469

> <Gold.Chemscore.ZeroCoef>
-5.4800

> <Gold.Chemscore.Hbond>
1.9850

> <Gold.Chemscore.Metal>
0.0000

> <Gold.Chemscore.Lipo>
66.1818

> <Gold.Chemscore.Internal_Hbond>
0.0000

> <Gold.Chemscore.DEClash>
0.0015

> <Gold.Chemscore.DEInternal>
1.4019

> <Gold.Chemscore.Rot>
2.5806

> <Gold.Chemscore.Internal.Correction>
   9.000000E+99

> <Gold.Chemscore.Hbonds>
donor molecule, donor type, donor heavy atom, donor atom, acceptor molecule, acceptor atom, score
      L1  H    12    17       P1  7957  0.97
      P1  H  7989  7998       L1    10  0.01
      P1  H  7997  8009       L1    16  0.70

> <Gold.Chemscore.Hbond.Weighted>
-6.6299

> <Gold.Chemscore.Metal.Weighted>
-0.0000

> <Gold.Chemscore.Lipo.Weighted>
-7.7433

> <Gold.Chemscore.Internal_Hbond.Weighted>
0.0000

> <Gold.Chemscore.DEClash.Weighted>
0.0015

> <Gold.Chemscore.DEInternal.Weighted>
1.4019

> <Gold.Chemscore.Rot.Weighted>
6.6063

> <Gold.Chemscore.Internal.Correction.Weighted>
   9.000000E+99

> <Gold.Protein.RotatedTorsions>
[ 6907 6896 6895 6894 ] final  104.78 input  -60.11 | X-H torsion
[ 7974 7965 7964 7962 ] final    4.28 input  175.53 | X-H torsion
[ 8008 7997 7996 7995 ] final  172.16 input   59.86 | X-H torsion
[ 10167 10162 10161 10158 ] final   73.74 input  -65.29 | X-H torsion
[ 10718 10713 10712 10709 ] final  110.17 input   66.30 | X-H torsion
[ 10763 10752 10751 10750 ] final   54.90 input  -60.55 | X-H torsion
[ 11005 11000 10999 10996 ] final  -44.30 input  -57.11 | X-H torsion

> <Gold.Protein.ActiveResidues>
 VAL166  LYS551  ARG553  GLY616  TRP617  ASP618  TYR619  PRO620  LYS621  CYS622 
 ASP623  PHE694  ASN695  SER759  ASP760  ASP761  ALA762  ILE779  LEU786  VAL792 
 PHE793  MET794  SER795  GLU796  ALA797  LYS798  CYS799  TRP800  GLU811  SER814 

> <Gold.Protein.RotatedAtoms>
  152.5253  133.9626  159.7724 H   0  0  0  0  0  0  0  0  0  0  0  0  # atno 6907 bound_to 6896
  150.9914  133.6138  159.2715 H   0  0  0  0  0  0  0  0  0  0  0  0  # atno 6908 bound_to 6896
  151.3280  135.0841  159.9382 H   0  0  0  0  0  0  0  0  0  0  0  0  # atno 6909 bound_to 6896
  146.2444  140.0559  142.8372 H   0  0  0  0  0  0  0  0  0  0  0  0  # atno 7974 bound_to 7965
  156.1201  140.1493  156.9216 H   0  0  0  0  0  0  0  0  0  0  0  0  # atno 8008 bound_to 7997
  154.4829  140.0874  156.7462 H   0  0  0  0  0  0  0  0  0  0  0  0  # atno 8009 bound_to 7997
  155.4443  140.3432  155.4295 H   0  0  0  0  0  0  0  0  0  0  0  0  # atno 8010 bound_to 7997
  140.0212  144.5539  150.7580 H   0  0  0  0  0  0  0  0  0  0  0  0  # atno 10167 bound_to 10162
  157.6507  131.0928  150.6562 H   0  0  0  0  0  0  0  0  0  0  0  0  # atno 10718 bound_to 10713
  152.9810  135.5729  154.4980 H   0  0  0  0  0  0  0  0  0  0  0  0  # atno 10763 bound_to 10752
  154.4504  135.2778  155.1787 H   0  0  0  0  0  0  0  0  0  0  0  0  # atno 10764 bound_to 10752
  154.3417  135.6228  153.5653 H   0  0  0  0  0  0  0  0  0  0  0  0  # atno 10765 bound_to 10752
  141.0441  133.6768  156.2854 H   0  0  0  0  0  0  0  0  0  0  0  0  # atno 11005 bound_to 11000
  145.0943  140.9305  143.4750 LP  0  0  0  0  0  0  0  0  0  0  0  0  # atno 17320 bound_to 7965
  145.0738  139.3011  143.5818 LP  0  0  0  0  0  0  0  0  0  0  0  0  # atno 17321 bound_to 7965
  140.7341  143.2725  151.3843 LP  0  0  0  0  0  0  0  0  0  0  0  0  # atno 17342 bound_to 10162
  139.6138  144.1044  152.2325 LP  0  0  0  0  0  0  0  0  0  0  0  0  # atno 17343 bound_to 10162
  156.6874  130.4585  149.5610 LP  0  0  0  0  0  0  0  0  0  0  0  0  # atno 17370 bound_to 10713
  156.1886  130.6545  151.1035 LP  0  0  0  0  0  0  0  0  0  0  0  0  # atno 17371 bound_to 10713
  140.6179  134.5392  157.5543 LP  0  0  0  0  0  0  0  0  0  0  0  0  # atno 17394 bound_to 11000
  139.9298  134.7985  156.0962 LP  0  0  0  0  0  0  0  0  0  0  0  0  # atno 17395 bound_to 11000

$$$$
