AV-unprocessed.smi:3127|AV-procd|sdf|11914|dock5
  -GOLD-   2272017293D 1   1.00000     0.00000
 Structure written by MMmdl.
 34 35  0  0  0  0  0  0  0  0  2 V2000
  152.4935  144.9958  158.5935 C   0  0  0  0  0  0  0  0  0  0  0  0
  151.7108  144.0543  159.5341 C   0  0  0  0  0  0  0  0  0  0  0  0
  152.2066  144.3006  160.9727 C   0  0  0  0  0  0  0  0  0  0  0  0
  150.2149  144.4099  159.4268 C   0  0  0  0  0  0  0  0  0  0  0  0
  151.9242  142.6019  159.1564 C   0  0  0  0  0  0  0  0  0  0  0  0
  152.4223  141.5848  159.9385 C   0  0  0  0  0  0  0  0  0  0  0  0
  152.5006  140.0691  159.0835 S   0  0  0  0  0  0  0  0  0  0  0  0
  151.8267  140.8663  157.6702 C   0  0  0  0  0  0  0  0  0  0  0  0
  151.5983  140.1636  156.3707 C   0  0  2  0  0  0  0  0  0  0  0  0
  150.4362  139.1551  156.4451 C   0  0  0  0  0  0  0  0  0  0  0  0
  150.3163  138.4288  155.1660 N   0  3  0  0  0  0  0  0  0  0  0  0
  151.5918  137.7902  154.7847 C   0  0  0  0  0  0  0  0  0  0  0  0
  152.7230  138.8336  154.7677 C   0  0  0  0  0  0  0  0  0  0  0  0
  152.8027  139.4774  156.0353 O   0  0  0  0  0  0  0  0  0  0  0  0
  151.6018  142.1687  157.8634 N   0  0  0  0  0  0  0  0  0  0  0  0
  152.3438  146.0416  158.8643 H   0  0  0  0  0  0  0  0  0  0  0  0
  152.1754  144.8828  157.5562 H   0  0  0  0  0  0  0  0  0  0  0  0
  153.5661  144.8023  158.6357 H   0  0  0  0  0  0  0  0  0  0  0  0
  153.2644  144.0551  161.0743 H   0  0  0  0  0  0  0  0  0  0  0  0
  151.6584  143.6965  161.6965 H   0  0  0  0  0  0  0  0  0  0  0  0
  152.0820  145.3443  161.2629 H   0  0  0  0  0  0  0  0  0  0  0  0
  150.0364  145.4568  159.6747 H   0  0  0  0  0  0  0  0  0  0  0  0
  149.6084  143.8094  160.1057 H   0  0  0  0  0  0  0  0  0  0  0  0
  149.8403  144.2426  158.4162 H   0  0  0  0  0  0  0  0  0  0  0  0
  152.7530  141.6308  160.9657 H   0  0  0  0  0  0  0  0  0  0  0  0
  151.3916  140.9190  155.6103 H   0  0  0  0  0  0  0  0  0  0  0  0
  150.6063  138.4356  157.2476 H   0  0  0  0  0  0  0  0  0  0  0  0
  149.4964  139.6637  156.6617 H   0  0  0  0  0  0  0  0  0  0  0  0
  149.5979  137.7229  155.2462 H   0  0  0  0  0  0  0  0  0  0  0  0
  151.8229  136.9967  155.4967 H   0  0  0  0  0  0  0  0  0  0  0  0
  151.4846  137.3232  153.8055 H   0  0  0  0  0  0  0  0  0  0  0  0
  153.6773  138.3513  154.5556 H   0  0  0  0  0  0  0  0  0  0  0  0
  152.5590  139.5735  153.9824 H   0  0  0  0  0  0  0  0  0  0  0  0
  150.0542  139.0851  154.4443 H   0  0  0  0  0  0  0  0  0  0  0  0
  1  2  1  0  0  0  0
  1 16  1  0  0  0  0
  1 17  1  0  0  0  0
  1 18  1  0  0  0  0
  2  3  1  0  0  0  0
  2  4  1  0  0  0  0
  2  5  1  0  0  0  0
  3 19  1  0  0  0  0
  3 20  1  0  0  0  0
  3 21  1  0  0  0  0
  4 22  1  0  0  0  0
  4 23  1  0  0  0  0
  4 24  1  0  0  0  0
  5 15  1  0  0  0  0
  5  6  2  0  0  0  0
  6  7  1  0  0  0  0
  6 25  1  0  0  0  0
  7  8  1  0  0  0  0
  8  9  1  0  0  0  0
  8 15  2  0  0  0  0
  9 14  1  0  0  0  0
  9 10  1  0  0  0  0
  9 26  1  0  0  0  0
 10 11  1  0  0  0  0
 10 27  1  0  0  0  0
 10 28  1  0  0  0  0
 11 12  1  0  0  0  0
 11 29  1  0  0  0  0
 11 34  1  0  0  0  0
 12 13  1  0  0  0  0
 12 30  1  0  0  0  0
 12 31  1  0  0  0  0
 13 14  1  0  0  0  0
 13 32  1  0  0  0  0
 13 33  1  0  0  0  0
M  CHG  1  11   1
M  END
> <s_m_source_file>
AV-unprocessed.smi

> <i_m_source_file_index>
3127

> <i_lp_mmshare_version>
43012

> <i_f3d_flags>
0

> <s_epik_input>
W0NIM11DKFtDSDNdKShbQ0gzXSljMVtjSF1zYyhuMSlbQ0BASF0yW0NIMl1bTkhdW0NIMl1bQ0gyXU8y

> <s_epik_cmdline>
J2VwaWtfcHl0aG9uJywgJy1waCcsICc3LjAnLCAnLXRuJywgJzgnLCAnLW1hJywgJzIwMCcsICctbWV0YWxfYmluZGluZycsICctaW1hZScsICc8aW5maWxlLm1hZT4nLCAnLW9tYWUnLCAnPG91dGZpbGUubWFlPic=

> <r_epik_Ionization_Penalty>
0.125708

> <r_epik_Ionization_Penalty_Charging>
0.125708

> <r_epik_Ionization_Penalty_Neutral>
5.37588e-07

> <r_epik_State_Penalty>
0.0155352

> <r_epik_Charging_Adjusted_Penalty>
0.141243

> <i_epik_Tot_Q>
1

> <i_epik_Tot_abs_Q>
1

> <r_epik_Metal_State_Penalty>
0.0155796

> <b_epik_Metal_Only>
0

> <s_lp_Force_Field>
OPLS_2005

> <r_lp_Energy>
5.69116

> <b_lp_Chiralities_Consistent>
1

> <s_lp_Variant>
AV-unprocessed.smi:3127-1

> <Gold.Version>
5.8.1

> <Gold.Id.Protein>
6NUR|6NUR_protein|mol2

> <Gold.PLP.Fitness>
37.7584

> <Gold.PLP.PLP>
-35.0943

> <Gold.PLP.part.hbond>
-1.0000

> <Gold.PLP.part.metal>
0.0000

> <Gold.PLP.part.buried>
-5.2744

> <Gold.PLP.part.nonpolar>
-28.4370

> <Gold.PLP.part.repulsive>
0.0832

> <Gold.PLP.ligand.clash>
0.0000

> <Gold.PLP.ligand.torsion>
0.1741

> <Gold.PLP.Chemscore.Hbond>
1.0000

> <Gold.PLP.Chemscore.CHOScore>
0.0000

> <Gold.PLP.Chemscore.Metal>
0.0000

> <Gold.Chemscore.Hbonds>
donor molecule, donor type, donor heavy atom, donor atom, acceptor molecule, acceptor atom, score
      P1  H  7997  8010       L1    14  1.00

> <Gold.PLP.Chemscore.Internal.Correction>
0.0123

> <Gold.Rescore>
     Score         DG    S(hbond)    S(metal)    S(lipo)     H(rot)  DE(clash)    DE(int)     intcor
     18.26     -18.37       0.97        0.00     107.41       1.14       0.00       0.10       ----

> <Gold.Chemscore.Fitness>
18.2631

> <Gold.Chemscore.DG>
-18.3672

> <Gold.Chemscore.ZeroCoef>
-5.4800

> <Gold.Chemscore.Hbond>
0.9690

> <Gold.Chemscore.Metal>
0.0000

> <Gold.Chemscore.Lipo>
107.4139

> <Gold.Chemscore.Internal_Hbond>
0.0000

> <Gold.Chemscore.DEClash>
0.0015

> <Gold.Chemscore.DEInternal>
0.1027

> <Gold.Chemscore.Rot>
1.1393

> <Gold.Chemscore.Internal.Correction>
   9.000000E+99

> <Gold.Chemscore.Hbonds>
donor molecule, donor type, donor heavy atom, donor atom, acceptor molecule, acceptor atom, score
      P1  H  7997  8010       L1    14  0.81

> <Gold.Chemscore.Hbond.Weighted>
-3.2365

> <Gold.Chemscore.Metal.Weighted>
-0.0000

> <Gold.Chemscore.Lipo.Weighted>
-12.5674

> <Gold.Chemscore.Internal_Hbond.Weighted>
0.0000

> <Gold.Chemscore.DEClash.Weighted>
0.0015

> <Gold.Chemscore.DEInternal.Weighted>
0.1027

> <Gold.Chemscore.Rot.Weighted>
2.9167

> <Gold.Chemscore.Internal.Correction.Weighted>
   9.000000E+99

> <Gold.Protein.RotatedTorsions>
[ 6907 6896 6895 6894 ] final  132.87 input  -60.11 | X-H torsion
[ 7974 7965 7964 7962 ] final   -2.89 input  175.53 | X-H torsion
[ 8008 7997 7996 7995 ] final   78.33 input   59.86 | X-H torsion
[ 10167 10162 10161 10158 ] final   11.78 input  -65.29 | X-H torsion
[ 10718 10713 10712 10709 ] final  -19.64 input   66.30 | X-H torsion
[ 10763 10752 10751 10750 ] final  159.74 input  -60.55 | X-H torsion
[ 11005 11000 10999 10996 ] final  -48.22 input  -57.11 | X-H torsion

> <Gold.Protein.ActiveResidues>
 VAL166  LYS551  ARG553  GLY616  TRP617  ASP618  TYR619  PRO620  LYS621  CYS622 
 ASP623  PHE694  ASN695  SER759  ASP760  ASP761  ALA762  ILE779  LEU786  VAL792 
 PHE793  MET794  SER795  GLU796  ALA797  LYS798  CYS799  TRP800  GLU811  SER814 

> <Gold.Protein.RotatedAtoms>
  152.3279  133.5925  159.5788 H   0  0  0  0  0  0  0  0  0  0  0  0  # atno 6907 bound_to 6896
  150.7406  133.9913  159.3617 H   0  0  0  0  0  0  0  0  0  0  0  0  # atno 6908 bound_to 6896
  151.7791  135.0767  160.0422 H   0  0  0  0  0  0  0  0  0  0  0  0  # atno 6909 bound_to 6896
  146.2398  140.1639  142.8332 H   0  0  0  0  0  0  0  0  0  0  0  0  # atno 7974 bound_to 7965
  155.8543  140.3456  155.5714 H   0  0  0  0  0  0  0  0  0  0  0  0  # atno 8008 bound_to 7997
  155.8004  140.0884  157.1980 H   0  0  0  0  0  0  0  0  0  0  0  0  # atno 8009 bound_to 7997
  154.4009  140.1466  156.3255 H   0  0  0  0  0  0  0  0  0  0  0  0  # atno 8010 bound_to 7997
  140.6110  143.8408  150.7065 H   0  0  0  0  0  0  0  0  0  0  0  0  # atno 10167 bound_to 10162
  156.5429  130.4682  149.6490 H   0  0  0  0  0  0  0  0  0  0  0  0  # atno 10718 bound_to 10713
  154.2365  135.2776  155.2870 H   0  0  0  0  0  0  0  0  0  0  0  0  # atno 10763 bound_to 10752
  154.5580  135.5655  153.6985 H   0  0  0  0  0  0  0  0  0  0  0  0  # atno 10764 bound_to 10752
  153.0009  135.6291  154.2508 H   0  0  0  0  0  0  0  0  0  0  0  0  # atno 10765 bound_to 10752
  141.0687  133.6685  156.3409 H   0  0  0  0  0  0  0  0  0  0  0  0  # atno 11005 bound_to 11000
  145.0066  140.8678  143.5249 LP  0  0  0  0  0  0  0  0  0  0  0  0  # atno 17320 bound_to 7965
  145.1667  139.2427  143.5363 LP  0  0  0  0  0  0  0  0  0  0  0  0  # atno 17321 bound_to 7965
  140.1976  143.3985  152.1816 LP  0  0  0  0  0  0  0  0  0  0  0  0  # atno 17342 bound_to 10162
  139.5361  144.7211  151.4888 LP  0  0  0  0  0  0  0  0  0  0  0  0  # atno 17343 bound_to 10162
  156.2955  130.7148  151.2007 LP  0  0  0  0  0  0  0  0  0  0  0  0  # atno 17370 bound_to 10713
  157.7402  131.0520  150.5182 LP  0  0  0  0  0  0  0  0  0  0  0  0  # atno 17371 bound_to 10713
  140.5718  134.5832  157.5459 LP  0  0  0  0  0  0  0  0  0  0  0  0  # atno 17394 bound_to 11000
  139.9502  134.7630  156.0466 LP  0  0  0  0  0  0  0  0  0  0  0  0  # atno 17395 bound_to 11000

$$$$
