AV-unprocessed.smi:2797|AV-procd|sdf|10784|dock3
  -GOLD-   2272015223D 1   1.00000     0.00000
 Structure written by MMmdl.
 38 39  0  0  0  0  0  0  0  0  2 V2000
  151.6720  141.2662  159.6863 C   0  0  0  0  0  0  0  0  0  0  0  0
  150.9174  142.4093  159.3014 O   0  0  0  0  0  0  0  0  0  0  0  0
  151.6003  143.6680  159.2779 C   0  0  0  0  0  0  0  0  0  0  0  0
  151.8583  144.1407  157.8408 C   0  0  0  0  0  0  0  0  0  0  0  0
  150.9203  143.5237  156.9078 N   0  0  0  0  0  0  0  0  0  0  0  0
  150.9081  142.2313  156.5541 C   0  0  0  0  0  0  0  0  0  0  0  0
  151.7386  141.4097  156.9403 O   0  0  0  0  0  0  0  0  0  0  0  0
  149.8885  141.9672  155.7198 N   0  0  0  0  0  0  0  0  0  0  0  0
  149.5179  140.7233  155.1355 C   0  0  0  0  0  0  0  0  0  0  0  0
  150.3164  139.5552  155.2300 C   0  0  0  0  0  0  0  0  0  0  0  0
  149.8669  138.3589  154.6384 C   0  0  0  0  0  0  0  0  0  0  0  0
  148.6796  138.3291  153.9987 N   0  3  0  0  0  0  0  0  0  0  0  0
  147.8729  139.4081  153.8932 C   0  0  0  0  0  0  0  0  0  0  0  0
  146.5595  139.2363  153.1549 C   0  0  0  0  0  0  0  0  0  0  0  0
  148.2712  140.6390  154.4664 C   0  0  0  0  0  0  0  0  0  0  0  0
  147.2425  142.0267  154.3427 Cl  0  0  0  0  0  0  0  0  0  0  0  0
  150.8174  144.6084  160.2147 C   0  0  0  0  0  0  0  0  0  0  0  0
  151.7130  144.1576  161.3700 C   0  0  0  0  0  0  0  0  0  0  0  0
  152.7408  143.7391  160.3177 C   0  0  0  0  0  0  0  0  0  0  0  0
  151.0406  140.3827  159.5947 H   0  0  0  0  0  0  0  0  0  0  0  0
  152.0008  141.3183  160.7229 H   0  0  0  0  0  0  0  0  0  0  0  0
  152.5433  141.1054  159.0541 H   0  0  0  0  0  0  0  0  0  0  0  0
  151.7084  145.2186  157.7755 H   0  0  0  0  0  0  0  0  0  0  0  0
  152.8930  143.9795  157.5385 H   0  0  0  0  0  0  0  0  0  0  0  0
  150.2026  144.1255  156.5311 H   0  0  0  0  0  0  0  0  0  0  0  0
  149.3458  142.7638  155.4194 H   0  0  0  0  0  0  0  0  0  0  0  0
  151.2587  139.5487  155.7560 H   0  0  0  0  0  0  0  0  0  0  0  0
  150.4159  137.4287  154.6642 H   0  0  0  0  0  0  0  0  0  0  0  0
  146.5137  139.9114  152.3000 H   0  0  0  0  0  0  0  0  0  0  0  0
  145.7212  139.4588  153.8157 H   0  0  0  0  0  0  0  0  0  0  0  0
  146.4384  138.2166  152.7871 H   0  0  0  0  0  0  0  0  0  0  0  0
  150.9565  145.6626  159.9689 H   0  0  0  0  0  0  0  0  0  0  0  0
  149.7607  144.3663  160.3349 H   0  0  0  0  0  0  0  0  0  0  0  0
  152.0392  144.9565  162.0363 H   0  0  0  0  0  0  0  0  0  0  0  0
  151.3004  143.3103  161.9200 H   0  0  0  0  0  0  0  0  0  0  0  0
  153.2609  142.8098  160.5437 H   0  0  0  0  0  0  0  0  0  0  0  0
  153.4535  144.5366  160.1009 H   0  0  0  0  0  0  0  0  0  0  0  0
  148.3741  137.4501  153.5802 H   0  0  0  0  0  0  0  0  0  0  0  0
  1  2  1  0  0  0  0
  1 20  1  0  0  0  0
  1 21  1  0  0  0  0
  1 22  1  0  0  0  0
  2  3  1  0  0  0  0
  3 19  1  0  0  0  0
  3  4  1  0  0  0  0
  3 17  1  0  0  0  0
  4  5  1  0  0  0  0
  4 23  1  0  0  0  0
  4 24  1  0  0  0  0
  5  6  1  0  0  0  0
  5 25  1  0  0  0  0
  6  7  2  0  0  0  0
  6  8  1  0  0  0  0
  8  9  1  0  0  0  0
  8 26  1  0  0  0  0
  9 15  1  0  0  0  0
  9 10  2  0  0  0  0
 10 11  1  0  0  0  0
 10 27  1  0  0  0  0
 11 12  2  0  0  0  0
 11 28  1  0  0  0  0
 12 13  1  0  0  0  0
 12 38  1  0  0  0  0
 13 14  1  0  0  0  0
 13 15  2  0  0  0  0
 14 29  1  0  0  0  0
 14 30  1  0  0  0  0
 14 31  1  0  0  0  0
 15 16  1  0  0  0  0
 17 18  1  0  0  0  0
 17 32  1  0  0  0  0
 17 33  1  0  0  0  0
 18 19  1  0  0  0  0
 18 34  1  0  0  0  0
 18 35  1  0  0  0  0
 19 36  1  0  0  0  0
 19 37  1  0  0  0  0
M  CHG  1  12   1
M  END
> <s_m_source_file>
AV-unprocessed.smi

> <i_m_source_file_index>
2797

> <i_lp_mmshare_version>
43012

> <i_f3d_flags>
0

> <s_epik_input>
W0NIMl0xW0NIMl1bQ0gyXUMxKE9bQ0gzXSlbQ0gyXVtOSF1DKD1PKVtOSF1jMltjSF1bY0hdbmMoW0NIM10pYzJDbA==

> <s_epik_cmdline>
J2VwaWtfcHl0aG9uJywgJy1waCcsICc3LjAnLCAnLXRuJywgJzgnLCAnLW1hJywgJzIwMCcsICctbWV0YWxfYmluZGluZycsICctaW1hZScsICc8aW5maWxlLm1hZT4nLCAnLW9tYWUnLCAnPG91dGZpbGUubWFlPic=

> <r_epik_Ionization_Penalty>
2.42651

> <r_epik_Ionization_Penalty_Charging>
2.42649

> <r_epik_Ionization_Penalty_Neutral>
1.93283e-05

> <r_epik_State_Penalty>
2.58622

> <r_epik_Charging_Adjusted_Penalty>
5.01271

> <i_epik_Tot_Q>
1

> <i_epik_Tot_abs_Q>
1

> <r_epik_Metal_State_Penalty>
2.59605

> <b_epik_Metal_Only>
0

> <s_lp_Force_Field>
OPLS_2005

> <r_lp_Energy>
25.6694

> <b_lp_Chiralities_Consistent>
1

> <s_lp_Variant>
AV-unprocessed.smi:2797-2

> <Gold.Version>
5.8.1

> <Gold.Id.Protein>
6NUR|6NUR_protein|mol2

> <Gold.PLP.Fitness>
51.1824

> <Gold.PLP.PLP>
-42.2075

> <Gold.PLP.part.hbond>
-4.0901

> <Gold.PLP.part.metal>
0.0000

> <Gold.PLP.part.buried>
-0.5599

> <Gold.PLP.part.nonpolar>
-37.3348

> <Gold.PLP.part.repulsive>
0.2660

> <Gold.PLP.ligand.clash>
0.0000

> <Gold.PLP.ligand.torsion>
1.6214

> <Gold.PLP.Chemscore.Hbond>
3.9760

> <Gold.PLP.Chemscore.CHOScore>
0.0000

> <Gold.PLP.Chemscore.Metal>
0.0000

> <Gold.Chemscore.Hbonds>
donor molecule, donor type, donor heavy atom, donor atom, acceptor molecule, acceptor atom, score
      L1  H     5    25       P1  8028  1.00
      L1  H     8    26       P1  8028  0.98
      L1  H    12    38       P1  7948  0.89

> <Gold.PLP.Chemscore.Internal.Correction>
0.2897

> <Gold.Rescore>
     Score         DG    S(hbond)    S(metal)    S(lipo)     H(rot)  DE(clash)    DE(int)     intcor
     17.58     -24.70       2.88        0.00     113.44       1.44       1.58       5.53       ----

> <Gold.Chemscore.Fitness>
17.5779

> <Gold.Chemscore.DG>
-24.6965

> <Gold.Chemscore.ZeroCoef>
-5.4800

> <Gold.Chemscore.Hbond>
2.8814

> <Gold.Chemscore.Metal>
0.0000

> <Gold.Chemscore.Lipo>
113.4402

> <Gold.Chemscore.Internal_Hbond>
0.0000

> <Gold.Chemscore.DEClash>
1.5845

> <Gold.Chemscore.DEInternal>
5.5341

> <Gold.Chemscore.Rot>
1.4375

> <Gold.Chemscore.Internal.Correction>
   9.000000E+99

> <Gold.Chemscore.Hbonds>
donor molecule, donor type, donor heavy atom, donor atom, acceptor molecule, acceptor atom, score
      L1  H     5    25       P1  8028  1.00
      L1  H     8    26       P1  8028  0.88
      L1  H    12    38       P1  7948  0.45

> <Gold.Chemscore.Hbond.Weighted>
-9.6240

> <Gold.Chemscore.Metal.Weighted>
-0.0000

> <Gold.Chemscore.Lipo.Weighted>
-13.2725

> <Gold.Chemscore.Internal_Hbond.Weighted>
0.0000

> <Gold.Chemscore.DEClash.Weighted>
1.5845

> <Gold.Chemscore.DEInternal.Weighted>
5.5341

> <Gold.Chemscore.Rot.Weighted>
3.6800

> <Gold.Chemscore.Internal.Correction.Weighted>
   9.000000E+99

> <Gold.Protein.RotatedTorsions>
[ 6907 6896 6895 6894 ] final   74.50 input  -60.11 | X-H torsion
[ 7974 7965 7964 7962 ] final -151.87 input  175.53 | X-H torsion
[ 8008 7997 7996 7995 ] final -132.75 input   59.86 | X-H torsion
[ 10167 10162 10161 10158 ] final -165.97 input  -65.29 | X-H torsion
[ 10718 10713 10712 10709 ] final  -12.09 input   66.30 | X-H torsion
[ 10763 10752 10751 10750 ] final -166.85 input  -60.55 | X-H torsion
[ 11005 11000 10999 10996 ] final   90.60 input  -57.11 | X-H torsion

> <Gold.Protein.ActiveResidues>
 VAL166  LYS551  ARG553  GLY616  TRP617  ASP618  TYR619  PRO620  LYS621  CYS622 
 ASP623  PHE694  ASN695  SER759  ASP760  ASP761  ALA762  ILE779  LEU786  VAL792 
 PHE793  MET794  SER795  GLU796  ALA797  LYS798  CYS799  TRP800  GLU811  SER814 

> <Gold.Protein.RotatedAtoms>
  152.4979  134.4262  159.9496 H   0  0  0  0  0  0  0  0  0  0  0  0  # atno 6907 bound_to 6896
  151.4238  133.3684  159.2767 H   0  0  0  0  0  0  0  0  0  0  0  0  # atno 6908 bound_to 6896
  150.9203  134.8644  159.7544 H   0  0  0  0  0  0  0  0  0  0  0  0  # atno 6909 bound_to 6896
  144.7825  140.4739  143.5829 H   0  0  0  0  0  0  0  0  0  0  0  0  # atno 7974 bound_to 7965
  155.3341  140.0468  157.3043 H   0  0  0  0  0  0  0  0  0  0  0  0  # atno 8008 bound_to 7997
  154.5312  140.2257  155.8766 H   0  0  0  0  0  0  0  0  0  0  0  0  # atno 8009 bound_to 7997
  156.1790  140.3078  155.9120 H   0  0  0  0  0  0  0  0  0  0  0  0  # atno 8010 bound_to 7997
  139.6146  144.0746  152.1875 H   0  0  0  0  0  0  0  0  0  0  0  0  # atno 10167 bound_to 10162
  156.6497  130.4951  149.6066 H   0  0  0  0  0  0  0  0  0  0  0  0  # atno 10718 bound_to 10713
  154.6791  135.2951  154.9638 H   0  0  0  0  0  0  0  0  0  0  0  0  # atno 10763 bound_to 10752
  154.0639  135.6627  153.4819 H   0  0  0  0  0  0  0  0  0  0  0  0  # atno 10764 bound_to 10752
  153.0535  135.5159  154.7825 H   0  0  0  0  0  0  0  0  0  0  0  0  # atno 10765 bound_to 10752
  139.8853  134.8624  156.3308 H   0  0  0  0  0  0  0  0  0  0  0  0  # atno 11005 bound_to 11000
  145.6010  139.1504  143.3129 LP  0  0  0  0  0  0  0  0  0  0  0  0  # atno 17320 bound_to 7965
  146.2041  140.6131  142.9089 LP  0  0  0  0  0  0  0  0  0  0  0  0  # atno 17321 bound_to 7965
  140.0373  144.6035  150.7439 LP  0  0  0  0  0  0  0  0  0  0  0  0  # atno 17342 bound_to 10162
  140.7342  143.2726  151.3840 LP  0  0  0  0  0  0  0  0  0  0  0  0  # atno 17343 bound_to 10162
  156.2094  130.6669  151.1253 LP  0  0  0  0  0  0  0  0  0  0  0  0  # atno 17370 bound_to 10713
  157.7145  131.0717  150.6379 LP  0  0  0  0  0  0  0  0  0  0  0  0  # atno 17371 bound_to 10713
  140.9724  133.7319  156.0553 LP  0  0  0  0  0  0  0  0  0  0  0  0  # atno 17394 bound_to 11000
  140.7854  134.3678  157.5477 LP  0  0  0  0  0  0  0  0  0  0  0  0  # atno 17395 bound_to 11000

$$$$
