AV-unprocessed.smi:370|AV-procd|sdf|2437|dock4
  -GOLD-   2262022373D 1   1.00000     0.00000
 Structure written by MMmdl.
 43 44  0  0  0  0  0  0  0  0  2 V2000
  153.4082  141.8262  160.9024 C   0  0  0  0  0  0  0  0  0  0  0  0
  152.6459  142.4131  159.7645 C   0  0  0  0  0  0  0  0  0  0  0  0
  151.6882  141.9120  158.9285 C   0  0  0  0  0  0  0  0  0  0  0  0
  151.4003  143.0114  158.0771 C   0  0  0  0  0  0  0  0  0  0  0  0
  150.4301  142.9012  157.0484 N   0  0  0  0  0  0  0  0  0  0  0  0
  150.0213  141.7822  156.4267 C   0  0  0  0  0  0  0  0  0  0  0  0
  150.4151  140.6440  156.6821 O   0  0  0  0  0  0  0  0  0  0  0  0
  149.1190  142.0558  155.4725 N   0  0  0  0  0  0  0  0  0  0  0  0
  148.4668  141.0695  154.6099 C   0  0  0  0  0  0  0  0  0  0  0  0
  146.9256  141.2643  154.4606 C   0  0  0  0  0  0  0  0  0  0  0  0
  146.3197  141.3312  155.8877 C   0  0  0  0  0  0  0  0  0  0  0  0
  146.6018  142.6011  153.7484 C   0  0  0  0  0  0  0  0  0  0  0  0
  146.3707  140.0914  153.6877 N   0  3  0  0  0  0  0  0  0  0  0  0
  147.1328  139.6776  152.4740 C   0  0  0  0  0  0  0  0  0  0  0  0
  146.3836  138.5751  151.7041 C   0  0  0  0  0  0  0  0  0  0  0  0
  146.1303  137.4672  152.5550 O   0  0  0  0  0  0  0  0  0  0  0  0
  145.3154  137.8336  153.6584 C   0  0  0  0  0  0  0  0  0  0  0  0
  146.0517  138.8840  154.5038 C   0  0  0  0  0  0  0  0  0  0  0  0
  152.1165  144.0867  158.3673 N   0  0  0  0  0  0  0  0  0  0  0  0
  152.9187  143.7086  159.4504 O   0  0  0  0  0  0  0  0  0  0  0  0
  153.1579  140.7739  161.0371 H   0  0  0  0  0  0  0  0  0  0  0  0
  153.1805  142.3502  161.8307 H   0  0  0  0  0  0  0  0  0  0  0  0
  154.4816  141.8991  160.7264 H   0  0  0  0  0  0  0  0  0  0  0  0
  151.2646  140.9185  158.9291 H   0  0  0  0  0  0  0  0  0  0  0  0
  150.0114  143.7689  156.7476 H   0  0  0  0  0  0  0  0  0  0  0  0
  148.8570  143.0211  155.3338 H   0  0  0  0  0  0  0  0  0  0  0  0
  148.9711  141.0700  153.6450 H   0  0  0  0  0  0  0  0  0  0  0  0
  148.6670  140.0875  155.0400 H   0  0  0  0  0  0  0  0  0  0  0  0
  146.7849  142.1072  156.4953 H   0  0  0  0  0  0  0  0  0  0  0  0
  146.4434  140.3872  156.4198 H   0  0  0  0  0  0  0  0  0  0  0  0
  145.2572  141.5758  155.8727 H   0  0  0  0  0  0  0  0  0  0  0  0
  146.8740  143.4583  154.3647 H   0  0  0  0  0  0  0  0  0  0  0  0
  145.5378  142.6966  153.5323 H   0  0  0  0  0  0  0  0  0  0  0  0
  147.1439  142.7070  152.8084 H   0  0  0  0  0  0  0  0  0  0  0  0
  147.2664  140.5062  151.7809 H   0  0  0  0  0  0  0  0  0  0  0  0
  148.1255  139.3265  152.7579 H   0  0  0  0  0  0  0  0  0  0  0  0
  145.4452  138.9560  151.2974 H   0  0  0  0  0  0  0  0  0  0  0  0
  146.9816  138.2381  150.8573 H   0  0  0  0  0  0  0  0  0  0  0  0
  144.3515  138.2113  153.3132 H   0  0  0  0  0  0  0  0  0  0  0  0
  145.1139  136.9445  154.2560 H   0  0  0  0  0  0  0  0  0  0  0  0
  146.9686  138.4394  154.8925 H   0  0  0  0  0  0  0  0  0  0  0  0
  145.4302  139.1285  155.3623 H   0  0  0  0  0  0  0  0  0  0  0  0
  145.4841  140.4194  153.3317 H   0  0  0  0  0  0  0  0  0  0  0  0
  1  2  1  0  0  0  0
  1 21  1  0  0  0  0
  1 22  1  0  0  0  0
  1 23  1  0  0  0  0
  2 20  1  0  0  0  0
  2  3  2  0  0  0  0
  3  4  1  0  0  0  0
  3 24  1  0  0  0  0
  4  5  1  0  0  0  0
  4 19  2  0  0  0  0
  5  6  1  0  0  0  0
  5 25  1  0  0  0  0
  6  7  2  0  0  0  0
  6  8  1  0  0  0  0
  8  9  1  0  0  0  0
  8 26  1  0  0  0  0
  9 10  1  0  0  0  0
  9 27  1  0  0  0  0
  9 28  1  0  0  0  0
 10 11  1  0  0  0  0
 10 12  1  0  0  0  0
 10 13  1  0  0  0  0
 11 29  1  0  0  0  0
 11 30  1  0  0  0  0
 11 31  1  0  0  0  0
 12 32  1  0  0  0  0
 12 33  1  0  0  0  0
 12 34  1  0  0  0  0
 13 18  1  0  0  0  0
 13 14  1  0  0  0  0
 13 43  1  0  0  0  0
 14 15  1  0  0  0  0
 14 35  1  0  0  0  0
 14 36  1  0  0  0  0
 15 16  1  0  0  0  0
 15 37  1  0  0  0  0
 15 38  1  0  0  0  0
 16 17  1  0  0  0  0
 17 18  1  0  0  0  0
 17 39  1  0  0  0  0
 17 40  1  0  0  0  0
 18 41  1  0  0  0  0
 18 42  1  0  0  0  0
 19 20  1  0  0  0  0
M  CHG  1  13   1
M  END
> <s_m_source_file>
AV-unprocessed.smi

> <i_m_source_file_index>
370

> <i_lp_mmshare_version>
43012

> <i_f3d_flags>
0

> <s_epik_input>
W0NIM11jMVtjSF1jKG5vMSlbTkhdQyg9TylbTkhdW0NIMl1DKFtDSDNdKShbQ0gzXSlOMltDSDJdW0NIMl1PW0NIMl1bQ0gyXTI=

> <s_epik_cmdline>
J2VwaWtfcHl0aG9uJywgJy1waCcsICc3LjAnLCAnLXRuJywgJzgnLCAnLW1hJywgJzIwMCcsICctbWV0YWxfYmluZGluZycsICctaW1hZScsICc8aW5maWxlLm1hZT4nLCAnLW9tYWUnLCAnPG91dGZpbGUubWFlPic=

> <r_epik_Ionization_Penalty>
0.707076

> <r_epik_Ionization_Penalty_Charging>
0.707039

> <r_epik_Ionization_Penalty_Neutral>
3.67886e-05

> <r_epik_State_Penalty>
0.730276

> <r_epik_Charging_Adjusted_Penalty>
1.43732

> <i_epik_Tot_Q>
1

> <i_epik_Tot_abs_Q>
1

> <r_epik_Metal_State_Penalty>
0.743216

> <b_epik_Metal_Only>
0

> <s_lp_Force_Field>
OPLS_2005

> <r_lp_Energy>
23.7539

> <b_lp_Chiralities_Consistent>
1

> <s_lp_Variant>
AV-unprocessed.smi:370-2

> <Gold.Version>
5.8.1

> <Gold.Id.Protein>
6NUR|6NUR_protein|mol2

> <Gold.PLP.Fitness>
45.4369

> <Gold.PLP.PLP>
-35.1205

> <Gold.PLP.part.hbond>
-3.0000

> <Gold.PLP.part.metal>
0.0000

> <Gold.PLP.part.buried>
-4.0764

> <Gold.PLP.part.nonpolar>
-29.4493

> <Gold.PLP.part.repulsive>
0.9057

> <Gold.PLP.ligand.clash>
0.0000

> <Gold.PLP.ligand.torsion>
0.8877

> <Gold.PLP.Chemscore.Hbond>
4.0000

> <Gold.PLP.Chemscore.CHOScore>
0.0000

> <Gold.PLP.Chemscore.Metal>
0.0000

> <Gold.Chemscore.Hbonds>
donor molecule, donor type, donor heavy atom, donor atom, acceptor molecule, acceptor atom, score
      L1  H     5    25       P1  8028  1.00
      L1  H     8    26       P1  8028  1.00
      L1  H    13    43       P1 10175  2.00

> <Gold.PLP.Chemscore.Internal.Correction>
0.0917

> <Gold.Rescore>
     Score         DG    S(hbond)    S(metal)    S(lipo)     H(rot)  DE(clash)    DE(int)     intcor
     17.52     -19.63       2.92        0.00      72.55       1.60       0.05       2.05       ----

> <Gold.Chemscore.Fitness>
17.5250

> <Gold.Chemscore.DG>
-19.6342

> <Gold.Chemscore.ZeroCoef>
-5.4800

> <Gold.Chemscore.Hbond>
2.9209

> <Gold.Chemscore.Metal>
0.0000

> <Gold.Chemscore.Lipo>
72.5548

> <Gold.Chemscore.Internal_Hbond>
0.0000

> <Gold.Chemscore.DEClash>
0.0546

> <Gold.Chemscore.DEInternal>
2.0546

> <Gold.Chemscore.Rot>
1.5979

> <Gold.Chemscore.Internal.Correction>
   9.000000E+99

> <Gold.Chemscore.Hbonds>
donor molecule, donor type, donor heavy atom, donor atom, acceptor molecule, acceptor atom, score
      L1  H     5    25       P1  8028  0.97
      L1  H     8    26       P1  8028  0.99
      L1  H    13    43       P1 10175  0.94

> <Gold.Chemscore.Hbond.Weighted>
-9.7559

> <Gold.Chemscore.Metal.Weighted>
-0.0000

> <Gold.Chemscore.Lipo.Weighted>
-8.4889

> <Gold.Chemscore.Internal_Hbond.Weighted>
0.0000

> <Gold.Chemscore.DEClash.Weighted>
0.0546

> <Gold.Chemscore.DEInternal.Weighted>
2.0546

> <Gold.Chemscore.Rot.Weighted>
4.0906

> <Gold.Chemscore.Internal.Correction.Weighted>
   9.000000E+99

> <Gold.Protein.RotatedTorsions>
[ 6907 6896 6895 6894 ] final  150.68 input  -60.11 | X-H torsion
[ 7974 7965 7964 7962 ] final  -13.86 input  175.53 | X-H torsion
[ 8008 7997 7996 7995 ] final  -67.15 input   59.86 | X-H torsion
[ 10167 10162 10161 10158 ] final -108.71 input  -65.29 | X-H torsion
[ 10718 10713 10712 10709 ] final  -77.67 input   66.30 | X-H torsion
[ 10763 10752 10751 10750 ] final  -76.53 input  -60.55 | X-H torsion
[ 11005 11000 10999 10996 ] final   60.52 input  -57.11 | X-H torsion

> <Gold.Protein.ActiveResidues>
 VAL166  LYS551  ARG553  GLY616  TRP617  ASP618  TYR619  PRO620  LYS621  CYS622 
 ASP623  PHE694  ASN695  SER759  ASP760  ASP761  ALA762  ILE779  LEU786  VAL792 
 PHE793  MET794  SER795  GLU796  ALA797  LYS798  CYS799  TRP800  GLU811  SER814 

> <Gold.Protein.RotatedAtoms>
  152.1110  133.4301  159.4630 H   0  0  0  0  0  0  0  0  0  0  0  0  # atno 6907 bound_to 6896
  150.6867  134.2648  159.4573 H   0  0  0  0  0  0  0  0  0  0  0  0  # atno 6908 bound_to 6896
  152.0516  134.9649  160.0625 H   0  0  0  0  0  0  0  0  0  0  0  0  # atno 6909 bound_to 6896
  146.2097  140.3264  142.8395 H   0  0  0  0  0  0  0  0  0  0  0  0  # atno 7974 bound_to 7965
  154.4781  140.0898  156.7311 H   0  0  0  0  0  0  0  0  0  0  0  0  # atno 8008 bound_to 7997
  155.4542  140.3458  155.4286 H   0  0  0  0  0  0  0  0  0  0  0  0  # atno 8009 bound_to 7997
  156.1149  140.1458  156.9276 H   0  0  0  0  0  0  0  0  0  0  0  0  # atno 8010 bound_to 7997
  140.1632  143.4103  152.1410 H   0  0  0  0  0  0  0  0  0  0  0  0  # atno 10167 bound_to 10162
  156.0138  130.4497  150.3381 H   0  0  0  0  0  0  0  0  0  0  0  0  # atno 10718 bound_to 10713
  154.5011  135.5794  153.6532 H   0  0  0  0  0  0  0  0  0  0  0  0  # atno 10763 bound_to 10752
  152.9879  135.6136  154.3001 H   0  0  0  0  0  0  0  0  0  0  0  0  # atno 10764 bound_to 10752
  154.2909  135.2848  155.2635 H   0  0  0  0  0  0  0  0  0  0  0  0  # atno 10765 bound_to 10752
  140.0226  134.6130  155.9618 H   0  0  0  0  0  0  0  0  0  0  0  0  # atno 11005 bound_to 11000
  144.8883  140.7491  143.5942 LP  0  0  0  0  0  0  0  0  0  0  0  0  # atno 17320 bound_to 7965
  145.3186  139.1795  143.4600 LP  0  0  0  0  0  0  0  0  0  0  0  0  # atno 17321 bound_to 7965
  139.5371  144.7221  151.4856 LP  0  0  0  0  0  0  0  0  0  0  0  0  # atno 17342 bound_to 10162
  140.6629  143.8459  150.6909 LP  0  0  0  0  0  0  0  0  0  0  0  0  # atno 17343 bound_to 10162
  157.1477  131.0313  151.2899 LP  0  0  0  0  0  0  0  0  0  0  0  0  # atno 17370 bound_to 10713
  157.4418  130.7549  149.7076 LP  0  0  0  0  0  0  0  0  0  0  0  0  # atno 17371 bound_to 10713
  141.1783  133.6543  156.4917 LP  0  0  0  0  0  0  0  0  0  0  0  0  # atno 17394 bound_to 11000
  140.4361  134.7058  157.4967 LP  0  0  0  0  0  0  0  0  0  0  0  0  # atno 17395 bound_to 11000

$$$$
