AV-unprocessed.smi:2881|AV-procd|sdf|11068|dock5
  -GOLD-   2272015543D 1   1.00000     0.00000
 Structure written by MMmdl.
 40 42  0  0  0  0  0  0  0  0  1 V2000
  149.4076  136.4456  158.1619 C   0  0  0  0  0  0  0  0  0  0  0  0
  149.5621  135.3718  157.1255 C   0  0  0  0  0  0  0  0  0  0  0  0
  149.2562  135.4399  155.7344 C   0  0  0  0  0  0  0  0  0  0  0  0
  149.5797  134.2008  155.2558 C   0  0  0  0  0  0  0  0  0  0  0  0
  149.4956  133.6199  153.8811 C   0  0  0  0  0  0  0  0  0  0  0  0
  148.0930  133.0825  153.6001 C   0  0  0  0  0  0  0  0  0  0  0  0
  147.7234  132.0267  154.1135 O   0  0  0  0  0  0  0  0  0  0  0  0
  147.3221  133.8189  152.7858 N   0  0  0  0  0  0  0  0  0  0  0  0
  145.9557  133.4798  152.3959 C   0  0  1  0  0  0  0  0  0  0  0  0
  144.9347  134.6114  152.6780 C   0  0  1  0  0  0  0  0  0  0  0  0
  145.4057  135.9591  152.0902 C   0  0  0  0  0  0  0  0  0  0  0  0
  145.2744  135.7281  150.5733 C   0  0  0  0  0  0  0  0  0  0  0  0
  144.7177  134.2931  150.4934 C   0  0  2  0  0  0  0  0  0  0  0  0
  143.8090  134.2522  151.7169 C   0  0  0  0  0  0  0  0  0  0  0  0
  145.8362  133.2882  150.8616 C   0  0  2  0  0  0  0  0  0  0  0  0
  145.5174  131.8326  150.4682 C   0  0  0  0  0  0  0  0  0  0  0  0
  146.4613  130.9505  151.0381 O   0  0  0  0  0  0  0  0  0  0  0  0
  150.0409  133.4818  156.3354 N   0  0  0  0  0  0  0  0  0  0  0  0
  150.0352  134.1867  157.4820 N   0  0  0  0  0  0  0  0  0  0  0  0
  150.3611  132.5241  156.3035 H   0  0  0  0  0  0  0  0  0  0  0  0
  149.1627  137.4036  157.7029 H   0  0  0  0  0  0  0  0  0  0  0  0
  150.3266  136.5780  158.7333 H   0  0  0  0  0  0  0  0  0  0  0  0
  148.6101  136.2003  158.8637 H   0  0  0  0  0  0  0  0  0  0  0  0
  148.8598  136.2734  155.1737 H   0  0  0  0  0  0  0  0  0  0  0  0
  150.2240  132.8157  153.7684 H   0  0  0  0  0  0  0  0  0  0  0  0
  149.7506  134.3753  153.1365 H   0  0  0  0  0  0  0  0  0  0  0  0
  147.7071  134.6723  152.4077 H   0  0  0  0  0  0  0  0  0  0  0  0
  145.6444  132.5704  152.9144 H   0  0  0  0  0  0  0  0  0  0  0  0
  144.6354  134.6760  153.7247 H   0  0  0  0  0  0  0  0  0  0  0  0
  144.7431  136.7651  152.4080 H   0  0  0  0  0  0  0  0  0  0  0  0
  146.4172  136.2360  152.3877 H   0  0  0  0  0  0  0  0  0  0  0  0
  144.5739  136.4417  150.1378 H   0  0  0  0  0  0  0  0  0  0  0  0
  146.2259  135.8353  150.0514 H   0  0  0  0  0  0  0  0  0  0  0  0
  144.2214  134.0794  149.5464 H   0  0  0  0  0  0  0  0  0  0  0  0
  143.3726  133.2711  151.9090 H   0  0  0  0  0  0  0  0  0  0  0  0
  143.0099  134.9951  151.6873 H   0  0  0  0  0  0  0  0  0  0  0  0
  146.7645  133.5748  150.3633 H   0  0  0  0  0  0  0  0  0  0  0  0
  144.5279  131.5541  150.8321 H   0  0  0  0  0  0  0  0  0  0  0  0
  145.5098  131.7019  149.3861 H   0  0  0  0  0  0  0  0  0  0  0  0
  147.3104  131.1387  150.6684 H   0  0  0  0  0  0  0  0  0  0  0  0
  1 21  1  0  0  0  0
  1 22  1  0  0  0  0
  1 23  1  0  0  0  0
  1  2  1  0  0  0  0
  2 19  2  0  0  0  0
  2  3  1  0  0  0  0
  3  4  2  0  0  0  0
  3 24  1  0  0  0  0
  4 18  1  0  0  0  0
  4  5  1  0  0  0  0
  5  6  1  0  0  0  0
  5 25  1  0  0  0  0
  5 26  1  0  0  0  0
  6  7  2  0  0  0  0
  6  8  1  0  0  0  0
  8  9  1  0  0  0  0
  8 27  1  0  0  0  0
  9 15  1  0  0  0  0
  9 10  1  0  0  0  0
  9 28  1  0  0  0  0
 10 14  1  0  0  0  0
 10 11  1  0  0  0  0
 10 29  1  0  0  0  0
 11 12  1  0  0  0  0
 11 30  1  0  0  0  0
 11 31  1  0  0  0  0
 12 13  1  0  0  0  0
 12 32  1  0  0  0  0
 12 33  1  0  0  0  0
 13 14  1  0  0  0  0
 13 15  1  0  0  0  0
 13 34  1  0  0  0  0
 14 35  1  0  0  0  0
 14 36  1  0  0  0  0
 15 16  1  0  0  0  0
 15 37  1  0  0  0  0
 16 17  1  0  0  0  0
 16 38  1  0  0  0  0
 16 39  1  0  0  0  0
 17 40  1  0  0  0  0
 18 19  1  0  0  0  0
 18 20  1  0  0  0  0
M  END
> <s_m_source_file>
AV-unprocessed.smi

> <i_m_source_file_index>
2881

> <i_lp_mmshare_version>
43012

> <i_f3d_flags>
0

> <s_epik_input>
W0NIM11jMVtjSF1jKG5bbkhdMSlbQ0gyXUMoPU8pW05IXVtDQEhdKFtDQEBIXTIzKVtDQEhdKFtDSDJdW09IXSlbQ0BASF0oW0NIMl0zKVtDSDJdW0NIMl0y

> <s_epik_cmdline>
J2VwaWtfcHl0aG9uJywgJy1waCcsICc3LjAnLCAnLXRuJywgJzgnLCAnLW1hJywgJzIwMCcsICctbWV0YWxfYmluZGluZycsICctaW1hZScsICc8aW5maWxlLm1hZT4nLCAnLW9tYWUnLCAnPG91dGZpbGUubWFlPic=

> <r_lp_tautomer_probability>
0.5

> <r_epik_Ionization_Penalty>
0.00013396

> <r_epik_Ionization_Penalty_Charging>
0

> <r_epik_Ionization_Penalty_Neutral>
0.00013396

> <r_epik_State_Penalty>
0.41068

> <r_epik_Charging_Adjusted_Penalty>
0.41068

> <i_epik_Tot_Q>
0

> <i_epik_Tot_abs_Q>
0

> <r_epik_Metal_State_Penalty>
0.41066

> <b_epik_Metal_Only>
0

> <s_lp_Force_Field>
OPLS_2005

> <r_lp_Energy>
46.8949

> <b_lp_Chiralities_Consistent>
1

> <s_lp_Variant>
AV-unprocessed.smi:2881-14

> <Gold.Version>
5.8.1

> <Gold.Id.Protein>
6NUR|6NUR_protein|mol2

> <Gold.PLP.Fitness>
38.7307

> <Gold.PLP.PLP>
-31.1790

> <Gold.PLP.part.hbond>
-3.0000

> <Gold.PLP.part.metal>
0.0000

> <Gold.PLP.part.buried>
-4.7812

> <Gold.PLP.part.nonpolar>
-23.4683

> <Gold.PLP.part.repulsive>
0.1237

> <Gold.PLP.ligand.clash>
0.0000

> <Gold.PLP.ligand.torsion>
0.5791

> <Gold.PLP.Chemscore.Hbond>
2.8960

> <Gold.PLP.Chemscore.CHOScore>
0.0000

> <Gold.PLP.Chemscore.Metal>
0.0000

> <Gold.Chemscore.Hbonds>
donor molecule, donor type, donor heavy atom, donor atom, acceptor molecule, acceptor atom, score
      L1  H     8    27       P1  7948  1.00
      L1  H    17    40       P1 10747  1.00
      P1  H  6896  6908       L1    19  0.91

> <Gold.PLP.Chemscore.Internal.Correction>
0.0219

> <Gold.Rescore>
     Score         DG    S(hbond)    S(metal)    S(lipo)     H(rot)  DE(clash)    DE(int)     intcor
     16.20     -16.74       2.79        0.00      66.31       2.28       0.01       0.54       ----

> <Gold.Chemscore.Fitness>
16.2021

> <Gold.Chemscore.DG>
-16.7444

> <Gold.Chemscore.ZeroCoef>
-5.4800

> <Gold.Chemscore.Hbond>
2.7938

> <Gold.Chemscore.Metal>
0.0000

> <Gold.Chemscore.Lipo>
66.3096

> <Gold.Chemscore.Internal_Hbond>
0.0000

> <Gold.Chemscore.DEClash>
0.0063

> <Gold.Chemscore.DEInternal>
0.5360

> <Gold.Chemscore.Rot>
2.2755

> <Gold.Chemscore.Internal.Correction>
   9.000000E+99

> <Gold.Chemscore.Hbonds>
donor molecule, donor type, donor heavy atom, donor atom, acceptor molecule, acceptor atom, score
      L1  H     8    27       P1  7948  0.73
      L1  H    17    40       P1 10747  0.99
      P1  H  6896  6908       L1    19  0.86

> <Gold.Chemscore.Hbond.Weighted>
-9.3314

> <Gold.Chemscore.Metal.Weighted>
-0.0000

> <Gold.Chemscore.Lipo.Weighted>
-7.7582

> <Gold.Chemscore.Internal_Hbond.Weighted>
0.0000

> <Gold.Chemscore.DEClash.Weighted>
0.0063

> <Gold.Chemscore.DEInternal.Weighted>
0.5360

> <Gold.Chemscore.Rot.Weighted>
5.8252

> <Gold.Chemscore.Internal.Correction.Weighted>
   9.000000E+99

> <Gold.Protein.RotatedTorsions>
[ 6907 6896 6895 6894 ] final  125.31 input  -60.11 | X-H torsion
[ 7974 7965 7964 7962 ] final  133.06 input  175.53 | X-H torsion
[ 8008 7997 7996 7995 ] final  101.75 input   59.86 | X-H torsion
[ 10167 10162 10161 10158 ] final -124.26 input  -65.29 | X-H torsion
[ 10718 10713 10712 10709 ] final   -4.69 input   66.30 | X-H torsion
[ 10763 10752 10751 10750 ] final -143.83 input  -60.55 | X-H torsion
[ 11005 11000 10999 10996 ] final  162.38 input  -57.11 | X-H torsion

> <Gold.Protein.ActiveResidues>
 VAL166  LYS551  ARG553  GLY616  TRP617  ASP618  TYR619  PRO620  LYS621  CYS622 
 ASP623  PHE694  ASN695  SER759  ASP760  ASP761  ALA762  ILE779  LEU786  VAL792 
 PHE793  MET794  SER795  GLU796  ALA797  LYS798  CYS799  TRP800  GLU811  SER814 

> <Gold.Protein.RotatedAtoms>
  152.4003  133.6807  159.6310 H   0  0  0  0  0  0  0  0  0  0  0  0  # atno 6907 bound_to 6896
  150.7895  133.8803  159.3293 H   0  0  0  0  0  0  0  0  0  0  0  0  # atno 6908 bound_to 6896
  151.6570  135.0996  160.0223 H   0  0  0  0  0  0  0  0  0  0  0  0  # atno 6909 bound_to 6896
  144.9904  139.4412  143.5342 H   0  0  0  0  0  0  0  0  0  0  0  0  # atno 7974 bound_to 7965
  156.1329  140.3192  155.8376 H   0  0  0  0  0  0  0  0  0  0  0  0  # atno 8008 bound_to 7997
  155.4299  140.0518  157.3036 H   0  0  0  0  0  0  0  0  0  0  0  0  # atno 8009 bound_to 7997
  154.4913  140.2093  155.9554 H   0  0  0  0  0  0  0  0  0  0  0  0  # atno 8010 bound_to 7997
  139.9947  143.5604  152.2328 H   0  0  0  0  0  0  0  0  0  0  0  0  # atno 10167 bound_to 10162
  156.7575  130.5259  149.5791 H   0  0  0  0  0  0  0  0  0  0  0  0  # atno 10718 bound_to 10713
  154.8453  135.3457  154.6250 H   0  0  0  0  0  0  0  0  0  0  0  0  # atno 10763 bound_to 10752
  153.6859  135.6977  153.5108 H   0  0  0  0  0  0  0  0  0  0  0  0  # atno 10764 bound_to 10752
  153.2632  135.4316  155.0870 H   0  0  0  0  0  0  0  0  0  0  0  0  # atno 10765 bound_to 10752
  140.2252  134.8166  157.3261 H   0  0  0  0  0  0  0  0  0  0  0  0  # atno 11005 bound_to 11000
  146.3430  139.9232  142.8764 LP  0  0  0  0  0  0  0  0  0  0  0  0  # atno 17320 bound_to 7965
  145.2294  140.9967  143.3999 LP  0  0  0  0  0  0  0  0  0  0  0  0  # atno 17321 bound_to 7965
  139.6315  144.7645  151.2527 LP  0  0  0  0  0  0  0  0  0  0  0  0  # atno 17342 bound_to 10162
  140.7441  143.6472  150.8281 LP  0  0  0  0  0  0  0  0  0  0  0  0  # atno 17343 bound_to 10162
  156.1361  130.6212  151.0401 LP  0  0  0  0  0  0  0  0  0  0  0  0  # atno 17370 bound_to 10713
  157.6749  131.0852  150.7519 LP  0  0  0  0  0  0  0  0  0  0  0  0  # atno 17371 bound_to 10713
  140.1808  134.4492  155.7773 LP  0  0  0  0  0  0  0  0  0  0  0  0  # atno 17394 bound_to 11000
  141.2221  133.6983  156.7865 LP  0  0  0  0  0  0  0  0  0  0  0  0  # atno 17395 bound_to 11000

$$$$
