#       Name:                AV-unprocessed.smi:2044
#       Creating user name   scv26
#       Creation time:       Fri Mar 27 10:57:06 2020


#       File generated by GOLD software.
#

@<TRIPOS>MOLECULE
AV-unprocessed.smi:2044
    47    48     1
SMALL
NO_CHARGES


@<TRIPOS>ATOM
      1 ****        -6.5146   4.0141  -1.2425 C.3            1 S1                 0.0000
      2 ****        -5.4918   3.2078  -0.5173 C.2            1 S1                 0.0000
      3 ****        -4.7352   2.1285  -0.8766 C.2            1 S1                 0.0000
      4 ****        -3.9637   1.8701   0.2896 C.2            1 S1                 0.0000
      5 ****        -3.0630   0.8868   0.4412 N.pl3          1 S1                -1.0000
      6 ****        -1.7942   1.0531   0.0037 C.2            1 S1                 0.0000
      7 ****        -1.3430   2.0408  -0.5806 O.2            1 S1                 0.0000
      8 ****        -0.9953   0.0093   0.2612 N.am           1 S1                 0.0000
      9 ****         0.4205  -0.0699  -0.0802 C.3            1 S1                 0.0000
     10 ****         1.1300  -1.2665   0.6072 C.3            1 S1                 0.0000
     11 ****         0.9163  -1.2071   2.1402 C.3            1 S1                 0.0000
     12 ****         2.5899  -1.3395   0.2632 N.4            1 S1                 1.0000
     13 ****         3.2778  -2.5232   0.8514 C.3            1 S1                 0.0000
     14 ****         4.7737  -2.5405   0.4965 C.3            1 S1                 0.0000
     15 ****         4.9305  -2.5277  -0.9130 O.3            1 S1                 0.0000
     16 ****         4.3913  -1.3432  -1.4771 C.3            1 S1                 0.0000
     17 ****         2.8809  -1.2697  -1.1968 C.3            1 S1                 0.0000
     18 ****        -4.2419   2.7066   1.2752 N.2            1 S1                 0.0000
     19 ****        -5.2159   3.5723   0.7638 O.3            1 S1                 0.0000
     20 ****        -7.3256   3.3785  -1.5979 H              1 S1                 0.0000
     21 ****        -6.0715   4.5120  -2.1050 H              1 S1                 0.0000
     22 ****        -6.9445   4.7788  -0.5952 H              1 S1                 0.0000
     23 ****        -4.7293   1.6094  -1.8232 H              1 S1                 0.0000
     24 ****        -1.4016  -0.7809   0.7405 H              1 S1                 0.0000
     25 ****         0.4545  -0.1568  -1.1656 H              1 S1                 0.0000
     26 ****         0.9196   0.8622   0.1909 H              1 S1                 0.0000
     27 ****         0.6600  -2.1801   0.2388 H              1 S1                 0.0000
     28 ****        -0.1318  -1.0749   2.4072 H              1 S1                 0.0000
     29 ****         1.4708  -0.3800   2.5843 H              1 S1                 0.0000
     30 ****         1.2205  -2.1262   2.6382 H              1 S1                 0.0000
     31 ****         3.2046  -2.5229   1.9371 H              1 S1                 0.0000
     32 ****         2.8002  -3.4372   0.4952 H              1 S1                 0.0000
     33 ****         5.2915  -1.6902   0.9437 H              1 S1                 0.0000
     34 ****         5.2423  -3.4410   0.8939 H              1 S1                 0.0000
     35 ****         4.9047  -0.4668  -1.0780 H              1 S1                 0.0000
     36 ****         4.5719  -1.3523  -2.5522 H              1 S1                 0.0000
     37 ****         2.3629  -2.0800  -1.7124 H              1 S1                 0.0000
     38 ****         2.5282  -0.3323  -1.6231 H              1 S1                 0.0000
     39 ****         3.0188  -0.5228   0.6747 H              1 S1                 0.0000
     40 ****        -3.3308   0.0286   0.8790 LP             1 S1                 0.0000
     41 ****        -1.9364   2.8225  -0.7728 LP             1 S1                 0.0000
     42 ****        -0.3836   2.0602  -0.8623 LP             1 S1                 0.0000
     43 ****         4.4577  -3.3187  -1.3013 LP             1 S1                 0.0000
     44 ****         5.9045  -2.5802  -1.1336 LP             1 S1                 0.0000
     45 ****        -3.8414   2.7183   2.1914 LP             1 S1                 0.0000
     46 ****        -6.0460   3.5102   1.3178 LP             1 S1                 0.0000
     47 ****        -4.8736   4.5118   0.7804 LP             1 S1                 0.0000
@<TRIPOS>BOND
    1    1    2 1     
    2    1   20 1     
    3    1   21 1     
    4    1   22 1     
    5    2   19 1     
    6    2    3 2     
    7    3    4 1     
    8    3   23 1     
    9    4    5 1     
   10    4   18 2     
   11    5    6 1     
   12    6    7 2     
   13    6    8 am    
   14    8    9 1     
   15    8   24 1     
   16    9   10 1     
   17    9   25 1     
   18    9   26 1     
   19   10   11 1     
   20   10   12 1     
   21   10   27 1     
   22   11   28 1     
   23   11   29 1     
   24   11   30 1     
   25   12   17 1     
   26   12   13 1     
   27   12   39 1     
   28   13   14 1     
   29   13   31 1     
   30   13   32 1     
   31   14   15 1     
   32   14   33 1     
   33   14   34 1     
   34   15   16 1     
   35   16   17 1     
   36   16   35 1     
   37   16   36 1     
   38   17   37 1     
   39   17   38 1     
   40   18   19 1     
   41    5   40 1     
   42    7   41 1     
   43    7   42 1     
   44   15   43 1     
   45   15   44 1     
   46   18   45 1     
   47   19   46 1     
   48   19   47 1     
@<TRIPOS>SUBSTRUCTURE
      1 S1             1
@<TRIPOS>SET
LONE_PAIRS      STATIC     ATOMS    <user>   **** ""
8 40 41 42 43 44 45 46 47
DONOR_HYDROGENS      STATIC     ATOMS    <user>   **** ""
2 24 39
ATOM$BLUE        STATIC     ATOMS    COLORGROUP SYSTEM
8 40 41 42 43 44 45 46 47
ATOM$RED        STATIC     ATOMS    COLORGROUP SYSTEM
2 24 39
