AV-unprocessed.smi:667|AV-procd|sdf|3256|dock3
  -GOLD-   22720 0203D 1   1.00000     0.00000
 Structure written by MMmdl.
 48 49  0  0  0  0  0  0  0  0  1 V2000
  150.7540  145.5671  160.3665 C   0  0  0  0  0  0  0  0  0  0  0  0
  151.6036  144.3612  160.6487 C   0  0  0  0  0  0  0  0  0  0  0  0
  151.9631  144.1017  161.8948 N   0  0  0  0  0  0  0  0  0  0  0  0
  152.7032  142.9779  161.8133 N   0  0  0  0  0  0  0  0  0  0  0  0
  153.2700  142.4113  163.0217 C   0  0  0  0  0  0  0  0  0  0  0  0
  152.8079  142.5240  160.5126 C   0  0  0  0  0  0  0  0  0  0  0  0
  153.5706  141.2890  160.1545 C   0  0  0  0  0  0  0  0  0  0  0  0
  152.1151  143.4034  159.7238 C   0  0  0  0  0  0  0  0  0  0  0  0
  151.9291  143.3794  158.2271 C   0  0  0  0  0  0  0  0  0  0  0  0
  151.1850  142.1098  157.8071 C   0  0  0  0  0  0  0  0  0  0  0  0
  151.5082  141.0180  158.2763 O   0  0  0  0  0  0  0  0  0  0  0  0
  150.1850  142.2674  156.9262 N   0  0  0  0  0  0  0  0  0  0  0  0
  149.3310  141.1944  156.4285 C   0  0  0  0  0  0  0  0  0  0  0  0
  149.6690  140.8184  154.9647 C   0  0  1  0  0  0  0  0  0  0  0  0
  150.8495  139.8594  154.8714 C   0  0  0  0  0  0  0  0  0  0  0  0
  150.2012  138.4739  154.9482 C   0  0  0  0  0  0  0  0  0  0  0  0
  148.8026  138.6827  154.7771 O   0  0  0  0  0  0  0  0  0  0  0  0
  148.5906  139.9854  154.2509 C   0  0  1  0  0  0  0  0  0  0  0  0
  147.1197  140.4315  154.4119 C   0  0  0  0  0  0  0  0  0  0  0  0
  146.9659  141.9331  154.1207 C   0  0  0  0  0  0  0  0  0  0  0  0
  146.5764  140.1103  155.8152 C   0  0  0  0  0  0  0  0  0  0  0  0
  150.0304  145.3612  159.5785 H   0  0  0  0  0  0  0  0  0  0  0  0
  151.3673  146.4082  160.0434 H   0  0  0  0  0  0  0  0  0  0  0  0
  150.1954  145.8805  161.2492 H   0  0  0  0  0  0  0  0  0  0  0  0
  154.3501  142.3144  162.9089 H   0  0  0  0  0  0  0  0  0  0  0  0
  152.8401  141.4256  163.2012 H   0  0  0  0  0  0  0  0  0  0  0  0
  153.0622  143.0494  163.8817 H   0  0  0  0  0  0  0  0  0  0  0  0
  153.2647  140.9078  159.1803 H   0  0  0  0  0  0  0  0  0  0  0  0
  153.4028  140.4963  160.8835 H   0  0  0  0  0  0  0  0  0  0  0  0
  154.6404  141.4942  160.1163 H   0  0  0  0  0  0  0  0  0  0  0  0
  151.3812  144.2600  157.8892 H   0  0  0  0  0  0  0  0  0  0  0  0
  152.8856  143.4046  157.7047 H   0  0  0  0  0  0  0  0  0  0  0  0
  149.9901  143.1994  156.5900 H   0  0  0  0  0  0  0  0  0  0  0  0
  149.4533  140.3298  157.0814 H   0  0  0  0  0  0  0  0  0  0  0  0
  148.2900  141.5031  156.5256 H   0  0  0  0  0  0  0  0  0  0  0  0
  149.8729  141.7299  154.4011 H   0  0  0  0  0  0  0  0  0  0  0  0
  151.3409  139.9791  153.9049 H   0  0  0  0  0  0  0  0  0  0  0  0
  151.6061  140.0090  155.6414 H   0  0  0  0  0  0  0  0  0  0  0  0
  150.5873  137.8137  154.1709 H   0  0  0  0  0  0  0  0  0  0  0  0
  150.3771  138.0007  155.9146 H   0  0  0  0  0  0  0  0  0  0  0  0
  148.8295  139.9496  153.1856 H   0  0  0  0  0  0  0  0  0  0  0  0
  146.5085  139.9021  153.6809 H   0  0  0  0  0  0  0  0  0  0  0  0
  147.5607  142.5339  154.8097 H   0  0  0  0  0  0  0  0  0  0  0  0
  145.9264  142.2475  154.2170 H   0  0  0  0  0  0  0  0  0  0  0  0
  147.2855  142.1758  153.1069 H   0  0  0  0  0  0  0  0  0  0  0  0
  147.1525  140.6204  156.5876 H   0  0  0  0  0  0  0  0  0  0  0  0
  146.6113  139.0421  156.0287 H   0  0  0  0  0  0  0  0  0  0  0  0
  145.5374  140.4246  155.9150 H   0  0  0  0  0  0  0  0  0  0  0  0
  1  2  1  0  0  0  0
  1 22  1  0  0  0  0
  1 23  1  0  0  0  0
  1 24  1  0  0  0  0
  2  8  1  0  0  0  0
  2  3  2  0  0  0  0
  3  4  1  0  0  0  0
  4  5  1  0  0  0  0
  4  6  1  0  0  0  0
  5 25  1  0  0  0  0
  5 26  1  0  0  0  0
  5 27  1  0  0  0  0
  6  7  1  0  0  0  0
  6  8  2  0  0  0  0
  7 28  1  0  0  0  0
  7 29  1  0  0  0  0
  7 30  1  0  0  0  0
  8  9  1  0  0  0  0
  9 10  1  0  0  0  0
  9 31  1  0  0  0  0
  9 32  1  0  0  0  0
 10 11  2  0  0  0  0
 10 12  1  0  0  0  0
 12 13  1  0  0  0  0
 12 33  1  0  0  0  0
 13 14  1  0  0  0  0
 13 34  1  0  0  0  0
 13 35  1  0  0  0  0
 14 18  1  0  0  0  0
 14 15  1  0  0  0  0
 14 36  1  0  0  0  0
 15 16  1  0  0  0  0
 15 37  1  0  0  0  0
 15 38  1  0  0  0  0
 16 17  1  0  0  0  0
 16 39  1  0  0  0  0
 16 40  1  0  0  0  0
 17 18  1  0  0  0  0
 18 19  1  0  0  0  0
 18 41  1  0  0  0  0
 19 20  1  0  0  0  0
 19 21  1  0  0  0  0
 19 42  1  0  0  0  0
 20 43  1  0  0  0  0
 20 44  1  0  0  0  0
 20 45  1  0  0  0  0
 21 46  1  0  0  0  0
 21 47  1  0  0  0  0
 21 48  1  0  0  0  0
M  END
> <s_m_source_file>
AV-unprocessed.smi

> <i_m_source_file_index>
667

> <i_lp_mmshare_version>
43012

> <i_f3d_flags>
0

> <s_epik_input>
W0NIM11jMW5uKFtDSDNdKWMoW0NIM10pYzFbQ0gyXUMoPU8pW05IXVtDSDJdW0NAQEhdMltDSDJdW0NIMl1PW0NASF0yW0NIXShbQ0gzXSlbQ0gzXQ==

> <s_epik_cmdline>
J2VwaWtfcHl0aG9uJywgJy1waCcsICc3LjAnLCAnLXRuJywgJzgnLCAnLW1hJywgJzIwMCcsICctbWV0YWxfYmluZGluZycsICctaW1hZScsICc8aW5maWxlLm1hZT4nLCAnLW9tYWUnLCAnPG91dGZpbGUubWFlPic=

> <r_lp_tautomer_probability>
1

> <r_epik_Ionization_Penalty>
0.00315488

> <r_epik_Ionization_Penalty_Charging>
0

> <r_epik_Ionization_Penalty_Neutral>
0.00315488

> <r_epik_State_Penalty>
0.00222269

> <r_epik_Charging_Adjusted_Penalty>
0.00222269

> <i_epik_Tot_Q>
0

> <i_epik_Tot_abs_Q>
0

> <r_epik_Metal_State_Penalty>
-0

> <b_epik_Metal_Only>
0

> <s_lp_Force_Field>
OPLS_2005

> <r_lp_Energy>
16.6838

> <b_lp_Chiralities_Consistent>
1

> <s_lp_Variant>
AV-unprocessed.smi:667-2

> <Gold.Version>
5.8.1

> <Gold.Id.Protein>
6NUR|6NUR_protein|mol2

> <Gold.PLP.Fitness>
48.8618

> <Gold.PLP.PLP>
-47.2650

> <Gold.PLP.part.hbond>
-1.0000

> <Gold.PLP.part.metal>
0.0000

> <Gold.PLP.part.buried>
-2.2250

> <Gold.PLP.part.nonpolar>
-45.7813

> <Gold.PLP.part.repulsive>
0.5258

> <Gold.PLP.ligand.clash>
0.0000

> <Gold.PLP.ligand.torsion>
0.6047

> <Gold.PLP.Chemscore.Hbond>
0.9199

> <Gold.PLP.Chemscore.CHOScore>
0.0000

> <Gold.PLP.Chemscore.Metal>
0.0000

> <Gold.Chemscore.Hbonds>
donor molecule, donor type, donor heavy atom, donor atom, acceptor molecule, acceptor atom, score
      L1  H    12    33       P1  8028  0.84

> <Gold.PLP.Chemscore.Internal.Correction>
0.0466

> <Gold.Rescore>
     Score         DG    S(hbond)    S(metal)    S(lipo)     H(rot)  DE(clash)    DE(int)     intcor
     14.75     -18.99       0.85        0.00     124.64       1.52       0.08       4.17       ----

> <Gold.Chemscore.Fitness>
14.7455

> <Gold.Chemscore.DG>
-18.9948

> <Gold.Chemscore.ZeroCoef>
-5.4800

> <Gold.Chemscore.Hbond>
0.8464

> <Gold.Chemscore.Metal>
0.0000

> <Gold.Chemscore.Lipo>
124.6352

> <Gold.Chemscore.Internal_Hbond>
0.0000

> <Gold.Chemscore.DEClash>
0.0839

> <Gold.Chemscore.DEInternal>
4.1653

> <Gold.Chemscore.Rot>
1.5213

> <Gold.Chemscore.Internal.Correction>
   9.000000E+99

> <Gold.Chemscore.Hbonds>
donor molecule, donor type, donor heavy atom, donor atom, acceptor molecule, acceptor atom, score
      L1  H    12    33       P1  8028  0.81

> <Gold.Chemscore.Hbond.Weighted>
-2.8270

> <Gold.Chemscore.Metal.Weighted>
-0.0000

> <Gold.Chemscore.Lipo.Weighted>
-14.5823

> <Gold.Chemscore.Internal_Hbond.Weighted>
0.0000

> <Gold.Chemscore.DEClash.Weighted>
0.0839

> <Gold.Chemscore.DEInternal.Weighted>
4.1653

> <Gold.Chemscore.Rot.Weighted>
3.8945

> <Gold.Chemscore.Internal.Correction.Weighted>
   9.000000E+99

> <Gold.Protein.RotatedTorsions>
[ 6907 6896 6895 6894 ] final -154.57 input  -60.11 | X-H torsion
[ 7974 7965 7964 7962 ] final  -91.79 input  175.53 | X-H torsion
[ 8008 7997 7996 7995 ] final  -48.60 input   59.86 | X-H torsion
[ 10167 10162 10161 10158 ] final   22.45 input  -65.29 | X-H torsion
[ 10718 10713 10712 10709 ] final  -21.96 input   66.30 | X-H torsion
[ 10763 10752 10751 10750 ] final   97.89 input  -60.55 | X-H torsion
[ 11005 11000 10999 10996 ] final  144.69 input  -57.11 | X-H torsion

> <Gold.Protein.ActiveResidues>
 VAL166  LYS551  ARG553  GLY616  TRP617  ASP618  TYR619  PRO620  LYS621  CYS622 
 ASP623  PHE694  ASN695  SER759  ASP760  ASP761  ALA762  ILE779  LEU786  VAL792 
 PHE793  MET794  SER795  GLU796  ALA797  LYS798  CYS799  TRP800  GLU811  SER814 

> <Gold.Protein.RotatedAtoms>
  151.2595  133.4309  159.2615 H   0  0  0  0  0  0  0  0  0  0  0  0  # atno 6907 bound_to 6896
  151.0543  134.9694  159.8238 H   0  0  0  0  0  0  0  0  0  0  0  0  # atno 6908 bound_to 6896
  152.5388  134.2548  159.8965 H   0  0  0  0  0  0  0  0  0  0  0  0  # atno 6909 bound_to 6896
  145.4084  140.9543  143.2248 H   0  0  0  0  0  0  0  0  0  0  0  0  # atno 7974 bound_to 7965
  154.4031  140.1317  156.4365 H   0  0  0  0  0  0  0  0  0  0  0  0  # atno 8008 bound_to 7997
  155.7500  140.3488  155.5126 H   0  0  0  0  0  0  0  0  0  0  0  0  # atno 8009 bound_to 7997
  155.8958  140.1011  157.1376 H   0  0  0  0  0  0  0  0  0  0  0  0  # atno 8010 bound_to 7997
  140.5347  143.9781  150.6485 H   0  0  0  0  0  0  0  0  0  0  0  0  # atno 10167 bound_to 10162
  156.5111  130.4610  149.6648 H   0  0  0  0  0  0  0  0  0  0  0  0  # atno 10718 bound_to 10713
  153.2823  135.4167  155.1090 H   0  0  0  0  0  0  0  0  0  0  0  0  # atno 10763 bound_to 10752
  154.8493  135.3498  154.6094 H   0  0  0  0  0  0  0  0  0  0  0  0  # atno 10764 bound_to 10752
  153.6515  135.7052  153.5265 H   0  0  0  0  0  0  0  0  0  0  0  0  # atno 10765 bound_to 10752
  140.0652  134.9182  157.1253 H   0  0  0  0  0  0  0  0  0  0  0  0  # atno 11005 bound_to 11000
  144.8325  139.5604  143.6937 LP  0  0  0  0  0  0  0  0  0  0  0  0  # atno 17320 bound_to 7965
  146.2717  139.6651  142.9291 LP  0  0  0  0  0  0  0  0  0  0  0  0  # atno 17321 bound_to 7965
  140.3165  143.3164  152.0827 LP  0  0  0  0  0  0  0  0  0  0  0  0  # atno 17342 bound_to 10162
  139.4966  144.6602  151.6482 LP  0  0  0  0  0  0  0  0  0  0  0  0  # atno 17343 bound_to 10162
  156.3240  130.7296  151.2213 LP  0  0  0  0  0  0  0  0  0  0  0  0  # atno 17370 bound_to 10713
  157.7450  131.0448  150.4811 LP  0  0  0  0  0  0  0  0  0  0  0  0  # atno 17371 bound_to 10713
  140.3709  134.2391  155.7178 LP  0  0  0  0  0  0  0  0  0  0  0  0  # atno 17394 bound_to 11000
  141.1990  133.8022  157.0557 LP  0  0  0  0  0  0  0  0  0  0  0  0  # atno 17395 bound_to 11000

$$$$
