AV-unprocessed.smi:152|AV-procd|sdf|1249|dock6
  -GOLD-   2262018473D 1   1.00000     0.00000
 Structure written by MMmdl.
 58 61  0  0  0  0  0  0  0  0  2 V2000
  149.5621  131.9298  154.2517 C   0  0  0  0  0  0  0  0  0  0  0  0
  149.7566  133.3508  153.7059 C   0  0  0  0  0  0  0  0  0  0  0  0
  148.4975  134.1349  153.7326 N   0  3  1  0  0  0  0  0  0  0  0  0
  147.3033  133.3978  153.2470 C   0  0  0  0  0  0  0  0  0  0  0  0
  146.2176  133.5511  154.3156 C   0  0  0  0  0  0  0  0  0  0  0  0
  146.6420  134.7902  155.0895 C   0  0  0  0  0  0  0  0  0  0  0  0
  148.1701  134.7083  155.0593 C   0  0  2  0  0  0  0  0  0  0  0  0
  148.8554  136.0760  155.2760 C   0  0  0  0  0  0  0  0  0  0  0  0
  150.3140  135.9969  155.3453 N   0  0  0  0  0  0  0  0  0  0  0  0
  150.8793  134.9348  156.1660 C   0  0  0  0  0  0  0  0  0  0  0  0
  151.0242  137.1469  155.4392 C   0  0  0  0  0  0  0  0  0  0  0  0
  152.3682  137.0508  155.2829 N   0  0  0  0  0  0  0  0  0  0  0  0
  153.1334  138.1438  155.3536 C   0  0  0  0  0  0  0  0  0  0  0  0
  152.7648  139.4070  155.5725 N   0  0  0  0  0  0  0  0  0  0  0  0
  151.4165  139.5077  155.7488 C   0  0  0  0  0  0  0  0  0  0  0  0
  150.4774  138.4384  155.6980 C   0  0  0  0  0  0  0  0  0  0  0  0
  149.1961  138.9288  155.9250 N   0  0  0  0  0  0  0  0  0  0  0  0
  149.3675  140.2109  156.0951 C   0  0  0  0  0  0  0  0  0  0  0  0
  150.6712  140.6436  156.0132 N   0  0  0  0  0  0  0  0  0  0  0  0
  151.1446  142.0109  156.1645 C   0  0  0  0  0  0  0  0  0  0  0  0
  151.3901  142.4372  157.6338 C   0  0  0  0  0  0  0  0  0  0  0  0
  150.1783  142.2594  158.3458 O   0  0  0  0  0  0  0  0  0  0  0  0
  152.4672  141.5404  158.2768 C   0  0  0  0  0  0  0  0  0  0  0  0
  152.8701  142.0296  159.6791 C   0  0  0  0  0  0  0  0  0  0  0  0
  153.2960  143.3853  159.6159 O   0  0  0  0  0  0  0  0  0  0  0  0
  152.2623  144.2667  159.1946 C   0  0  0  0  0  0  0  0  0  0  0  0
  151.8161  143.9162  157.7637 C   0  0  0  0  0  0  0  0  0  0  0  0
  150.4902  131.3616  154.1830 H   0  0  0  0  0  0  0  0  0  0  0  0
  148.8018  131.3913  153.6854 H   0  0  0  0  0  0  0  0  0  0  0  0
  149.2593  131.9354  155.2989 H   0  0  0  0  0  0  0  0  0  0  0  0
  150.5341  133.8738  154.2647 H   0  0  0  0  0  0  0  0  0  0  0  0
  150.1101  133.2768  152.6772 H   0  0  0  0  0  0  0  0  0  0  0  0
  146.9830  133.8492  152.3076 H   0  0  0  0  0  0  0  0  0  0  0  0
  147.5053  132.3435  153.0527 H   0  0  0  0  0  0  0  0  0  0  0  0
  145.2162  133.6375  153.8924 H   0  0  0  0  0  0  0  0  0  0  0  0
  146.2270  132.6847  154.9786 H   0  0  0  0  0  0  0  0  0  0  0  0
  146.2966  135.6847  154.5691 H   0  0  0  0  0  0  0  0  0  0  0  0
  146.2397  134.8138  156.1030 H   0  0  0  0  0  0  0  0  0  0  0  0
  148.4845  133.9877  155.8158 H   0  0  0  0  0  0  0  0  0  0  0  0
  148.5720  136.7804  154.4947 H   0  0  0  0  0  0  0  0  0  0  0  0
  148.4905  136.5113  156.2069 H   0  0  0  0  0  0  0  0  0  0  0  0
  150.8951  135.2269  157.2171 H   0  0  0  0  0  0  0  0  0  0  0  0
  151.8999  134.7042  155.8581 H   0  0  0  0  0  0  0  0  0  0  0  0
  150.2922  134.0208  156.0761 H   0  0  0  0  0  0  0  0  0  0  0  0
  154.1928  137.9838  155.2165 H   0  0  0  0  0  0  0  0  0  0  0  0
  148.5432  140.8804  156.2945 H   0  0  0  0  0  0  0  0  0  0  0  0
  152.0572  142.1256  155.5779 H   0  0  0  0  0  0  0  0  0  0  0  0
  150.4062  142.6700  155.7061 H   0  0  0  0  0  0  0  0  0  0  0  0
  149.9281  141.3496  158.2927 H   0  0  0  0  0  0  0  0  0  0  0  0
  152.1260  140.5054  158.3244 H   0  0  0  0  0  0  0  0  0  0  0  0
  153.3573  141.5388  157.6463 H   0  0  0  0  0  0  0  0  0  0  0  0
  152.0452  141.9267  160.3858 H   0  0  0  0  0  0  0  0  0  0  0  0
  153.6901  141.4227  160.0634 H   0  0  0  0  0  0  0  0  0  0  0  0
  151.4235  144.2196  159.8907 H   0  0  0  0  0  0  0  0  0  0  0  0
  152.6392  145.2891  159.2266 H   0  0  0  0  0  0  0  0  0  0  0  0
  152.6459  144.1118  157.0835 H   0  0  0  0  0  0  0  0  0  0  0  0
  151.0072  144.5826  157.4614 H   0  0  0  0  0  0  0  0  0  0  0  0
  148.6194  134.9203  153.1095 H   0  0  0  0  0  0  0  0  0  0  0  0
  1  2  1  0  0  0  0
  1 28  1  0  0  0  0
  1 29  1  0  0  0  0
  1 30  1  0  0  0  0
  2  3  1  0  0  0  0
  2 31  1  0  0  0  0
  2 32  1  0  0  0  0
  3  7  1  0  0  0  0
  3  4  1  0  0  0  0
  3 58  1  0  0  0  0
  4  5  1  0  0  0  0
  4 33  1  0  0  0  0
  4 34  1  0  0  0  0
  5  6  1  0  0  0  0
  5 35  1  0  0  0  0
  5 36  1  0  0  0  0
  6  7  1  0  0  0  0
  6 37  1  0  0  0  0
  6 38  1  0  0  0  0
  7  8  1  0  0  0  0
  7 39  1  0  0  0  0
  8  9  1  0  0  0  0
  8 40  1  0  0  0  0
  8 41  1  0  0  0  0
  9 10  1  0  0  0  0
  9 11  1  0  0  0  0
 10 42  1  0  0  0  0
 10 43  1  0  0  0  0
 10 44  1  0  0  0  0
 11 16  1  0  0  0  0
 11 12  2  0  0  0  0
 12 13  1  0  0  0  0
 13 14  2  0  0  0  0
 13 45  1  0  0  0  0
 14 15  1  0  0  0  0
 15 19  1  0  0  0  0
 15 16  2  0  0  0  0
 16 17  1  0  0  0  0
 17 18  2  0  0  0  0
 18 19  1  0  0  0  0
 18 46  1  0  0  0  0
 19 20  1  0  0  0  0
 20 21  1  0  0  0  0
 20 47  1  0  0  0  0
 20 48  1  0  0  0  0
 21 27  1  0  0  0  0
 21 22  1  0  0  0  0
 21 23  1  0  0  0  0
 22 49  1  0  0  0  0
 23 24  1  0  0  0  0
 23 50  1  0  0  0  0
 23 51  1  0  0  0  0
 24 25  1  0  0  0  0
 24 52  1  0  0  0  0
 24 53  1  0  0  0  0
 25 26  1  0  0  0  0
 26 27  1  0  0  0  0
 26 54  1  0  0  0  0
 26 55  1  0  0  0  0
 27 56  1  0  0  0  0
 27 57  1  0  0  0  0
M  CHG  1   3   1
M  END
> <s_m_source_file>
AV-unprocessed.smi

> <i_m_source_file_index>
152

> <i_lp_mmshare_version>
43012

> <i_f3d_flags>
0

> <s_epik_input>
W0NIM11bQ0gyXU4xW0NIMl1bQ0gyXVtDSDJdW0NASF0xW0NIMl1OKFtDSDNdKWMobltjSF1uMiljKGMyMyluW2NIXW4zW0NIMl1DNChbT0hdKVtDSDJdW0NIMl1PW0NIMl1bQ0gyXTQ=

> <s_epik_cmdline>
J2VwaWtfcHl0aG9uJywgJy1waCcsICc3LjAnLCAnLXRuJywgJzgnLCAnLW1hJywgJzIwMCcsICctbWV0YWxfYmluZGluZycsICctaW1hZScsICc8aW5maWxlLm1hZT4nLCAnLW9tYWUnLCAnPG91dGZpbGUubWFlPic=

> <r_lp_tautomer_probability>
1

> <r_epik_Ionization_Penalty>
0.00152183

> <r_epik_Ionization_Penalty_Charging>
0.00112577

> <r_epik_Ionization_Penalty_Neutral>
0.000396066

> <r_epik_State_Penalty>
-0

> <r_epik_Charging_Adjusted_Penalty>
0.00112577

> <i_epik_Tot_Q>
1

> <i_epik_Tot_abs_Q>
1

> <r_epik_Metal_State_Penalty>
-0

> <b_epik_Metal_Only>
0

> <s_lp_Force_Field>
OPLS_2005

> <r_lp_Energy>
45.0855

> <b_lp_Chiralities_Consistent>
1

> <s_lp_Variant>
AV-unprocessed.smi:152-4

> <Gold.Version>
5.8.1

> <Gold.Id.Protein>
6NUR|6NUR_protein|mol2

> <Gold.PLP.Fitness>
53.3050

> <Gold.PLP.PLP>
-42.7563

> <Gold.PLP.part.hbond>
-3.0000

> <Gold.PLP.part.metal>
0.0000

> <Gold.PLP.part.buried>
-8.5462

> <Gold.PLP.part.nonpolar>
-33.0144

> <Gold.PLP.part.repulsive>
0.1630

> <Gold.PLP.ligand.clash>
0.0000

> <Gold.PLP.ligand.torsion>
0.7885

> <Gold.PLP.Chemscore.Hbond>
3.7960

> <Gold.PLP.Chemscore.CHOScore>
0.0000

> <Gold.PLP.Chemscore.Metal>
0.0000

> <Gold.Chemscore.Hbonds>
donor molecule, donor type, donor heavy atom, donor atom, acceptor molecule, acceptor atom, score
      L1  H     3    58       P1  7948  2.00
      P1  H  7997  8010       L1    14  1.00
      P1  H 10752 10765       L1    12  0.75

> <Gold.PLP.Chemscore.Internal.Correction>
0.7378

> <Gold.Rescore>
     Score         DG    S(hbond)    S(metal)    S(lipo)     H(rot)  DE(clash)    DE(int)     intcor
     14.98     -17.17       2.30        0.00      94.19       2.73       0.18       2.01       ----

> <Gold.Chemscore.Fitness>
14.9807

> <Gold.Chemscore.DG>
-17.1684

> <Gold.Chemscore.ZeroCoef>
-5.4800

> <Gold.Chemscore.Hbond>
2.2962

> <Gold.Chemscore.Metal>
0.0000

> <Gold.Chemscore.Lipo>
94.1882

> <Gold.Chemscore.Internal_Hbond>
0.0000

> <Gold.Chemscore.DEClash>
0.1809

> <Gold.Chemscore.DEInternal>
2.0067

> <Gold.Chemscore.Rot>
2.7348

> <Gold.Chemscore.Internal.Correction>
   9.000000E+99

> <Gold.Chemscore.Hbonds>
donor molecule, donor type, donor heavy atom, donor atom, acceptor molecule, acceptor atom, score
      L1  H     3    58       P1  7948  0.50
      P1  H  7997  8010       L1    14  0.30
      P1  H 10752 10765       L1    12  0.72

> <Gold.Chemscore.Hbond.Weighted>
-7.6694

> <Gold.Chemscore.Metal.Weighted>
-0.0000

> <Gold.Chemscore.Lipo.Weighted>
-11.0200

> <Gold.Chemscore.Internal_Hbond.Weighted>
0.0000

> <Gold.Chemscore.DEClash.Weighted>
0.1809

> <Gold.Chemscore.DEInternal.Weighted>
2.0067

> <Gold.Chemscore.Rot.Weighted>
7.0010

> <Gold.Chemscore.Internal.Correction.Weighted>
   9.000000E+99

> <Gold.Protein.RotatedTorsions>
[ 6907 6896 6895 6894 ] final   65.81 input  -60.11 | X-H torsion
[ 7974 7965 7964 7962 ] final  -39.87 input  175.53 | X-H torsion
[ 8008 7997 7996 7995 ] final   81.87 input   59.86 | X-H torsion
[ 10167 10162 10161 10158 ] final  172.95 input  -65.29 | X-H torsion
[ 10718 10713 10712 10709 ] final  149.56 input   66.30 | X-H torsion
[ 10763 10752 10751 10750 ] final -162.47 input  -60.55 | X-H torsion
[ 11005 11000 10999 10996 ] final -162.06 input  -57.11 | X-H torsion

> <Gold.Protein.ActiveResidues>
 VAL166  LYS551  ARG553  GLY616  TRP617  ASP618  TYR619  PRO620  LYS621  CYS622 
 ASP623  PHE694  ASN695  SER759  ASP760  ASP761  ALA762  ILE779  LEU786  VAL792 
 PHE793  MET794  SER795  GLU796  ALA797  LYS798  CYS799  TRP800  GLU811  SER814 

> <Gold.Protein.RotatedAtoms>
  152.4435  134.5542  159.9875 H   0  0  0  0  0  0  0  0  0  0  0  0  # atno 6907 bound_to 6896
  151.5633  133.3394  159.2983 H   0  0  0  0  0  0  0  0  0  0  0  0  # atno 6908 bound_to 6896
  150.8346  134.7647  159.6946 H   0  0  0  0  0  0  0  0  0  0  0  0  # atno 6909 bound_to 6896
  146.0357  140.6674  142.9111 H   0  0  0  0  0  0  0  0  0  0  0  0  # atno 7974 bound_to 7965
  155.9030  140.3432  155.6041 H   0  0  0  0  0  0  0  0  0  0  0  0  # atno 8008 bound_to 7997
  155.7477  140.0816  157.2234 H   0  0  0  0  0  0  0  0  0  0  0  0  # atno 8009 bound_to 7997
  154.4046  140.1559  156.2676 H   0  0  0  0  0  0  0  0  0  0  0  0  # atno 8010 bound_to 7997
  139.5092  144.3316  152.0106 H   0  0  0  0  0  0  0  0  0  0  0  0  # atno 10167 bound_to 10162
  157.2945  131.0859  151.1437 H   0  0  0  0  0  0  0  0  0  0  0  0  # atno 10718 bound_to 10713
  154.7211  135.3026  154.9045 H   0  0  0  0  0  0  0  0  0  0  0  0  # atno 10763 bound_to 10752
  153.9917  135.6718  153.4758 H   0  0  0  0  0  0  0  0  0  0  0  0  # atno 10764 bound_to 10752
  153.0835  135.4996  154.8467 H   0  0  0  0  0  0  0  0  0  0  0  0  # atno 10765 bound_to 10752
  140.6135  134.4824  157.5217 H   0  0  0  0  0  0  0  0  0  0  0  0  # atno 11005 bound_to 11000
  144.7050  140.3816  143.7125 LP  0  0  0  0  0  0  0  0  0  0  0  0  # atno 17320 bound_to 7965
  145.6968  139.1652  143.2615 LP  0  0  0  0  0  0  0  0  0  0  0  0  # atno 17321 bound_to 7965
  140.2756  144.3916  150.6136 LP  0  0  0  0  0  0  0  0  0  0  0  0  # atno 17342 bound_to 10162
  140.6056  143.2167  151.6986 LP  0  0  0  0  0  0  0  0  0  0  0  0  # atno 17343 bound_to 10162
  157.2820  130.6754  149.6070 LP  0  0  0  0  0  0  0  0  0  0  0  0  # atno 17370 bound_to 10713
  155.9668  130.4447  150.5471 LP  0  0  0  0  0  0  0  0  0  0  0  0  # atno 17371 bound_to 10713
  139.9182  134.8202  156.1296 LP  0  0  0  0  0  0  0  0  0  0  0  0  # atno 17394 bound_to 11000
  141.0791  133.6762  156.2299 LP  0  0  0  0  0  0  0  0  0  0  0  0  # atno 17395 bound_to 11000

$$$$
