AV-unprocessed.smi:2216|AV-procd|sdf|8966|dock8
  -GOLD-   2272012183D 1   1.00000     0.00000
 Structure written by MMmdl.
 40 41  0  0  0  0  0  0  0  0  2 V2000
  151.0717  140.7278  155.7257 C   0  0  0  0  0  0  0  0  0  0  0  0
  151.1464  139.2137  155.8277 C   0  0  0  0  0  0  0  0  0  0  0  0
  150.3468  138.4091  155.0833 C   0  0  0  0  0  0  0  0  0  0  0  0
  150.4120  136.9506  155.1766 C   0  0  0  0  0  0  0  0  0  0  0  0
  149.6416  136.0211  154.4656 N   0  0  0  0  0  0  0  0  0  0  0  0
  149.3754  134.7389  154.7717 C   0  0  0  0  0  0  0  0  0  0  0  0
  149.7724  134.1358  155.7683 O   0  0  0  0  0  0  0  0  0  0  0  0
  148.6027  134.1749  153.8324 N   0  0  0  0  0  0  0  0  0  0  0  0
  148.1301  132.7954  153.8510 C   0  0  0  0  0  0  0  0  0  0  0  0
  147.3725  132.4385  152.5603 C   0  0  0  0  0  0  0  0  0  0  0  0
  146.1026  133.2809  152.3607 C   0  0  2  0  0  0  0  0  0  0  0  0
  145.0653  132.5585  151.4787 C   0  0  0  0  0  0  0  0  0  0  0  0
  143.8458  133.4548  151.2348 C   0  0  0  0  0  0  0  0  0  0  0  0
  144.3029  134.8105  150.6856 C   0  0  0  0  0  0  0  0  0  0  0  0
  145.3801  135.4201  151.5967 C   0  0  0  0  0  0  0  0  0  0  0  0
  146.4677  134.5112  151.7374 O   0  0  0  0  0  0  0  0  0  0  0  0
  151.3569  136.5199  156.0859 C   0  0  0  0  0  0  0  0  0  0  0  0
  152.1861  137.2541  156.8587 N   0  5  0  0  0  0  0  0  0  0  0  0
  152.1169  138.6131  156.7652 C   0  0  0  0  0  0  0  0  0  0  0  0
  152.8392  139.3462  157.4396 O   0  0  0  0  0  0  0  0  0  0  0  0
  150.3164  141.0416  155.0048 H   0  0  0  0  0  0  0  0  0  0  0  0
  152.0314  141.1361  155.4073 H   0  0  0  0  0  0  0  0  0  0  0  0
  150.8157  141.1626  156.6924 H   0  0  0  0  0  0  0  0  0  0  0  0
  149.6499  138.8833  154.4122 H   0  0  0  0  0  0  0  0  0  0  0  0
  149.2385  136.3731  153.6096 H   0  0  0  0  0  0  0  0  0  0  0  0
  148.3224  134.7420  153.0458 H   0  0  0  0  0  0  0  0  0  0  0  0
  148.9686  132.1139  154.0045 H   0  0  0  0  0  0  0  0  0  0  0  0
  147.4745  132.6782  154.7141 H   0  0  0  0  0  0  0  0  0  0  0  0
  148.0315  132.5590  151.6994 H   0  0  0  0  0  0  0  0  0  0  0  0
  147.0959  131.3836  152.5891 H   0  0  0  0  0  0  0  0  0  0  0  0
  145.6625  133.4893  153.3377 H   0  0  0  0  0  0  0  0  0  0  0  0
  145.5172  132.2908  150.5226 H   0  0  0  0  0  0  0  0  0  0  0  0
  144.7517  131.6255  151.9483 H   0  0  0  0  0  0  0  0  0  0  0  0
  143.1538  132.9762  150.5415 H   0  0  0  0  0  0  0  0  0  0  0  0
  143.3035  133.6001  152.1699 H   0  0  0  0  0  0  0  0  0  0  0  0
  144.7071  134.6813  149.6808 H   0  0  0  0  0  0  0  0  0  0  0  0
  143.4535  135.4883  150.5974 H   0  0  0  0  0  0  0  0  0  0  0  0
  145.7523  136.3502  151.1666 H   0  0  0  0  0  0  0  0  0  0  0  0
  144.9687  135.6658  152.5769 H   0  0  0  0  0  0  0  0  0  0  0  0
  151.4615  135.4205  156.2118 H   0  0  0  0  0  0  0  0  0  0  0  0
  1  2  1  0  0  0  0
  1 21  1  0  0  0  0
  1 22  1  0  0  0  0
  1 23  1  0  0  0  0
  2 19  1  0  0  0  0
  2  3  2  0  0  0  0
  3  4  1  0  0  0  0
  3 24  1  0  0  0  0
  4  5  1  0  0  0  0
  4 17  2  0  0  0  0
  5  6  1  0  0  0  0
  5 25  1  0  0  0  0
  6  7  2  0  0  0  0
  6  8  1  0  0  0  0
  8  9  1  0  0  0  0
  8 26  1  0  0  0  0
  9 10  1  0  0  0  0
  9 27  1  0  0  0  0
  9 28  1  0  0  0  0
 10 11  1  0  0  0  0
 10 29  1  0  0  0  0
 10 30  1  0  0  0  0
 11 16  1  0  0  0  0
 11 12  1  0  0  0  0
 11 31  1  0  0  0  0
 12 13  1  0  0  0  0
 12 32  1  0  0  0  0
 12 33  1  0  0  0  0
 13 14  1  0  0  0  0
 13 34  1  0  0  0  0
 13 35  1  0  0  0  0
 14 15  1  0  0  0  0
 14 36  1  0  0  0  0
 14 37  1  0  0  0  0
 15 16  1  0  0  0  0
 15 38  1  0  0  0  0
 15 39  1  0  0  0  0
 17 18  1  0  0  0  0
 17 40  1  0  0  0  0
 18 19  1  0  0  0  0
 19 20  2  0  0  0  0
M  CHG  1  18  -1
M  END
> <s_m_source_file>
AV-unprocessed.smi

> <i_m_source_file_index>
2216

> <i_lp_mmshare_version>
43012

> <i_f3d_flags>
0

> <s_epik_input>
Tz1jMVtuSF1bY0hdYyhbY0hdYzFbQ0gzXSlbTkhdQyg9TylbTkhdW0NIMl1bQ0gyXVtDQEBIXTJbQ0gyXVtDSDJdW0NIMl1bQ0gyXU8y

> <s_epik_cmdline>
J2VwaWtfcHl0aG9uJywgJy1waCcsICc3LjAnLCAnLXRuJywgJzgnLCAnLW1hJywgJzIwMCcsICctbWV0YWxfYmluZGluZycsICctaW1hZScsICc8aW5maWxlLm1hZT4nLCAnLW9tYWUnLCAnPG91dGZpbGUubWFlPic=

> <r_lp_tautomer_probability>
1

> <r_epik_Ionization_Penalty>
7.55627

> <r_epik_Ionization_Penalty_Charging>
1.50531

> <r_epik_Ionization_Penalty_Neutral>
6.05097

> <r_epik_State_Penalty>
6.05091

> <r_epik_Charging_Adjusted_Penalty>
7.55622

> <i_epik_Tot_Q>
-1

> <i_epik_Tot_abs_Q>
1

> <r_epik_Metal_State_Penalty>
2.00009

> <b_epik_Metal_Only>
1

> <s_lp_Force_Field>
OPLS_2005

> <r_lp_Energy>
21.198

> <b_lp_Chiralities_Consistent>
1

> <s_lp_Variant>
AV-unprocessed.smi:2216-3

> <Gold.Version>
5.8.1

> <Gold.Id.Protein>
6NUR|6NUR_protein|mol2

> <Gold.PLP.Fitness>
38.5741

> <Gold.PLP.PLP>
-30.7523

> <Gold.PLP.part.hbond>
-3.1823

> <Gold.PLP.part.metal>
0.0000

> <Gold.PLP.part.buried>
-2.3109

> <Gold.PLP.part.nonpolar>
-25.9061

> <Gold.PLP.part.repulsive>
1.3343

> <Gold.PLP.ligand.clash>
0.0000

> <Gold.PLP.ligand.torsion>
0.3870

> <Gold.PLP.Chemscore.Hbond>
2.8640

> <Gold.PLP.Chemscore.CHOScore>
0.0000

> <Gold.PLP.Chemscore.Metal>
0.0000

> <Gold.Chemscore.Hbonds>
donor molecule, donor type, donor heavy atom, donor atom, acceptor molecule, acceptor atom, score
      L1  H     5    25       P1  7948  0.99
      L1  H     8    26       P1  7948  0.83
      P1  H  7997  8009       L1    20  1.00

> <Gold.PLP.Chemscore.Internal.Correction>
0.0038

> <Gold.Rescore>
     Score         DG    S(hbond)    S(metal)    S(lipo)     H(rot)  DE(clash)    DE(int)     intcor
     15.82     -17.73       2.44        0.00      67.27       1.47       0.09       1.82       ----

> <Gold.Chemscore.Fitness>
15.8218

> <Gold.Chemscore.DG>
-17.7292

> <Gold.Chemscore.ZeroCoef>
-5.4800

> <Gold.Chemscore.Hbond>
2.4385

> <Gold.Chemscore.Metal>
0.0000

> <Gold.Chemscore.Lipo>
67.2665

> <Gold.Chemscore.Internal_Hbond>
0.0000

> <Gold.Chemscore.DEClash>
0.0854

> <Gold.Chemscore.DEInternal>
1.8220

> <Gold.Chemscore.Rot>
1.4709

> <Gold.Chemscore.Internal.Correction>
   9.000000E+99

> <Gold.Chemscore.Hbonds>
donor molecule, donor type, donor heavy atom, donor atom, acceptor molecule, acceptor atom, score
      L1  H     5    25       P1  7948  0.87
      L1  H     8    26       P1  7948  0.53
      P1  H  7997  8009       L1    20  0.99

> <Gold.Chemscore.Hbond.Weighted>
-8.1445

> <Gold.Chemscore.Metal.Weighted>
-0.0000

> <Gold.Chemscore.Lipo.Weighted>
-7.8702

> <Gold.Chemscore.Internal_Hbond.Weighted>
0.0000

> <Gold.Chemscore.DEClash.Weighted>
0.0854

> <Gold.Chemscore.DEInternal.Weighted>
1.8220

> <Gold.Chemscore.Rot.Weighted>
3.7654

> <Gold.Chemscore.Internal.Correction.Weighted>
   9.000000E+99

> <Gold.Protein.RotatedTorsions>
[ 6907 6896 6895 6894 ] final -167.69 input  -60.11 | X-H torsion
[ 7974 7965 7964 7962 ] final  153.25 input  175.53 | X-H torsion
[ 8008 7997 7996 7995 ] final  168.62 input   59.86 | X-H torsion
[ 10167 10162 10161 10158 ] final  177.19 input  -65.29 | X-H torsion
[ 10718 10713 10712 10709 ] final    5.20 input   66.30 | X-H torsion
[ 10763 10752 10751 10750 ] final  -35.28 input  -60.55 | X-H torsion
[ 11005 11000 10999 10996 ] final  178.03 input  -57.11 | X-H torsion

> <Gold.Protein.ActiveResidues>
 VAL166  LYS551  ARG553  GLY616  TRP617  ASP618  TYR619  PRO620  LYS621  CYS622 
 ASP623  PHE694  ASN695  SER759  ASP760  ASP761  ALA762  ILE779  LEU786  VAL792 
 PHE793  MET794  SER795  GLU796  ALA797  LYS798  CYS799  TRP800  GLU811  SER814 

> <Gold.Protein.RotatedAtoms>
  151.4636  133.3586  159.2812 H   0  0  0  0  0  0  0  0  0  0  0  0  # atno 6907 bound_to 6896
  150.9008  134.8422  159.7370 H   0  0  0  0  0  0  0  0  0  0  0  0  # atno 6908 bound_to 6896
  152.4878  134.4556  159.9640 H   0  0  0  0  0  0  0  0  0  0  0  0  # atno 6909 bound_to 6896
  144.8167  139.6776  143.6118 H   0  0  0  0  0  0  0  0  0  0  0  0  # atno 7974 bound_to 7965
  156.1530  140.1585  156.8738 H   0  0  0  0  0  0  0  0  0  0  0  0  # atno 8008 bound_to 7997
  154.5089  140.0806  156.7987 H   0  0  0  0  0  0  0  0  0  0  0  0  # atno 8009 bound_to 7997
  155.3858  140.3407  155.4251 H   0  0  0  0  0  0  0  0  0  0  0  0  # atno 8010 bound_to 7997
  139.5243  144.2827  152.0532 H   0  0  0  0  0  0  0  0  0  0  0  0  # atno 10167 bound_to 10162
  156.9039  130.5732  149.5647 H   0  0  0  0  0  0  0  0  0  0  0  0  # atno 10718 bound_to 10713
  153.8607  135.6840  153.4783 H   0  0  0  0  0  0  0  0  0  0  0  0  # atno 10763 bound_to 10752
  153.1344  135.4684  154.9396 H   0  0  0  0  0  0  0  0  0  0  0  0  # atno 10764 bound_to 10752
  154.7760  135.3253  154.8040 H   0  0  0  0  0  0  0  0  0  0  0  0  # atno 10765 bound_to 10752
  140.3907  134.6865  157.4505 H   0  0  0  0  0  0  0  0  0  0  0  0  # atno 11005 bound_to 11000
  146.2471  139.6120  142.9452 LP  0  0  0  0  0  0  0  0  0  0  0  0  # atno 17320 bound_to 7965
  145.5198  141.0432  143.2442 LP  0  0  0  0  0  0  0  0  0  0  0  0  # atno 17321 bound_to 7965
  140.2282  144.4396  150.6312 LP  0  0  0  0  0  0  0  0  0  0  0  0  # atno 17342 bound_to 10162
  140.6373  143.2197  151.6367 LP  0  0  0  0  0  0  0  0  0  0  0  0  # atno 17343 bound_to 10162
  156.0568  130.5628  150.9109 LP  0  0  0  0  0  0  0  0  0  0  0  0  # atno 17370 bound_to 10713
  157.6009  131.0941  150.8962 LP  0  0  0  0  0  0  0  0  0  0  0  0  # atno 17371 bound_to 10713
  140.0409  134.6269  155.8982 LP  0  0  0  0  0  0  0  0  0  0  0  0  # atno 17394 bound_to 11000
  141.1892  133.6564  156.5357 LP  0  0  0  0  0  0  0  0  0  0  0  0  # atno 17395 bound_to 11000

$$$$
