AV-unprocessed.smi:249|AV-procd|sdf|1928|dock4
  -GOLD-   2262021 43D 1   1.00000     0.00000
 Structure written by MMmdl.
 64 67  0  0  0  0  0  0  0  0  2 V2000
  144.4803  136.4162  151.8721 C   0  0  0  0  0  0  0  0  0  0  0  0
  144.3644  135.4715  150.6658 C   0  0  0  0  0  0  0  0  0  0  0  0
  143.6651  134.1914  150.9837 N   0  3  2  0  0  0  0  0  0  0  0  0
  143.6218  133.8641  152.4370 C   0  0  0  0  0  0  0  0  0  0  0  0
  144.9971  133.4163  152.9670 C   0  0  0  0  0  0  0  0  0  0  0  0
  145.5323  132.2186  152.1574 C   0  0  2  0  0  0  0  0  0  0  0  0
  146.8435  131.7620  152.6318 N   0  0  0  0  0  0  0  0  0  0  0  0
  147.4071  132.3148  153.8631 C   0  0  0  0  0  0  0  0  0  0  0  0
  147.1250  130.4594  152.3722 C   0  0  0  0  0  0  0  0  0  0  0  0
  146.3501  129.7647  151.4974 N   0  0  0  0  0  0  0  0  0  0  0  0
  146.6317  128.4901  151.2135 C   0  0  0  0  0  0  0  0  0  0  0  0
  147.6192  127.7295  151.6885 N   0  0  0  0  0  0  0  0  0  0  0  0
  148.3909  128.4130  152.5812 C   0  0  0  0  0  0  0  0  0  0  0  0
  148.2207  129.7728  152.9676 C   0  0  0  0  0  0  0  0  0  0  0  0
  149.2041  130.1328  153.8806 N   0  0  0  0  0  0  0  0  0  0  0  0
  149.9188  129.0503  154.0203 C   0  0  0  0  0  0  0  0  0  0  0  0
  149.4823  127.9575  153.3042 N   0  0  0  0  0  0  0  0  0  0  0  0
  150.1042  126.6404  153.2783 C   0  0  0  0  0  0  0  0  0  0  0  0
  149.4570  125.6216  152.2953 C   0  0  1  0  0  0  0  0  0  0  0  0
  149.8126  126.0342  150.8463 C   0  0  0  0  0  0  0  0  0  0  0  0
  151.2098  126.0090  150.6374 O   0  0  0  0  0  0  0  0  0  0  0  0
  149.8603  124.1331  152.5378 C   0  0  1  0  0  0  0  0  0  0  0  0
  149.4826  123.5218  153.8803 C   0  0  0  0  0  0  0  0  0  0  0  0
  148.0099  123.1685  153.7017 C   0  0  0  0  0  0  0  0  0  0  0  0
  147.8616  122.8872  152.3145 O   0  0  0  0  0  0  0  0  0  0  0  0
  149.0833  123.1607  151.6352 C   0  0  0  0  0  0  0  0  0  0  0  0
  145.5246  132.5401  150.6496 C   0  0  0  0  0  0  0  0  0  0  0  0
  144.1243  133.0051  150.1970 C   0  0  2  0  0  0  0  0  0  0  0  0
  144.0324  133.2023  148.6732 C   0  0  0  0  0  0  0  0  0  0  0  0
  144.8508  137.3917  151.5568 H   0  0  0  0  0  0  0  0  0  0  0  0
  145.1765  136.0430  152.6227 H   0  0  0  0  0  0  0  0  0  0  0  0
  143.5123  136.5707  152.3497 H   0  0  0  0  0  0  0  0  0  0  0  0
  143.8062  136.0132  149.9047 H   0  0  0  0  0  0  0  0  0  0  0  0
  145.3515  135.2839  150.2437 H   0  0  0  0  0  0  0  0  0  0  0  0
  143.2389  134.6979  153.0228 H   0  0  0  0  0  0  0  0  0  0  0  0
  142.9026  133.0573  152.5843 H   0  0  0  0  0  0  0  0  0  0  0  0
  145.6975  134.2503  152.9303 H   0  0  0  0  0  0  0  0  0  0  0  0
  144.9072  133.1422  154.0188 H   0  0  0  0  0  0  0  0  0  0  0  0
  144.8163  131.4088  152.2969 H   0  0  0  0  0  0  0  0  0  0  0  0
  148.4431  131.9973  153.9888 H   0  0  0  0  0  0  0  0  0  0  0  0
  146.8425  131.9868  154.7363 H   0  0  0  0  0  0  0  0  0  0  0  0
  147.4066  133.4035  153.8457 H   0  0  0  0  0  0  0  0  0  0  0  0
  145.9719  128.0104  150.5057 H   0  0  0  0  0  0  0  0  0  0  0  0
  150.7806  129.0138  154.6711 H   0  0  0  0  0  0  0  0  0  0  0  0
  151.1490  126.8110  153.0185 H   0  0  0  0  0  0  0  0  0  0  0  0
  150.1143  126.2295  154.2885 H   0  0  0  0  0  0  0  0  0  0  0  0
  148.3730  125.6827  152.3815 H   0  0  0  0  0  0  0  0  0  0  0  0
  149.3282  125.3720  150.1277 H   0  0  0  0  0  0  0  0  0  0  0  0
  149.4757  127.0426  150.6138 H   0  0  0  0  0  0  0  0  0  0  0  0
  151.5893  126.7710  151.0477 H   0  0  0  0  0  0  0  0  0  0  0  0
  150.9349  124.0331  152.3789 H   0  0  0  0  0  0  0  0  0  0  0  0
  150.0507  122.6010  154.0216 H   0  0  0  0  0  0  0  0  0  0  0  0
  149.6872  124.1346  154.7515 H   0  0  0  0  0  0  0  0  0  0  0  0
  147.7109  122.3184  154.3150 H   0  0  0  0  0  0  0  0  0  0  0  0
  147.3728  124.0151  153.9595 H   0  0  0  0  0  0  0  0  0  0  0  0
  148.8888  123.5274  150.6289 H   0  0  0  0  0  0  0  0  0  0  0  0
  149.6342  122.2242  151.5356 H   0  0  0  0  0  0  0  0  0  0  0  0
  146.2589  133.3079  150.4076 H   0  0  0  0  0  0  0  0  0  0  0  0
  145.8161  131.6505  150.0897 H   0  0  0  0  0  0  0  0  0  0  0  0
  143.4240  132.2015  150.4313 H   0  0  0  0  0  0  0  0  0  0  0  0
  144.1753  132.2532  148.1556 H   0  0  0  0  0  0  0  0  0  0  0  0
  144.7956  133.8841  148.2978 H   0  0  0  0  0  0  0  0  0  0  0  0
  143.0551  133.5883  148.3815 H   0  0  0  0  0  0  0  0  0  0  0  0
  142.7052  134.3424  150.7079 H   0  0  0  0  0  0  0  0  0  0  0  0
  1  2  1  0  0  0  0
  1 30  1  0  0  0  0
  1 31  1  0  0  0  0
  1 32  1  0  0  0  0
  2  3  1  0  0  0  0
  2 33  1  0  0  0  0
  2 34  1  0  0  0  0
  3 28  1  0  0  0  0
  3  4  1  0  0  0  0
  3 64  1  0  0  0  0
  4  5  1  0  0  0  0
  4 35  1  0  0  0  0
  4 36  1  0  0  0  0
  5  6  1  0  0  0  0
  5 37  1  0  0  0  0
  5 38  1  0  0  0  0
  6  7  1  0  0  0  0
  6 27  1  0  0  0  0
  6 39  1  0  0  0  0
  7  8  1  0  0  0  0
  7  9  1  0  0  0  0
  8 40  1  0  0  0  0
  8 41  1  0  0  0  0
  8 42  1  0  0  0  0
  9 14  1  0  0  0  0
  9 10  2  0  0  0  0
 10 11  1  0  0  0  0
 11 12  2  0  0  0  0
 11 43  1  0  0  0  0
 12 13  1  0  0  0  0
 13 17  1  0  0  0  0
 13 14  2  0  0  0  0
 14 15  1  0  0  0  0
 15 16  2  0  0  0  0
 16 17  1  0  0  0  0
 16 44  1  0  0  0  0
 17 18  1  0  0  0  0
 18 19  1  0  0  0  0
 18 45  1  0  0  0  0
 18 46  1  0  0  0  0
 19 20  1  0  0  0  0
 19 22  1  0  0  0  0
 19 47  1  0  0  0  0
 20 21  1  0  0  0  0
 20 48  1  0  0  0  0
 20 49  1  0  0  0  0
 21 50  1  0  0  0  0
 22 26  1  0  0  0  0
 22 23  1  0  0  0  0
 22 51  1  0  0  0  0
 23 24  1  0  0  0  0
 23 52  1  0  0  0  0
 23 53  1  0  0  0  0
 24 25  1  0  0  0  0
 24 54  1  0  0  0  0
 24 55  1  0  0  0  0
 25 26  1  0  0  0  0
 26 56  1  0  0  0  0
 26 57  1  0  0  0  0
 27 28  1  0  0  0  0
 27 58  1  0  0  0  0
 27 59  1  0  0  0  0
 28 29  1  0  0  0  0
 28 60  1  0  0  0  0
 29 61  1  0  0  0  0
 29 62  1  0  0  0  0
 29 63  1  0  0  0  0
M  CHG  1   3   1
M  END
> <s_m_source_file>
AV-unprocessed.smi

> <i_m_source_file_index>
249

> <i_lp_mmshare_version>
43012

> <i_f3d_flags>
0

> <s_epik_input>
W0NIM11bQ0gyXU4xW0NIMl1bQ0gyXVtDQEhdKFtDSDJdW0NASF0xW0NIM10pTihbQ0gzXSljKG5bY0hdbjIpYyhjMjMpbltjSF1uM1tDSDJdW0NASF0oW0NIMl1bT0hdKVtDQEBIXTRbQ0gyXVtDSDJdT1tDSDJdNA==

> <s_epik_cmdline>
J2VwaWtfcHl0aG9uJywgJy1waCcsICc3LjAnLCAnLXRuJywgJzgnLCAnLW1hJywgJzIwMCcsICctbWV0YWxfYmluZGluZycsICctaW1hZScsICc8aW5maWxlLm1hZT4nLCAnLW9tYWUnLCAnPG91dGZpbGUubWFlPic=

> <r_lp_tautomer_probability>
1

> <r_epik_Ionization_Penalty>
0.00294688

> <r_epik_Ionization_Penalty_Charging>
0.00169971

> <r_epik_Ionization_Penalty_Neutral>
0.00124717

> <r_epik_State_Penalty>
-0

> <r_epik_Charging_Adjusted_Penalty>
0.00169971

> <i_epik_Tot_Q>
1

> <i_epik_Tot_abs_Q>
1

> <r_epik_Metal_State_Penalty>
-0

> <b_epik_Metal_Only>
0

> <s_lp_Force_Field>
OPLS_2005

> <r_lp_Energy>
58.8032

> <b_lp_Chiralities_Consistent>
1

> <s_lp_Variant>
AV-unprocessed.smi:249-31

> <Gold.Version>
5.8.1

> <Gold.Id.Protein>
6NUR|6NUR_protein|mol2

> <Gold.PLP.Fitness>
47.2358

> <Gold.PLP.PLP>
-39.4614

> <Gold.PLP.part.hbond>
-2.6029

> <Gold.PLP.part.metal>
0.0000

> <Gold.PLP.part.buried>
-1.5927

> <Gold.PLP.part.nonpolar>
-35.5878

> <Gold.PLP.part.repulsive>
0.3080

> <Gold.PLP.ligand.clash>
0.0000

> <Gold.PLP.ligand.torsion>
1.1700

> <Gold.PLP.Chemscore.Hbond>
3.0000

> <Gold.PLP.Chemscore.CHOScore>
0.0000

> <Gold.PLP.Chemscore.Metal>
0.0000

> <Gold.Chemscore.Hbonds>
donor molecule, donor type, donor heavy atom, donor atom, acceptor molecule, acceptor atom, score
      L1  H     3    64       P1 10186  1.92
      L1  H    21    50       P1 10737  0.11

> <Gold.PLP.Chemscore.Internal.Correction>
1.1144

> <Gold.Rescore>
     Score         DG    S(hbond)    S(metal)    S(lipo)     H(rot)  DE(clash)    DE(int)     intcor
     10.66     -14.87       1.86        0.00      85.23       2.65       0.37       3.85       ----

> <Gold.Chemscore.Fitness>
10.6551

> <Gold.Chemscore.DG>
-14.8704

> <Gold.Chemscore.ZeroCoef>
-5.4800

> <Gold.Chemscore.Hbond>
1.8582

> <Gold.Chemscore.Metal>
0.0000

> <Gold.Chemscore.Lipo>
85.2315

> <Gold.Chemscore.Internal_Hbond>
0.0000

> <Gold.Chemscore.DEClash>
0.3692

> <Gold.Chemscore.DEInternal>
3.8461

> <Gold.Chemscore.Rot>
2.6515

> <Gold.Chemscore.Internal.Correction>
   9.000000E+99

> <Gold.Chemscore.Hbonds>
donor molecule, donor type, donor heavy atom, donor atom, acceptor molecule, acceptor atom, score
      L1  H     3    64       P1 10186  0.41
      L1  H    21    50       P1 10737  0.12

> <Gold.Chemscore.Hbond.Weighted>
-6.2063

> <Gold.Chemscore.Metal.Weighted>
-0.0000

> <Gold.Chemscore.Lipo.Weighted>
-9.9721

> <Gold.Chemscore.Internal_Hbond.Weighted>
0.0000

> <Gold.Chemscore.DEClash.Weighted>
0.3692

> <Gold.Chemscore.DEInternal.Weighted>
3.8461

> <Gold.Chemscore.Rot.Weighted>
6.7880

> <Gold.Chemscore.Internal.Correction.Weighted>
   9.000000E+99

> <Gold.Protein.RotatedTorsions>
[ 6907 6896 6895 6894 ] final  103.12 input  -60.11 | X-H torsion
[ 7974 7965 7964 7962 ] final -142.32 input  175.53 | X-H torsion
[ 8008 7997 7996 7995 ] final  100.32 input   59.86 | X-H torsion
[ 10167 10162 10161 10158 ] final -170.18 input  -65.29 | X-H torsion
[ 10718 10713 10712 10709 ] final   80.34 input   66.30 | X-H torsion
[ 10763 10752 10751 10750 ] final   41.49 input  -60.55 | X-H torsion
[ 11005 11000 10999 10996 ] final   90.40 input  -57.11 | X-H torsion

> <Gold.Protein.ActiveResidues>
 VAL166  LYS551  ARG553  GLY616  TRP617  ASP618  TYR619  PRO620  LYS621  CYS622 
 ASP623  PHE694  ASN695  SER759  ASP760  ASP761  ALA762  ILE779  LEU786  VAL792 
 PHE793  MET794  SER795  GLU796  ALA797  LYS798  CYS799  TRP800  GLU811  SER814 

> <Gold.Protein.RotatedAtoms>
  152.5304  133.9873  159.7834 H   0  0  0  0  0  0  0  0  0  0  0  0  # atno 6907 bound_to 6896
  151.0116  133.5952  159.2689 H   0  0  0  0  0  0  0  0  0  0  0  0  # atno 6908 bound_to 6896
  151.3024  135.0779  159.9297 H   0  0  0  0  0  0  0  0  0  0  0  0  # atno 6909 bound_to 6896
  144.8452  140.5972  143.5426 H   0  0  0  0  0  0  0  0  0  0  0  0  # atno 7974 bound_to 7965
  156.1192  140.3215  155.8183 H   0  0  0  0  0  0  0  0  0  0  0  0  # atno 8008 bound_to 7997
  155.4535  140.0534  157.3016 H   0  0  0  0  0  0  0  0  0  0  0  0  # atno 8009 bound_to 7997
  154.4815  140.2055  155.9767 H   0  0  0  0  0  0  0  0  0  0  0  0  # atno 8010 bound_to 7997
  139.5877  144.1282  152.1596 H   0  0  0  0  0  0  0  0  0  0  0  0  # atno 10167 bound_to 10162
  157.6803  130.9955  150.2065 H   0  0  0  0  0  0  0  0  0  0  0  0  # atno 10718 bound_to 10713
  152.9907  135.6160  154.2795 H   0  0  0  0  0  0  0  0  0  0  0  0  # atno 10763 bound_to 10752
  154.2525  135.2785  155.2812 H   0  0  0  0  0  0  0  0  0  0  0  0  # atno 10764 bound_to 10752
  154.5275  135.5797  153.6789 H   0  0  0  0  0  0  0  0  0  0  0  0  # atno 10765 bound_to 10752
  139.8857  134.8611  156.3279 H   0  0  0  0  0  0  0  0  0  0  0  0  # atno 11005 bound_to 11000
  145.4611  139.1513  143.3865 LP  0  0  0  0  0  0  0  0  0  0  0  0  # atno 17320 bound_to 7965
  146.2738  140.4741  142.8804 LP  0  0  0  0  0  0  0  0  0  0  0  0  # atno 17321 bound_to 7965
  140.0849  144.5669  150.7096 LP  0  0  0  0  0  0  0  0  0  0  0  0  # atno 17342 bound_to 10162
  140.7146  143.2533  151.4475 LP  0  0  0  0  0  0  0  0  0  0  0  0  # atno 17343 bound_to 10162
  156.2745  130.3726  149.7998 LP  0  0  0  0  0  0  0  0  0  0  0  0  # atno 17370 bound_to 10713
  156.5705  130.8422  151.3355 LP  0  0  0  0  0  0  0  0  0  0  0  0  # atno 17371 bound_to 10713
  140.9743  133.7307  156.0579 LP  0  0  0  0  0  0  0  0  0  0  0  0  # atno 17394 bound_to 11000
  140.7831  134.3702  157.5482 LP  0  0  0  0  0  0  0  0  0  0  0  0  # atno 17395 bound_to 11000

$$$$
