AV-unprocessed.smi:2124|AV-procd|sdf|8660|dock6
  -GOLD-   2272011413D 1   1.00000     0.00000
 Structure written by MMmdl.
 47 49  0  0  0  0  0  0  0  0  1 V2000
  146.1946  137.9921  152.3231 C   0  0  0  0  0  0  0  0  0  0  0  0
  147.1059  138.9906  153.0036 C   0  0  0  0  0  0  0  0  0  0  0  0
  146.5158  140.2251  153.2188 N   0  0  0  0  0  0  0  0  0  0  0  0
  147.2771  141.2107  153.8215 C   0  0  0  0  0  0  0  0  0  0  0  0
  146.5597  142.5361  154.0091 C   0  0  0  0  0  0  0  0  0  0  0  0
  148.5578  140.9735  154.2032 C   0  0  0  0  0  0  0  0  0  0  0  0
  149.4337  142.0319  154.8729 C   0  0  0  0  0  0  0  0  0  0  0  0
  149.8299  141.7665  156.3279 C   0  0  0  0  0  0  0  0  0  0  0  0
  148.9815  141.7683  157.2206 O   0  0  0  0  0  0  0  0  0  0  0  0
  151.1335  141.5301  156.5425 N   0  0  0  0  0  0  0  0  0  0  0  0
  151.7540  141.2299  157.8321 C   0  0  2  0  0  0  0  0  0  0  0  0
  151.2500  139.8550  158.3024 C   0  0  0  0  0  0  0  0  0  0  0  0
  151.4385  142.3529  158.8517 C   0  0  1  0  0  0  0  0  0  0  0  0
  152.3891  142.3621  160.0744 C   0  0  0  0  0  0  0  0  0  0  0  0
  152.9208  143.8059  160.1015 C   0  0  2  0  0  0  0  0  0  0  0  0
  151.7877  144.7657  160.5061 C   0  0  0  0  0  0  0  0  0  0  0  0
  150.8942  144.7790  159.2521 C   0  0  0  0  0  0  0  0  0  0  0  0
  151.6150  143.7961  158.3099 C   0  0  1  0  0  0  0  0  0  0  0  0
  153.0770  144.1023  158.6160 C   0  0  0  0  0  0  0  0  0  0  0  0
  149.1271  139.6257  153.9676 C   0  0  0  0  0  0  0  0  0  0  0  0
  150.2724  139.3410  154.3156 O   0  0  0  0  0  0  0  0  0  0  0  0
  148.3189  138.6668  153.3351 N   0  0  0  0  0  0  0  0  0  0  0  0
  145.5660  140.4431  152.9536 H   0  0  0  0  0  0  0  0  0  0  0  0
  146.7452  137.0960  152.0336 H   0  0  0  0  0  0  0  0  0  0  0  0
  145.7552  138.4255  151.4239 H   0  0  0  0  0  0  0  0  0  0  0  0
  145.3889  137.6968  152.9956 H   0  0  0  0  0  0  0  0  0  0  0  0
  147.0625  143.3246  153.4489 H   0  0  0  0  0  0  0  0  0  0  0  0
  146.5450  142.8157  155.0629 H   0  0  0  0  0  0  0  0  0  0  0  0
  145.5268  142.4865  153.6620 H   0  0  0  0  0  0  0  0  0  0  0  0
  148.9104  142.9877  154.8434 H   0  0  0  0  0  0  0  0  0  0  0  0
  150.3396  142.1943  154.2876 H   0  0  0  0  0  0  0  0  0  0  0  0
  151.7487  141.5477  155.7419 H   0  0  0  0  0  0  0  0  0  0  0  0
  152.8368  141.1603  157.7172 H   0  0  0  0  0  0  0  0  0  0  0  0
  151.7105  139.5570  159.2441 H   0  0  0  0  0  0  0  0  0  0  0  0
  151.4838  139.0815  157.5700 H   0  0  0  0  0  0  0  0  0  0  0  0
  150.1694  139.8567  158.4490 H   0  0  0  0  0  0  0  0  0  0  0  0
  150.4087  142.2198  159.1880 H   0  0  0  0  0  0  0  0  0  0  0  0
  151.8790  142.0890  160.9989 H   0  0  0  0  0  0  0  0  0  0  0  0
  153.2208  141.6693  159.9415 H   0  0  0  0  0  0  0  0  0  0  0  0
  153.8284  143.9262  160.6937 H   0  0  0  0  0  0  0  0  0  0  0  0
  151.2549  144.4236  161.3940 H   0  0  0  0  0  0  0  0  0  0  0  0
  152.1766  145.7639  160.7110 H   0  0  0  0  0  0  0  0  0  0  0  0
  149.8679  144.4786  159.4663 H   0  0  0  0  0  0  0  0  0  0  0  0
  150.8635  145.7785  158.8161 H   0  0  0  0  0  0  0  0  0  0  0  0
  151.3308  143.9328  157.2668 H   0  0  0  0  0  0  0  0  0  0  0  0
  153.3548  145.1370  158.4080 H   0  0  0  0  0  0  0  0  0  0  0  0
  153.7780  143.4363  158.1102 H   0  0  0  0  0  0  0  0  0  0  0  0
  1 24  1  0  0  0  0
  1 25  1  0  0  0  0
  1 26  1  0  0  0  0
  1  2  1  0  0  0  0
  2  3  1  0  0  0  0
  2 22  2  0  0  0  0
  3  4  1  0  0  0  0
  3 23  1  0  0  0  0
  4  6  2  0  0  0  0
  4  5  1  0  0  0  0
  5 27  1  0  0  0  0
  5 28  1  0  0  0  0
  5 29  1  0  0  0  0
  6 20  1  0  0  0  0
  6  7  1  0  0  0  0
  7  8  1  0  0  0  0
  7 30  1  0  0  0  0
  7 31  1  0  0  0  0
  8  9  2  0  0  0  0
  8 10  1  0  0  0  0
 10 11  1  0  0  0  0
 10 32  1  0  0  0  0
 11 12  1  0  0  0  0
 11 13  1  0  0  0  0
 11 33  1  0  0  0  0
 12 34  1  0  0  0  0
 12 35  1  0  0  0  0
 12 36  1  0  0  0  0
 13 18  1  0  0  0  0
 13 14  1  0  0  0  0
 13 37  1  0  0  0  0
 14 15  1  0  0  0  0
 14 38  1  0  0  0  0
 14 39  1  0  0  0  0
 15 19  1  0  0  0  0
 15 16  1  0  0  0  0
 15 40  1  0  0  0  0
 16 17  1  0  0  0  0
 16 41  1  0  0  0  0
 16 42  1  0  0  0  0
 17 18  1  0  0  0  0
 17 43  1  0  0  0  0
 17 44  1  0  0  0  0
 18 19  1  0  0  0  0
 18 45  1  0  0  0  0
 19 46  1  0  0  0  0
 19 47  1  0  0  0  0
 20 21  2  0  0  0  0
 20 22  1  0  0  0  0
M  END
> <s_m_source_file>
AV-unprocessed.smi

> <i_m_source_file_index>
2124

> <i_lp_mmshare_version>
43012

> <i_f3d_flags>
0

> <s_epik_input>
W0NIM11jMW5jKFtDSDNdKWMoYyg9TylbbkhdMSlbQ0gyXUMoPU8pW05IXVtDQEhdKFtDSDNdKVtDQEhdKFtDSDJdW0NASF0yMylbQ0BIXShbQ0gyXTMpW0NIMl1bQ0gyXTI=

> <s_epik_cmdline>
J2VwaWtfcHl0aG9uJywgJy1waCcsICc3LjAnLCAnLXRuJywgJzgnLCAnLW1hJywgJzIwMCcsICctbWV0YWxfYmluZGluZycsICctaW1hZScsICc8aW5maWxlLm1hZT4nLCAnLW9tYWUnLCAnPG91dGZpbGUubWFlPic=

> <r_lp_tautomer_probability>
0.156392

> <r_epik_Ionization_Penalty>
0.0139374

> <r_epik_Ionization_Penalty_Charging>
0.0138122

> <r_epik_Ionization_Penalty_Neutral>
0.000125146

> <r_epik_State_Penalty>
1.15342

> <r_epik_Charging_Adjusted_Penalty>
1.16723

> <i_epik_Tot_Q>
0

> <i_epik_Tot_abs_Q>
0

> <r_epik_Metal_State_Penalty>
1.3173

> <b_epik_Metal_Only>
0

> <s_lp_Force_Field>
OPLS_2005

> <r_lp_Energy>
56.0933

> <b_lp_Chiralities_Consistent>
1

> <s_lp_Variant>
AV-unprocessed.smi:2124-11

> <Gold.Version>
5.8.1

> <Gold.Id.Protein>
6NUR|6NUR_protein|mol2

> <Gold.PLP.Fitness>
48.5255

> <Gold.PLP.PLP>
-44.0939

> <Gold.PLP.part.hbond>
-1.7100

> <Gold.PLP.part.metal>
0.0000

> <Gold.PLP.part.buried>
-0.6164

> <Gold.PLP.part.nonpolar>
-43.6485

> <Gold.PLP.part.repulsive>
3.8764

> <Gold.PLP.ligand.clash>
0.0000

> <Gold.PLP.ligand.torsion>
0.3643

> <Gold.PLP.Chemscore.Hbond>
1.7150

> <Gold.PLP.Chemscore.CHOScore>
0.0000

> <Gold.PLP.Chemscore.Metal>
0.0000

> <Gold.Chemscore.Hbonds>
donor molecule, donor type, donor heavy atom, donor atom, acceptor molecule, acceptor atom, score
      L1  H     3    23       P1 10175  1.00
      P1  H  7989  7998       L1    21  0.59

> <Gold.PLP.Chemscore.Internal.Correction>
0.0152

> <Gold.Rescore>
     Score         DG    S(hbond)    S(metal)    S(lipo)     H(rot)  DE(clash)    DE(int)     intcor
     18.00     -19.67       1.00        0.00     128.92       1.65       0.19       1.49       ----

> <Gold.Chemscore.Fitness>
17.9981

> <Gold.Chemscore.DG>
-19.6710

> <Gold.Chemscore.ZeroCoef>
-5.4800

> <Gold.Chemscore.Hbond>
0.9999

> <Gold.Chemscore.Metal>
0.0000

> <Gold.Chemscore.Lipo>
128.9214

> <Gold.Chemscore.Internal_Hbond>
0.0000

> <Gold.Chemscore.DEClash>
0.1857

> <Gold.Chemscore.DEInternal>
1.4871

> <Gold.Chemscore.Rot>
1.6534

> <Gold.Chemscore.Internal.Correction>
   9.000000E+99

> <Gold.Chemscore.Hbonds>
donor molecule, donor type, donor heavy atom, donor atom, acceptor molecule, acceptor atom, score
      L1  H     3    23       P1 10175  0.87
      P1  H  7989  7998       L1    21  0.38

> <Gold.Chemscore.Hbond.Weighted>
-3.3398

> <Gold.Chemscore.Metal.Weighted>
-0.0000

> <Gold.Chemscore.Lipo.Weighted>
-15.0838

> <Gold.Chemscore.Internal_Hbond.Weighted>
0.0000

> <Gold.Chemscore.DEClash.Weighted>
0.1857

> <Gold.Chemscore.DEInternal.Weighted>
1.4871

> <Gold.Chemscore.Rot.Weighted>
4.2326

> <Gold.Chemscore.Internal.Correction.Weighted>
   9.000000E+99

> <Gold.Protein.RotatedTorsions>
[ 6907 6896 6895 6894 ] final -116.26 input  -60.11 | X-H torsion
[ 7974 7965 7964 7962 ] final   16.55 input  175.53 | X-H torsion
[ 8008 7997 7996 7995 ] final   60.85 input   59.86 | X-H torsion
[ 10167 10162 10161 10158 ] final -164.97 input  -65.29 | X-H torsion
[ 10718 10713 10712 10709 ] final  170.86 input   66.30 | X-H torsion
[ 10763 10752 10751 10750 ] final -128.58 input  -60.55 | X-H torsion
[ 11005 11000 10999 10996 ] final  -69.41 input  -57.11 | X-H torsion

> <Gold.Protein.ActiveResidues>
 VAL166  LYS551  ARG553  GLY616  TRP617  ASP618  TYR619  PRO620  LYS621  CYS622 
 ASP623  PHE694  ASN695  SER759  ASP760  ASP761  ALA762  ILE779  LEU786  VAL792 
 PHE793  MET794  SER795  GLU796  ALA797  LYS798  CYS799  TRP800  GLU811  SER814 

> <Gold.Protein.RotatedAtoms>
  150.8042  133.8542  159.3213 H   0  0  0  0  0  0  0  0  0  0  0  0  # atno 6907 bound_to 6896
  151.6346  135.1017  160.0138 H   0  0  0  0  0  0  0  0  0  0  0  0  # atno 6908 bound_to 6896
  152.4131  133.6955  159.6450 H   0  0  0  0  0  0  0  0  0  0  0  0  # atno 6909 bound_to 6896
  146.2246  139.8731  142.8584 H   0  0  0  0  0  0  0  0  0  0  0  0  # atno 7974 bound_to 7965
  155.5890  140.3492  155.4561 H   0  0  0  0  0  0  0  0  0  0  0  0  # atno 8008 bound_to 7997
  156.0316  140.1276  157.0277 H   0  0  0  0  0  0  0  0  0  0  0  0  # atno 8009 bound_to 7997
  154.4354  140.1042  156.6093 H   0  0  0  0  0  0  0  0  0  0  0  0  # atno 8010 bound_to 7997
  139.6214  144.0617  152.1936 H   0  0  0  0  0  0  0  0  0  0  0  0  # atno 10167 bound_to 10162
  157.0020  131.0179  151.2828 H   0  0  0  0  0  0  0  0  0  0  0  0  # atno 10718 bound_to 10713
  154.8756  135.3924  154.3779 H   0  0  0  0  0  0  0  0  0  0  0  0  # atno 10763 bound_to 10752
  153.4530  135.7028  153.6102 H   0  0  0  0  0  0  0  0  0  0  0  0  # atno 10764 bound_to 10752
  153.4633  135.3807  155.2319 H   0  0  0  0  0  0  0  0  0  0  0  0  # atno 10765 bound_to 10752
  141.1553  133.6764  156.6596 H   0  0  0  0  0  0  0  0  0  0  0  0  # atno 11005 bound_to 11000
  145.2588  141.0070  143.3838 LP  0  0  0  0  0  0  0  0  0  0  0  0  # atno 17320 bound_to 7965
  144.9315  139.4293  143.6493 LP  0  0  0  0  0  0  0  0  0  0  0  0  # atno 17321 bound_to 7965
  140.0259  144.6117  150.7527 LP  0  0  0  0  0  0  0  0  0  0  0  0  # atno 17342 bound_to 10162
  140.7384  143.2778  151.3689 LP  0  0  0  0  0  0  0  0  0  0  0  0  # atno 17343 bound_to 10162
  157.5383  130.8103  149.7998 LP  0  0  0  0  0  0  0  0  0  0  0  0  # atno 17370 bound_to 10713
  156.0168  130.3811  150.2087 LP  0  0  0  0  0  0  0  0  0  0  0  0  # atno 17371 bound_to 10713
  140.3258  134.7970  157.4288 LP  0  0  0  0  0  0  0  0  0  0  0  0  # atno 17394 bound_to 11000
  140.1058  134.5411  155.8310 LP  0  0  0  0  0  0  0  0  0  0  0  0  # atno 17395 bound_to 11000

$$$$
