AV-unprocessed.smi:790|AV-procd|sdf|3745|dock4
  -GOLD-   22720 1173D 1   1.00000     0.00000
 Structure written by MMmdl.
 38 40  0  0  0  0  0  0  0  0  1 V2000
  145.3259  137.5786  153.6416 O   0  0  0  0  0  0  0  0  0  0  0  0
  146.3993  137.2227  153.1572 C   0  0  0  0  0  0  0  0  0  0  0  0
  147.5104  137.9754  153.0809 N   0  0  0  0  0  0  0  0  0  0  0  0
  147.7275  139.3075  153.5297 C   0  0  0  0  0  0  0  0  0  0  0  0
  148.9103  139.7664  154.1603 C   0  0  0  0  0  0  0  0  0  0  0  0
  148.9874  141.1134  154.5634 C   0  0  0  0  0  0  0  0  0  0  0  0
  147.8806  141.9514  154.3278 C   0  0  0  0  0  0  0  0  0  0  0  0
  146.7437  141.5265  153.7383 N   0  0  0  0  0  0  0  0  0  0  0  0
  146.6775  140.2339  153.3542 C   0  0  0  0  0  0  0  0  0  0  0  0
  146.6088  136.0050  152.6375 N   0  0  0  0  0  0  0  0  0  0  0  0
  145.6216  134.9294  152.5801 C   0  0  1  0  0  0  0  0  0  0  0  0
  144.2815  135.4557  152.0195 C   0  0  2  0  0  0  0  0  0  0  0  0
  143.1762  134.4366  152.3474 C   0  0  0  0  0  0  0  0  0  0  0  0
  143.5061  133.2720  151.3949 C   0  0  0  0  0  0  0  0  0  0  0  0
  144.7569  133.7801  150.6446 C   0  0  1  0  0  0  0  0  0  0  0  0
  144.4381  135.2637  150.5134 C   0  0  0  0  0  0  0  0  0  0  0  0
  146.0030  133.8236  151.5611 C   0  0  2  0  0  0  0  0  0  0  0  0
  146.3960  132.4694  152.1833 C   0  0  0  0  0  0  0  0  0  0  0  0
  146.6616  131.5244  151.1694 O   0  0  0  0  0  0  0  0  0  0  0  0
  148.3222  137.5189  152.6912 H   0  0  0  0  0  0  0  0  0  0  0  0
  149.7531  139.1225  154.3538 H   0  0  0  0  0  0  0  0  0  0  0  0
  149.8753  141.4947  155.0458 H   0  0  0  0  0  0  0  0  0  0  0  0
  147.9078  142.9893  154.6252 H   0  0  0  0  0  0  0  0  0  0  0  0
  145.7519  139.9298  152.8872 H   0  0  0  0  0  0  0  0  0  0  0  0
  147.5226  135.8002  152.2610 H   0  0  0  0  0  0  0  0  0  0  0  0
  145.4662  134.5203  153.5802 H   0  0  0  0  0  0  0  0  0  0  0  0
  144.0351  136.4710  152.3329 H   0  0  0  0  0  0  0  0  0  0  0  0
  143.1811  134.1352  153.3954 H   0  0  0  0  0  0  0  0  0  0  0  0
  142.1907  134.8467  152.1231 H   0  0  0  0  0  0  0  0  0  0  0  0
  143.6695  132.3322  151.9208 H   0  0  0  0  0  0  0  0  0  0  0  0
  142.6827  133.1124  150.6977 H   0  0  0  0  0  0  0  0  0  0  0  0
  144.9333  133.2690  149.6977 H   0  0  0  0  0  0  0  0  0  0  0  0
  143.5226  135.4636  149.9535 H   0  0  0  0  0  0  0  0  0  0  0  0
  145.2532  135.8477  150.0824 H   0  0  0  0  0  0  0  0  0  0  0  0
  146.8376  134.1629  150.9436 H   0  0  0  0  0  0  0  0  0  0  0  0
  147.2762  132.5592  152.8197 H   0  0  0  0  0  0  0  0  0  0  0  0
  145.5832  132.0869  152.8010 H   0  0  0  0  0  0  0  0  0  0  0  0
  147.5927  131.5074  151.0087 H   0  0  0  0  0  0  0  0  0  0  0  0
  1  2  2  0  0  0  0
  2  3  1  0  0  0  0
  2 10  1  0  0  0  0
  3  4  1  0  0  0  0
  3 20  1  0  0  0  0
  4  9  1  0  0  0  0
  4  5  2  0  0  0  0
  5  6  1  0  0  0  0
  5 21  1  0  0  0  0
  6  7  2  0  0  0  0
  6 22  1  0  0  0  0
  7  8  1  0  0  0  0
  7 23  1  0  0  0  0
  8  9  2  0  0  0  0
  9 24  1  0  0  0  0
 10 11  1  0  0  0  0
 10 25  1  0  0  0  0
 11 17  1  0  0  0  0
 11 12  1  0  0  0  0
 11 26  1  0  0  0  0
 12 16  1  0  0  0  0
 12 13  1  0  0  0  0
 12 27  1  0  0  0  0
 13 14  1  0  0  0  0
 13 28  1  0  0  0  0
 13 29  1  0  0  0  0
 14 15  1  0  0  0  0
 14 30  1  0  0  0  0
 14 31  1  0  0  0  0
 15 16  1  0  0  0  0
 15 17  1  0  0  0  0
 15 32  1  0  0  0  0
 16 33  1  0  0  0  0
 16 34  1  0  0  0  0
 17 18  1  0  0  0  0
 17 35  1  0  0  0  0
 18 19  1  0  0  0  0
 18 36  1  0  0  0  0
 18 37  1  0  0  0  0
 19 38  1  0  0  0  0
M  END
> <s_m_source_file>
AV-unprocessed.smi

> <i_m_source_file_index>
790

> <i_lp_mmshare_version>
43012

> <i_f3d_flags>
0

> <s_epik_input>
W0NIMl0xW0NIMl1bQ0BASF0oW0NIMl0yKVtDQEBIXShbQ0gyXVtPSF0pW0NAQEhdKFtDQEhdMTIpW05IXUMoPU8pW05IXWMzW2NIXVtjSF1bY0hdbltjSF0z

> <s_epik_cmdline>
J2VwaWtfcHl0aG9uJywgJy1waCcsICc3LjAnLCAnLXRuJywgJzgnLCAnLW1hJywgJzIwMCcsICctbWV0YWxfYmluZGluZycsICctaW1hZScsICc8aW5maWxlLm1hZT4nLCAnLW9tYWUnLCAnPG91dGZpbGUubWFlPic=

> <r_epik_Ionization_Penalty>
0.00497582

> <r_epik_Ionization_Penalty_Charging>
0

> <r_epik_Ionization_Penalty_Neutral>
0.00497582

> <r_epik_State_Penalty>
0.00358602

> <r_epik_Charging_Adjusted_Penalty>
0.00358602

> <i_epik_Tot_Q>
0

> <i_epik_Tot_abs_Q>
0

> <r_epik_Metal_State_Penalty>
-0

> <b_epik_Metal_Only>
0

> <s_lp_Force_Field>
OPLS_2005

> <r_lp_Energy>
52.5349

> <b_lp_Chiralities_Consistent>
1

> <s_lp_Variant>
AV-unprocessed.smi:790-6

> <Gold.Version>
5.8.1

> <Gold.Id.Protein>
6NUR|6NUR_protein|mol2

> <Gold.PLP.Fitness>
45.1591

> <Gold.PLP.PLP>
-31.1355

> <Gold.PLP.part.hbond>
-2.8031

> <Gold.PLP.part.metal>
0.0000

> <Gold.PLP.part.buried>
-0.6721

> <Gold.PLP.part.nonpolar>
-28.0446

> <Gold.PLP.part.repulsive>
0.4193

> <Gold.PLP.ligand.clash>
0.0000

> <Gold.PLP.ligand.torsion>
0.4860

> <Gold.PLP.Chemscore.Hbond>
2.9920

> <Gold.PLP.Chemscore.CHOScore>
2.0000

> <Gold.PLP.Chemscore.Metal>
0.0000

> <Gold.Chemscore.Hbonds>
donor molecule, donor type, donor heavy atom, donor atom, acceptor molecule, acceptor atom, score
      L1  H     3    20       P1  7948  0.99
      L1  H    10    25       P1  7948  0.99
      L1  H    19    38       P1 10747  1.00
      L1  C     7    23       P1  8028  1.00
      L1  C     9    24       P1 10175  1.00

> <Gold.PLP.Chemscore.Internal.Correction>
0.0196

> <Gold.Rescore>
     Score         DG    S(hbond)    S(metal)    S(lipo)     H(rot)  DE(clash)    DE(int)     intcor
     16.86     -19.74       2.93        0.00      77.21       1.78       0.09       2.80       ----

> <Gold.Chemscore.Fitness>
16.8565

> <Gold.Chemscore.DG>
-19.7423

> <Gold.Chemscore.ZeroCoef>
-5.4800

> <Gold.Chemscore.Hbond>
2.9286

> <Gold.Chemscore.Metal>
0.0000

> <Gold.Chemscore.Lipo>
77.2075

> <Gold.Chemscore.Internal_Hbond>
0.0000

> <Gold.Chemscore.DEClash>
0.0884

> <Gold.Chemscore.DEInternal>
2.7973

> <Gold.Chemscore.Rot>
1.7783

> <Gold.Chemscore.Internal.Correction>
   9.000000E+99

> <Gold.Chemscore.Hbonds>
donor molecule, donor type, donor heavy atom, donor atom, acceptor molecule, acceptor atom, score
      L1  H     3    20       P1  7948  0.93
      L1  H    10    25       P1  7948  0.90
      L1  H    19    38       P1 10747  0.96

> <Gold.Chemscore.Hbond.Weighted>
-9.7815

> <Gold.Chemscore.Metal.Weighted>
-0.0000

> <Gold.Chemscore.Lipo.Weighted>
-9.0333

> <Gold.Chemscore.Internal_Hbond.Weighted>
0.0000

> <Gold.Chemscore.DEClash.Weighted>
0.0884

> <Gold.Chemscore.DEInternal.Weighted>
2.7973

> <Gold.Chemscore.Rot.Weighted>
4.5525

> <Gold.Chemscore.Internal.Correction.Weighted>
   9.000000E+99

> <Gold.Protein.RotatedTorsions>
[ 6907 6896 6895 6894 ] final -157.81 input  -60.11 | X-H torsion
[ 7974 7965 7964 7962 ] final  -74.68 input  175.53 | X-H torsion
[ 8008 7997 7996 7995 ] final  165.11 input   59.86 | X-H torsion
[ 10167 10162 10161 10158 ] final  173.66 input  -65.29 | X-H torsion
[ 10718 10713 10712 10709 ] final -114.14 input   66.30 | X-H torsion
[ 10763 10752 10751 10750 ] final  120.54 input  -60.55 | X-H torsion
[ 11005 11000 10999 10996 ] final  -15.07 input  -57.11 | X-H torsion

> <Gold.Protein.ActiveResidues>
 VAL166  LYS551  ARG553  GLY616  TRP617  ASP618  TYR619  PRO620  LYS621  CYS622 
 ASP623  PHE694  ASN695  SER759  ASP760  ASP761  ALA762  ILE779  LEU786  VAL792 
 PHE793  MET794  SER795  GLU796  ALA797  LYS798  CYS799  TRP800  GLU811  SER814 

> <Gold.Protein.RotatedAtoms>
  151.3086  133.4091  159.2644 H   0  0  0  0  0  0  0  0  0  0  0  0  # atno 6907 bound_to 6896
  151.0134  134.9415  159.8030 H   0  0  0  0  0  0  0  0  0  0  0  0  # atno 6908 bound_to 6896
  152.5306  134.3050  159.9145 H   0  0  0  0  0  0  0  0  0  0  0  0  # atno 6909 bound_to 6896
  145.6359  140.9325  143.1062 H   0  0  0  0  0  0  0  0  0  0  0  0  # atno 7974 bound_to 7965
  156.1827  140.1679  156.8244 H   0  0  0  0  0  0  0  0  0  0  0  0  # atno 8008 bound_to 7997
  154.5378  140.0743  156.8491 H   0  0  0  0  0  0  0  0  0  0  0  0  # atno 8009 bound_to 7997
  155.3275  140.3377  155.4242 H   0  0  0  0  0  0  0  0  0  0  0  0  # atno 8010 bound_to 7997
  139.5115  144.3236  152.0179 H   0  0  0  0  0  0  0  0  0  0  0  0  # atno 10167 bound_to 10162
  156.0811  130.6011  150.8736 H   0  0  0  0  0  0  0  0  0  0  0  0  # atno 10718 bound_to 10713
  153.6001  135.3449  155.2942 H   0  0  0  0  0  0  0  0  0  0  0  0  # atno 10763 bound_to 10752
  154.8637  135.4225  154.2422 H   0  0  0  0  0  0  0  0  0  0  0  0  # atno 10764 bound_to 10752
  153.3249  135.7040  153.7070 H   0  0  0  0  0  0  0  0  0  0  0  0  # atno 10765 bound_to 10752
  140.7929  133.8274  155.9396 H   0  0  0  0  0  0  0  0  0  0  0  0  # atno 11005 bound_to 11000
  144.7176  139.8143  143.7393 LP  0  0  0  0  0  0  0  0  0  0  0  0  # atno 17320 bound_to 7965
  146.1319  139.4357  143.0163 LP  0  0  0  0  0  0  0  0  0  0  0  0  # atno 17321 bound_to 7965
  140.2677  144.3998  150.6162 LP  0  0  0  0  0  0  0  0  0  0  0  0  # atno 17342 bound_to 10162
  140.6111  143.2169  151.6884 LP  0  0  0  0  0  0  0  0  0  0  0  0  # atno 17343 bound_to 10162
  157.5928  131.0944  150.9090 LP  0  0  0  0  0  0  0  0  0  0  0  0  # atno 17370 bound_to 10713
  156.9263  130.5333  149.5279 LP  0  0  0  0  0  0  0  0  0  0  0  0  # atno 17371 bound_to 10713
  140.9372  134.1947  157.4823 LP  0  0  0  0  0  0  0  0  0  0  0  0  # atno 17394 bound_to 11000
  139.8729  134.9857  156.5292 LP  0  0  0  0  0  0  0  0  0  0  0  0  # atno 17395 bound_to 11000

$$$$
