AV-unprocessed.smi:1627|AV-procd|sdf|6519|dock7
  -GOLD-   22720 7193D 1   1.00000     0.00000
 Structure written by MMmdl.
 44 45  0  0  0  0  0  0  0  0  2 V2000
  156.3223  135.6723  160.1952 C   0  0  0  0  0  0  0  0  0  0  0  0
  155.0545  135.6616  161.0618 C   0  0  1  0  0  0  0  0  0  0  0  0
  155.4672  135.7514  162.4226 O   0  0  0  0  0  0  0  0  0  0  0  0
  154.4523  135.4970  163.3884 C   0  0  0  0  0  0  0  0  0  0  0  0
  154.6863  134.1193  164.0195 C   0  0  0  0  0  0  0  0  0  0  0  0
  153.7808  133.9152  164.9756 F   0  0  0  0  0  0  0  0  0  0  0  0
  154.5606  133.1625  163.1002 F   0  0  0  0  0  0  0  0  0  0  0  0
  155.9020  134.0631  164.5624 F   0  0  0  0  0  0  0  0  0  0  0  0
  154.1294  136.8374  160.7080 C   0  0  0  0  0  0  0  0  0  0  0  0
  153.0194  136.6142  160.2257 O   0  0  0  0  0  0  0  0  0  0  0  0
  154.6330  138.0669  160.9244 N   0  0  0  0  0  0  0  0  0  0  0  0
  154.0173  139.3273  160.6966 C   0  0  0  0  0  0  0  0  0  0  0  0
  154.4330  140.5350  161.3085 C   0  0  0  0  0  0  0  0  0  0  0  0
  153.7636  141.7372  161.0005 C   0  0  0  0  0  0  0  0  0  0  0  0
  152.6905  141.7341  160.0775 C   0  0  0  0  0  0  0  0  0  0  0  0
  151.9856  142.9085  159.7341 N   0  0  0  0  0  0  0  0  0  0  0  0
  152.8079  144.0958  159.4891 C   0  0  0  0  0  0  0  0  0  0  0  0
  151.9621  145.3797  159.5417 C   0  0  0  0  0  0  0  0  0  0  0  0
  150.7581  145.2887  158.5930 C   0  0  0  0  0  0  0  0  0  0  0  0
  149.9341  144.0334  158.9119 C   0  0  0  0  0  0  0  0  0  0  0  0
  150.8104  142.7696  158.8696 C   0  0  0  0  0  0  0  0  0  0  0  0
  152.3377  140.5533  159.5117 N   0  3  0  0  0  0  0  0  0  0  0  0
  152.9514  139.3798  159.7762 C   0  0  0  0  0  0  0  0  0  0  0  0
  156.0785  135.6182  159.1336 H   0  0  0  0  0  0  0  0  0  0  0  0
  156.9572  134.8179  160.4304 H   0  0  0  0  0  0  0  0  0  0  0  0
  156.9133  136.5744  160.3584 H   0  0  0  0  0  0  0  0  0  0  0  0
  154.5364  134.7143  160.8994 H   0  0  0  0  0  0  0  0  0  0  0  0
  154.4538  136.2583  164.1692 H   0  0  0  0  0  0  0  0  0  0  0  0
  153.4720  135.5225  162.9101 H   0  0  0  0  0  0  0  0  0  0  0  0
  155.5929  138.1011  161.2363 H   0  0  0  0  0  0  0  0  0  0  0  0
  155.2592  140.5675  162.0017 H   0  0  0  0  0  0  0  0  0  0  0  0
  154.0769  142.6481  161.4882 H   0  0  0  0  0  0  0  0  0  0  0  0
  153.6203  144.1830  160.2089 H   0  0  0  0  0  0  0  0  0  0  0  0
  153.2719  143.9986  158.5066 H   0  0  0  0  0  0  0  0  0  0  0  0
  151.6110  145.5435  160.5615 H   0  0  0  0  0  0  0  0  0  0  0  0
  152.5772  146.2423  159.2841 H   0  0  0  0  0  0  0  0  0  0  0  0
  150.1377  146.1808  158.6844 H   0  0  0  0  0  0  0  0  0  0  0  0
  151.1036  145.2511  157.5589 H   0  0  0  0  0  0  0  0  0  0  0  0
  149.4865  144.1336  159.9017 H   0  0  0  0  0  0  0  0  0  0  0  0
  149.1075  143.9384  158.2070 H   0  0  0  0  0  0  0  0  0  0  0  0
  151.1400  142.5781  157.8475 H   0  0  0  0  0  0  0  0  0  0  0  0
  150.2091  141.9149  159.1818 H   0  0  0  0  0  0  0  0  0  0  0  0
  152.5652  138.5201  159.2479 H   0  0  0  0  0  0  0  0  0  0  0  0
  151.5661  140.5510  158.8444 H   0  0  0  0  0  0  0  0  0  0  0  0
  1  2  1  0  0  0  0
  1 24  1  0  0  0  0
  1 25  1  0  0  0  0
  1 26  1  0  0  0  0
  2  3  1  0  0  0  0
  2  9  1  0  0  0  0
  2 27  1  0  0  0  0
  3  4  1  0  0  0  0
  4  5  1  0  0  0  0
  4 28  1  0  0  0  0
  4 29  1  0  0  0  0
  5  6  1  0  0  0  0
  5  7  1  0  0  0  0
  5  8  1  0  0  0  0
  9 10  2  0  0  0  0
  9 11  1  0  0  0  0
 11 12  1  0  0  0  0
 11 30  1  0  0  0  0
 12 23  1  0  0  0  0
 12 13  2  0  0  0  0
 13 14  1  0  0  0  0
 13 31  1  0  0  0  0
 14 15  2  0  0  0  0
 14 32  1  0  0  0  0
 15 16  1  0  0  0  0
 15 22  1  0  0  0  0
 16 21  1  0  0  0  0
 16 17  1  0  0  0  0
 17 18  1  0  0  0  0
 17 33  1  0  0  0  0
 17 34  1  0  0  0  0
 18 19  1  0  0  0  0
 18 35  1  0  0  0  0
 18 36  1  0  0  0  0
 19 20  1  0  0  0  0
 19 37  1  0  0  0  0
 19 38  1  0  0  0  0
 20 21  1  0  0  0  0
 20 39  1  0  0  0  0
 20 40  1  0  0  0  0
 21 41  1  0  0  0  0
 21 42  1  0  0  0  0
 22 23  2  0  0  0  0
 22 44  1  0  0  0  0
 23 43  1  0  0  0  0
M  CHG  1  22   1
M  END
> <s_m_source_file>
AV-unprocessed.smi

> <i_m_source_file_index>
1627

> <i_lp_mmshare_version>
43012

> <i_f3d_flags>
0

> <s_epik_input>
RkMoRikoRilbQ0gyXU9bQ0BASF0oW0NIM10pQyg9TylbTkhdYzFbY0hdW2NIXWMobltjSF0xKU4yW0NIMl1bQ0gyXVtDSDJdW0NIMl1bQ0gyXTI=

> <s_epik_cmdline>
J2VwaWtfcHl0aG9uJywgJy1waCcsICc3LjAnLCAnLXRuJywgJzgnLCAnLW1hJywgJzIwMCcsICctbWV0YWxfYmluZGluZycsICctaW1hZScsICc8aW5maWxlLm1hZT4nLCAnLW9tYWUnLCAnPG91dGZpbGUubWFlPic=

> <r_lp_tautomer_probability>
0.999994

> <r_epik_Ionization_Penalty>
1.93197

> <r_epik_Ionization_Penalty_Charging>
1.93197

> <r_epik_Ionization_Penalty_Neutral>
3.16684e-06

> <r_epik_State_Penalty>
2.05557

> <r_epik_Charging_Adjusted_Penalty>
3.98754

> <i_epik_Tot_Q>
1

> <i_epik_Tot_abs_Q>
1

> <r_epik_Metal_State_Penalty>
2.08108

> <b_epik_Metal_Only>
0

> <s_lp_Force_Field>
OPLS_2005

> <r_lp_Energy>
31.3841

> <b_lp_Chiralities_Consistent>
1

> <s_lp_Variant>
AV-unprocessed.smi:1627-4

> <Gold.Version>
5.8.1

> <Gold.Id.Protein>
6NUR|6NUR_protein|mol2

> <Gold.PLP.Fitness>
42.0783

> <Gold.PLP.PLP>
-40.1125

> <Gold.PLP.part.hbond>
-1.0000

> <Gold.PLP.part.metal>
0.0000

> <Gold.PLP.part.buried>
-4.7996

> <Gold.PLP.part.nonpolar>
-34.2452

> <Gold.PLP.part.repulsive>
0.1386

> <Gold.PLP.ligand.clash>
0.0000

> <Gold.PLP.ligand.torsion>
0.7806

> <Gold.PLP.Chemscore.Hbond>
1.0000

> <Gold.PLP.Chemscore.CHOScore>
0.0000

> <Gold.PLP.Chemscore.Metal>
0.0000

> <Gold.Chemscore.Hbonds>
donor molecule, donor type, donor heavy atom, donor atom, acceptor molecule, acceptor atom, score
      P1  H  6896  6909       L1    10  1.00

> <Gold.PLP.Chemscore.Internal.Correction>
0.5271

> <Gold.Rescore>
     Score         DG    S(hbond)    S(metal)    S(lipo)     H(rot)  DE(clash)    DE(int)     intcor
     13.83     -16.07       1.00        0.00     103.67       1.90       0.09       2.16       ----

> <Gold.Chemscore.Fitness>
13.8258

> <Gold.Chemscore.DG>
-16.0696

> <Gold.Chemscore.ZeroCoef>
-5.4800

> <Gold.Chemscore.Hbond>
0.9958

> <Gold.Chemscore.Metal>
0.0000

> <Gold.Chemscore.Lipo>
103.6698

> <Gold.Chemscore.Internal_Hbond>
0.0000

> <Gold.Chemscore.DEClash>
0.0858

> <Gold.Chemscore.DEInternal>
2.1581

> <Gold.Chemscore.Rot>
1.9007

> <Gold.Chemscore.Internal.Correction>
   9.000000E+99

> <Gold.Chemscore.Hbonds>
donor molecule, donor type, donor heavy atom, donor atom, acceptor molecule, acceptor atom, score
      P1  H  6896  6909       L1    10  1.00

> <Gold.Chemscore.Hbond.Weighted>
-3.3260

> <Gold.Chemscore.Metal.Weighted>
-0.0000

> <Gold.Chemscore.Lipo.Weighted>
-12.1294

> <Gold.Chemscore.Internal_Hbond.Weighted>
0.0000

> <Gold.Chemscore.DEClash.Weighted>
0.0858

> <Gold.Chemscore.DEInternal.Weighted>
2.1581

> <Gold.Chemscore.Rot.Weighted>
4.8657

> <Gold.Chemscore.Internal.Correction.Weighted>
   9.000000E+99

> <Gold.Protein.RotatedTorsions>
[ 6907 6896 6895 6894 ] final  155.75 input  -60.11 | X-H torsion
[ 7974 7965 7964 7962 ] final  176.38 input  175.53 | X-H torsion
[ 8008 7997 7996 7995 ] final  112.20 input   59.86 | X-H torsion
[ 10167 10162 10161 10158 ] final   70.79 input  -65.29 | X-H torsion
[ 10718 10713 10712 10709 ] final   73.70 input   66.30 | X-H torsion
[ 10763 10752 10751 10750 ] final -133.55 input  -60.55 | X-H torsion
[ 11005 11000 10999 10996 ] final -157.03 input  -57.11 | X-H torsion

> <Gold.Protein.ActiveResidues>
 VAL166  LYS551  ARG553  GLY616  TRP617  ASP618  TYR619  PRO620  LYS621  CYS622 
 ASP623  PHE694  ASN695  SER759  ASP760  ASP761  ALA762  ILE779  LEU786  VAL792 
 PHE793  MET794  SER795  GLU796  ALA797  LYS798  CYS799  TRP800  GLU811  SER814 

> <Gold.Protein.RotatedAtoms>
  152.0396  133.3972  159.4331 H   0  0  0  0  0  0  0  0  0  0  0  0  # atno 6907 bound_to 6896
  150.6876  134.3429  159.4885 H   0  0  0  0  0  0  0  0  0  0  0  0  # atno 6908 bound_to 6896
  152.1226  134.9194  160.0613 H   0  0  0  0  0  0  0  0  0  0  0  0  # atno 6909 bound_to 6896
  144.7185  140.0088  143.6440 H   0  0  0  0  0  0  0  0  0  0  0  0  # atno 7974 bound_to 7965
  156.2176  140.3004  155.9875 H   0  0  0  0  0  0  0  0  0  0  0  0  # atno 8008 bound_to 7997
  155.2566  140.0428  157.3010 H   0  0  0  0  0  0  0  0  0  0  0  0  # atno 8009 bound_to 7997
  154.5791  140.2370  155.8088 H   0  0  0  0  0  0  0  0  0  0  0  0  # atno 8010 bound_to 7997
  140.0531  144.5295  150.7349 H   0  0  0  0  0  0  0  0  0  0  0  0  # atno 10167 bound_to 10162
  157.6559  130.9641  150.1106 H   0  0  0  0  0  0  0  0  0  0  0  0  # atno 10718 bound_to 10713
  154.8731  135.3762  154.4591 H   0  0  0  0  0  0  0  0  0  0  0  0  # atno 10763 bound_to 10752
  153.5260  135.7028  153.5712 H   0  0  0  0  0  0  0  0  0  0  0  0  # atno 10764 bound_to 10752
  153.3938  135.3965  155.1906 H   0  0  0  0  0  0  0  0  0  0  0  0  # atno 10765 bound_to 10752
  140.6691  134.4267  157.5232 H   0  0  0  0  0  0  0  0  0  0  0  0  # atno 11005 bound_to 11000
  146.0275  139.3305  143.0775 LP  0  0  0  0  0  0  0  0  0  0  0  0  # atno 17320 bound_to 7965
  145.8493  140.9538  143.0758 LP  0  0  0  0  0  0  0  0  0  0  0  0  # atno 17321 bound_to 7965
  140.7207  143.2586  151.4287 LP  0  0  0  0  0  0  0  0  0  0  0  0  # atno 17342 bound_to 10162
  139.5941  144.1436  152.2122 LP  0  0  0  0  0  0  0  0  0  0  0  0  # atno 17343 bound_to 10162
  156.2004  130.3660  149.8795 LP  0  0  0  0  0  0  0  0  0  0  0  0  # atno 17370 bound_to 10713
  156.6701  130.8817  151.3561 LP  0  0  0  0  0  0  0  0  0  0  0  0  # atno 17371 bound_to 10713
  139.8987  134.8607  156.1989 LP  0  0  0  0  0  0  0  0  0  0  0  0  # atno 17394 bound_to 11000
  141.0406  133.6940  156.1591 LP  0  0  0  0  0  0  0  0  0  0  0  0  # atno 17395 bound_to 11000

$$$$
