AV-unprocessed.smi:2104|AV-procd|sdf|8584|dock7
  -GOLD-   2272011313D 1   1.00000     0.00000
 Structure written by MMmdl.
 43 44  0  0  0  0  0  0  0  0  1 V2000
  144.5728  132.3057  149.2125 C   0  0  0  0  0  0  0  0  0  0  0  0
  145.3080  132.6262  150.4684 C   0  0  0  0  0  0  0  0  0  0  0  0
  146.3533  133.4611  150.7477 C   0  0  0  0  0  0  0  0  0  0  0  0
  146.5461  133.2765  152.1427 C   0  0  0  0  0  0  0  0  0  0  0  0
  147.5577  133.9867  152.8381 N   0  0  0  0  0  0  0  0  0  0  0  0
  147.8589  133.9085  154.1452 C   0  0  0  0  0  0  0  0  0  0  0  0
  147.3423  133.1275  154.9449 O   0  0  0  0  0  0  0  0  0  0  0  0
  148.7945  134.8080  154.4839 N   0  0  0  0  0  0  0  0  0  0  0  0
  149.2641  135.0579  155.8431 C   0  0  0  0  0  0  0  0  0  0  0  0
  150.4423  136.0436  155.8507 C   0  0  0  0  0  0  0  0  0  0  0  0
  149.9313  137.3650  155.7710 O   0  0  0  0  0  0  0  0  0  0  0  0
  150.2573  138.0755  154.5835 C   0  0  1  0  0  0  0  0  0  0  0  0
  149.0586  138.9338  154.1224 C   0  0  0  0  0  0  0  0  0  0  0  0
  148.7099  140.0264  155.1474 C   0  0  0  0  0  0  0  0  0  0  0  0
  149.9289  140.9065  155.4613 C   0  0  0  0  0  0  0  0  0  0  0  0
  151.1285  140.0605  155.9171 C   0  0  0  0  0  0  0  0  0  0  0  0
  151.4804  138.9709  154.8831 C   0  0  1  0  0  0  0  0  0  0  0  0
  152.7050  138.1493  155.3146 C   0  0  0  0  0  0  0  0  0  0  0  0
  145.6932  132.4103  152.6680 N   0  0  0  0  0  0  0  0  0  0  0  0
  144.8962  131.9882  151.5975 O   0  0  0  0  0  0  0  0  0  0  0  0
  145.0300  132.8013  148.3560 H   0  0  0  0  0  0  0  0  0  0  0  0
  143.5354  132.6335  149.2788 H   0  0  0  0  0  0  0  0  0  0  0  0
  144.5783  131.2320  149.0242 H   0  0  0  0  0  0  0  0  0  0  0  0
  146.8906  134.0997  150.0625 H   0  0  0  0  0  0  0  0  0  0  0  0
  148.0786  134.6558  152.2910 H   0  0  0  0  0  0  0  0  0  0  0  0
  149.1704  135.4005  153.7582 H   0  0  0  0  0  0  0  0  0  0  0  0
  148.4535  135.4182  156.4785 H   0  0  0  0  0  0  0  0  0  0  0  0
  149.5855  134.1045  156.2630 H   0  0  0  0  0  0  0  0  0  0  0  0
  151.0144  135.9368  156.7730 H   0  0  0  0  0  0  0  0  0  0  0  0
  151.1159  135.8207  155.0233 H   0  0  0  0  0  0  0  0  0  0  0  0
  150.5265  137.3684  153.7965 H   0  0  0  0  0  0  0  0  0  0  0  0
  149.3036  139.4047  153.1697 H   0  0  0  0  0  0  0  0  0  0  0  0
  148.1833  138.3142  153.9303 H   0  0  0  0  0  0  0  0  0  0  0  0
  147.8944  140.6437  154.7700 H   0  0  0  0  0  0  0  0  0  0  0  0
  148.3457  139.5666  156.0662 H   0  0  0  0  0  0  0  0  0  0  0  0
  150.2027  141.4793  154.5745 H   0  0  0  0  0  0  0  0  0  0  0  0
  149.6727  141.6334  156.2328 H   0  0  0  0  0  0  0  0  0  0  0  0
  151.9889  140.7099  156.0818 H   0  0  0  0  0  0  0  0  0  0  0  0
  150.9038  139.6003  156.8805 H   0  0  0  0  0  0  0  0  0  0  0  0
  151.7505  139.4760  153.9544 H   0  0  0  0  0  0  0  0  0  0  0  0
  152.5258  137.6316  156.2575 H   0  0  0  0  0  0  0  0  0  0  0  0
  153.5778  138.7886  155.4493 H   0  0  0  0  0  0  0  0  0  0  0  0
  152.9579  137.3989  154.5652 H   0  0  0  0  0  0  0  0  0  0  0  0
  1  2  1  0  0  0  0
  1 21  1  0  0  0  0
  1 22  1  0  0  0  0
  1 23  1  0  0  0  0
  2 20  1  0  0  0  0
  2  3  2  0  0  0  0
  3  4  1  0  0  0  0
  3 24  1  0  0  0  0
  4  5  1  0  0  0  0
  4 19  2  0  0  0  0
  5  6  1  0  0  0  0
  5 25  1  0  0  0  0
  6  7  2  0  0  0  0
  6  8  1  0  0  0  0
  8  9  1  0  0  0  0
  8 26  1  0  0  0  0
  9 10  1  0  0  0  0
  9 27  1  0  0  0  0
  9 28  1  0  0  0  0
 10 11  1  0  0  0  0
 10 29  1  0  0  0  0
 10 30  1  0  0  0  0
 11 12  1  0  0  0  0
 12 17  1  0  0  0  0
 12 13  1  0  0  0  0
 12 31  1  0  0  0  0
 13 14  1  0  0  0  0
 13 32  1  0  0  0  0
 13 33  1  0  0  0  0
 14 15  1  0  0  0  0
 14 34  1  0  0  0  0
 14 35  1  0  0  0  0
 15 16  1  0  0  0  0
 15 36  1  0  0  0  0
 15 37  1  0  0  0  0
 16 17  1  0  0  0  0
 16 38  1  0  0  0  0
 16 39  1  0  0  0  0
 17 18  1  0  0  0  0
 17 40  1  0  0  0  0
 18 41  1  0  0  0  0
 18 42  1  0  0  0  0
 18 43  1  0  0  0  0
 19 20  1  0  0  0  0
M  END
> <s_m_source_file>
AV-unprocessed.smi

> <i_m_source_file_index>
2104

> <i_lp_mmshare_version>
43012

> <i_f3d_flags>
0

> <s_epik_input>
W0NIM11jMVtjSF1jKG5vMSlbTkhdQyg9TylbTkhdW0NIMl1bQ0gyXU9bQ0BASF0yW0NIMl1bQ0gyXVtDSDJdW0NIMl1bQ0BIXTJbQ0gzXQ==

> <s_epik_cmdline>
J2VwaWtfcHl0aG9uJywgJy1waCcsICc3LjAnLCAnLXRuJywgJzgnLCAnLW1hJywgJzIwMCcsICctbWV0YWxfYmluZGluZycsICctaW1hZScsICc8aW5maWxlLm1hZT4nLCAnLW9tYWUnLCAnPG91dGZpbGUubWFlPic=

> <r_lp_tautomer_probability>
1

> <r_epik_Ionization_Penalty>
2.94418e-05

> <r_epik_Ionization_Penalty_Charging>
0

> <r_epik_Ionization_Penalty_Neutral>
2.94418e-05

> <r_epik_State_Penalty>
-0

> <r_epik_Charging_Adjusted_Penalty>
0

> <i_epik_Tot_Q>
0

> <i_epik_Tot_abs_Q>
0

> <r_epik_Metal_State_Penalty>
0.0104148

> <b_epik_Metal_Only>
0

> <s_lp_Force_Field>
OPLS_2005

> <r_lp_Energy>
8.22598

> <b_lp_Chiralities_Consistent>
1

> <s_lp_Variant>
AV-unprocessed.smi:2104-2

> <Gold.Version>
5.8.1

> <Gold.Id.Protein>
6NUR|6NUR_protein|mol2

> <Gold.PLP.Fitness>
38.4482

> <Gold.PLP.PLP>
-34.6450

> <Gold.PLP.part.hbond>
-2.0000

> <Gold.PLP.part.metal>
0.0000

> <Gold.PLP.part.buried>
-3.5992

> <Gold.PLP.part.nonpolar>
-29.7123

> <Gold.PLP.part.repulsive>
0.3695

> <Gold.PLP.ligand.clash>
0.0000

> <Gold.PLP.ligand.torsion>
1.0221

> <Gold.PLP.Chemscore.Hbond>
1.9440

> <Gold.PLP.Chemscore.CHOScore>
0.0000

> <Gold.PLP.Chemscore.Metal>
0.0000

> <Gold.Chemscore.Hbonds>
donor molecule, donor type, donor heavy atom, donor atom, acceptor molecule, acceptor atom, score
      L1  H     5    25       P1  7948  1.00
      L1  H     8    26       P1  7948  0.92

> <Gold.PLP.Chemscore.Internal.Correction>
0.0155

> <Gold.Rescore>
     Score         DG    S(hbond)    S(metal)    S(lipo)     H(rot)  DE(clash)    DE(int)     intcor
     13.93     -16.14       1.80        0.00      78.11       1.75       0.01       2.20       ----

> <Gold.Chemscore.Fitness>
13.9263

> <Gold.Chemscore.DG>
-16.1397

> <Gold.Chemscore.ZeroCoef>
-5.4800

> <Gold.Chemscore.Hbond>
1.7984

> <Gold.Chemscore.Metal>
0.0000

> <Gold.Chemscore.Lipo>
78.1121

> <Gold.Chemscore.Internal_Hbond>
0.0000

> <Gold.Chemscore.DEClash>
0.0126

> <Gold.Chemscore.DEInternal>
2.2008

> <Gold.Chemscore.Rot>
1.7524

> <Gold.Chemscore.Internal.Correction>
   9.000000E+99

> <Gold.Chemscore.Hbonds>
donor molecule, donor type, donor heavy atom, donor atom, acceptor molecule, acceptor atom, score
      L1  H     5    25       P1  7948  0.35
      L1  H     8    26       P1  7948  0.46

> <Gold.Chemscore.Hbond.Weighted>
-6.0067

> <Gold.Chemscore.Metal.Weighted>
-0.0000

> <Gold.Chemscore.Lipo.Weighted>
-9.1391

> <Gold.Chemscore.Internal_Hbond.Weighted>
0.0000

> <Gold.Chemscore.DEClash.Weighted>
0.0126

> <Gold.Chemscore.DEInternal.Weighted>
2.2008

> <Gold.Chemscore.Rot.Weighted>
4.4861

> <Gold.Chemscore.Internal.Correction.Weighted>
   9.000000E+99

> <Gold.Protein.RotatedTorsions>
[ 6907 6896 6895 6894 ] final   69.64 input  -60.11 | X-H torsion
[ 7974 7965 7964 7962 ] final  156.53 input  175.53 | X-H torsion
[ 8008 7997 7996 7995 ] final  113.12 input   59.86 | X-H torsion
[ 10167 10162 10161 10158 ] final  102.21 input  -65.29 | X-H torsion
[ 10718 10713 10712 10709 ] final -130.47 input   66.30 | X-H torsion
[ 10763 10752 10751 10750 ] final -171.11 input  -60.55 | X-H torsion
[ 11005 11000 10999 10996 ] final -156.95 input  -57.11 | X-H torsion

> <Gold.Protein.ActiveResidues>
 VAL166  LYS551  ARG553  GLY616  TRP617  ASP618  TYR619  PRO620  LYS621  CYS622 
 ASP623  PHE694  ASN695  SER759  ASP760  ASP761  ALA762  ILE779  LEU786  VAL792 
 PHE793  MET794  SER795  GLU796  ALA797  LYS798  CYS799  TRP800  GLU811  SER814 

> <Gold.Protein.RotatedAtoms>
  152.4699  134.4985  159.9717 H   0  0  0  0  0  0  0  0  0  0  0  0  # atno 6907 bound_to 6896
  151.5015  133.3497  159.2877 H   0  0  0  0  0  0  0  0  0  0  0  0  # atno 6908 bound_to 6896
  150.8703  134.8103  159.7211 H   0  0  0  0  0  0  0  0  0  0  0  0  # atno 6909 bound_to 6896
  144.7957  139.7216  143.6203 H   0  0  0  0  0  0  0  0  0  0  0  0  # atno 7974 bound_to 7965
  156.2237  140.2986  156.0015 H   0  0  0  0  0  0  0  0  0  0  0  0  # atno 8008 bound_to 7997
  155.2413  140.0422  157.2992 H   0  0  0  0  0  0  0  0  0  0  0  0  # atno 8009 bound_to 7997
  154.5881  140.2394  155.7966 H   0  0  0  0  0  0  0  0  0  0  0  0  # atno 8010 bound_to 7997
  139.7370  144.7021  151.0634 H   0  0  0  0  0  0  0  0  0  0  0  0  # atno 10167 bound_to 10162
  156.2147  130.6941  151.0690 H   0  0  0  0  0  0  0  0  0  0  0  0  # atno 10718 bound_to 10713
  154.6342  135.2890  155.0181 H   0  0  0  0  0  0  0  0  0  0  0  0  # atno 10763 bound_to 10752
  154.1331  135.6530  153.4930 H   0  0  0  0  0  0  0  0  0  0  0  0  # atno 10764 bound_to 10752
  153.0294  135.5315  154.7181 H   0  0  0  0  0  0  0  0  0  0  0  0  # atno 10765 bound_to 10752
  140.6699  134.4258  157.5232 H   0  0  0  0  0  0  0  0  0  0  0  0  # atno 11005 bound_to 11000
  146.2225  139.5661  142.9609 LP  0  0  0  0  0  0  0  0  0  0  0  0  # atno 17320 bound_to 7965
  145.5679  141.0397  143.2190 LP  0  0  0  0  0  0  0  0  0  0  0  0  # atno 17321 bound_to 7965
  140.7780  143.4972  150.9818 LP  0  0  0  0  0  0  0  0  0  0  0  0  # atno 17342 bound_to 10162
  139.8660  143.7253  152.3170 LP  0  0  0  0  0  0  0  0  0  0  0  0  # atno 17343 bound_to 10162
  157.7057  131.0757  150.6674 LP  0  0  0  0  0  0  0  0  0  0  0  0  # atno 17370 bound_to 10713
  156.6735  130.4546  149.5650 LP  0  0  0  0  0  0  0  0  0  0  0  0  # atno 17371 bound_to 10713
  139.8985  134.8612  156.1999 LP  0  0  0  0  0  0  0  0  0  0  0  0  # atno 17394 bound_to 11000
  141.0400  133.6943  156.1581 LP  0  0  0  0  0  0  0  0  0  0  0  0  # atno 17395 bound_to 11000

$$$$
