AV-unprocessed.smi:508|AV-procd|sdf|2759|dock5
  -GOLD-   2262023223D 1   1.00000     0.00000
 Structure written by MMmdl.
 48 50  0  0  0  0  0  0  0  0  2 V2000
  151.5364  138.4493  154.4709 C   0  0  0  0  0  0  0  0  0  0  0  0
  150.1546  138.7667  155.0473 C   0  0  0  0  0  0  0  0  0  0  0  0
  149.3619  137.5922  155.0146 O   0  0  0  0  0  0  0  0  0  0  0  0
  148.8136  137.2660  156.2807 C   0  0  0  0  0  0  0  0  0  0  0  0
  149.5944  136.0768  156.8583 C   0  0  0  0  0  0  0  0  0  0  0  0
  148.8351  135.3282  157.8551 N   0  0  0  0  0  0  0  0  0  0  0  0
  148.3425  134.0626  157.7639 C   0  0  0  0  0  0  0  0  0  0  0  0
  148.5739  133.2518  156.6502 N   0  0  0  0  0  0  0  0  0  0  0  0
  149.8288  133.2278  155.9024 C   0  0  0  0  0  0  0  0  0  0  0  0
  149.6830  133.4172  154.3794 C   0  0  0  0  0  0  0  0  0  0  0  0
  149.1348  132.1710  153.6686 C   0  0  0  0  0  0  0  0  0  0  0  0
  147.6026  132.0262  153.6991 C   0  0  0  0  0  0  0  0  0  0  0  0
  146.9043  132.4207  155.0138 C   0  0  0  0  0  0  0  0  0  0  0  0
  147.7041  132.1337  156.2945 C   0  0  0  0  0  0  0  0  0  0  0  0
  147.6086  133.6745  158.8096 N   0  0  0  0  0  0  0  0  0  0  0  0
  147.6635  134.7749  159.6507 C   0  0  0  0  0  0  0  0  0  0  0  0
  148.3938  135.7812  159.1021 C   0  0  0  0  0  0  0  0  0  0  0  0
  148.6135  137.0881  159.7578 C   0  0  0  0  0  0  0  0  0  0  0  0
  149.2703  137.9711  159.2099 O   0  0  0  0  0  0  0  0  0  0  0  0
  148.0129  137.1553  160.9883 N   0  5  0  0  0  0  0  0  0  0  0  0
  147.2681  136.1591  161.5840 C   0  0  0  0  0  0  0  0  0  0  0  0
  146.7672  136.3093  162.6986 O   0  0  0  0  0  0  0  0  0  0  0  0
  147.0755  134.9694  160.9283 N   0  0  0  0  0  0  0  0  0  0  0  0
  146.2888  133.8657  161.4876 C   0  0  0  0  0  0  0  0  0  0  0  0
  152.1752  139.3326  154.4808 H   0  0  0  0  0  0  0  0  0  0  0  0
  151.4596  138.1028  153.4401 H   0  0  0  0  0  0  0  0  0  0  0  0
  152.0323  137.6709  155.0508 H   0  0  0  0  0  0  0  0  0  0  0  0
  150.2538  139.1248  156.0730 H   0  0  0  0  0  0  0  0  0  0  0  0
  149.6804  139.5574  154.4640 H   0  0  0  0  0  0  0  0  0  0  0  0
  148.8780  138.1296  156.9407 H   0  0  0  0  0  0  0  0  0  0  0  0
  147.7567  137.0184  156.1779 H   0  0  0  0  0  0  0  0  0  0  0  0
  149.8882  135.3958  156.0600 H   0  0  0  0  0  0  0  0  0  0  0  0
  150.5308  136.4118  157.2983 H   0  0  0  0  0  0  0  0  0  0  0  0
  150.4795  134.0036  156.3005 H   0  0  0  0  0  0  0  0  0  0  0  0
  150.3462  132.2909  156.1120 H   0  0  0  0  0  0  0  0  0  0  0  0
  149.0923  134.2975  154.1304 H   0  0  0  0  0  0  0  0  0  0  0  0
  150.6795  133.6124  153.9823 H   0  0  0  0  0  0  0  0  0  0  0  0
  149.4527  132.1859  152.6256 H   0  0  0  0  0  0  0  0  0  0  0  0
  149.5966  131.2812  154.0982 H   0  0  0  0  0  0  0  0  0  0  0  0
  147.1695  132.6198  152.8933 H   0  0  0  0  0  0  0  0  0  0  0  0
  147.3579  130.9904  153.4617 H   0  0  0  0  0  0  0  0  0  0  0  0
  146.6328  133.4775  154.9862 H   0  0  0  0  0  0  0  0  0  0  0  0
  145.9566  131.8837  155.0621 H   0  0  0  0  0  0  0  0  0  0  0  0
  148.2696  131.2049  156.2090 H   0  0  0  0  0  0  0  0  0  0  0  0
  147.0005  131.9787  157.1130 H   0  0  0  0  0  0  0  0  0  0  0  0
  145.8049  134.0935  162.4375 H   0  0  0  0  0  0  0  0  0  0  0  0
  146.9296  132.9981  161.6466 H   0  0  0  0  0  0  0  0  0  0  0  0
  145.5031  133.5781  160.7883 H   0  0  0  0  0  0  0  0  0  0  0  0
  1  2  1  0  0  0  0
  1 25  1  0  0  0  0
  1 26  1  0  0  0  0
  1 27  1  0  0  0  0
  2  3  1  0  0  0  0
  2 28  1  0  0  0  0
  2 29  1  0  0  0  0
  3  4  1  0  0  0  0
  4  5  1  0  0  0  0
  4 30  1  0  0  0  0
  4 31  1  0  0  0  0
  5  6  1  0  0  0  0
  5 32  1  0  0  0  0
  5 33  1  0  0  0  0
  6 17  1  0  0  0  0
  6  7  1  0  0  0  0
  7  8  1  0  0  0  0
  7 15  2  0  0  0  0
  8 14  1  0  0  0  0
  8  9  1  0  0  0  0
  9 10  1  0  0  0  0
  9 34  1  0  0  0  0
  9 35  1  0  0  0  0
 10 11  1  0  0  0  0
 10 36  1  0  0  0  0
 10 37  1  0  0  0  0
 11 12  1  0  0  0  0
 11 38  1  0  0  0  0
 11 39  1  0  0  0  0
 12 13  1  0  0  0  0
 12 40  1  0  0  0  0
 12 41  1  0  0  0  0
 13 14  1  0  0  0  0
 13 42  1  0  0  0  0
 13 43  1  0  0  0  0
 14 44  1  0  0  0  0
 14 45  1  0  0  0  0
 15 16  1  0  0  0  0
 16 23  1  0  0  0  0
 16 17  2  0  0  0  0
 17 18  1  0  0  0  0
 18 19  2  0  0  0  0
 18 20  1  0  0  0  0
 20 21  1  0  0  0  0
 21 22  2  0  0  0  0
 21 23  1  0  0  0  0
 23 24  1  0  0  0  0
 24 46  1  0  0  0  0
 24 47  1  0  0  0  0
 24 48  1  0  0  0  0
M  CHG  1  20  -1
M  END
> <s_m_source_file>
AV-unprocessed.smi

> <i_m_source_file_index>
508

> <i_lp_mmshare_version>
43012

> <i_f3d_flags>
0

> <s_epik_input>
W0NIM11uMWMoPU8pW25IXWMoPU8pYyhjMTIpbihbQ0gyXVtDSDJdT1tDSDJdW0NIM10pYyhuMilOM1tDSDJdW0NIMl1bQ0gyXVtDSDJdW0NIMl1bQ0gyXTM=

> <s_epik_cmdline>
J2VwaWtfcHl0aG9uJywgJy1waCcsICc3LjAnLCAnLXRuJywgJzgnLCAnLW1hJywgJzIwMCcsICctbWV0YWxfYmluZGluZycsICctaW1hZScsICc8aW5maWxlLm1hZT4nLCAnLW9tYWUnLCAnPG91dGZpbGUubWFlPic=

> <r_lp_tautomer_probability>
1

> <r_epik_Ionization_Penalty>
6.1764

> <r_epik_Ionization_Penalty_Charging>
0.0751667

> <r_epik_Ionization_Penalty_Neutral>
6.10123

> <r_epik_State_Penalty>
6.09793

> <r_epik_Charging_Adjusted_Penalty>
6.17309

> <i_epik_Tot_Q>
-1

> <i_epik_Tot_abs_Q>
1

> <r_epik_Metal_State_Penalty>
2.04406

> <b_epik_Metal_Only>
1

> <s_lp_Force_Field>
OPLS_2005

> <r_lp_Energy>
49.0985

> <b_lp_Chiralities_Consistent>
1

> <s_lp_Variant>
AV-unprocessed.smi:508-2

> <Gold.Version>
5.8.1

> <Gold.Id.Protein>
6NUR|6NUR_protein|mol2

> <Gold.PLP.Fitness>
37.1279

> <Gold.PLP.PLP>
-28.6726

> <Gold.PLP.part.hbond>
-3.0594

> <Gold.PLP.part.metal>
0.0000

> <Gold.PLP.part.buried>
-4.3422

> <Gold.PLP.part.nonpolar>
-21.9310

> <Gold.PLP.part.repulsive>
0.1491

> <Gold.PLP.ligand.clash>
0.0000

> <Gold.PLP.ligand.torsion>
1.2169

> <Gold.PLP.Chemscore.Hbond>
3.3788

> <Gold.PLP.Chemscore.CHOScore>
0.0000

> <Gold.PLP.Chemscore.Metal>
0.0000

> <Gold.Chemscore.Hbonds>
donor molecule, donor type, donor heavy atom, donor atom, acceptor molecule, acceptor atom, score
      P1  H  6931  6943       L1    20  1.92
      P1  H  6934  6947       L1    20  1.44

> <Gold.PLP.Chemscore.Internal.Correction>
0.7526

> <Gold.Rescore>
     Score         DG    S(hbond)    S(metal)    S(lipo)     H(rot)  DE(clash)    DE(int)     intcor
      9.25     -11.28       1.03        0.00      54.07       1.55       0.02       2.01       ----

> <Gold.Chemscore.Fitness>
9.2484

> <Gold.Chemscore.DG>
-11.2822

> <Gold.Chemscore.ZeroCoef>
-5.4800

> <Gold.Chemscore.Hbond>
1.0339

> <Gold.Chemscore.Metal>
0.0000

> <Gold.Chemscore.Lipo>
54.0676

> <Gold.Chemscore.Internal_Hbond>
0.0000

> <Gold.Chemscore.DEClash>
0.0202

> <Gold.Chemscore.DEInternal>
2.0136

> <Gold.Chemscore.Rot>
1.5534

> <Gold.Chemscore.Internal.Correction>
   9.000000E+99

> <Gold.Chemscore.Hbonds>
donor molecule, donor type, donor heavy atom, donor atom, acceptor molecule, acceptor atom, score
      P1  H  6931  6943       L1    20  0.41
      P1  H  6934  6947       L1    20  0.19

> <Gold.Chemscore.Hbond.Weighted>
-3.4531

> <Gold.Chemscore.Metal.Weighted>
-0.0000

> <Gold.Chemscore.Lipo.Weighted>
-6.3259

> <Gold.Chemscore.Internal_Hbond.Weighted>
0.0000

> <Gold.Chemscore.DEClash.Weighted>
0.0202

> <Gold.Chemscore.DEInternal.Weighted>
2.0136

> <Gold.Chemscore.Rot.Weighted>
3.9768

> <Gold.Chemscore.Internal.Correction.Weighted>
   9.000000E+99

> <Gold.Protein.RotatedTorsions>
[ 6907 6896 6895 6894 ] final   71.63 input  -60.11 | X-H torsion
[ 7974 7965 7964 7962 ] final  140.64 input  175.53 | X-H torsion
[ 8008 7997 7996 7995 ] final    0.42 input   59.86 | X-H torsion
[ 10167 10162 10161 10158 ] final  -48.36 input  -65.29 | X-H torsion
[ 10718 10713 10712 10709 ] final  -40.33 input   66.30 | X-H torsion
[ 10763 10752 10751 10750 ] final  102.66 input  -60.55 | X-H torsion
[ 11005 11000 10999 10996 ] final -113.35 input  -57.11 | X-H torsion

> <Gold.Protein.ActiveResidues>
 VAL166  LYS551  ARG553  GLY616  TRP617  ASP618  TYR619  PRO620  LYS621  CYS622 
 ASP623  PHE694  ASN695  SER759  ASP760  ASP761  ALA762  ILE779  LEU786  VAL792 
 PHE793  MET794  SER795  GLU796  ALA797  LYS798  CYS799  TRP800  GLU811  SER814 

> <Gold.Protein.RotatedAtoms>
  152.4821  134.4691  159.9629 H   0  0  0  0  0  0  0  0  0  0  0  0  # atno 6907 bound_to 6896
  151.4695  133.3566  159.2829 H   0  0  0  0  0  0  0  0  0  0  0  0  # atno 6908 bound_to 6896
  150.8902  134.8330  159.7349 H   0  0  0  0  0  0  0  0  0  0  0  0  # atno 6909 bound_to 6896
  144.9168  139.5220  143.5682 H   0  0  0  0  0  0  0  0  0  0  0  0  # atno 7974 bound_to 7965
  154.6679  140.2605  155.7039 H   0  0  0  0  0  0  0  0  0  0  0  0  # atno 8008 bound_to 7997
  156.2646  140.2835  156.1098 H   0  0  0  0  0  0  0  0  0  0  0  0  # atno 8009 bound_to 7997
  155.1212  140.0377  157.2740 H   0  0  0  0  0  0  0  0  0  0  0  0  # atno 8010 bound_to 7997
  140.6734  143.2743  151.4060 H   0  0  0  0  0  0  0  0  0  0  0  0  # atno 10167 bound_to 10162
  156.2825  130.4219  149.8322 H   0  0  0  0  0  0  0  0  0  0  0  0  # atno 10718 bound_to 10713
  153.3425  135.4003  155.1583 H   0  0  0  0  0  0  0  0  0  0  0  0  # atno 10763 bound_to 10752
  154.8646  135.3637  154.5327 H   0  0  0  0  0  0  0  0  0  0  0  0  # atno 10764 bound_to 10752
  153.5772  135.7077  153.5538 H   0  0  0  0  0  0  0  0  0  0  0  0  # atno 10765 bound_to 10752
  141.0619  133.9521  157.2650 H   0  0  0  0  0  0  0  0  0  0  0  0  # atno 11005 bound_to 11000
  146.3185  139.8017  142.8964 LP  0  0  0  0  0  0  0  0  0  0  0  0  # atno 17320 bound_to 7965
  145.3362  141.0278  143.3418 LP  0  0  0  0  0  0  0  0  0  0  0  0  # atno 17321 bound_to 7965
  139.6014  144.1288  152.2202 LP  0  0  0  0  0  0  0  0  0  0  0  0  # atno 17342 bound_to 10162
  140.0674  144.5807  150.7217 LP  0  0  0  0  0  0  0  0  0  0  0  0  # atno 17343 bound_to 10162
  156.5764  130.8447  151.3371 LP  0  0  0  0  0  0  0  0  0  0  0  0  # atno 17370 bound_to 10713
  157.7319  130.9706  150.1900 LP  0  0  0  0  0  0  0  0  0  0  0  0  # atno 17371 bound_to 10713
  139.9441  135.0187  156.8798 LP  0  0  0  0  0  0  0  0  0  0  0  0  # atno 17394 bound_to 11000
  140.5851  134.0315  155.7478 LP  0  0  0  0  0  0  0  0  0  0  0  0  # atno 17395 bound_to 11000

$$$$
