AV-unprocessed.smi:2027|AV-procd|sdf|8216|dock4
  -GOLD-   2272010483D 1   1.00000     0.00000
 Structure written by MMmdl.
 50 52  0  0  0  0  0  0  0  0  2 V2000
  153.2072  142.5598  161.2734 C   0  0  0  0  0  0  0  0  0  0  0  0
  152.4908  142.3321  159.9532 C   0  0  0  0  0  0  0  0  0  0  0  0
  152.4561  141.0228  159.4221 C   0  0  0  0  0  0  0  0  0  0  0  0
  151.7943  140.8460  158.2128 C   0  0  0  0  0  0  0  0  0  0  0  0
  151.5854  139.6991  157.4437 N   0  3  0  0  0  0  0  0  0  0  0  0
  150.8741  140.0225  156.3285 C   0  0  0  0  0  0  0  0  0  0  0  0
  150.6269  141.3597  156.3729 N   0  0  0  0  0  0  0  0  0  0  0  0
  149.9001  142.2129  155.4219 C   0  0  0  0  0  0  0  0  0  0  0  0
  149.0142  141.4003  154.4556 C   0  0  1  0  0  0  0  0  0  0  0  0
  149.8052  140.6277  153.5739 O   0  0  0  0  0  0  0  0  0  0  0  0
  147.9627  140.4768  155.1115 C   0  0  0  0  0  0  0  0  0  0  0  0
  146.7363  141.1432  155.5620 N   0  0  0  0  0  0  0  0  0  0  0  0
  145.6099  140.2137  155.5562 C   0  0  0  0  0  0  0  0  0  0  0  0
  146.4161  142.3293  154.7624 C   0  0  0  0  0  0  0  0  0  0  0  0
  145.3202  143.1575  155.3790 C   0  0  0  0  0  0  0  0  0  0  0  0
  144.0577  143.4998  154.8158 C   0  0  0  0  0  0  0  0  0  0  0  0
  143.3210  144.2481  155.6212 N   0  0  0  0  0  0  0  0  0  0  0  0
  144.0863  144.4145  156.7194 N   0  0  0  0  0  0  0  0  0  0  0  0
  143.5849  145.1952  157.8300 C   0  0  0  0  0  0  0  0  0  0  0  0
  145.2980  143.7700  156.6008 C   0  0  0  0  0  0  0  0  0  0  0  0
  151.1803  141.9158  157.5329 C   0  0  0  0  0  0  0  0  0  0  0  0
  151.2029  143.2116  158.0451 C   0  0  0  0  0  0  0  0  0  0  0  0
  151.8720  143.4125  159.2730 C   0  0  0  0  0  0  0  0  0  0  0  0
  151.9131  144.8165  159.8521 C   0  0  0  0  0  0  0  0  0  0  0  0
  153.5768  141.6239  161.6935 H   0  0  0  0  0  0  0  0  0  0  0  0
  152.5338  143.0083  162.0042 H   0  0  0  0  0  0  0  0  0  0  0  0
  154.0608  143.2236  161.1344 H   0  0  0  0  0  0  0  0  0  0  0  0
  152.9238  140.1952  159.9355 H   0  0  0  0  0  0  0  0  0  0  0  0
  150.5604  139.3410  155.5508 H   0  0  0  0  0  0  0  0  0  0  0  0
  149.3174  142.9396  155.9850 H   0  0  0  0  0  0  0  0  0  0  0  0
  150.6451  142.7772  154.8601 H   0  0  0  0  0  0  0  0  0  0  0  0
  148.4725  142.1120  153.8315 H   0  0  0  0  0  0  0  0  0  0  0  0
  149.4116  140.6624  152.7153 H   0  0  0  0  0  0  0  0  0  0  0  0
  147.7139  139.6543  154.4391 H   0  0  0  0  0  0  0  0  0  0  0  0
  148.4546  140.0053  155.9641 H   0  0  0  0  0  0  0  0  0  0  0  0
  144.7036  140.6872  155.9350 H   0  0  0  0  0  0  0  0  0  0  0  0
  145.8152  139.3537  156.1946 H   0  0  0  0  0  0  0  0  0  0  0  0
  145.4063  139.8474  154.5490 H   0  0  0  0  0  0  0  0  0  0  0  0
  147.2984  142.9500  154.6290 H   0  0  0  0  0  0  0  0  0  0  0  0
  146.1463  142.0220  153.7510 H   0  0  0  0  0  0  0  0  0  0  0  0
  143.6560  143.2249  153.8517 H   0  0  0  0  0  0  0  0  0  0  0  0
  144.4020  145.4484  158.5063 H   0  0  0  0  0  0  0  0  0  0  0  0
  142.8375  144.6186  158.3756 H   0  0  0  0  0  0  0  0  0  0  0  0
  143.1312  146.1170  157.4642 H   0  0  0  0  0  0  0  0  0  0  0  0
  146.0375  143.7962  157.3878 H   0  0  0  0  0  0  0  0  0  0  0  0
  150.7279  144.0354  157.5337 H   0  0  0  0  0  0  0  0  0  0  0  0
  151.4398  145.5370  159.1843 H   0  0  0  0  0  0  0  0  0  0  0  0
  152.9429  145.1376  160.0101 H   0  0  0  0  0  0  0  0  0  0  0  0
  151.3876  144.8511  160.8067 H   0  0  0  0  0  0  0  0  0  0  0  0
  151.9012  138.7628  157.6625 H   0  0  0  0  0  0  0  0  0  0  0  0
  1  2  1  0  0  0  0
  1 25  1  0  0  0  0
  1 26  1  0  0  0  0
  1 27  1  0  0  0  0
  2 23  1  0  0  0  0
  2  3  2  0  0  0  0
  3  4  1  0  0  0  0
  3 28  1  0  0  0  0
  4 21  2  0  0  0  0
  4  5  1  0  0  0  0
  5  6  2  0  0  0  0
  5 50  1  0  0  0  0
  6  7  1  0  0  0  0
  6 29  1  0  0  0  0
  7  8  1  0  0  0  0
  7 21  1  0  0  0  0
  8  9  1  0  0  0  0
  8 30  1  0  0  0  0
  8 31  1  0  0  0  0
  9 10  1  0  0  0  0
  9 11  1  0  0  0  0
  9 32  1  0  0  0  0
 10 33  1  0  0  0  0
 11 12  1  0  0  0  0
 11 34  1  0  0  0  0
 11 35  1  0  0  0  0
 12 13  1  0  0  0  0
 12 14  1  0  0  0  0
 13 36  1  0  0  0  0
 13 37  1  0  0  0  0
 13 38  1  0  0  0  0
 14 15  1  0  0  0  0
 14 39  1  0  0  0  0
 14 40  1  0  0  0  0
 15 20  2  0  0  0  0
 15 16  1  0  0  0  0
 16 17  2  0  0  0  0
 16 41  1  0  0  0  0
 17 18  1  0  0  0  0
 18 19  1  0  0  0  0
 18 20  1  0  0  0  0
 19 42  1  0  0  0  0
 19 43  1  0  0  0  0
 19 44  1  0  0  0  0
 20 45  1  0  0  0  0
 21 22  1  0  0  0  0
 22 23  2  0  0  0  0
 22 46  1  0  0  0  0
 23 24  1  0  0  0  0
 24 47  1  0  0  0  0
 24 48  1  0  0  0  0
 24 49  1  0  0  0  0
M  CHG  1   5   1
M  END
> <s_m_source_file>
AV-unprocessed.smi

> <i_m_source_file_index>
2027

> <i_lp_mmshare_version>
43012

> <i_f3d_flags>
0

> <s_epik_input>
W0NIM11jKFtjSF0xKWMoW0NIM10pW2NIXWMoYzEyKW4oW2NIXW4yKVtDSDJdW0NASF0oW09IXSlbQ0gyXU4oW0NIM10pW0NIMl1jM1tjSF1ubihbQ0gzXSlbY0hdMw==

> <s_epik_cmdline>
J2VwaWtfcHl0aG9uJywgJy1waCcsICc3LjAnLCAnLXRuJywgJzgnLCAnLW1hJywgJzIwMCcsICctbWV0YWxfYmluZGluZycsICctaW1hZScsICc8aW5maWxlLm1hZT4nLCAnLW9tYWUnLCAnPG91dGZpbGUubWFlPic=

> <r_epik_Ionization_Penalty>
1.48134

> <r_epik_Ionization_Penalty_Charging>
1.21121

> <r_epik_Ionization_Penalty_Neutral>
0.270133

> <r_epik_State_Penalty>
1.53013

> <r_epik_Charging_Adjusted_Penalty>
2.74134

> <i_epik_Tot_Q>
1

> <i_epik_Tot_abs_Q>
1

> <r_epik_Metal_State_Penalty>
1.60443

> <b_epik_Metal_Only>
0

> <s_lp_Force_Field>
OPLS_2005

> <r_lp_Energy>
28.2554

> <b_lp_Chiralities_Consistent>
1

> <s_lp_Variant>
AV-unprocessed.smi:2027-8

> <Gold.Version>
5.8.1

> <Gold.Id.Protein>
6NUR|6NUR_protein|mol2

> <Gold.PLP.Fitness>
49.6648

> <Gold.PLP.PLP>
-43.9240

> <Gold.PLP.part.hbond>
-2.4766

> <Gold.PLP.part.metal>
0.0000

> <Gold.PLP.part.buried>
-2.1630

> <Gold.PLP.part.nonpolar>
-39.3445

> <Gold.PLP.part.repulsive>
0.1846

> <Gold.PLP.ligand.clash>
0.0000

> <Gold.PLP.ligand.torsion>
0.8896

> <Gold.PLP.Chemscore.Hbond>
1.2960

> <Gold.PLP.Chemscore.CHOScore>
1.1678

> <Gold.PLP.Chemscore.Metal>
0.0000

> <Gold.Chemscore.Hbonds>
donor molecule, donor type, donor heavy atom, donor atom, acceptor molecule, acceptor atom, score
      L1  H    10    33       P1  7957  0.82
      P1  H  7989  7998       L1    10  0.46
      L1  C    16    41       P1 10174  1.00
      L1  C    20    45       P1  8029  0.08

> <Gold.PLP.Chemscore.Internal.Correction>
0.1288

> <Gold.Rescore>
     Score         DG    S(hbond)    S(metal)    S(lipo)     H(rot)  DE(clash)    DE(int)     intcor
     14.29     -17.20       1.19        0.00     120.83       2.50       1.57       1.34       ----

> <Gold.Chemscore.Fitness>
14.2864

> <Gold.Chemscore.DG>
-17.2031

> <Gold.Chemscore.ZeroCoef>
-5.4800

> <Gold.Chemscore.Hbond>
1.1935

> <Gold.Chemscore.Metal>
0.0000

> <Gold.Chemscore.Lipo>
120.8279

> <Gold.Chemscore.Internal_Hbond>
0.0000

> <Gold.Chemscore.DEClash>
1.5719

> <Gold.Chemscore.DEInternal>
1.3448

> <Gold.Chemscore.Rot>
2.5000

> <Gold.Chemscore.Internal.Correction>
   9.000000E+99

> <Gold.Chemscore.Hbonds>
donor molecule, donor type, donor heavy atom, donor atom, acceptor molecule, acceptor atom, score
      L1  H    10    33       P1  7957  0.81
      P1  H  7989  7998       L1    10  0.34

> <Gold.Chemscore.Hbond.Weighted>
-3.9861

> <Gold.Chemscore.Metal.Weighted>
-0.0000

> <Gold.Chemscore.Lipo.Weighted>
-14.1369

> <Gold.Chemscore.Internal_Hbond.Weighted>
0.0000

> <Gold.Chemscore.DEClash.Weighted>
1.5719

> <Gold.Chemscore.DEInternal.Weighted>
1.3448

> <Gold.Chemscore.Rot.Weighted>
6.3999

> <Gold.Chemscore.Internal.Correction.Weighted>
   9.000000E+99

> <Gold.Protein.RotatedTorsions>
[ 6907 6896 6895 6894 ] final  172.23 input  -60.11 | X-H torsion
[ 7974 7965 7964 7962 ] final   74.01 input  175.53 | X-H torsion
[ 8008 7997 7996 7995 ] final  135.42 input   59.86 | X-H torsion
[ 10167 10162 10161 10158 ] final   88.78 input  -65.29 | X-H torsion
[ 10718 10713 10712 10709 ] final -152.31 input   66.30 | X-H torsion
[ 10763 10752 10751 10750 ] final  100.44 input  -60.55 | X-H torsion
[ 11005 11000 10999 10996 ] final   90.89 input  -57.11 | X-H torsion

> <Gold.Protein.ActiveResidues>
 VAL166  LYS551  ARG553  GLY616  TRP617  ASP618  TYR619  PRO620  LYS621  CYS622 
 ASP623  PHE694  ASN695  SER759  ASP760  ASP761  ALA762  ILE779  LEU786  VAL792 
 PHE793  MET794  SER795  GLU796  ALA797  LYS798  CYS799  TRP800  GLU811  SER814 

> <Gold.Protein.RotatedAtoms>
  151.7877  133.3356  159.3489 H   0  0  0  0  0  0  0  0  0  0  0  0  # atno 6907 bound_to 6896
  150.7403  134.5872  159.5978 H   0  0  0  0  0  0  0  0  0  0  0  0  # atno 6908 bound_to 6896
  152.3232  134.7355  160.0360 H   0  0  0  0  0  0  0  0  0  0  0  0  # atno 6909 bound_to 6896
  145.7337  139.2693  143.1526 H   0  0  0  0  0  0  0  0  0  0  0  0  # atno 7974 bound_to 7965
  156.3003  140.2471  156.3578 H   0  0  0  0  0  0  0  0  0  0  0  0  # atno 8008 bound_to 7997
  154.8905  140.0409  157.1855 H   0  0  0  0  0  0  0  0  0  0  0  0  # atno 8009 bound_to 7997
  154.8602  140.2919  155.5548 H   0  0  0  0  0  0  0  0  0  0  0  0  # atno 8010 bound_to 7997
  139.8638  144.6530  150.9028 H   0  0  0  0  0  0  0  0  0  0  0  0  # atno 10167 bound_to 10162
  156.4707  130.8257  151.2486 H   0  0  0  0  0  0  0  0  0  0  0  0  # atno 10718 bound_to 10713
  153.3140  135.4079  155.1360 H   0  0  0  0  0  0  0  0  0  0  0  0  # atno 10763 bound_to 10752
  154.8583  135.3571  154.5685 H   0  0  0  0  0  0  0  0  0  0  0  0  # atno 10764 bound_to 10752
  153.6115  135.7067  153.5403 H   0  0  0  0  0  0  0  0  0  0  0  0  # atno 10765 bound_to 10752
  139.8848  134.8641  156.3350 H   0  0  0  0  0  0  0  0  0  0  0  0  # atno 11005 bound_to 11000
  146.0513  140.8066  142.9780 LP  0  0  0  0  0  0  0  0  0  0  0  0  # atno 17320 bound_to 7965
  144.6887  140.3057  143.7256 LP  0  0  0  0  0  0  0  0  0  0  0  0  # atno 17321 bound_to 7965
  140.7771  143.3722  151.1629 LP  0  0  0  0  0  0  0  0  0  0  0  0  # atno 17342 bound_to 10162
  139.7348  143.9015  152.3031 LP  0  0  0  0  0  0  0  0  0  0  0  0  # atno 17343 bound_to 10162
  157.7491  131.0077  150.3200 LP  0  0  0  0  0  0  0  0  0  0  0  0  # atno 17370 bound_to 10713
  156.3621  130.3849  149.7243 LP  0  0  0  0  0  0  0  0  0  0  0  0  # atno 17371 bound_to 10713
  140.9697  133.7335  156.0518 LP  0  0  0  0  0  0  0  0  0  0  0  0  # atno 17394 bound_to 11000
  140.7886  134.3644  157.5470 LP  0  0  0  0  0  0  0  0  0  0  0  0  # atno 17395 bound_to 11000

$$$$
