AV-unprocessed.smi:498|AV-procd|sdf|2730|dock4
  -GOLD-   2262023183D 1   1.00000     0.00000
 Structure written by MMmdl.
 41 43  0  0  0  0  0  0  0  0  2 V2000
  147.6266  141.9635  154.0855 C   0  0  0  0  0  0  0  0  0  0  0  0
  148.8603  141.0590  154.0584 C   0  0  0  0  0  0  0  0  0  0  0  0
  149.5487  141.1926  155.2890 O   0  0  0  0  0  0  0  0  0  0  0  0
  148.7224  140.9344  156.4123 C   0  0  0  0  0  0  0  0  0  0  0  0
  149.3038  141.6215  157.6580 C   0  0  0  0  0  0  0  0  0  0  0  0
  150.3729  140.8381  158.2865 N   0  0  0  0  0  0  0  0  0  0  0  0
  150.4733  139.4916  158.5144 C   0  0  0  0  0  0  0  0  0  0  0  0
  149.4169  138.4780  158.1399 C   0  0  0  0  0  0  0  0  0  0  0  0
  148.9020  137.7844  159.3171 N   0  5  0  0  0  0  0  0  0  0  0  0
  148.7820  136.4322  159.4164 C   0  0  0  0  0  0  0  0  0  0  0  0
  149.2482  135.5409  158.6988 O   0  0  0  0  0  0  0  0  0  0  0  0
  147.9862  136.0359  160.6001 C   0  0  0  0  0  0  0  0  0  0  0  0
  147.6178  134.8065  161.0857 C   0  0  0  0  0  0  0  0  0  0  0  0
  146.8844  135.0399  162.2815 C   0  0  0  0  0  0  0  0  0  0  0  0
  146.8638  136.3943  162.4492 C   0  0  0  0  0  0  0  0  0  0  0  0
  147.5366  137.0133  161.4414 O   0  0  0  0  0  0  0  0  0  0  0  0
  151.5982  139.0984  159.1181 N   0  0  0  0  0  0  0  0  0  0  0  0
  152.2836  140.2801  159.3083 C   0  0  0  0  0  0  0  0  0  0  0  0
  153.5425  140.5237  159.9027 C   0  0  0  0  0  0  0  0  0  0  0  0
  154.0486  141.8369  159.9897 C   0  0  0  0  0  0  0  0  0  0  0  0
  153.3045  142.9221  159.4843 C   0  0  0  0  0  0  0  0  0  0  0  0
  152.0491  142.6996  158.8867 C   0  0  0  0  0  0  0  0  0  0  0  0
  151.5474  141.3862  158.8010 C   0  0  0  0  0  0  0  0  0  0  0  0
  147.0641  141.8834  153.1553 H   0  0  0  0  0  0  0  0  0  0  0  0
  147.9106  143.0076  154.2171 H   0  0  0  0  0  0  0  0  0  0  0  0
  146.9611  141.6913  154.9048 H   0  0  0  0  0  0  0  0  0  0  0  0
  148.5567  140.0222  153.9078 H   0  0  0  0  0  0  0  0  0  0  0  0
  149.5117  141.3380  153.2291 H   0  0  0  0  0  0  0  0  0  0  0  0
  147.7122  141.2949  156.2214 H   0  0  0  0  0  0  0  0  0  0  0  0
  148.6515  139.8592  156.5808 H   0  0  0  0  0  0  0  0  0  0  0  0
  149.6619  142.6210  157.4118 H   0  0  0  0  0  0  0  0  0  0  0  0
  148.5122  141.7698  158.3926 H   0  0  0  0  0  0  0  0  0  0  0  0
  148.6350  139.0034  157.5900 H   0  0  0  0  0  0  0  0  0  0  0  0
  149.8470  137.7763  157.4241 H   0  0  0  0  0  0  0  0  0  0  0  0
  147.8501  133.8535  160.6334 H   0  0  0  0  0  0  0  0  0  0  0  0
  146.4334  134.3096  162.9367 H   0  0  0  0  0  0  0  0  0  0  0  0
  146.4413  137.0524  163.1938 H   0  0  0  0  0  0  0  0  0  0  0  0
  154.1176  139.6979  160.2938 H   0  0  0  0  0  0  0  0  0  0  0  0
  155.0112  142.0122  160.4472 H   0  0  0  0  0  0  0  0  0  0  0  0
  153.6972  143.9257  159.5563 H   0  0  0  0  0  0  0  0  0  0  0  0
  151.4751  143.5298  158.5032 H   0  0  0  0  0  0  0  0  0  0  0  0
  1  2  1  0  0  0  0
  1 24  1  0  0  0  0
  1 25  1  0  0  0  0
  1 26  1  0  0  0  0
  2  3  1  0  0  0  0
  2 27  1  0  0  0  0
  2 28  1  0  0  0  0
  3  4  1  0  0  0  0
  4  5  1  0  0  0  0
  4 29  1  0  0  0  0
  4 30  1  0  0  0  0
  5  6  1  0  0  0  0
  5 31  1  0  0  0  0
  5 32  1  0  0  0  0
  6 23  1  0  0  0  0
  6  7  1  0  0  0  0
  7  8  1  0  0  0  0
  7 17  2  0  0  0  0
  8  9  1  0  0  0  0
  8 33  1  0  0  0  0
  8 34  1  0  0  0  0
  9 10  1  0  0  0  0
 10 11  2  0  0  0  0
 10 12  1  0  0  0  0
 12 16  1  0  0  0  0
 12 13  2  0  0  0  0
 13 14  1  0  0  0  0
 13 35  1  0  0  0  0
 14 15  2  0  0  0  0
 14 36  1  0  0  0  0
 15 16  1  0  0  0  0
 15 37  1  0  0  0  0
 17 18  1  0  0  0  0
 18 23  2  0  0  0  0
 18 19  1  0  0  0  0
 19 20  2  0  0  0  0
 19 38  1  0  0  0  0
 20 21  1  0  0  0  0
 20 39  1  0  0  0  0
 21 22  2  0  0  0  0
 21 40  1  0  0  0  0
 22 23  1  0  0  0  0
 22 41  1  0  0  0  0
M  CHG  1   9  -1
M  END
> <s_m_source_file>
AV-unprocessed.smi

> <i_m_source_file_index>
498

> <i_lp_mmshare_version>
43012

> <i_f3d_flags>
0

> <s_epik_input>
W0NIM11bQ0gyXU9bQ0gyXVtDSDJdbihjKGMxMilbY0hdW2NIXVtjSF1bY0hdMiljKG4xKVtDSDJdW05IXUMoPU8pYzNbY0hdW2NIXVtjSF1vMw==

> <s_epik_cmdline>
J2VwaWtfcHl0aG9uJywgJy1waCcsICc3LjAnLCAnLXRuJywgJzgnLCAnLW1hJywgJzIwMCcsICctbWV0YWxfYmluZGluZycsICctaW1hZScsICc8aW5maWxlLm1hZT4nLCAnLW9tYWUnLCAnPG91dGZpbGUubWFlPic=

> <r_epik_Ionization_Penalty>
7.14443

> <r_epik_Ionization_Penalty_Charging>
6.27046

> <r_epik_Ionization_Penalty_Neutral>
0.873973

> <r_epik_State_Penalty>
6.33192

> <r_epik_Charging_Adjusted_Penalty>
12.6024

> <i_epik_Tot_Q>
-1

> <i_epik_Tot_abs_Q>
1

> <r_epik_Metal_State_Penalty>
2.32923

> <b_epik_Metal_Only>
1

> <s_lp_Force_Field>
OPLS_2005

> <r_lp_Energy>
15.7295

> <b_lp_Chiralities_Consistent>
1

> <s_lp_Variant>
AV-unprocessed.smi:498-3

> <Gold.Version>
5.8.1

> <Gold.Id.Protein>
6NUR|6NUR_protein|mol2

> <Gold.PLP.Fitness>
55.4137

> <Gold.PLP.PLP>
-48.0440

> <Gold.PLP.part.hbond>
-5.0000

> <Gold.PLP.part.metal>
0.0000

> <Gold.PLP.part.buried>
-5.0609

> <Gold.PLP.part.nonpolar>
-37.7984

> <Gold.PLP.part.repulsive>
0.1097

> <Gold.PLP.ligand.clash>
0.0000

> <Gold.PLP.ligand.torsion>
0.5940

> <Gold.PLP.Chemscore.Hbond>
2.8000

> <Gold.PLP.Chemscore.CHOScore>
0.0000

> <Gold.PLP.Chemscore.Metal>
0.0000

> <Gold.Chemscore.Hbonds>
donor molecule, donor type, donor heavy atom, donor atom, acceptor molecule, acceptor atom, score
      P1  H  6896  6909       L1    11  1.00
      P1  H  6931  6943       L1    16  1.00
      P1  H  6934  6947       L1    16  0.74

> <Gold.PLP.Chemscore.Internal.Correction>
0.1576

> <Gold.Rescore>
     Score         DG    S(hbond)    S(metal)    S(lipo)     H(rot)  DE(clash)    DE(int)     intcor
     20.90     -21.51       2.14        0.00     117.51       1.90       0.03       0.58       ----

> <Gold.Chemscore.Fitness>
20.9030

> <Gold.Chemscore.DG>
-21.5149

> <Gold.Chemscore.ZeroCoef>
-5.4800

> <Gold.Chemscore.Hbond>
2.1401

> <Gold.Chemscore.Metal>
0.0000

> <Gold.Chemscore.Lipo>
117.5138

> <Gold.Chemscore.Internal_Hbond>
0.0000

> <Gold.Chemscore.DEClash>
0.0295

> <Gold.Chemscore.DEInternal>
0.5825

> <Gold.Chemscore.Rot>
1.8992

> <Gold.Chemscore.Internal.Correction>
   9.000000E+99

> <Gold.Chemscore.Hbonds>
donor molecule, donor type, donor heavy atom, donor atom, acceptor molecule, acceptor atom, score
      P1  H  6896  6909       L1    11  0.59
      P1  H  6931  6943       L1    16  0.67
      P1  H  6934  6947       L1    16  0.70

> <Gold.Chemscore.Hbond.Weighted>
-7.1478

> <Gold.Chemscore.Metal.Weighted>
-0.0000

> <Gold.Chemscore.Lipo.Weighted>
-13.7491

> <Gold.Chemscore.Internal_Hbond.Weighted>
0.0000

> <Gold.Chemscore.DEClash.Weighted>
0.0295

> <Gold.Chemscore.DEInternal.Weighted>
0.5825

> <Gold.Chemscore.Rot.Weighted>
4.8621

> <Gold.Chemscore.Internal.Correction.Weighted>
   9.000000E+99

> <Gold.Protein.RotatedTorsions>
[ 6907 6896 6895 6894 ] final   64.96 input  -60.11 | X-H torsion
[ 7974 7965 7964 7962 ] final   87.50 input  175.53 | X-H torsion
[ 8008 7997 7996 7995 ] final  138.08 input   59.86 | X-H torsion
[ 10167 10162 10161 10158 ] final -121.06 input  -65.29 | X-H torsion
[ 10718 10713 10712 10709 ] final   19.00 input   66.30 | X-H torsion
[ 10763 10752 10751 10750 ] final -110.12 input  -60.55 | X-H torsion
[ 11005 11000 10999 10996 ] final  -13.02 input  -57.11 | X-H torsion

> <Gold.Protein.ActiveResidues>
 VAL166  LYS551  ARG553  GLY616  TRP617  ASP618  TYR619  PRO620  LYS621  CYS622 
 ASP623  PHE694  ASN695  SER759  ASP760  ASP761  ALA762  ILE779  LEU786  VAL792 
 PHE793  MET794  SER795  GLU796  ALA797  LYS798  CYS799  TRP800  GLU811  SER814 

> <Gold.Protein.RotatedAtoms>
  152.4371  134.5664  159.9908 H   0  0  0  0  0  0  0  0  0  0  0  0  # atno 6907 bound_to 6896
  151.5771  133.3376  159.3009 H   0  0  0  0  0  0  0  0  0  0  0  0  # atno 6908 bound_to 6896
  150.8271  134.7542  159.6887 H   0  0  0  0  0  0  0  0  0  0  0  0  # atno 6909 bound_to 6896
  145.5582  139.2301  143.2474 H   0  0  0  0  0  0  0  0  0  0  0  0  # atno 7974 bound_to 7965
  156.2999  140.2403  156.4015 H   0  0  0  0  0  0  0  0  0  0  0  0  # atno 8008 bound_to 7997
  154.8523  140.0423  157.1632 H   0  0  0  0  0  0  0  0  0  0  0  0  # atno 8009 bound_to 7997
  154.8986  140.2973  155.5334 H   0  0  0  0  0  0  0  0  0  0  0  0  # atno 8010 bound_to 7997
  140.0291  143.5267  152.2185 H   0  0  0  0  0  0  0  0  0  0  0  0  # atno 10167 bound_to 10162
  157.1043  130.6481  149.5880 H   0  0  0  0  0  0  0  0  0  0  0  0  # atno 10718 bound_to 10713
  154.8231  135.4576  154.0836 H   0  0  0  0  0  0  0  0  0  0  0  0  # atno 10763 bound_to 10752
  153.2174  135.6889  153.8048 H   0  0  0  0  0  0  0  0  0  0  0  0  # atno 10764 bound_to 10752
  153.7477  135.3303  155.3292 H   0  0  0  0  0  0  0  0  0  0  0  0  # atno 10765 bound_to 10752
  140.7717  133.8433  155.9213 H   0  0  0  0  0  0  0  0  0  0  0  0  # atno 11005 bound_to 11000
  146.1869  140.6406  142.9163 LP  0  0  0  0  0  0  0  0  0  0  0  0  # atno 17320 bound_to 7965
  144.7496  140.5156  143.6811 LP  0  0  0  0  0  0  0  0  0  0  0  0  # atno 17321 bound_to 7965
  139.6088  144.7603  151.2999 LP  0  0  0  0  0  0  0  0  0  0  0  0  # atno 17342 bound_to 10162
  140.7310  143.6864  150.7958 LP  0  0  0  0  0  0  0  0  0  0  0  0  # atno 17343 bound_to 10162
  155.9866  130.4901  150.7085 LP  0  0  0  0  0  0  0  0  0  0  0  0  # atno 17370 bound_to 10713
  157.4614  131.0883  151.0742 LP  0  0  0  0  0  0  0  0  0  0  0  0  # atno 17371 bound_to 10713
  140.9567  134.1709  157.4686 LP  0  0  0  0  0  0  0  0  0  0  0  0  # atno 17394 bound_to 11000
  139.8755  134.9929  156.5621 LP  0  0  0  0  0  0  0  0  0  0  0  0  # atno 17395 bound_to 11000

$$$$
