AV-unprocessed.smi:1841|AV-procd|sdf|7497|dock7
  -GOLD-   22720 9203D 1   1.00000     0.00000
 Structure written by MMmdl.
 40 41  0  0  0  0  0  0  0  0  1 V2000
  152.5391  143.1627  160.2632 C   0  0  0  0  0  0  0  0  0  0  0  0
  151.4725  142.7134  159.4461 O   0  0  0  0  0  0  0  0  0  0  0  0
  151.9145  141.8918  158.3783 C   0  0  0  0  0  0  0  0  0  0  0  0
  150.7214  141.5535  157.4795 C   0  0  0  0  0  0  0  0  0  0  0  0
  151.1329  140.5859  156.5186 O   0  0  0  0  0  0  0  0  0  0  0  0
  150.1672  139.9542  155.7627 C   0  0  0  0  0  0  0  0  0  0  0  0
  148.8647  140.4910  155.7507 C   0  0  0  0  0  0  0  0  0  0  0  0
  147.8702  139.8499  154.9877 C   0  0  0  0  0  0  0  0  0  0  0  0
  148.2096  138.6816  154.2646 C   0  0  0  0  0  0  0  0  0  0  0  0
  147.3019  137.9525  153.4497 N   0  0  0  0  0  0  0  0  0  0  0  0
  145.9836  138.1578  153.2720 C   0  0  0  0  0  0  0  0  0  0  0  0
  145.3343  139.0456  153.8251 O   0  0  0  0  0  0  0  0  0  0  0  0
  145.2743  137.1783  152.3224 C   0  0  1  0  0  0  0  0  0  0  0  0
  145.3322  135.7326  152.8577 C   0  0  0  0  0  0  0  0  0  0  0  0
  143.8887  135.4104  153.2065 C   0  0  0  0  0  0  0  0  0  0  0  0
  143.5531  134.3662  153.7632 O   0  0  0  0  0  0  0  0  0  0  0  0
  143.0750  136.4042  152.8393 N   0  0  0  0  0  0  0  0  0  0  0  0
  141.6338  136.4476  153.0464 C   0  0  0  0  0  0  0  0  0  0  0  0
  143.7689  137.4909  152.1698 C   0  0  0  0  0  0  0  0  0  0  0  0
  149.5463  138.2364  154.3283 C   0  0  0  0  0  0  0  0  0  0  0  0
  150.5044  138.8459  155.0578 N   0  0  0  0  0  0  0  0  0  0  0  0
  152.1468  143.7829  161.0690 H   0  0  0  0  0  0  0  0  0  0  0  0
  153.2474  143.7632  159.6908 H   0  0  0  0  0  0  0  0  0  0  0  0
  153.0727  142.3242  160.7124 H   0  0  0  0  0  0  0  0  0  0  0  0
  152.6989  142.3848  157.8020 H   0  0  0  0  0  0  0  0  0  0  0  0
  152.3355  140.9716  158.7858 H   0  0  0  0  0  0  0  0  0  0  0  0
  149.9186  141.1371  158.0903 H   0  0  0  0  0  0  0  0  0  0  0  0
  150.3445  142.4583  156.9996 H   0  0  0  0  0  0  0  0  0  0  0  0
  148.6326  141.3813  156.3164 H   0  0  0  0  0  0  0  0  0  0  0  0
  146.8777  140.2724  154.9642 H   0  0  0  0  0  0  0  0  0  0  0  0
  147.6866  137.1350  152.9988 H   0  0  0  0  0  0  0  0  0  0  0  0
  145.7519  137.2236  151.3420 H   0  0  0  0  0  0  0  0  0  0  0  0
  145.6838  135.0423  152.0904 H   0  0  0  0  0  0  0  0  0  0  0  0
  145.9710  135.6141  153.7348 H   0  0  0  0  0  0  0  0  0  0  0  0
  141.1674  135.5105  152.7393 H   0  0  0  0  0  0  0  0  0  0  0  0
  141.1800  137.2541  152.4696 H   0  0  0  0  0  0  0  0  0  0  0  0
  141.4087  136.6146  154.1001 H   0  0  0  0  0  0  0  0  0  0  0  0
  143.4839  138.4510  152.6040 H   0  0  0  0  0  0  0  0  0  0  0  0
  143.4819  137.5080  151.1175 H   0  0  0  0  0  0  0  0  0  0  0  0
  149.8581  137.3581  153.7819 H   0  0  0  0  0  0  0  0  0  0  0  0
  1  2  1  0  0  0  0
  1 22  1  0  0  0  0
  1 23  1  0  0  0  0
  1 24  1  0  0  0  0
  2  3  1  0  0  0  0
  3  4  1  0  0  0  0
  3 25  1  0  0  0  0
  3 26  1  0  0  0  0
  4  5  1  0  0  0  0
  4 27  1  0  0  0  0
  4 28  1  0  0  0  0
  5  6  1  0  0  0  0
  6 21  1  0  0  0  0
  6  7  2  0  0  0  0
  7  8  1  0  0  0  0
  7 29  1  0  0  0  0
  8  9  2  0  0  0  0
  8 30  1  0  0  0  0
  9 10  1  0  0  0  0
  9 20  1  0  0  0  0
 10 11  1  0  0  0  0
 10 31  1  0  0  0  0
 11 12  2  0  0  0  0
 11 13  1  0  0  0  0
 13 19  1  0  0  0  0
 13 14  1  0  0  0  0
 13 32  1  0  0  0  0
 14 15  1  0  0  0  0
 14 33  1  0  0  0  0
 14 34  1  0  0  0  0
 15 16  2  0  0  0  0
 15 17  1  0  0  0  0
 17 18  1  0  0  0  0
 17 19  1  0  0  0  0
 18 35  1  0  0  0  0
 18 36  1  0  0  0  0
 18 37  1  0  0  0  0
 19 38  1  0  0  0  0
 19 39  1  0  0  0  0
 20 21  2  0  0  0  0
 20 40  1  0  0  0  0
M  END
> <s_m_source_file>
AV-unprocessed.smi

> <i_m_source_file_index>
1841

> <i_lp_mmshare_version>
43012

> <i_f3d_flags>
0

> <s_epik_input>
W0NIM11PW0NIMl1bQ0gyXU9jMVtjSF1bY0hdYyhbY0hdbjEpW05IXUMoPU8pW0NAQEhdMltDSDJdQyg9TylOKFtDSDNdKVtDSDJdMg==

> <s_epik_cmdline>
J2VwaWtfcHl0aG9uJywgJy1waCcsICc3LjAnLCAnLXRuJywgJzgnLCAnLW1hJywgJzIwMCcsICctbWV0YWxfYmluZGluZycsICctaW1hZScsICc8aW5maWxlLm1hZT4nLCAnLW9tYWUnLCAnPG91dGZpbGUubWFlPic=

> <r_lp_tautomer_probability>
1

> <r_epik_Ionization_Penalty>
1.70347e-05

> <r_epik_Ionization_Penalty_Charging>
0

> <r_epik_Ionization_Penalty_Neutral>
1.70347e-05

> <r_epik_State_Penalty>
-0

> <r_epik_Charging_Adjusted_Penalty>
0

> <i_epik_Tot_Q>
0

> <i_epik_Tot_abs_Q>
0

> <r_epik_Metal_State_Penalty>
-0

> <b_epik_Metal_Only>
0

> <s_lp_Force_Field>
OPLS_2005

> <r_lp_Energy>
17.1342

> <b_lp_Chiralities_Consistent>
1

> <s_lp_Variant>
AV-unprocessed.smi:1841-2

> <Gold.Version>
5.8.1

> <Gold.Id.Protein>
6NUR|6NUR_protein|mol2

> <Gold.PLP.Fitness>
36.5111

> <Gold.PLP.PLP>
-26.5526

> <Gold.PLP.part.hbond>
-2.5059

> <Gold.PLP.part.metal>
0.0000

> <Gold.PLP.part.buried>
-2.3080

> <Gold.PLP.part.nonpolar>
-22.2971

> <Gold.PLP.part.repulsive>
0.3752

> <Gold.PLP.ligand.clash>
0.0000

> <Gold.PLP.ligand.torsion>
0.2375

> <Gold.PLP.Chemscore.Hbond>
1.9920

> <Gold.PLP.Chemscore.CHOScore>
1.4742

> <Gold.PLP.Chemscore.Metal>
0.0000

> <Gold.Chemscore.Hbonds>
donor molecule, donor type, donor heavy atom, donor atom, acceptor molecule, acceptor atom, score
      L1  H    10    31       P1  7948  1.00
      L1  C    20    40       P1  7948  1.00

> <Gold.PLP.Chemscore.Internal.Correction>
0.0350

> <Gold.Rescore>
     Score         DG    S(hbond)    S(metal)    S(lipo)     H(rot)  DE(clash)    DE(int)     intcor
     10.34     -12.03       1.36        0.00      59.81       1.95       0.20       1.50       ----

> <Gold.Chemscore.Fitness>
10.3368

> <Gold.Chemscore.DG>
-12.0309

> <Gold.Chemscore.ZeroCoef>
-5.4800

> <Gold.Chemscore.Hbond>
1.3584

> <Gold.Chemscore.Metal>
0.0000

> <Gold.Chemscore.Lipo>
59.8103

> <Gold.Chemscore.Internal_Hbond>
0.0000

> <Gold.Chemscore.DEClash>
0.1984

> <Gold.Chemscore.DEInternal>
1.4956

> <Gold.Chemscore.Rot>
1.9468

> <Gold.Chemscore.Internal.Correction>
   9.000000E+99

> <Gold.Chemscore.Hbonds>
donor molecule, donor type, donor heavy atom, donor atom, acceptor molecule, acceptor atom, score
      L1  H    10    31       P1  7948  0.96

> <Gold.Chemscore.Hbond.Weighted>
-4.5369

> <Gold.Chemscore.Metal.Weighted>
-0.0000

> <Gold.Chemscore.Lipo.Weighted>
-6.9978

> <Gold.Chemscore.Internal_Hbond.Weighted>
0.0000

> <Gold.Chemscore.DEClash.Weighted>
0.1984

> <Gold.Chemscore.DEInternal.Weighted>
1.4956

> <Gold.Chemscore.Rot.Weighted>
4.9839

> <Gold.Chemscore.Internal.Correction.Weighted>
   9.000000E+99

> <Gold.Protein.RotatedTorsions>
[ 6907 6896 6895 6894 ] final  103.39 input  -60.11 | X-H torsion
[ 7974 7965 7964 7962 ] final  -19.75 input  175.53 | X-H torsion
[ 8008 7997 7996 7995 ] final -176.74 input   59.86 | X-H torsion
[ 10167 10162 10161 10158 ] final -147.20 input  -65.29 | X-H torsion
[ 10718 10713 10712 10709 ] final   -8.18 input   66.30 | X-H torsion
[ 10763 10752 10751 10750 ] final  102.11 input  -60.55 | X-H torsion
[ 11005 11000 10999 10996 ] final   17.07 input  -57.11 | X-H torsion

> <Gold.Protein.ActiveResidues>
 VAL166  LYS551  ARG553  GLY616  TRP617  ASP618  TYR619  PRO620  LYS621  CYS622 
 ASP623  PHE694  ASN695  SER759  ASP760  ASP761  ALA762  ILE779  LEU786  VAL792 
 PHE793  MET794  SER795  GLU796  ALA797  LYS798  CYS799  TRP800  GLU811  SER814 

> <Gold.Protein.RotatedAtoms>
  152.5297  133.9833  159.7816 H   0  0  0  0  0  0  0  0  0  0  0  0  # atno 6907 bound_to 6896
  151.0082  133.5982  159.2693 H   0  0  0  0  0  0  0  0  0  0  0  0  # atno 6908 bound_to 6896
  151.3066  135.0789  159.9311 H   0  0  0  0  0  0  0  0  0  0  0  0  # atno 6909 bound_to 6896
  146.1825  140.4106  142.8489 H   0  0  0  0  0  0  0  0  0  0  0  0  # atno 7974 bound_to 7965
  155.9986  140.1216  157.0569 H   0  0  0  0  0  0  0  0  0  0  0  0  # atno 8008 bound_to 7997
  154.4235  140.1111  156.5734 H   0  0  0  0  0  0  0  0  0  0  0  0  # atno 8009 bound_to 7997
  155.6244  140.3472  155.4664 H   0  0  0  0  0  0  0  0  0  0  0  0  # atno 8010 bound_to 7997
  139.7643  143.8330  152.2613 H   0  0  0  0  0  0  0  0  0  0  0  0  # atno 10167 bound_to 10162
  156.7063  130.5108  149.5904 H   0  0  0  0  0  0  0  0  0  0  0  0  # atno 10718 bound_to 10713
  153.3353  135.4022  155.1528 H   0  0  0  0  0  0  0  0  0  0  0  0  # atno 10763 bound_to 10752
  154.8632  135.3620  154.5417 H   0  0  0  0  0  0  0  0  0  0  0  0  # atno 10764 bound_to 10752
  153.5858  135.7075  153.5503 H   0  0  0  0  0  0  0  0  0  0  0  0  # atno 10765 bound_to 10752
  140.4400  134.1331  155.7689 H   0  0  0  0  0  0  0  0  0  0  0  0  # atno 11005 bound_to 11000
  144.8339  140.6751  143.6273 LP  0  0  0  0  0  0  0  0  0  0  0  0  # atno 17320 bound_to 7965
  145.4035  139.1593  143.4164 LP  0  0  0  0  0  0  0  0  0  0  0  0  # atno 17321 bound_to 7965
  139.8346  144.7238  150.9408 LP  0  0  0  0  0  0  0  0  0  0  0  0  # atno 17342 bound_to 10162
  140.7809  143.4039  151.1104 LP  0  0  0  0  0  0  0  0  0  0  0  0  # atno 17343 bound_to 10162
  156.1693  130.6426  151.0817 LP  0  0  0  0  0  0  0  0  0  0  0  0  # atno 17370 bound_to 10713
  157.6953  131.0796  150.6986 LP  0  0  0  0  0  0  0  0  0  0  0  0  # atno 17371 bound_to 10713
  141.1709  133.8610  157.1572 LP  0  0  0  0  0  0  0  0  0  0  0  0  # atno 17394 bound_to 11000
  140.0076  135.0002  157.0326 LP  0  0  0  0  0  0  0  0  0  0  0  0  # atno 17395 bound_to 11000

$$$$
