AV-unprocessed.smi:1492|AV-procd|sdf|6042|dock9
  -GOLD-   22720 6153D 1   1.00000     0.00000
 Structure written by MMmdl.
 53 54  0  0  0  0  0  0  0  0  2 V2000
  146.4894  137.4205  158.5872 C   0  0  0  0  0  0  0  0  0  0  0  0
  147.5575  138.0531  157.6739 C   0  0  0  0  0  0  0  0  0  0  0  0
  148.7903  137.1731  157.2769 C   0  0  1  0  0  0  0  0  0  0  0  0
  149.5883  136.8296  158.5594 C   0  0  0  0  0  0  0  0  0  0  0  0
  148.2909  135.8407  156.6306 C   0  0  0  0  0  0  0  0  0  0  0  0
  149.3783  135.0589  156.0451 N   0  0  0  0  0  0  0  0  0  0  0  0
  149.9356  133.9542  156.5632 C   0  0  0  0  0  0  0  0  0  0  0  0
  149.6857  133.5313  157.6900 O   0  0  0  0  0  0  0  0  0  0  0  0
  150.9049  133.1857  155.6607 C   0  0  0  0  0  0  0  0  0  0  0  0
  150.2991  132.0358  154.8537 C   0  0  0  0  0  0  0  0  0  0  0  0
  149.3398  132.2123  153.9098 C   0  0  0  0  0  0  0  0  0  0  0  0
  148.7564  133.5591  153.5219 C   0  0  0  0  0  0  0  0  0  0  0  0
  148.8068  131.1364  153.2220 N   0  0  0  0  0  0  0  0  0  0  0  0
  149.2689  129.8701  153.5401 C   0  0  0  0  0  0  0  0  0  0  0  0
  148.6059  128.7645  152.7487 C   0  0  0  0  0  0  0  0  0  0  0  0
  150.1723  129.5998  154.4321 N   0  0  0  0  0  0  0  0  0  0  0  0
  150.7526  130.6568  155.1505 C   0  0  0  0  0  0  0  0  0  0  0  0
  151.6015  130.4321  156.0120 O   0  0  0  0  0  0  0  0  0  0  0  0
  149.6579  137.9216  156.2854 N   0  3  0  0  0  0  0  0  0  0  0  0
  149.0319  138.2654  154.9755 C   0  0  0  0  0  0  0  0  0  0  0  0
  150.0623  138.8850  154.0152 C   0  0  0  0  0  0  0  0  0  0  0  0
  150.6662  140.0234  154.6099 O   0  0  0  0  0  0  0  0  0  0  0  0
  151.3571  139.6825  155.8015 C   0  0  0  0  0  0  0  0  0  0  0  0
  150.3603  139.1222  156.8267 C   0  0  0  0  0  0  0  0  0  0  0  0
  148.1039  131.3126  152.5178 H   0  0  0  0  0  0  0  0  0  0  0  0
  145.7189  138.1550  158.8224 H   0  0  0  0  0  0  0  0  0  0  0  0
  146.9064  137.0866  159.5364 H   0  0  0  0  0  0  0  0  0  0  0  0
  145.9809  136.5770  158.1257 H   0  0  0  0  0  0  0  0  0  0  0  0
  147.0663  138.4233  156.7732 H   0  0  0  0  0  0  0  0  0  0  0  0
  147.8945  138.9345  158.2172 H   0  0  0  0  0  0  0  0  0  0  0  0
  148.9854  136.2578  159.2640 H   0  0  0  0  0  0  0  0  0  0  0  0
  149.9288  137.7248  159.0799 H   0  0  0  0  0  0  0  0  0  0  0  0
  150.4626  136.2138  158.3525 H   0  0  0  0  0  0  0  0  0  0  0  0
  147.8188  135.2099  157.3832 H   0  0  0  0  0  0  0  0  0  0  0  0
  147.4944  136.0102  155.9071 H   0  0  0  0  0  0  0  0  0  0  0  0
  149.6861  135.3401  155.1256 H   0  0  0  0  0  0  0  0  0  0  0  0
  151.3709  133.9080  154.9910 H   0  0  0  0  0  0  0  0  0  0  0  0
  151.7246  132.8004  156.2692 H   0  0  0  0  0  0  0  0  0  0  0  0
  148.3395  134.0605  154.3959 H   0  0  0  0  0  0  0  0  0  0  0  0
  147.9598  133.4560  152.7840 H   0  0  0  0  0  0  0  0  0  0  0  0
  149.5286  134.1976  153.0922 H   0  0  0  0  0  0  0  0  0  0  0  0
  148.9730  127.7864  153.0616 H   0  0  0  0  0  0  0  0  0  0  0  0
  148.8126  128.8825  151.6846 H   0  0  0  0  0  0  0  0  0  0  0  0
  147.5259  128.7857  152.8978 H   0  0  0  0  0  0  0  0  0  0  0  0
  148.6369  137.3863  154.4714 H   0  0  0  0  0  0  0  0  0  0  0  0
  148.2032  138.9578  155.1258 H   0  0  0  0  0  0  0  0  0  0  0  0
  150.8258  138.1561  153.7423 H   0  0  0  0  0  0  0  0  0  0  0  0
  149.5740  139.1898  153.0893 H   0  0  0  0  0  0  0  0  0  0  0  0
  152.1483  138.9629  155.5922 H   0  0  0  0  0  0  0  0  0  0  0  0
  151.8383  140.5773  156.1967 H   0  0  0  0  0  0  0  0  0  0  0  0
  149.6407  139.9016  157.0770 H   0  0  0  0  0  0  0  0  0  0  0  0
  150.9130  138.8918  157.7350 H   0  0  0  0  0  0  0  0  0  0  0  0
  150.3917  137.2673  156.0539 H   0  0  0  0  0  0  0  0  0  0  0  0
  1  2  1  0  0  0  0
  1 26  1  0  0  0  0
  1 27  1  0  0  0  0
  1 28  1  0  0  0  0
  2  3  1  0  0  0  0
  2 29  1  0  0  0  0
  2 30  1  0  0  0  0
  3  4  1  0  0  0  0
  3  5  1  0  0  0  0
  3 19  1  0  0  0  0
  4 31  1  0  0  0  0
  4 32  1  0  0  0  0
  4 33  1  0  0  0  0
  5  6  1  0  0  0  0
  5 34  1  0  0  0  0
  5 35  1  0  0  0  0
  6  7  1  0  0  0  0
  6 36  1  0  0  0  0
  7  8  2  0  0  0  0
  7  9  1  0  0  0  0
  9 37  1  0  0  0  0
  9 38  1  0  0  0  0
  9 10  1  0  0  0  0
 10 17  1  0  0  0  0
 10 11  2  0  0  0  0
 11 12  1  0  0  0  0
 11 13  1  0  0  0  0
 12 39  1  0  0  0  0
 12 40  1  0  0  0  0
 12 41  1  0  0  0  0
 13 25  1  0  0  0  0
 13 14  1  0  0  0  0
 14 15  1  0  0  0  0
 14 16  2  0  0  0  0
 15 42  1  0  0  0  0
 15 43  1  0  0  0  0
 15 44  1  0  0  0  0
 16 17  1  0  0  0  0
 17 18  2  0  0  0  0
 19 24  1  0  0  0  0
 19 20  1  0  0  0  0
 19 53  1  0  0  0  0
 20 21  1  0  0  0  0
 20 45  1  0  0  0  0
 20 46  1  0  0  0  0
 21 22  1  0  0  0  0
 21 47  1  0  0  0  0
 21 48  1  0  0  0  0
 22 23  1  0  0  0  0
 23 24  1  0  0  0  0
 23 49  1  0  0  0  0
 23 50  1  0  0  0  0
 24 51  1  0  0  0  0
 24 52  1  0  0  0  0
M  CHG  1  19   1
M  END
> <s_m_source_file>
AV-unprocessed.smi

> <i_m_source_file_index>
1492

> <i_lp_mmshare_version>
43012

> <i_f3d_flags>
0

> <s_epik_input>
W0NIMl0xW0NIMl1PW0NIMl1bQ0gyXU4xW0NAQF0oW0NIM10pKFtDSDJdW0NIM10pW0NIMl1bTkhdQyg9TylbQ0gyXWMyYyhbQ0gzXSluYyhbQ0gzXSlbbkhdYzI9Tw==

> <s_epik_cmdline>
J2VwaWtfcHl0aG9uJywgJy1waCcsICc3LjAnLCAnLXRuJywgJzgnLCAnLW1hJywgJzIwMCcsICctbWV0YWxfYmluZGluZycsICctaW1hZScsICc8aW5maWxlLm1hZT4nLCAnLW9tYWUnLCAnPG91dGZpbGUubWFlPic=

> <r_lp_tautomer_probability>
0.156392

> <r_epik_Ionization_Penalty>
0.523233

> <r_epik_Ionization_Penalty_Charging>
0.523147

> <r_epik_Ionization_Penalty_Neutral>
8.52784e-05

> <r_epik_State_Penalty>
1.66677

> <r_epik_Charging_Adjusted_Penalty>
2.18991

> <i_epik_Tot_Q>
1

> <i_epik_Tot_abs_Q>
1

> <r_epik_Metal_State_Penalty>
1.84524

> <b_epik_Metal_Only>
0

> <s_lp_Force_Field>
OPLS_2005

> <r_lp_Energy>
37.6543

> <b_lp_Chiralities_Consistent>
1

> <s_lp_Variant>
AV-unprocessed.smi:1492-7

> <Gold.Version>
5.8.1

> <Gold.Id.Protein>
6NUR|6NUR_protein|mol2

> <Gold.PLP.Fitness>
35.4774

> <Gold.PLP.PLP>
-30.4292

> <Gold.PLP.part.hbond>
-2.6487

> <Gold.PLP.part.metal>
0.0000

> <Gold.PLP.part.buried>
-5.1415

> <Gold.PLP.part.nonpolar>
-22.3061

> <Gold.PLP.part.repulsive>
0.2031

> <Gold.PLP.ligand.clash>
0.0000

> <Gold.PLP.ligand.torsion>
0.6094

> <Gold.PLP.Chemscore.Hbond>
2.0000

> <Gold.PLP.Chemscore.CHOScore>
0.0000

> <Gold.PLP.Chemscore.Metal>
0.0000

> <Gold.Chemscore.Hbonds>
donor molecule, donor type, donor heavy atom, donor atom, acceptor molecule, acceptor atom, score
      P1  H  6896  6908       L1     8  1.00
      P1  H  7989  7998       L1    22  1.00

> <Gold.PLP.Chemscore.Internal.Correction>
0.2671

> <Gold.Rescore>
     Score         DG    S(hbond)    S(metal)    S(lipo)     H(rot)  DE(clash)    DE(int)     intcor
     13.81     -14.69       2.28        0.00      61.57       2.19       0.08       0.81       ----

> <Gold.Chemscore.Fitness>
13.8062

> <Gold.Chemscore.DG>
-14.6909

> <Gold.Chemscore.ZeroCoef>
-5.4800

> <Gold.Chemscore.Hbond>
2.2816

> <Gold.Chemscore.Metal>
0.0000

> <Gold.Chemscore.Lipo>
61.5674

> <Gold.Chemscore.Internal_Hbond>
0.0000

> <Gold.Chemscore.DEClash>
0.0754

> <Gold.Chemscore.DEInternal>
0.8093

> <Gold.Chemscore.Rot>
2.1926

> <Gold.Chemscore.Internal.Correction>
   9.000000E+99

> <Gold.Chemscore.Hbonds>
donor molecule, donor type, donor heavy atom, donor atom, acceptor molecule, acceptor atom, score
      L1  H    13    25       P1 10747  0.01
      P1  H  6896  6908       L1     8  0.98
      P1  H  7989  7998       L1    22  0.67

> <Gold.Chemscore.Hbond.Weighted>
-7.6205

> <Gold.Chemscore.Metal.Weighted>
-0.0000

> <Gold.Chemscore.Lipo.Weighted>
-7.2034

> <Gold.Chemscore.Internal_Hbond.Weighted>
0.0000

> <Gold.Chemscore.DEClash.Weighted>
0.0754

> <Gold.Chemscore.DEInternal.Weighted>
0.8093

> <Gold.Chemscore.Rot.Weighted>
5.6129

> <Gold.Chemscore.Internal.Correction.Weighted>
   9.000000E+99

> <Gold.Protein.RotatedTorsions>
[ 6907 6896 6895 6894 ] final  130.59 input  -60.11 | X-H torsion
[ 7974 7965 7964 7962 ] final  -42.10 input  175.53 | X-H torsion
[ 8008 7997 7996 7995 ] final  -29.16 input   59.86 | X-H torsion
[ 10167 10162 10161 10158 ] final   81.61 input  -65.29 | X-H torsion
[ 10718 10713 10712 10709 ] final   19.23 input   66.30 | X-H torsion
[ 10763 10752 10751 10750 ] final -103.57 input  -60.55 | X-H torsion
[ 11005 11000 10999 10996 ] final -158.61 input  -57.11 | X-H torsion

> <Gold.Protein.ActiveResidues>
 VAL166  LYS551  ARG553  GLY616  TRP617  ASP618  TYR619  PRO620  LYS621  CYS622 
 ASP623  PHE694  ASN695  SER759  ASP760  ASP761  ALA762  ILE779  LEU786  VAL792 
 PHE793  MET794  SER795  GLU796  ALA797  LYS798  CYS799  TRP800  GLU811  SER814 

> <Gold.Protein.RotatedAtoms>
  152.3511  133.6181  159.5945 H   0  0  0  0  0  0  0  0  0  0  0  0  # atno 6907 bound_to 6896
  150.7539  133.9572  159.3513 H   0  0  0  0  0  0  0  0  0  0  0  0  # atno 6908 bound_to 6896
  151.7424  135.0852  160.0369 H   0  0  0  0  0  0  0  0  0  0  0  0  # atno 6909 bound_to 6896
  146.0148  140.6921  142.9207 H   0  0  0  0  0  0  0  0  0  0  0  0  # atno 7974 bound_to 7965
  154.4301  140.1825  156.1204 H   0  0  0  0  0  0  0  0  0  0  0  0  # atno 8008 bound_to 7997
  156.0147  140.3347  155.6952 H   0  0  0  0  0  0  0  0  0  0  0  0  # atno 8009 bound_to 7997
  155.6061  140.0645  157.2710 H   0  0  0  0  0  0  0  0  0  0  0  0  # atno 8010 bound_to 7997
  139.9374  144.6112  150.8285 H   0  0  0  0  0  0  0  0  0  0  0  0  # atno 10167 bound_to 10162
  157.1075  130.6494  149.5888 H   0  0  0  0  0  0  0  0  0  0  0  0  # atno 10718 bound_to 10713
  154.7817  135.4818  153.9858 H   0  0  0  0  0  0  0  0  0  0  0  0  # atno 10763 bound_to 10752
  153.1503  135.6790  153.8900 H   0  0  0  0  0  0  0  0  0  0  0  0  # atno 10764 bound_to 10752
  153.8546  135.3163  155.3413 H   0  0  0  0  0  0  0  0  0  0  0  0  # atno 10765 bound_to 10752
  140.6517  134.4444  157.5235 H   0  0  0  0  0  0  0  0  0  0  0  0  # atno 11005 bound_to 11000
  144.6966  140.3461  143.7190 LP  0  0  0  0  0  0  0  0  0  0  0  0  # atno 17320 bound_to 7965
  145.7286  139.1730  143.2443 LP  0  0  0  0  0  0  0  0  0  0  0  0  # atno 17321 bound_to 7965
  140.7620  143.3189  151.2668 LP  0  0  0  0  0  0  0  0  0  0  0  0  # atno 17342 bound_to 10162
  139.6732  143.9983  152.2765 LP  0  0  0  0  0  0  0  0  0  0  0  0  # atno 17343 bound_to 10162
  155.9858  130.4890  150.7051 LP  0  0  0  0  0  0  0  0  0  0  0  0  # atno 17370 bound_to 10713
  157.4588  131.0881  151.0768 LP  0  0  0  0  0  0  0  0  0  0  0  0  # atno 17371 bound_to 10713
  139.9043  134.8483  156.1766 LP  0  0  0  0  0  0  0  0  0  0  0  0  # atno 17394 bound_to 11000
  141.0532  133.6878  156.1811 LP  0  0  0  0  0  0  0  0  0  0  0  0  # atno 17395 bound_to 11000

$$$$
