#       Name:                AV-unprocessed.smi:2453
#       Creating user name   scv26
#       Creation time:       Fri Mar 27 13:33:09 2020


#       File generated by GOLD software.
#

@<TRIPOS>MOLECULE
AV-unprocessed.smi:2453
    45    46     1
SMALL
NO_CHARGES


@<TRIPOS>ATOM
      1 ****        -3.8531  -0.2652   1.1529 C.3            1 S1                 0.0000
      2 ****        -3.6508   1.1626   0.6762 C.ar           1 S1                 0.0000
      3 ****        -4.7454   2.0546   0.6694 C.ar           1 S1                 0.0000
      4 ****        -4.5822   3.3253   0.2454 N.pl3          1 S1                 1.0000
      5 ****        -3.3977   3.8029  -0.1894 C.ar           1 S1                 0.0000
      6 ****        -2.2660   2.9639  -0.2081 C.ar           1 S1                 0.0000
      7 ****        -2.3812   1.6237   0.2425 C.ar           1 S1                 0.0000
      8 ****        -1.2902   0.7092   0.2313 N.am           1 S1                 0.0000
      9 ****         0.0261   0.9749   0.2872 C.2            1 S1                 0.0000
     10 ****         0.5174   2.0965   0.4098 O.2            1 S1                 0.0000
     11 ****         0.7475  -0.1525   0.2076 N.am           1 S1                 0.0000
     12 ****         2.2092  -0.2467   0.2160 C.3            1 S1                 0.0000
     13 ****         2.6853  -0.9691   1.4924 C.3            1 S1                 0.0000
     14 ****         2.3262  -2.4648   1.4840 C.3            1 S1                 0.0000
     15 ****         2.8578  -3.1566   0.2201 C.3            1 S1                 0.0000
     16 ****         2.3646  -2.4520  -1.0540 C.3            1 S1                 0.0000
     17 ****         2.7393  -0.9543  -1.0602 C.3            1 S1                 0.0000
     18 ****         2.2957  -0.2752  -2.3735 C.3            1 S1                 0.0000
     19 ****         2.8028   1.0401  -2.4549 O.3            1 S1                 0.0000
     20 ****        -4.8881  -0.4419   1.4473 H              1 S1                 0.0000
     21 ****        -3.2179  -0.4720   2.0148 H              1 S1                 0.0000
     22 ****        -3.6033  -0.9714   0.3607 H              1 S1                 0.0000
     23 ****        -5.7440   1.7913   0.9868 H              1 S1                 0.0000
     24 ****        -3.3914   4.8331  -0.5142 H              1 S1                 0.0000
     25 ****        -1.3341   3.3607  -0.5810 H              1 S1                 0.0000
     26 ****        -1.5446  -0.2677   0.2326 H              1 S1                 0.0000
     27 ****         0.2478  -1.0251   0.1201 H              1 S1                 0.0000
     28 ****         2.6364   0.7570   0.2408 H              1 S1                 0.0000
     29 ****         3.7679  -0.8652   1.5772 H              1 S1                 0.0000
     30 ****         2.2659  -0.4883   2.3771 H              1 S1                 0.0000
     31 ****         2.7359  -2.9485   2.3711 H              1 S1                 0.0000
     32 ****         1.2438  -2.5864   1.5406 H              1 S1                 0.0000
     33 ****         3.9484  -3.1590   0.2368 H              1 S1                 0.0000
     34 ****         2.5476  -4.2018   0.2106 H              1 S1                 0.0000
     35 ****         2.7937  -2.9462  -1.9262 H              1 S1                 0.0000
     36 ****         1.2833  -2.5669  -1.1400 H              1 S1                 0.0000
     37 ****         3.8293  -0.9038  -1.0290 H              1 S1                 0.0000
     38 ****         2.6710  -0.8333  -3.2317 H              1 S1                 0.0000
     39 ****         1.2096  -0.2501  -2.4642 H              1 S1                 0.0000
     40 ****         2.5268   1.4197  -3.2751 H              1 S1                 0.0000
     41 ****        -5.3895   3.9496   0.2486 H              1 S1                 0.0000
     42 ****        -0.0768   2.8981   0.4763 LP             1 S1                 0.0000
     43 ****         1.5108   2.2063   0.4430 LP             1 S1                 0.0000
     44 ****         3.8017   1.0192  -2.4126 LP             1 S1                 0.0000
     45 ****         2.4484   1.5853  -1.6952 LP             1 S1                 0.0000
@<TRIPOS>BOND
    1    1    2 1     
    2    1   20 1     
    3    1   21 1     
    4    1   22 1     
    5    2    7 ar    
    6    2    3 ar    
    7    3    4 ar    
    8    3   23 1     
    9    4    5 ar    
   10    4   41 1     
   11    5    6 ar    
   12    5   24 1     
   13    6    7 ar    
   14    6   25 1     
   15    7    8 1     
   16    8    9 am    
   17    8   26 1     
   18    9   10 2     
   19    9   11 am    
   20   11   12 1     
   21   11   27 1     
   22   12   17 1     
   23   12   13 1     
   24   12   28 1     
   25   13   14 1     
   26   13   29 1     
   27   13   30 1     
   28   14   15 1     
   29   14   31 1     
   30   14   32 1     
   31   15   16 1     
   32   15   33 1     
   33   15   34 1     
   34   16   17 1     
   35   16   35 1     
   36   16   36 1     
   37   17   18 1     
   38   17   37 1     
   39   18   19 1     
   40   18   38 1     
   41   18   39 1     
   42   19   40 1     
   43   10   42 1     
   44   10   43 1     
   45   19   44 1     
   46   19   45 1     
@<TRIPOS>SUBSTRUCTURE
      1 S1             1
@<TRIPOS>SET
LONE_PAIRS      STATIC     ATOMS    <user>   **** ""
4 42 43 44 45
DONOR_HYDROGENS      STATIC     ATOMS    <user>   **** ""
4 41 26 27 40
ATOM$BLUE        STATIC     ATOMS    COLORGROUP SYSTEM
4 42 43 44 45
ATOM$RED        STATIC     ATOMS    COLORGROUP SYSTEM
4 41 26 27 40
