AV-unprocessed.smi:3316|AV-procd|sdf|12755|dock4
  -GOLD-   2272019 93D 1   1.00000     0.00000
 Structure written by MMmdl.
 41 43  0  0  0  0  0  0  0  0  2 V2000
  148.1460  140.1295  154.0307 C   0  0  0  0  0  0  0  0  0  0  0  0
  148.3705  141.4586  154.7685 C   0  0  2  0  0  0  0  0  0  0  0  0
  149.2320  141.2637  156.0317 C   0  0  0  0  0  0  0  0  0  0  0  0
  150.3478  142.2310  156.0837 N   0  3  0  0  0  0  0  0  0  0  0  0
  151.3364  141.9572  157.1450 C   0  0  0  0  0  0  0  0  0  0  0  0
  151.1209  142.8809  158.3672 C   0  0  1  0  0  0  0  0  0  0  0  0
  152.1470  142.6551  159.5265 C   0  0  0  0  0  0  0  0  0  0  0  0
  152.7690  144.0557  159.7272 C   0  0  2  0  0  0  0  0  0  0  0  0
  151.6850  144.9822  160.2343 C   0  0  0  0  0  0  0  0  0  0  0  0
  150.8323  145.1821  159.2283 C   0  0  0  0  0  0  0  0  0  0  0  0
  151.3373  144.3836  158.0441 C   0  0  1  0  0  0  0  0  0  0  0  0
  152.8497  144.5091  158.2671 C   0  0  0  0  0  0  0  0  0  0  0  0
  147.0462  142.1468  155.0786 C   0  0  0  0  0  0  0  0  0  0  0  0
  146.2368  142.6474  154.0368 C   0  0  0  0  0  0  0  0  0  0  0  0
  145.0252  143.2856  154.3703 C   0  0  0  0  0  0  0  0  0  0  0  0
  144.5980  143.4476  155.6407 N   0  0  0  0  0  0  0  0  0  0  0  0
  145.3740  142.9655  156.6343 C   0  0  0  0  0  0  0  0  0  0  0  0
  146.6014  142.3109  156.4087 C   0  0  0  0  0  0  0  0  0  0  0  0
  147.5844  140.2840  153.1088 H   0  0  0  0  0  0  0  0  0  0  0  0
  147.5909  139.4180  154.6428 H   0  0  0  0  0  0  0  0  0  0  0  0
  149.0948  139.6641  153.7620 H   0  0  0  0  0  0  0  0  0  0  0  0
  148.9285  142.1064  154.0906 H   0  0  0  0  0  0  0  0  0  0  0  0
  148.6201  141.3693  156.9284 H   0  0  0  0  0  0  0  0  0  0  0  0
  149.6442  140.2539  156.0480 H   0  0  0  0  0  0  0  0  0  0  0  0
  150.8216  142.2275  155.1916 H   0  0  0  0  0  0  0  0  0  0  0  0
  151.2598  140.9063  157.4245 H   0  0  0  0  0  0  0  0  0  0  0  0
  152.3376  142.0913  156.7331 H   0  0  0  0  0  0  0  0  0  0  0  0
  150.1077  142.7440  158.7513 H   0  0  0  0  0  0  0  0  0  0  0  0
  151.6640  142.2922  160.4347 H   0  0  0  0  0  0  0  0  0  0  0  0
  152.9233  141.9364  159.2622 H   0  0  0  0  0  0  0  0  0  0  0  0
  153.7053  144.0950  160.2843 H   0  0  0  0  0  0  0  0  0  0  0  0
  151.6241  145.3683  161.2412 H   0  0  0  0  0  0  0  0  0  0  0  0
  149.9233  145.7652  159.2375 H   0  0  0  0  0  0  0  0  0  0  0  0
  150.9725  144.7345  157.0784 H   0  0  0  0  0  0  0  0  0  0  0  0
  153.2134  145.5332  158.1590 H   0  0  0  0  0  0  0  0  0  0  0  0
  153.4507  143.8546  157.6328 H   0  0  0  0  0  0  0  0  0  0  0  0
  146.5305  142.5469  153.0020 H   0  0  0  0  0  0  0  0  0  0  0  0
  144.3836  143.6788  153.5958 H   0  0  0  0  0  0  0  0  0  0  0  0
  145.0079  143.1075  157.6404 H   0  0  0  0  0  0  0  0  0  0  0  0
  147.1823  141.9449  157.2424 H   0  0  0  0  0  0  0  0  0  0  0  0
  149.9618  143.1515  156.2397 H   0  0  0  0  0  0  0  0  0  0  0  0
  1  2  1  0  0  0  0
  1 19  1  0  0  0  0
  1 20  1  0  0  0  0
  1 21  1  0  0  0  0
  2  3  1  0  0  0  0
  2 13  1  0  0  0  0
  2 22  1  0  0  0  0
  3  4  1  0  0  0  0
  3 23  1  0  0  0  0
  3 24  1  0  0  0  0
  4  5  1  0  0  0  0
  4 25  1  0  0  0  0
  4 41  1  0  0  0  0
  5  6  1  0  0  0  0
  5 26  1  0  0  0  0
  5 27  1  0  0  0  0
  6 11  1  0  0  0  0
  6  7  1  0  0  0  0
  6 28  1  0  0  0  0
  7  8  1  0  0  0  0
  7 29  1  0  0  0  0
  7 30  1  0  0  0  0
  8 12  1  0  0  0  0
  8  9  1  0  0  0  0
  8 31  1  0  0  0  0
  9 10  2  0  0  0  0
  9 32  1  0  0  0  0
 10 11  1  0  0  0  0
 10 33  1  0  0  0  0
 11 12  1  0  0  0  0
 11 34  1  0  0  0  0
 12 35  1  0  0  0  0
 12 36  1  0  0  0  0
 13 18  1  0  0  0  0
 13 14  2  0  0  0  0
 14 15  1  0  0  0  0
 14 37  1  0  0  0  0
 15 16  2  0  0  0  0
 15 38  1  0  0  0  0
 16 17  1  0  0  0  0
 17 18  2  0  0  0  0
 17 39  1  0  0  0  0
 18 40  1  0  0  0  0
M  CHG  1   4   1
M  END
> <s_m_source_file>
AV-unprocessed.smi

> <i_m_source_file_index>
3316

> <i_lp_mmshare_version>
43012

> <i_f3d_flags>
0

> <s_epik_input>
W2NIXTFbY0hdbltjSF1bY0hdYzFbQ0BIXShbQ0gzXSlbQ0gyXVtOSF1bQ0gyXVtDQEhdKFtDSDJdW0NASF0yMylbQ0BIXShbQ0gyXTMpW0NIXT1bQ0hdMg==

> <s_epik_cmdline>
J2VwaWtfcHl0aG9uJywgJy1waCcsICc3LjAnLCAnLXRuJywgJzgnLCAnLW1hJywgJzIwMCcsICctbWV0YWxfYmluZGluZycsICctaW1hZScsICc8aW5maWxlLm1hZT4nLCAnLW9tYWUnLCAnPG91dGZpbGUubWFlPic=

> <r_lp_tautomer_probability>
1

> <r_epik_Ionization_Penalty>
0.00280406

> <r_epik_Ionization_Penalty_Charging>
0.000446589

> <r_epik_Ionization_Penalty_Neutral>
0.00235747

> <r_epik_State_Penalty>
-0

> <r_epik_Charging_Adjusted_Penalty>
0.000446589

> <i_epik_Tot_Q>
1

> <i_epik_Tot_abs_Q>
1

> <r_epik_Metal_State_Penalty>
-0

> <b_epik_Metal_Only>
0

> <s_lp_Force_Field>
OPLS_2005

> <r_lp_Energy>
68.7939

> <b_lp_Chiralities_Consistent>
1

> <s_lp_Variant>
AV-unprocessed.smi:3316-3

> <Gold.Version>
5.8.1

> <Gold.Id.Protein>
6NUR|6NUR_protein|mol2

> <Gold.PLP.Fitness>
51.4139

> <Gold.PLP.PLP>
-44.6457

> <Gold.PLP.part.hbond>
-1.0000

> <Gold.PLP.part.metal>
0.0000

> <Gold.PLP.part.buried>
-5.7168

> <Gold.PLP.part.nonpolar>
-39.1987

> <Gold.PLP.part.repulsive>
0.2502

> <Gold.PLP.ligand.clash>
0.0000

> <Gold.PLP.ligand.torsion>
1.1613

> <Gold.PLP.Chemscore.Hbond>
2.0000

> <Gold.PLP.Chemscore.CHOScore>
1.0000

> <Gold.PLP.Chemscore.Metal>
0.0000

> <Gold.Chemscore.Hbonds>
donor molecule, donor type, donor heavy atom, donor atom, acceptor molecule, acceptor atom, score
      L1  H     4    41       P1  8028  2.00
      L1  C    15    38       P1 10174  0.98

> <Gold.PLP.Chemscore.Internal.Correction>
0.0908

> <Gold.Rescore>
     Score         DG    S(hbond)    S(metal)    S(lipo)     H(rot)  DE(clash)    DE(int)     intcor
     19.67     -20.90       0.96        0.00     134.13       1.36       0.21       1.02       ----

> <Gold.Chemscore.Fitness>
19.6678

> <Gold.Chemscore.DG>
-20.9003

> <Gold.Chemscore.ZeroCoef>
-5.4800

> <Gold.Chemscore.Hbond>
0.9637

> <Gold.Chemscore.Metal>
0.0000

> <Gold.Chemscore.Lipo>
134.1306

> <Gold.Chemscore.Internal_Hbond>
0.0000

> <Gold.Chemscore.DEClash>
0.2091

> <Gold.Chemscore.DEInternal>
1.0234

> <Gold.Chemscore.Rot>
1.3640

> <Gold.Chemscore.Internal.Correction>
   9.000000E+99

> <Gold.Chemscore.Hbonds>
donor molecule, donor type, donor heavy atom, donor atom, acceptor molecule, acceptor atom, score
      L1  H     4    41       P1  8028  0.94

> <Gold.Chemscore.Hbond.Weighted>
-3.2189

> <Gold.Chemscore.Metal.Weighted>
-0.0000

> <Gold.Chemscore.Lipo.Weighted>
-15.6933

> <Gold.Chemscore.Internal_Hbond.Weighted>
0.0000

> <Gold.Chemscore.DEClash.Weighted>
0.2091

> <Gold.Chemscore.DEInternal.Weighted>
1.0234

> <Gold.Chemscore.Rot.Weighted>
3.4919

> <Gold.Chemscore.Internal.Correction.Weighted>
   9.000000E+99

> <Gold.Protein.RotatedTorsions>
[ 6907 6896 6895 6894 ] final  119.62 input  -60.11 | X-H torsion
[ 7974 7965 7964 7962 ] final  -24.36 input  175.53 | X-H torsion
[ 8008 7997 7996 7995 ] final   51.65 input   59.86 | X-H torsion
[ 10167 10162 10161 10158 ] final  -41.91 input  -65.29 | X-H torsion
[ 10718 10713 10712 10709 ] final -163.10 input   66.30 | X-H torsion
[ 10763 10752 10751 10750 ] final -108.05 input  -60.55 | X-H torsion
[ 11005 11000 10999 10996 ] final -135.70 input  -57.11 | X-H torsion

> <Gold.Protein.ActiveResidues>
 VAL166  LYS551  ARG553  GLY616  TRP617  ASP618  TYR619  PRO620  LYS621  CYS622 
 ASP623  PHE694  ASN695  SER759  ASP760  ASP761  ALA762  ILE779  LEU786  VAL792 
 PHE793  MET794  SER795  GLU796  ALA797  LYS798  CYS799  TRP800  GLU811  SER814 

> <Gold.Protein.RotatedAtoms>
  152.4458  133.7534  159.6706 H   0  0  0  0  0  0  0  0  0  0  0  0  # atno 6907 bound_to 6896
  150.8358  133.8005  159.3086 H   0  0  0  0  0  0  0  0  0  0  0  0  # atno 6908 bound_to 6896
  151.5645  135.1067  160.0032 H   0  0  0  0  0  0  0  0  0  0  0  0  # atno 6909 bound_to 6896
  146.1559  140.4741  142.8591 H   0  0  0  0  0  0  0  0  0  0  0  0  # atno 7974 bound_to 7965
  155.4388  140.3453  155.4287 H   0  0  0  0  0  0  0  0  0  0  0  0  # atno 8008 bound_to 7997
  156.1292  140.1509  156.9122 H   0  0  0  0  0  0  0  0  0  0  0  0  # atno 8009 bound_to 7997
  154.4881  140.0849  156.7513 H   0  0  0  0  0  0  0  0  0  0  0  0  # atno 8010 bound_to 7997
  140.6987  143.3068  151.3133 H   0  0  0  0  0  0  0  0  0  0  0  0  # atno 10167 bound_to 10162
  156.6199  130.8886  151.2955 H   0  0  0  0  0  0  0  0  0  0  0  0  # atno 10718 bound_to 10713
  154.8112  135.4652  154.0522 H   0  0  0  0  0  0  0  0  0  0  0  0  # atno 10763 bound_to 10752
  153.1951  135.6861  153.8309 H   0  0  0  0  0  0  0  0  0  0  0  0  # atno 10764 bound_to 10752
  153.7813  135.3256  155.3343 H   0  0  0  0  0  0  0  0  0  0  0  0  # atno 10765 bound_to 10752
  140.8873  134.1856  157.4551 H   0  0  0  0  0  0  0  0  0  0  0  0  # atno 11005 bound_to 11000
  144.7963  140.6129  143.6508 LP  0  0  0  0  0  0  0  0  0  0  0  0  # atno 17320 bound_to 7965
  145.4708  139.1503  143.3815 LP  0  0  0  0  0  0  0  0  0  0  0  0  # atno 17321 bound_to 7965
  139.6476  144.0422  152.2602 LP  0  0  0  0  0  0  0  0  0  0  0  0  # atno 17342 bound_to 10162
  139.9948  144.6336  150.7782 LP  0  0  0  0  0  0  0  0  0  0  0  0  # atno 17343 bound_to 10162
  157.7230  130.9585  150.1518 LP  0  0  0  0  0  0  0  0  0  0  0  0  # atno 17370 bound_to 10713
  156.2320  130.3683  149.8434 LP  0  0  0  0  0  0  0  0  0  0  0  0  # atno 17371 bound_to 10713
  139.8726  134.9843  156.5235 LP  0  0  0  0  0  0  0  0  0  0  0  0  # atno 17394 bound_to 11000
  140.8389  133.8220  155.9056 LP  0  0  0  0  0  0  0  0  0  0  0  0  # atno 17395 bound_to 11000

$$$$
