AV-unprocessed.smi:2830|AV-procd|sdf|10907|dock6
  -GOLD-   2272015353D 1   1.00000     0.00000
 Structure written by MMmdl.
 28 28  0  0  0  0  0  0  0  0  1 V2000
  143.7524  131.8537  150.4898 C   0  0  0  0  0  0  0  0  0  0  0  0
  145.1441  131.8760  150.2260 O   0  0  0  0  0  0  0  0  0  0  0  0
  145.6443  133.1914  150.0448 C   0  0  0  0  0  0  0  0  0  0  0  0
  145.7095  133.8982  151.4109 C   0  0  1  0  0  0  0  0  0  0  0  0
  147.0928  133.9316  151.8823 N   0  0  0  0  0  0  0  0  0  0  0  0
  147.6677  132.8744  152.6042 C   0  0  0  0  0  0  0  0  0  0  0  0
  148.8548  133.1229  153.3253 C   0  0  0  0  0  0  0  0  0  0  0  0
  149.4420  132.0703  154.0542 C   0  0  0  0  0  0  0  0  0  0  0  0
  148.8226  130.8052  154.0361 C   0  0  0  0  0  0  0  0  0  0  0  0
  149.3883  129.6880  154.7725 C   0  0  0  0  0  0  0  0  0  0  0  0
  149.8389  128.7981  155.3590 N   0  0  0  0  0  0  0  0  0  0  0  0
  147.6398  130.6513  153.2850 C   0  0  0  0  0  0  0  0  0  0  0  0
  147.0737  131.6568  152.5837 N   0  0  0  0  0  0  0  0  0  0  0  0
  145.0709  135.2923  151.3017 C   0  0  0  0  0  0  0  0  0  0  0  0
  145.2900  135.9739  150.1743 N   0  0  0  0  0  0  0  0  0  0  0  0
  144.4027  135.7546  152.2251 O   0  0  0  0  0  0  0  0  0  0  0  0
  143.4220  130.8234  150.6223 H   0  0  0  0  0  0  0  0  0  0  0  0
  143.1871  132.2850  149.6627 H   0  0  0  0  0  0  0  0  0  0  0  0
  143.5145  132.4032  151.4017 H   0  0  0  0  0  0  0  0  0  0  0  0
  146.6299  133.1661  149.5755 H   0  0  0  0  0  0  0  0  0  0  0  0
  144.9766  133.7282  149.3677 H   0  0  0  0  0  0  0  0  0  0  0  0
  145.1157  133.3086  152.1120 H   0  0  0  0  0  0  0  0  0  0  0  0
  147.6002  134.8002  151.7966 H   0  0  0  0  0  0  0  0  0  0  0  0
  149.3098  134.1026  153.3238 H   0  0  0  0  0  0  0  0  0  0  0  0
  150.3502  132.2376  154.6152 H   0  0  0  0  0  0  0  0  0  0  0  0
  147.1303  129.6994  153.2418 H   0  0  0  0  0  0  0  0  0  0  0  0
  144.8985  136.8976  150.0595 H   0  0  0  0  0  0  0  0  0  0  0  0
  145.8544  135.5652  149.4437 H   0  0  0  0  0  0  0  0  0  0  0  0
  1  2  1  0  0  0  0
  1 17  1  0  0  0  0
  1 18  1  0  0  0  0
  1 19  1  0  0  0  0
  2  3  1  0  0  0  0
  3  4  1  0  0  0  0
  3 20  1  0  0  0  0
  3 21  1  0  0  0  0
  4  5  1  0  0  0  0
  4 14  1  0  0  0  0
  4 22  1  0  0  0  0
  5  6  1  0  0  0  0
  5 23  1  0  0  0  0
  6 13  1  0  0  0  0
  6  7  2  0  0  0  0
  7  8  1  0  0  0  0
  7 24  1  0  0  0  0
  8  9  2  0  0  0  0
  8 25  1  0  0  0  0
  9 10  1  0  0  0  0
  9 12  1  0  0  0  0
 10 11  3  0  0  0  0
 12 13  2  0  0  0  0
 12 26  1  0  0  0  0
 14 15  1  0  0  0  0
 14 16  2  0  0  0  0
 15 27  1  0  0  0  0
 15 28  1  0  0  0  0
M  END
> <s_m_source_file>
AV-unprocessed.smi

> <i_m_source_file_index>
2830

> <i_lp_mmshare_version>
43012

> <i_f3d_flags>
0

> <s_epik_input>
W0NIM11PW0NIMl1bQ0BASF0oQyg9TylbTkgyXSlbTkhdYzFbY0hdW2NIXWMoQyNOKVtjSF1uMQ==

> <s_epik_cmdline>
J2VwaWtfcHl0aG9uJywgJy1waCcsICc3LjAnLCAnLXRuJywgJzgnLCAnLW1hJywgJzIwMCcsICctbWV0YWxfYmluZGluZycsICctaW1hZScsICc8aW5maWxlLm1hZT4nLCAnLW9tYWUnLCAnPG91dGZpbGUubWFlPic=

> <r_lp_tautomer_probability>
1

> <r_epik_Ionization_Penalty>
4.37908e-06

> <r_epik_Ionization_Penalty_Charging>
0

> <r_epik_Ionization_Penalty_Neutral>
4.37908e-06

> <r_epik_State_Penalty>
-0

> <r_epik_Charging_Adjusted_Penalty>
0

> <i_epik_Tot_Q>
0

> <i_epik_Tot_abs_Q>
0

> <r_epik_Metal_State_Penalty>
-0

> <b_epik_Metal_Only>
0

> <s_lp_Force_Field>
OPLS_2005

> <r_lp_Energy>
3.76959

> <b_lp_Chiralities_Consistent>
1

> <s_lp_Variant>
AV-unprocessed.smi:2830-2

> <Gold.Version>
5.8.1

> <Gold.Id.Protein>
6NUR|6NUR_protein|mol2

> <Gold.PLP.Fitness>
33.3812

> <Gold.PLP.PLP>
-27.9434

> <Gold.PLP.part.hbond>
-3.0000

> <Gold.PLP.part.metal>
0.0000

> <Gold.PLP.part.buried>
-3.6382

> <Gold.PLP.part.nonpolar>
-21.9718

> <Gold.PLP.part.repulsive>
0.6594

> <Gold.PLP.ligand.clash>
0.0000

> <Gold.PLP.ligand.torsion>
1.7970

> <Gold.PLP.Chemscore.Hbond>
3.0000

> <Gold.PLP.Chemscore.CHOScore>
0.0000

> <Gold.PLP.Chemscore.Metal>
0.0000

> <Gold.Chemscore.Hbonds>
donor molecule, donor type, donor heavy atom, donor atom, acceptor molecule, acceptor atom, score
      L1  H     5    23       P1  7948  1.00
      L1  H    15    27       P1 10171  1.00
      L1  H    15    28       P1  7921  1.00

> <Gold.PLP.Chemscore.Internal.Correction>
0.0319

> <Gold.Rescore>
     Score         DG    S(hbond)    S(metal)    S(lipo)     H(rot)  DE(clash)    DE(int)     intcor
     12.03     -13.88       2.64        0.00      47.26       2.32       0.04       1.81       ----

> <Gold.Chemscore.Fitness>
12.0284

> <Gold.Chemscore.DG>
-13.8753

> <Gold.Chemscore.ZeroCoef>
-5.4800

> <Gold.Chemscore.Hbond>
2.6360

> <Gold.Chemscore.Metal>
0.0000

> <Gold.Chemscore.Lipo>
47.2593

> <Gold.Chemscore.Internal_Hbond>
0.0000

> <Gold.Chemscore.DEClash>
0.0360

> <Gold.Chemscore.DEInternal>
1.8109

> <Gold.Chemscore.Rot>
2.3197

> <Gold.Chemscore.Internal.Correction>
   9.000000E+99

> <Gold.Chemscore.Hbonds>
donor molecule, donor type, donor heavy atom, donor atom, acceptor molecule, acceptor atom, score
      L1  H     5    23       P1  7948  0.55
      L1  H    15    27       P1 10171  0.98
      L1  H    15    28       P1  7921  0.95

> <Gold.Chemscore.Hbond.Weighted>
-8.8044

> <Gold.Chemscore.Metal.Weighted>
-0.0000

> <Gold.Chemscore.Lipo.Weighted>
-5.5293

> <Gold.Chemscore.Internal_Hbond.Weighted>
0.0000

> <Gold.Chemscore.DEClash.Weighted>
0.0360

> <Gold.Chemscore.DEInternal.Weighted>
1.8109

> <Gold.Chemscore.Rot.Weighted>
5.9384

> <Gold.Chemscore.Internal.Correction.Weighted>
   9.000000E+99

> <Gold.Protein.RotatedTorsions>
[ 6907 6896 6895 6894 ] final  -55.00 input  -60.11 | X-H torsion
[ 7974 7965 7964 7962 ] final  109.01 input  175.53 | X-H torsion
[ 8008 7997 7996 7995 ] final -176.00 input   59.86 | X-H torsion
[ 10167 10162 10161 10158 ] final  -99.08 input  -65.29 | X-H torsion
[ 10718 10713 10712 10709 ] final  -49.27 input   66.30 | X-H torsion
[ 10763 10752 10751 10750 ] final  159.48 input  -60.55 | X-H torsion
[ 11005 11000 10999 10996 ] final   87.96 input  -57.11 | X-H torsion

> <Gold.Protein.ActiveResidues>
 VAL166  LYS551  ARG553  GLY616  TRP617  ASP618  TYR619  PRO620  LYS621  CYS622 
 ASP623  PHE694  ASN695  SER759  ASP760  ASP761  ALA762  ILE779  LEU786  VAL792 
 PHE793  MET794  SER795  GLU796  ALA797  LYS798  CYS799  TRP800  GLU811  SER814 

> <Gold.Protein.RotatedAtoms>
  150.8289  134.7534  159.6836 H   0  0  0  0  0  0  0  0  0  0  0  0  # atno 6907 bound_to 6896
  152.4397  134.5613  159.9905 H   0  0  0  0  0  0  0  0  0  0  0  0  # atno 6908 bound_to 6896
  151.5779  133.3344  159.3038 H   0  0  0  0  0  0  0  0  0  0  0  0  # atno 6909 bound_to 6896
  145.2732  139.2659  143.3955 H   0  0  0  0  0  0  0  0  0  0  0  0  # atno 7974 bound_to 7965
  155.9895  140.1198  157.0652 H   0  0  0  0  0  0  0  0  0  0  0  0  # atno 8008 bound_to 7997
  154.4207  140.1128  156.5613 H   0  0  0  0  0  0  0  0  0  0  0  0  # atno 8009 bound_to 7997
  155.6363  140.3473  155.4702 H   0  0  0  0  0  0  0  0  0  0  0  0  # atno 8010 bound_to 7997
  140.2662  143.3374  152.0578 H   0  0  0  0  0  0  0  0  0  0  0  0  # atno 10167 bound_to 10162
  156.1909  130.4153  149.9373 H   0  0  0  0  0  0  0  0  0  0  0  0  # atno 10718 bound_to 10713
  154.2324  135.2778  155.2885 H   0  0  0  0  0  0  0  0  0  0  0  0  # atno 10763 bound_to 10752
  154.5613  135.5646  153.7013 H   0  0  0  0  0  0  0  0  0  0  0  0  # atno 10764 bound_to 10752
  153.0017  135.6298  154.2466 H   0  0  0  0  0  0  0  0  0  0  0  0  # atno 10765 bound_to 10752
  139.8907  134.8456  156.2933 H   0  0  0  0  0  0  0  0  0  0  0  0  # atno 11005 bound_to 11000
  146.3240  140.3181  142.8631 LP  0  0  0  0  0  0  0  0  0  0  0  0  # atno 17320 bound_to 7965
  144.9317  140.7982  143.5685 LP  0  0  0  0  0  0  0  0  0  0  0  0  # atno 17321 bound_to 7965
  139.5002  144.6686  151.6296 LP  0  0  0  0  0  0  0  0  0  0  0  0  # atno 17342 bound_to 10162
  140.5926  143.9752  150.6334 LP  0  0  0  0  0  0  0  0  0  0  0  0  # atno 17343 bound_to 10162
  156.7113  130.8971  151.3609 LP  0  0  0  0  0  0  0  0  0  0  0  0  # atno 17370 bound_to 10713
  157.6928  130.9251  150.0562 LP  0  0  0  0  0  0  0  0  0  0  0  0  # atno 17371 bound_to 10713
  140.9962  133.7179  156.0889 LP  0  0  0  0  0  0  0  0  0  0  0  0  # atno 17394 bound_to 11000
  140.7559  134.3993  157.5534 LP  0  0  0  0  0  0  0  0  0  0  0  0  # atno 17395 bound_to 11000

$$$$
