AV-unprocessed.smi:2183|AV-procd|sdf|8867|dock7
  -GOLD-   2272012 63D 1   1.00000     0.00000
 Structure written by MMmdl.
 41 43  0  0  0  0  0  0  0  0  2 V2000
  152.7049  139.1853  156.5614 O   0  0  0  0  0  0  0  0  0  0  0  0
  151.8083  139.4209  157.6241 C   0  0  0  0  0  0  0  0  0  0  0  0
  151.8782  140.8266  158.1223 C   0  0  0  0  0  0  0  0  0  0  0  0
  152.2107  141.2096  159.3870 N   0  3  0  0  0  0  0  0  0  0  0  0
  152.1590  142.6003  159.4888 C   0  0  0  0  0  0  0  0  0  0  0  0
  152.4125  143.4442  160.5657 C   0  0  0  0  0  0  0  0  0  0  0  0
  152.2703  144.8277  160.3329 C   0  0  0  0  0  0  0  0  0  0  0  0
  151.8904  145.3239  159.0690 C   0  0  0  0  0  0  0  0  0  0  0  0
  151.6348  144.4585  157.9850 C   0  0  0  0  0  0  0  0  0  0  0  0
  151.7759  143.0912  158.2233 C   0  0  0  0  0  0  0  0  0  0  0  0
  151.6116  141.9610  157.4128 N   0  0  0  0  0  0  0  0  0  0  0  0
  151.1968  142.1192  156.0096 C   0  0  0  0  0  0  0  0  0  0  0  0
  150.1678  141.0593  155.5682 C   0  0  2  0  0  0  0  0  0  0  0  0
  150.8153  140.0233  154.8579 O   0  0  0  0  0  0  0  0  0  0  0  0
  149.0626  141.6468  154.6791 C   0  0  0  0  0  0  0  0  0  0  0  0
  147.9622  142.0139  155.5008 O   0  0  0  0  0  0  0  0  0  0  0  0
  147.0286  142.8900  154.9904 C   0  0  0  0  0  0  0  0  0  0  0  0
  146.0160  143.3285  155.8688 C   0  0  0  0  0  0  0  0  0  0  0  0
  145.0206  144.2240  155.4324 C   0  0  0  0  0  0  0  0  0  0  0  0
  145.0282  144.6914  154.1050 C   0  0  0  0  0  0  0  0  0  0  0  0
  143.8097  145.7877  153.5666 Cl  0  0  0  0  0  0  0  0  0  0  0  0
  146.0326  144.2620  153.2175 C   0  0  0  0  0  0  0  0  0  0  0  0
  147.0282  143.3665  153.6548 C   0  0  0  0  0  0  0  0  0  0  0  0
  152.2087  138.9210  155.8016 H   0  0  0  0  0  0  0  0  0  0  0  0
  150.7936  139.2040  157.2892 H   0  0  0  0  0  0  0  0  0  0  0  0
  152.0310  138.7309  158.4380 H   0  0  0  0  0  0  0  0  0  0  0  0
  152.7039  143.0664  161.5349 H   0  0  0  0  0  0  0  0  0  0  0  0
  152.4567  145.5222  161.1395 H   0  0  0  0  0  0  0  0  0  0  0  0
  151.7932  146.3906  158.9272 H   0  0  0  0  0  0  0  0  0  0  0  0
  151.3486  144.8515  157.0207 H   0  0  0  0  0  0  0  0  0  0  0  0
  150.7683  143.1176  155.9146 H   0  0  0  0  0  0  0  0  0  0  0  0
  152.0771  142.1102  155.3668 H   0  0  0  0  0  0  0  0  0  0  0  0
  149.7069  140.6089  156.4478 H   0  0  0  0  0  0  0  0  0  0  0  0
  151.1565  139.4017  155.4824 H   0  0  0  0  0  0  0  0  0  0  0  0
  149.4418  142.5092  154.1279 H   0  0  0  0  0  0  0  0  0  0  0  0
  148.7385  140.8969  153.9551 H   0  0  0  0  0  0  0  0  0  0  0  0
  146.0023  142.9746  156.8891 H   0  0  0  0  0  0  0  0  0  0  0  0
  144.2522  144.5508  156.1174 H   0  0  0  0  0  0  0  0  0  0  0  0
  146.0418  144.6185  152.1981 H   0  0  0  0  0  0  0  0  0  0  0  0
  147.7802  143.0596  152.9442 H   0  0  0  0  0  0  0  0  0  0  0  0
  152.4501  140.5625  160.1272 H   0  0  0  0  0  0  0  0  0  0  0  0
  1  2  1  0  0  0  0
  1 24  1  0  0  0  0
  2  3  1  0  0  0  0
  2 25  1  0  0  0  0
  2 26  1  0  0  0  0
  3 11  1  0  0  0  0
  3  4  2  0  0  0  0
  4  5  1  0  0  0  0
  4 41  1  0  0  0  0
  5 10  2  0  0  0  0
  5  6  1  0  0  0  0
  6  7  2  0  0  0  0
  6 27  1  0  0  0  0
  7  8  1  0  0  0  0
  7 28  1  0  0  0  0
  8  9  2  0  0  0  0
  8 29  1  0  0  0  0
  9 10  1  0  0  0  0
  9 30  1  0  0  0  0
 10 11  1  0  0  0  0
 11 12  1  0  0  0  0
 12 13  1  0  0  0  0
 12 31  1  0  0  0  0
 12 32  1  0  0  0  0
 13 14  1  0  0  0  0
 13 15  1  0  0  0  0
 13 33  1  0  0  0  0
 14 34  1  0  0  0  0
 15 16  1  0  0  0  0
 15 35  1  0  0  0  0
 15 36  1  0  0  0  0
 16 17  1  0  0  0  0
 17 23  1  0  0  0  0
 17 18  2  0  0  0  0
 18 19  1  0  0  0  0
 18 37  1  0  0  0  0
 19 20  2  0  0  0  0
 19 38  1  0  0  0  0
 20 21  1  0  0  0  0
 20 22  1  0  0  0  0
 22 23  2  0  0  0  0
 22 39  1  0  0  0  0
 23 40  1  0  0  0  0
M  CHG  1   4   1
M  END
> <s_m_source_file>
AV-unprocessed.smi

> <i_m_source_file_index>
2183

> <i_lp_mmshare_version>
43012

> <i_f3d_flags>
0

> <s_epik_input>
W2NIXTFbY0hdW2NIXVtjSF1jKGMxMiluKGMobjIpW0NIMl1bT0hdKVtDSDJdW0NASF0oW09IXSlbQ0gyXU9jM1tjSF1bY0hdYyhDbClbY0hdW2NIXTM=

> <s_epik_cmdline>
J2VwaWtfcHl0aG9uJywgJy1waCcsICc3LjAnLCAnLXRuJywgJzgnLCAnLW1hJywgJzIwMCcsICctbWV0YWxfYmluZGluZycsICctaW1hZScsICc8aW5maWxlLm1hZT4nLCAnLW9tYWUnLCAnPG91dGZpbGUubWFlPic=

> <r_lp_tautomer_probability>
1

> <r_epik_Ionization_Penalty>
1.40052

> <r_epik_Ionization_Penalty_Charging>
1.39966

> <r_epik_Ionization_Penalty_Neutral>
0.000858184

> <r_epik_State_Penalty>
1.4817

> <r_epik_Charging_Adjusted_Penalty>
2.88136

> <i_epik_Tot_Q>
1

> <i_epik_Tot_abs_Q>
1

> <r_epik_Metal_State_Penalty>
5.5238

> <b_epik_Metal_Only>
0

> <s_lp_Force_Field>
OPLS_2005

> <r_lp_Energy>
17.0634

> <b_lp_Chiralities_Consistent>
1

> <s_lp_Variant>
AV-unprocessed.smi:2183-3

> <Gold.Version>
5.8.1

> <Gold.Id.Protein>
6NUR|6NUR_protein|mol2

> <Gold.PLP.Fitness>
54.3506

> <Gold.PLP.PLP>
-51.0513

> <Gold.PLP.part.hbond>
-2.0000

> <Gold.PLP.part.metal>
0.0000

> <Gold.PLP.part.buried>
-8.3951

> <Gold.PLP.part.nonpolar>
-41.0774

> <Gold.PLP.part.repulsive>
0.2400

> <Gold.PLP.ligand.clash>
0.0000

> <Gold.PLP.ligand.torsion>
1.3997

> <Gold.PLP.Chemscore.Hbond>
2.0000

> <Gold.PLP.Chemscore.CHOScore>
0.0000

> <Gold.PLP.Chemscore.Metal>
0.0000

> <Gold.Chemscore.Hbonds>
donor molecule, donor type, donor heavy atom, donor atom, acceptor molecule, acceptor atom, score
      P1  H  7989  7998       L1    14  1.00
      P1  H  7997  8009       L1     1  1.00

> <Gold.PLP.Chemscore.Internal.Correction>
0.0987

> <Gold.Rescore>
     Score         DG    S(hbond)    S(metal)    S(lipo)     H(rot)  DE(clash)    DE(int)     intcor
     16.37     -18.01       1.91        0.00     120.94       3.13       0.40       1.24       ----

> <Gold.Chemscore.Fitness>
16.3705

> <Gold.Chemscore.DG>
-18.0110

> <Gold.Chemscore.ZeroCoef>
-5.4800

> <Gold.Chemscore.Hbond>
1.9148

> <Gold.Chemscore.Metal>
0.0000

> <Gold.Chemscore.Lipo>
120.9384

> <Gold.Chemscore.Internal_Hbond>
0.0000

> <Gold.Chemscore.DEClash>
0.4000

> <Gold.Chemscore.DEInternal>
1.2404

> <Gold.Chemscore.Rot>
3.1305

> <Gold.Chemscore.Internal.Correction>
   9.000000E+99

> <Gold.Chemscore.Hbonds>
donor molecule, donor type, donor heavy atom, donor atom, acceptor molecule, acceptor atom, score
      P1  H  7989  7998       L1    14  0.45
      P1  H  7997  8009       L1     1  0.89

> <Gold.Chemscore.Hbond.Weighted>
-6.3953

> <Gold.Chemscore.Metal.Weighted>
-0.0000

> <Gold.Chemscore.Lipo.Weighted>
-14.1498

> <Gold.Chemscore.Internal_Hbond.Weighted>
0.0000

> <Gold.Chemscore.DEClash.Weighted>
0.4000

> <Gold.Chemscore.DEInternal.Weighted>
1.2404

> <Gold.Chemscore.Rot.Weighted>
8.0141

> <Gold.Chemscore.Internal.Correction.Weighted>
   9.000000E+99

> <Gold.Protein.RotatedTorsions>
[ 6907 6896 6895 6894 ] final   40.72 input  -60.11 | X-H torsion
[ 7974 7965 7964 7962 ] final -155.63 input  175.53 | X-H torsion
[ 8008 7997 7996 7995 ] final  172.21 input   59.86 | X-H torsion
[ 10167 10162 10161 10158 ] final -163.15 input  -65.29 | X-H torsion
[ 10718 10713 10712 10709 ] final -122.87 input   66.30 | X-H torsion
[ 10763 10752 10751 10750 ] final -105.33 input  -60.55 | X-H torsion
[ 11005 11000 10999 10996 ] final -140.26 input  -57.11 | X-H torsion

> <Gold.Protein.ActiveResidues>
 VAL166  LYS551  ARG553  GLY616  TRP617  ASP618  TYR619  PRO620  LYS621  CYS622 
 ASP623  PHE694  ASN695  SER759  ASP760  ASP761  ALA762  ILE779  LEU786  VAL792 
 PHE793  MET794  SER795  GLU796  ALA797  LYS798  CYS799  TRP800  GLU811  SER814 

> <Gold.Protein.RotatedAtoms>
  152.1862  134.8712  160.0521 H   0  0  0  0  0  0  0  0  0  0  0  0  # atno 6907 bound_to 6896
  151.9618  133.3692  159.4046 H   0  0  0  0  0  0  0  0  0  0  0  0  # atno 6908 bound_to 6896
  150.6926  134.4156  159.5225 H   0  0  0  0  0  0  0  0  0  0  0  0  # atno 6909 bound_to 6896
  144.7631  140.4223  143.5962 H   0  0  0  0  0  0  0  0  0  0  0  0  # atno 7974 bound_to 7965
  156.1196  140.1492  156.9223 H   0  0  0  0  0  0  0  0  0  0  0  0  # atno 8008 bound_to 7997
  154.4826  140.0875  156.7454 H   0  0  0  0  0  0  0  0  0  0  0  0  # atno 8009 bound_to 7997
  155.4451  140.3432  155.4296 H   0  0  0  0  0  0  0  0  0  0  0  0  # atno 8010 bound_to 7997
  139.6341  144.0383  152.2040 H   0  0  0  0  0  0  0  0  0  0  0  0  # atno 10167 bound_to 10162
  156.1454  130.6496  150.9834 H   0  0  0  0  0  0  0  0  0  0  0  0  # atno 10718 bound_to 10713
  154.7939  135.4753  154.0116 H   0  0  0  0  0  0  0  0  0  0  0  0  # atno 10763 bound_to 10752
  153.1673  135.6819  153.8664 H   0  0  0  0  0  0  0  0  0  0  0  0  # atno 10764 bound_to 10752
  153.8258  135.3198  155.3392 H   0  0  0  0  0  0  0  0  0  0  0  0  # atno 10765 bound_to 10752
  140.8440  134.2367  157.4795 H   0  0  0  0  0  0  0  0  0  0  0  0  # atno 11005 bound_to 11000
  145.6556  139.1572  143.2837 LP  0  0  0  0  0  0  0  0  0  0  0  0  # atno 17320 bound_to 7965
  146.1713  140.6641  142.9232 LP  0  0  0  0  0  0  0  0  0  0  0  0  # atno 17321 bound_to 7965
  140.0056  144.6262  150.7692 LP  0  0  0  0  0  0  0  0  0  0  0  0  # atno 17342 bound_to 10162
  140.7456  143.2877  151.3416 LP  0  0  0  0  0  0  0  0  0  0  0  0  # atno 17343 bound_to 10162
  157.6612  131.0880  150.7834 LP  0  0  0  0  0  0  0  0  0  0  0  0  # atno 17370 bound_to 10713
  156.7906  130.4889  149.5385 LP  0  0  0  0  0  0  0  0  0  0  0  0  # atno 17371 bound_to 10713
  139.8703  134.9650  156.4513 LP  0  0  0  0  0  0  0  0  0  0  0  0  # atno 17394 bound_to 11000
  140.8864  133.7880  155.9523 LP  0  0  0  0  0  0  0  0  0  0  0  0  # atno 17395 bound_to 11000

$$$$
