AV-unprocessed.smi:703|AV-procd|sdf|3433|dock7
  -GOLD-   22720 0423D 1   1.00000     0.00000
 Structure written by MMmdl.
 38 39  0  0  0  0  0  0  0  0  2 V2000
  146.6579  133.0515  151.9129 C   0  0  0  0  0  0  0  0  0  0  0  0
  146.4326  133.8339  153.2138 C   0  0  0  0  0  0  0  0  0  0  0  0
  147.6362  134.5935  153.6277 N   0  3  2  0  0  0  0  0  0  0  0  0
  148.7705  133.7624  154.0878 C   0  0  0  0  0  0  0  0  0  0  0  0
  149.5551  134.6508  155.0517 C   0  0  2  0  0  0  0  0  0  0  0  0
  150.5490  133.9062  155.9586 C   0  0  0  0  0  0  0  0  0  0  0  0
  148.4531  135.4542  155.7535 C   0  0  2  0  0  0  0  0  0  0  0  0
  147.9056  134.7239  156.9037 N   0  0  0  0  0  0  0  0  0  0  0  0
  148.5098  134.9314  158.5071 S   0  0  0  0  0  0  0  0  0  0  0  0
  148.3351  133.6576  159.2222 O   0  0  0  0  0  0  0  0  0  0  0  0
  149.8443  135.5354  158.3781 O   0  0  0  0  0  0  0  0  0  0  0  0
  147.3730  136.2098  159.2104 C   0  0  0  0  0  0  0  0  0  0  0  0
  147.1561  135.9980  160.6831 C   0  0  0  0  0  0  0  0  0  0  0  0
  146.6691  134.8354  161.3427 C   0  0  0  0  0  0  0  0  0  0  0  0
  146.6643  135.1934  162.6601 C   0  0  0  0  0  0  0  0  0  0  0  0
  147.1015  136.4690  162.8069 O   0  0  0  0  0  0  0  0  0  0  0  0
  147.4052  136.9770  161.5387 N   0  0  0  0  0  0  0  0  0  0  0  0
  147.3777  135.6217  154.6653 C   0  0  0  0  0  0  0  0  0  0  0  0
  145.7398  132.5540  151.5997 H   0  0  0  0  0  0  0  0  0  0  0  0
  147.4215  132.2826  152.0318 H   0  0  0  0  0  0  0  0  0  0  0  0
  146.9679  133.7126  151.1034 H   0  0  0  0  0  0  0  0  0  0  0  0
  145.6130  134.5369  153.0595 H   0  0  0  0  0  0  0  0  0  0  0  0
  146.1230  133.1612  154.0151 H   0  0  0  0  0  0  0  0  0  0  0  0
  148.3967  132.8834  154.6158 H   0  0  0  0  0  0  0  0  0  0  0  0
  149.3792  133.4181  153.2512 H   0  0  0  0  0  0  0  0  0  0  0  0
  150.1298  135.3563  154.4488 H   0  0  0  0  0  0  0  0  0  0  0  0
  150.0598  133.1361  156.5554 H   0  0  0  0  0  0  0  0  0  0  0  0
  151.0462  134.5942  156.6418 H   0  0  0  0  0  0  0  0  0  0  0  0
  151.3211  133.4165  155.3648 H   0  0  0  0  0  0  0  0  0  0  0  0
  148.8248  136.4208  156.0932 H   0  0  0  0  0  0  0  0  0  0  0  0
  146.9740  134.3184  156.8155 H   0  0  0  0  0  0  0  0  0  0  0  0
  147.8230  137.1868  159.0320 H   0  0  0  0  0  0  0  0  0  0  0  0
  146.4339  136.1806  158.6583 H   0  0  0  0  0  0  0  0  0  0  0  0
  146.3703  133.8891  160.9178 H   0  0  0  0  0  0  0  0  0  0  0  0
  146.3880  134.6792  163.5686 H   0  0  0  0  0  0  0  0  0  0  0  0
  147.4643  136.6021  154.1960 H   0  0  0  0  0  0  0  0  0  0  0  0
  146.3672  135.5528  155.0722 H   0  0  0  0  0  0  0  0  0  0  0  0
  147.9615  135.1005  152.8170 H   0  0  0  0  0  0  0  0  0  0  0  0
  1  2  1  0  0  0  0
  1 19  1  0  0  0  0
  1 20  1  0  0  0  0
  1 21  1  0  0  0  0
  2  3  1  0  0  0  0
  2 22  1  0  0  0  0
  2 23  1  0  0  0  0
  3 18  1  0  0  0  0
  3  4  1  0  0  0  0
  3 38  1  0  0  0  0
  4  5  1  0  0  0  0
  4 24  1  0  0  0  0
  4 25  1  0  0  0  0
  5  6  1  0  0  0  0
  5  7  1  0  0  0  0
  5 26  1  0  0  0  0
  6 27  1  0  0  0  0
  6 28  1  0  0  0  0
  6 29  1  0  0  0  0
  7  8  1  0  0  0  0
  7 18  1  0  0  0  0
  7 30  1  0  0  0  0
  8  9  1  0  0  0  0
  8 31  1  0  0  0  0
  9 10  2  0  0  0  0
  9 11  2  0  0  0  0
  9 12  1  0  0  0  0
 12 13  1  0  0  0  0
 12 32  1  0  0  0  0
 12 33  1  0  0  0  0
 13 17  2  0  0  0  0
 13 14  1  0  0  0  0
 14 15  2  0  0  0  0
 14 34  1  0  0  0  0
 15 16  1  0  0  0  0
 15 35  1  0  0  0  0
 16 17  1  0  0  0  0
 18 36  1  0  0  0  0
 18 37  1  0  0  0  0
M  CHG  1   3   1
M  END
> <s_m_source_file>
AV-unprocessed.smi

> <i_m_source_file_index>
703

> <i_lp_mmshare_version>
43012

> <i_f3d_flags>
0

> <s_epik_input>
W0NIM11bQ0gyXU4xW0NIMl1bQ0BASF0oW0NIM10pW0NASF0oW0NIMl0xKVtOSF1TKD1PKSg9TylbQ0gyXWMyW2NIXVtjSF1vbjI=

> <s_epik_cmdline>
J2VwaWtfcHl0aG9uJywgJy1waCcsICc3LjAnLCAnLXRuJywgJzgnLCAnLW1hJywgJzIwMCcsICctbWV0YWxfYmluZGluZycsICctaW1hZScsICc8aW5maWxlLm1hZT4nLCAnLW9tYWUnLCAnPG91dGZpbGUubWFlPic=

> <r_epik_Ionization_Penalty>
0.00324529

> <r_epik_Ionization_Penalty_Charging>
0.0019384

> <r_epik_Ionization_Penalty_Neutral>
0.00130689

> <r_epik_State_Penalty>
0.00218682

> <r_epik_Charging_Adjusted_Penalty>
0.00412522

> <i_epik_Tot_Q>
1

> <i_epik_Tot_abs_Q>
1

> <r_epik_Metal_State_Penalty>
0.310831

> <b_epik_Metal_Only>
0

> <s_lp_Force_Field>
OPLS_2005

> <r_lp_Energy>
18.8873

> <b_lp_Chiralities_Consistent>
1

> <s_lp_Variant>
AV-unprocessed.smi:703-8

> <Gold.Version>
5.8.1

> <Gold.Id.Protein>
6NUR|6NUR_protein|mol2

> <Gold.PLP.Fitness>
38.7124

> <Gold.PLP.PLP>
-26.7229

> <Gold.PLP.part.hbond>
-5.0000

> <Gold.PLP.part.metal>
0.0000

> <Gold.PLP.part.buried>
-2.9572

> <Gold.PLP.part.nonpolar>
-18.4736

> <Gold.PLP.part.repulsive>
0.0178

> <Gold.PLP.ligand.clash>
0.0000

> <Gold.PLP.ligand.torsion>
1.4700

> <Gold.PLP.Chemscore.Hbond>
4.6000

> <Gold.PLP.Chemscore.CHOScore>
0.0000

> <Gold.PLP.Chemscore.Metal>
0.0000

> <Gold.Chemscore.Hbonds>
donor molecule, donor type, donor heavy atom, donor atom, acceptor molecule, acceptor atom, score
      L1  H     3    38       P1  7948  2.00
      P1  H  6896  6909       L1    11  0.72
      P1  H  6931  6943       L1    17  0.83
      P1  H  6934  6947       L1    17  0.67

> <Gold.PLP.Chemscore.Internal.Correction>
1.1295

> <Gold.Rescore>
     Score         DG    S(hbond)    S(metal)    S(lipo)     H(rot)  DE(clash)    DE(int)     intcor
     15.31     -17.81       3.22        0.00      50.13       1.68       0.00       2.50       ----

> <Gold.Chemscore.Fitness>
15.3065

> <Gold.Chemscore.DG>
-17.8087

> <Gold.Chemscore.ZeroCoef>
-5.4800

> <Gold.Chemscore.Hbond>
3.2207

> <Gold.Chemscore.Metal>
0.0000

> <Gold.Chemscore.Lipo>
50.1255

> <Gold.Chemscore.Internal_Hbond>
0.0000

> <Gold.Chemscore.DEClash>
0.0000

> <Gold.Chemscore.DEInternal>
2.5022

> <Gold.Chemscore.Rot>
1.6770

> <Gold.Chemscore.Internal.Correction>
   9.000000E+99

> <Gold.Chemscore.Hbonds>
donor molecule, donor type, donor heavy atom, donor atom, acceptor molecule, acceptor atom, score
      L1  H     3    38       P1  7948  0.97
      P1  H  6896  6909       L1    11  0.54
      P1  H  6931  6943       L1    17  0.31
      P1  H  6934  6947       L1    17  0.64

> <Gold.Chemscore.Hbond.Weighted>
-10.7573

> <Gold.Chemscore.Metal.Weighted>
-0.0000

> <Gold.Chemscore.Lipo.Weighted>
-5.8647

> <Gold.Chemscore.Internal_Hbond.Weighted>
0.0000

> <Gold.Chemscore.DEClash.Weighted>
0.0000

> <Gold.Chemscore.DEInternal.Weighted>
2.5022

> <Gold.Chemscore.Rot.Weighted>
4.2932

> <Gold.Chemscore.Internal.Correction.Weighted>
   9.000000E+99

> <Gold.Protein.RotatedTorsions>
[ 6907 6896 6895 6894 ] final   79.93 input  -60.11 | X-H torsion
[ 7974 7965 7964 7962 ] final   39.40 input  175.53 | X-H torsion
[ 8008 7997 7996 7995 ] final  175.65 input   59.86 | X-H torsion
[ 10167 10162 10161 10158 ] final   -4.49 input  -65.29 | X-H torsion
[ 10718 10713 10712 10709 ] final  140.06 input   66.30 | X-H torsion
[ 10763 10752 10751 10750 ] final  112.72 input  -60.55 | X-H torsion
[ 11005 11000 10999 10996 ] final  -15.89 input  -57.11 | X-H torsion

> <Gold.Protein.ActiveResidues>
 VAL166  LYS551  ARG553  GLY616  TRP617  ASP618  TYR619  PRO620  LYS621  CYS622 
 ASP623  PHE694  ASN695  SER759  ASP760  ASP761  ALA762  ILE779  LEU786  VAL792 
 PHE793  MET794  SER795  GLU796  ALA797  LYS798  CYS799  TRP800  GLU811  SER814 

> <Gold.Protein.RotatedAtoms>
  152.5216  134.3436  159.9225 H   0  0  0  0  0  0  0  0  0  0  0  0  # atno 6907 bound_to 6896
  151.3386  133.3965  159.2677 H   0  0  0  0  0  0  0  0  0  0  0  0  # atno 6908 bound_to 6896
  150.9822  134.9192  159.7908 H   0  0  0  0  0  0  0  0  0  0  0  0  # atno 6909 bound_to 6896
  146.0987  139.5656  142.9428 H   0  0  0  0  0  0  0  0  0  0  0  0  # atno 7974 bound_to 7965
  156.0848  140.1403  156.9667 H   0  0  0  0  0  0  0  0  0  0  0  0  # atno 8008 bound_to 7997
  154.4606  140.0944  156.6931 H   0  0  0  0  0  0  0  0  0  0  0  0  # atno 8009 bound_to 7997
  155.5017  140.3451  155.4374 H   0  0  0  0  0  0  0  0  0  0  0  0  # atno 8010 bound_to 7997
  140.6929  143.6417  150.8429 H   0  0  0  0  0  0  0  0  0  0  0  0  # atno 10167 bound_to 10162
  157.4075  131.1024  151.0489 H   0  0  0  0  0  0  0  0  0  0  0  0  # atno 10718 bound_to 10713
  153.4820  135.3677  155.2447 H   0  0  0  0  0  0  0  0  0  0  0  0  # atno 10763 bound_to 10752
  154.8755  135.3956  154.3689 H   0  0  0  0  0  0  0  0  0  0  0  0  # atno 10764 bound_to 10752
  153.4294  135.7082  153.6306 H   0  0  0  0  0  0  0  0  0  0  0  0  # atno 10765 bound_to 10752
  140.8012  133.8212  155.9472 H   0  0  0  0  0  0  0  0  0  0  0  0  # atno 11005 bound_to 11000
  145.5898  141.0371  143.2076 LP  0  0  0  0  0  0  0  0  0  0  0  0  # atno 17320 bound_to 7965
  144.7415  139.7435  143.7309 LP  0  0  0  0  0  0  0  0  0  0  0  0  # atno 17321 bound_to 7965
  140.0132  143.5620  152.2830 LP  0  0  0  0  0  0  0  0  0  0  0  0  # atno 17342 bound_to 10162
  139.6352  144.7649  151.2453 LP  0  0  0  0  0  0  0  0  0  0  0  0  # atno 17343 bound_to 10162
  157.1465  130.6166  149.5570 LP  0  0  0  0  0  0  0  0  0  0  0  0  # atno 17370 bound_to 10713
  155.9841  130.4863  150.6964 LP  0  0  0  0  0  0  0  0  0  0  0  0  # atno 17371 bound_to 10713
  140.9292  134.2043  157.4875 LP  0  0  0  0  0  0  0  0  0  0  0  0  # atno 17394 bound_to 11000
  139.8721  134.9825  156.5161 LP  0  0  0  0  0  0  0  0  0  0  0  0  # atno 17395 bound_to 11000

$$$$
