AV-unprocessed.smi:3126|AV-procd|sdf|11910|dock6
  -GOLD-   2272017293D 1   1.00000     0.00000
 Structure written by MMmdl.
 42 43  0  0  0  0  0  0  0  0  2 V2000
  143.9559  144.4315  156.4853 C   0  0  0  0  0  0  0  0  0  0  0  0
  144.3719  143.7084  155.1968 C   0  0  0  0  0  0  0  0  0  0  0  0
  145.7863  143.0956  155.2467 C   0  0  2  0  0  0  0  0  0  0  0  0
  146.2402  142.5490  153.8762 C   0  0  0  0  0  0  0  0  0  0  0  0
  147.6376  141.9151  153.9500 C   0  0  0  0  0  0  0  0  0  0  0  0
  147.6939  140.8087  155.0145 C   0  0  0  0  0  0  0  0  0  0  0  0
  147.2492  141.3181  156.4021 C   0  0  1  0  0  0  0  0  0  0  0  0
  148.2298  142.2530  157.0023 N   0  3  0  0  0  0  0  0  0  0  0  0
  149.5154  141.6491  157.4094 C   0  0  0  0  0  0  0  0  0  0  0  0
  150.6938  142.5485  157.0150 C   0  0  0  0  0  0  0  0  0  0  0  0
  151.2107  143.3533  158.1909 C   0  0  0  0  0  0  0  0  0  0  0  0
  151.8086  142.7170  159.2986 C   0  0  0  0  0  0  0  0  0  0  0  0
  152.2639  143.5081  160.3707 C   0  0  0  0  0  0  0  0  0  0  0  0
  152.1023  144.9058  160.2895 C   0  0  0  0  0  0  0  0  0  0  0  0
  151.5316  145.5254  159.2340 N   0  0  0  0  0  0  0  0  0  0  0  0
  151.0985  144.7600  158.2098 C   0  0  0  0  0  0  0  0  0  0  0  0
  145.8596  141.9802  156.3133 C   0  0  0  0  0  0  0  0  0  0  0  0
  142.9235  144.7750  156.4163 H   0  0  0  0  0  0  0  0  0  0  0  0
  144.5761  145.3067  156.6768 H   0  0  0  0  0  0  0  0  0  0  0  0
  144.0268  143.7707  157.3495 H   0  0  0  0  0  0  0  0  0  0  0  0
  143.6470  142.9154  155.0093 H   0  0  0  0  0  0  0  0  0  0  0  0
  144.2921  144.3933  154.3519 H   0  0  0  0  0  0  0  0  0  0  0  0
  146.4777  143.8862  155.5420 H   0  0  0  0  0  0  0  0  0  0  0  0
  145.5237  141.8079  153.5193 H   0  0  0  0  0  0  0  0  0  0  0  0
  146.2545  143.3454  153.1326 H   0  0  0  0  0  0  0  0  0  0  0  0
  147.9071  141.5042  152.9765 H   0  0  0  0  0  0  0  0  0  0  0  0
  148.3785  142.6837  154.1734 H   0  0  0  0  0  0  0  0  0  0  0  0
  147.0316  139.9973  154.7094 H   0  0  0  0  0  0  0  0  0  0  0  0
  148.6918  140.3727  155.0518 H   0  0  0  0  0  0  0  0  0  0  0  0
  147.1621  140.4645  157.0759 H   0  0  0  0  0  0  0  0  0  0  0  0
  148.4050  143.0038  156.3498 H   0  0  0  0  0  0  0  0  0  0  0  0
  149.5144  141.4937  158.4892 H   0  0  0  0  0  0  0  0  0  0  0  0
  149.6308  140.6714  156.9419 H   0  0  0  0  0  0  0  0  0  0  0  0
  151.5084  141.9455  156.6111 H   0  0  0  0  0  0  0  0  0  0  0  0
  150.3945  143.2344  156.2210 H   0  0  0  0  0  0  0  0  0  0  0  0
  151.9141  141.6425  159.3295 H   0  0  0  0  0  0  0  0  0  0  0  0
  152.7254  143.0556  161.2359 H   0  0  0  0  0  0  0  0  0  0  0  0
  152.4391  145.5421  161.0944 H   0  0  0  0  0  0  0  0  0  0  0  0
  150.6441  145.2857  157.3829 H   0  0  0  0  0  0  0  0  0  0  0  0
  145.5777  142.3752  157.2904 H   0  0  0  0  0  0  0  0  0  0  0  0
  145.1198  141.2140  156.0764 H   0  0  0  0  0  0  0  0  0  0  0  0
  147.8075  142.6440  157.8323 H   0  0  0  0  0  0  0  0  0  0  0  0
  1  2  1  0  0  0  0
  1 18  1  0  0  0  0
  1 19  1  0  0  0  0
  1 20  1  0  0  0  0
  2  3  1  0  0  0  0
  2 21  1  0  0  0  0
  2 22  1  0  0  0  0
  3 17  1  0  0  0  0
  3  4  1  0  0  0  0
  3 23  1  0  0  0  0
  4  5  1  0  0  0  0
  4 24  1  0  0  0  0
  4 25  1  0  0  0  0
  5  6  1  0  0  0  0
  5 26  1  0  0  0  0
  5 27  1  0  0  0  0
  6  7  1  0  0  0  0
  6 28  1  0  0  0  0
  6 29  1  0  0  0  0
  7  8  1  0  0  0  0
  7 17  1  0  0  0  0
  7 30  1  0  0  0  0
  8  9  1  0  0  0  0
  8 31  1  0  0  0  0
  8 42  1  0  0  0  0
  9 10  1  0  0  0  0
  9 32  1  0  0  0  0
  9 33  1  0  0  0  0
 10 11  1  0  0  0  0
 10 34  1  0  0  0  0
 10 35  1  0  0  0  0
 11 16  1  0  0  0  0
 11 12  2  0  0  0  0
 12 13  1  0  0  0  0
 12 36  1  0  0  0  0
 13 14  2  0  0  0  0
 13 37  1  0  0  0  0
 14 15  1  0  0  0  0
 14 38  1  0  0  0  0
 15 16  2  0  0  0  0
 16 39  1  0  0  0  0
 17 40  1  0  0  0  0
 17 41  1  0  0  0  0
M  CHG  1   8   1
M  END
> <s_m_source_file>
AV-unprocessed.smi

> <i_m_source_file_index>
3126

> <i_lp_mmshare_version>
43012

> <i_f3d_flags>
0

> <s_epik_input>
W0NIM11bQ0gyXVtDQEBIXTFbQ0gyXVtDSDJdW0NIMl1bQ0BIXShbQ0gyXTEpW05IXVtDSDJdW0NIMl1jMltjSF1bY0hdW2NIXW5bY0hdMg==

> <s_epik_cmdline>
J2VwaWtfcHl0aG9uJywgJy1waCcsICc3LjAnLCAnLXRuJywgJzgnLCAnLW1hJywgJzIwMCcsICctbWV0YWxfYmluZGluZycsICctaW1hZScsICc8aW5maWxlLm1hZT4nLCAnLW9tYWUnLCAnPG91dGZpbGUubWFlPic=

> <r_lp_tautomer_probability>
1

> <r_epik_Ionization_Penalty>
0.000947364

> <r_epik_Ionization_Penalty_Charging>
0.000286103

> <r_epik_Ionization_Penalty_Neutral>
0.000661261

> <r_epik_State_Penalty>
-0

> <r_epik_Charging_Adjusted_Penalty>
0.000286103

> <i_epik_Tot_Q>
1

> <i_epik_Tot_abs_Q>
1

> <r_epik_Metal_State_Penalty>
-0

> <b_epik_Metal_Only>
0

> <s_lp_Force_Field>
OPLS_2005

> <r_lp_Energy>
17.7549

> <b_lp_Chiralities_Consistent>
1

> <s_lp_Variant>
AV-unprocessed.smi:3126-1

> <Gold.Version>
5.8.1

> <Gold.Id.Protein>
6NUR|6NUR_protein|mol2

> <Gold.PLP.Fitness>
44.4106

> <Gold.PLP.PLP>
-36.7893

> <Gold.PLP.part.hbond>
-1.6270

> <Gold.PLP.part.metal>
0.0000

> <Gold.PLP.part.buried>
-6.6877

> <Gold.PLP.part.nonpolar>
-29.0022

> <Gold.PLP.part.repulsive>
0.1362

> <Gold.PLP.ligand.clash>
0.0000

> <Gold.PLP.ligand.torsion>
0.6985

> <Gold.PLP.Chemscore.Hbond>
2.0000

> <Gold.PLP.Chemscore.CHOScore>
1.0000

> <Gold.PLP.Chemscore.Metal>
0.0000

> <Gold.Chemscore.Hbonds>
donor molecule, donor type, donor heavy atom, donor atom, acceptor molecule, acceptor atom, score
      L1  H     8    31       P1  8028  2.00
      L1  C    16    39       P1  8028  0.79
      L1  C    16    39       P1  8029  0.02

> <Gold.PLP.Chemscore.Internal.Correction>
0.0183

> <Gold.Rescore>
     Score         DG    S(hbond)    S(metal)    S(lipo)     H(rot)  DE(clash)    DE(int)     intcor
     16.42     -17.50       0.90        0.00     106.54       1.35       0.08       1.00       ----

> <Gold.Chemscore.Fitness>
16.4155

> <Gold.Chemscore.DG>
-17.5005

> <Gold.Chemscore.ZeroCoef>
-5.4800

> <Gold.Chemscore.Hbond>
0.9021

> <Gold.Chemscore.Metal>
0.0000

> <Gold.Chemscore.Lipo>
106.5415

> <Gold.Chemscore.Internal_Hbond>
0.0000

> <Gold.Chemscore.DEClash>
0.0826

> <Gold.Chemscore.DEInternal>
1.0024

> <Gold.Chemscore.Rot>
1.3507

> <Gold.Chemscore.Internal.Correction>
   9.000000E+99

> <Gold.Chemscore.Hbonds>
donor molecule, donor type, donor heavy atom, donor atom, acceptor molecule, acceptor atom, score
      L1  H     8    31       P1  8028  0.82

> <Gold.Chemscore.Hbond.Weighted>
-3.0131

> <Gold.Chemscore.Metal.Weighted>
-0.0000

> <Gold.Chemscore.Lipo.Weighted>
-12.4654

> <Gold.Chemscore.Internal_Hbond.Weighted>
0.0000

> <Gold.Chemscore.DEClash.Weighted>
0.0826

> <Gold.Chemscore.DEInternal.Weighted>
1.0024

> <Gold.Chemscore.Rot.Weighted>
3.4579

> <Gold.Chemscore.Internal.Correction.Weighted>
   9.000000E+99

> <Gold.Protein.RotatedTorsions>
[ 6907 6896 6895 6894 ] final   56.01 input  -60.11 | X-H torsion
[ 7974 7965 7964 7962 ] final   11.10 input  175.53 | X-H torsion
[ 8008 7997 7996 7995 ] final   -3.99 input   59.86 | X-H torsion
[ 10167 10162 10161 10158 ] final -178.64 input  -65.29 | X-H torsion
[ 10718 10713 10712 10709 ] final -178.87 input   66.30 | X-H torsion
[ 10763 10752 10751 10750 ] final   72.04 input  -60.55 | X-H torsion
[ 11005 11000 10999 10996 ] final   54.62 input  -57.11 | X-H torsion

> <Gold.Protein.ActiveResidues>
 VAL166  LYS551  ARG553  GLY616  TRP617  ASP618  TYR619  PRO620  LYS621  CYS622 
 ASP623  PHE694  ASN695  SER759  ASP760  ASP761  ALA762  ILE779  LEU786  VAL792 
 PHE793  MET794  SER795  GLU796  ALA797  LYS798  CYS799  TRP800  GLU811  SER814 

> <Gold.Protein.RotatedAtoms>
  152.3594  134.6893  160.0211 H   0  0  0  0  0  0  0  0  0  0  0  0  # atno 6907 bound_to 6896
  151.7222  133.3309  159.3326 H   0  0  0  0  0  0  0  0  0  0  0  0  # atno 6908 bound_to 6896
  150.7594  134.6372  159.6262 H   0  0  0  0  0  0  0  0  0  0  0  0  # atno 6909 bound_to 6896
  146.2377  139.9536  142.8467 H   0  0  0  0  0  0  0  0  0  0  0  0  # atno 7974 bound_to 7965
  154.6191  140.2495  155.7572 H   0  0  0  0  0  0  0  0  0  0  0  0  # atno 8008 bound_to 7997
  156.2416  140.2930  156.0409 H   0  0  0  0  0  0  0  0  0  0  0  0  # atno 8009 bound_to 7997
  155.1927  140.0392  157.2893 H   0  0  0  0  0  0  0  0  0  0  0  0  # atno 8010 bound_to 7997
  139.5423  144.2329  152.0920 H   0  0  0  0  0  0  0  0  0  0  0  0  # atno 10167 bound_to 10162
  156.8507  130.9718  151.3092 H   0  0  0  0  0  0  0  0  0  0  0  0  # atno 10718 bound_to 10713
  153.0435  135.5114  154.7684 H   0  0  0  0  0  0  0  0  0  0  0  0  # atno 10763 bound_to 10752
  154.6603  135.2937  154.9877 H   0  0  0  0  0  0  0  0  0  0  0  0  # atno 10764 bound_to 10752
  154.0731  135.6675  153.4879 H   0  0  0  0  0  0  0  0  0  0  0  0  # atno 10765 bound_to 10752
  140.0672  134.5520  155.9086 H   0  0  0  0  0  0  0  0  0  0  0  0  # atno 11005 bound_to 11000
  145.1838  140.9779  143.4251 LP  0  0  0  0  0  0  0  0  0  0  0  0  # atno 17320 bound_to 7965
  144.9918  139.3682  143.6211 LP  0  0  0  0  0  0  0  0  0  0  0  0  # atno 17321 bound_to 7965
  140.1810  144.4844  150.6528 LP  0  0  0  0  0  0  0  0  0  0  0  0  # atno 17342 bound_to 10162
  140.6658  143.2267  151.5746 LP  0  0  0  0  0  0  0  0  0  0  0  0  # atno 17343 bound_to 10162
  157.6305  130.8725  149.9265 LP  0  0  0  0  0  0  0  0  0  0  0  0  # atno 17370 bound_to 10713
  156.0830  130.3671  150.0543 LP  0  0  0  0  0  0  0  0  0  0  0  0  # atno 17371 bound_to 10713
  141.1997  133.6608  156.5860 LP  0  0  0  0  0  0  0  0  0  0  0  0  # atno 17394 bound_to 11000
  140.3681  134.7629  157.4580 LP  0  0  0  0  0  0  0  0  0  0  0  0  # atno 17395 bound_to 11000

$$$$
