AV-unprocessed.smi:2879|AV-procd|sdf|11050|dock1
  -GOLD-   2272015513D 1   1.00000     0.00000
 Structure written by MMmdl.
 44 45  0  0  0  0  0  0  0  0  1 V2000
  150.6921  140.7016  155.7042 C   0  0  0  0  0  0  0  0  0  0  0  0
  149.7546  140.0232  154.7492 C   0  0  0  0  0  0  0  0  0  0  0  0
  148.4711  140.4639  154.3121 C   0  0  0  0  0  0  0  0  0  0  0  0
  148.0501  139.4853  153.4557 C   0  0  0  0  0  0  0  0  0  0  0  0
  146.7922  139.3468  152.6571 C   0  0  0  0  0  0  0  0  0  0  0  0
  146.0634  138.0336  152.9575 C   0  0  0  0  0  0  0  0  0  0  0  0
  146.4934  137.2648  153.8183 O   0  0  0  0  0  0  0  0  0  0  0  0
  144.9523  137.7948  152.2430 N   0  0  0  0  0  0  0  0  0  0  0  0
  144.1092  136.6073  152.3494 C   0  0  0  0  0  0  0  0  0  0  0  0
  144.5563  135.4772  151.3980 C   0  0  0  0  0  0  0  0  0  0  0  0
  143.5858  134.2770  151.3918 C   0  0  0  0  0  0  0  0  0  0  0  0
  144.0712  133.1466  150.4666 C   0  0  0  0  0  0  0  0  0  0  0  0
  145.5038  132.6577  150.7880 C   0  0  0  0  0  0  0  0  0  0  0  0
  145.5376  131.8906  152.1281 C   0  0  0  0  0  0  0  0  0  0  0  0
  145.9632  131.6915  149.6789 C   0  0  0  0  0  0  0  0  0  0  0  0
  146.4588  133.8751  150.8213 C   0  0  0  0  0  0  0  0  0  0  0  0
  145.9779  135.0018  151.7531 C   0  0  0  0  0  0  0  0  0  0  0  0
  149.0598  138.5493  153.4195 N   0  0  0  0  0  0  0  0  0  0  0  0
  150.1041  138.8661  154.2071 N   0  0  0  0  0  0  0  0  0  0  0  0
  149.0473  137.6991  152.8744 H   0  0  0  0  0  0  0  0  0  0  0  0
  150.3022  141.6701  156.0178 H   0  0  0  0  0  0  0  0  0  0  0  0
  151.6670  140.8694  155.2460 H   0  0  0  0  0  0  0  0  0  0  0  0
  150.8432  140.0985  156.5999 H   0  0  0  0  0  0  0  0  0  0  0  0
  147.9399  141.3634  154.5870 H   0  0  0  0  0  0  0  0  0  0  0  0
  147.0250  139.4131  151.5932 H   0  0  0  0  0  0  0  0  0  0  0  0
  146.1177  140.1740  152.8800 H   0  0  0  0  0  0  0  0  0  0  0  0
  144.6716  138.4876  151.5641 H   0  0  0  0  0  0  0  0  0  0  0  0
  144.1748  136.2618  153.3816 H   0  0  0  0  0  0  0  0  0  0  0  0
  143.0592  136.8540  152.1820 H   0  0  0  0  0  0  0  0  0  0  0  0
  144.5891  135.8864  150.3869 H   0  0  0  0  0  0  0  0  0  0  0  0
  143.4540  133.9002  152.4064 H   0  0  0  0  0  0  0  0  0  0  0  0
  142.5978  134.5937  151.0586 H   0  0  0  0  0  0  0  0  0  0  0  0
  143.3706  132.3119  150.5117 H   0  0  0  0  0  0  0  0  0  0  0  0
  144.0357  133.5092  149.4383 H   0  0  0  0  0  0  0  0  0  0  0  0
  146.5431  131.5326  152.3520 H   0  0  0  0  0  0  0  0  0  0  0  0
  144.8811  131.0200  152.1002 H   0  0  0  0  0  0  0  0  0  0  0  0
  145.2202  132.5043  152.9699 H   0  0  0  0  0  0  0  0  0  0  0  0
  146.9746  131.3277  149.8632 H   0  0  0  0  0  0  0  0  0  0  0  0
  145.9632  132.1746  148.7011 H   0  0  0  0  0  0  0  0  0  0  0  0
  145.3082  130.8220  149.6133 H   0  0  0  0  0  0  0  0  0  0  0  0
  147.4605  133.5596  151.1162 H   0  0  0  0  0  0  0  0  0  0  0  0
  146.5593  134.2834  149.8144 H   0  0  0  0  0  0  0  0  0  0  0  0
  146.6725  135.8398  151.6854 H   0  0  0  0  0  0  0  0  0  0  0  0
  146.0108  134.6686  152.7906 H   0  0  0  0  0  0  0  0  0  0  0  0
  1 21  1  0  0  0  0
  1 22  1  0  0  0  0
  1 23  1  0  0  0  0
  1  2  1  0  0  0  0
  2 19  2  0  0  0  0
  2  3  1  0  0  0  0
  3  4  2  0  0  0  0
  3 24  1  0  0  0  0
  4 18  1  0  0  0  0
  4  5  1  0  0  0  0
  5  6  1  0  0  0  0
  5 25  1  0  0  0  0
  5 26  1  0  0  0  0
  6  7  2  0  0  0  0
  6  8  1  0  0  0  0
  8  9  1  0  0  0  0
  8 27  1  0  0  0  0
  9 10  1  0  0  0  0
  9 28  1  0  0  0  0
  9 29  1  0  0  0  0
 10 17  1  0  0  0  0
 10 11  1  0  0  0  0
 10 30  1  0  0  0  0
 11 12  1  0  0  0  0
 11 31  1  0  0  0  0
 11 32  1  0  0  0  0
 12 13  1  0  0  0  0
 12 33  1  0  0  0  0
 12 34  1  0  0  0  0
 13 14  1  0  0  0  0
 13 15  1  0  0  0  0
 13 16  1  0  0  0  0
 14 35  1  0  0  0  0
 14 36  1  0  0  0  0
 14 37  1  0  0  0  0
 15 38  1  0  0  0  0
 15 39  1  0  0  0  0
 15 40  1  0  0  0  0
 16 17  1  0  0  0  0
 16 41  1  0  0  0  0
 16 42  1  0  0  0  0
 17 43  1  0  0  0  0
 17 44  1  0  0  0  0
 18 19  1  0  0  0  0
 18 20  1  0  0  0  0
M  END
> <s_m_source_file>
AV-unprocessed.smi

> <i_m_source_file_index>
2879

> <i_lp_mmshare_version>
43012

> <i_f3d_flags>
0

> <s_epik_input>
W0NIM11jMVtjSF1jKG5bbkhdMSlbQ0gyXUMoPU8pW05IXVtDSDJdW0NIXShbQ0gyXVtDSDJdMilbQ0gyXVtDSDJdQzIoW0NIM10pW0NIM10=

> <s_epik_cmdline>
J2VwaWtfcHl0aG9uJywgJy1waCcsICc3LjAnLCAnLXRuJywgJzgnLCAnLW1hJywgJzIwMCcsICctbWV0YWxfYmluZGluZycsICctaW1hZScsICc8aW5maWxlLm1hZT4nLCAnLW9tYWUnLCAnPG91dGZpbGUubWFlPic=

> <r_lp_tautomer_probability>
0.5

> <r_epik_Ionization_Penalty>
0.000119486

> <r_epik_Ionization_Penalty_Charging>
0

> <r_epik_Ionization_Penalty_Neutral>
0.000119486

> <r_epik_State_Penalty>
0.41068

> <r_epik_Charging_Adjusted_Penalty>
0.41068

> <i_epik_Tot_Q>
0

> <i_epik_Tot_abs_Q>
0

> <r_epik_Metal_State_Penalty>
0.41066

> <b_epik_Metal_Only>
0

> <s_lp_Force_Field>
OPLS_2005

> <r_lp_Energy>
12.3825

> <b_lp_Chiralities_Consistent>
1

> <s_lp_Variant>
AV-unprocessed.smi:2879-2

> <Gold.Version>
5.8.1

> <Gold.Id.Protein>
6NUR|6NUR_protein|mol2

> <Gold.PLP.Fitness>
42.4353

> <Gold.PLP.PLP>
-37.4063

> <Gold.PLP.part.hbond>
-4.0000

> <Gold.PLP.part.metal>
0.0000

> <Gold.PLP.part.buried>
-0.5496

> <Gold.PLP.part.nonpolar>
-32.2390

> <Gold.PLP.part.repulsive>
0.4138

> <Gold.PLP.ligand.clash>
0.0000

> <Gold.PLP.ligand.torsion>
0.2219

> <Gold.PLP.Chemscore.Hbond>
1.8160

> <Gold.PLP.Chemscore.CHOScore>
0.0000

> <Gold.PLP.Chemscore.Metal>
0.0000

> <Gold.Chemscore.Hbonds>
donor molecule, donor type, donor heavy atom, donor atom, acceptor molecule, acceptor atom, score
      L1  H     8    27       P1 10171  0.82
      L1  H    18    20       P1  7948  1.00

> <Gold.PLP.Chemscore.Internal.Correction>
0.0249

> <Gold.Rescore>
     Score         DG    S(hbond)    S(metal)    S(lipo)     H(rot)  DE(clash)    DE(int)     intcor
     18.65     -19.16       1.94        0.00      95.37       1.55       0.27       0.25       ----

> <Gold.Chemscore.Fitness>
18.6510

> <Gold.Chemscore.DG>
-19.1646

> <Gold.Chemscore.ZeroCoef>
-5.4800

> <Gold.Chemscore.Hbond>
1.9436

> <Gold.Chemscore.Metal>
0.0000

> <Gold.Chemscore.Lipo>
95.3695

> <Gold.Chemscore.Internal_Hbond>
0.0000

> <Gold.Chemscore.DEClash>
0.2661

> <Gold.Chemscore.DEInternal>
0.2475

> <Gold.Chemscore.Rot>
1.5489

> <Gold.Chemscore.Internal.Correction>
   9.000000E+99

> <Gold.Chemscore.Hbonds>
donor molecule, donor type, donor heavy atom, donor atom, acceptor molecule, acceptor atom, score
      L1  H     8    27       P1 10171  0.81
      L1  H    18    20       P1  7948  1.00

> <Gold.Chemscore.Hbond.Weighted>
-6.4916

> <Gold.Chemscore.Metal.Weighted>
-0.0000

> <Gold.Chemscore.Lipo.Weighted>
-11.1582

> <Gold.Chemscore.Internal_Hbond.Weighted>
0.0000

> <Gold.Chemscore.DEClash.Weighted>
0.2661

> <Gold.Chemscore.DEInternal.Weighted>
0.2475

> <Gold.Chemscore.Rot.Weighted>
3.9652

> <Gold.Chemscore.Internal.Correction.Weighted>
   9.000000E+99

> <Gold.Protein.RotatedTorsions>
[ 6907 6896 6895 6894 ] final  -47.34 input  -60.11 | X-H torsion
[ 7974 7965 7964 7962 ] final  101.99 input  175.53 | X-H torsion
[ 8008 7997 7996 7995 ] final  139.49 input   59.86 | X-H torsion
[ 10167 10162 10161 10158 ] final -134.43 input  -65.29 | X-H torsion
[ 10718 10713 10712 10709 ] final   24.76 input   66.30 | X-H torsion
[ 10763 10752 10751 10750 ] final  -73.65 input  -60.55 | X-H torsion
[ 11005 11000 10999 10996 ] final -102.16 input  -57.11 | X-H torsion

> <Gold.Protein.ActiveResidues>
 VAL166  LYS551  ARG553  GLY616  TRP617  ASP618  TYR619  PRO620  LYS621  CYS622 
 ASP623  PHE694  ASN695  SER759  ASP760  ASP761  ALA762  ILE779  LEU786  VAL792 
 PHE793  MET794  SER795  GLU796  ALA797  LYS798  CYS799  TRP800  GLU811  SER814 

> <Gold.Protein.RotatedAtoms>
  150.9018  134.8430  159.7364 H   0  0  0  0  0  0  0  0  0  0  0  0  # atno 6907 bound_to 6896
  152.4896  134.4492  159.9578 H   0  0  0  0  0  0  0  0  0  0  0  0  # atno 6908 bound_to 6896
  151.4543  133.3570  159.2835 H   0  0  0  0  0  0  0  0  0  0  0  0  # atno 6909 bound_to 6896
  145.3650  139.2410  143.3486 H   0  0  0  0  0  0  0  0  0  0  0  0  # atno 7974 bound_to 7965
  156.2989  140.2366  156.4246 H   0  0  0  0  0  0  0  0  0  0  0  0  # atno 8008 bound_to 7997
  154.8325  140.0432  157.1506 H   0  0  0  0  0  0  0  0  0  0  0  0  # atno 8009 bound_to 7997
  154.9192  140.3001  155.5228 H   0  0  0  0  0  0  0  0  0  0  0  0  # atno 8010 bound_to 7997
  139.8881  143.6756  152.2617 H   0  0  0  0  0  0  0  0  0  0  0  0  # atno 10167 bound_to 10162
  157.1841  130.6816  149.6124 H   0  0  0  0  0  0  0  0  0  0  0  0  # atno 10718 bound_to 10713
  154.4624  135.5890  153.6265 H   0  0  0  0  0  0  0  0  0  0  0  0  # atno 10763 bound_to 10752
  152.9825  135.6047  154.3469 H   0  0  0  0  0  0  0  0  0  0  0  0  # atno 10764 bound_to 10752
  154.3342  135.2842  155.2435 H   0  0  0  0  0  0  0  0  0  0  0  0  # atno 10765 bound_to 10752
  141.1201  133.8536  157.1325 H   0  0  0  0  0  0  0  0  0  0  0  0  # atno 11005 bound_to 11000
  146.2911  140.4290  142.8739 LP  0  0  0  0  0  0  0  0  0  0  0  0  # atno 17320 bound_to 7965
  144.8618  140.7151  143.6102 LP  0  0  0  0  0  0  0  0  0  0  0  0  # atno 17321 bound_to 7965
  139.7135  144.7616  151.1073 LP  0  0  0  0  0  0  0  0  0  0  0  0  # atno 17342 bound_to 10162
  140.7732  143.5300  150.9434 LP  0  0  0  0  0  0  0  0  0  0  0  0  # atno 17343 bound_to 10162
  155.9720  130.4637  150.6190 LP  0  0  0  0  0  0  0  0  0  0  0  0  # atno 17370 bound_to 10713
  157.3924  131.0797  151.1382 LP  0  0  0  0  0  0  0  0  0  0  0  0  # atno 17371 bound_to 10713
  140.0151  134.9971  157.0476 LP  0  0  0  0  0  0  0  0  0  0  0  0  # atno 17394 bound_to 11000
  140.4533  134.1559  155.7183 LP  0  0  0  0  0  0  0  0  0  0  0  0  # atno 17395 bound_to 11000

$$$$
