#       Name:                AV-unprocessed.smi:1099
#       Creating user name   scv26
#       Creation time:       Fri Mar 27 03:29:31 2020


#       File generated by GOLD software.
#

@<TRIPOS>MOLECULE
AV-unprocessed.smi:1099
    44    46     1
SMALL
NO_CHARGES


@<TRIPOS>ATOM
      1 ****        -3.2330   0.6567  -1.3549 C.3            1 S1                 0.0000
      2 ****        -3.1324  -0.2827  -2.5601 C.3            1 S1                 0.0000
      3 ****        -2.0023  -1.2504  -2.4455 C.2            1 S1                 0.0000
      4 ****        -0.7472  -0.9635  -2.8004 N.2            1 S1                 0.0000
      5 ****         0.1277  -2.0371  -2.6033 C.2            1 S1                 0.0000
      6 ****         1.5843  -1.8902  -2.9378 C.3            1 S1                 0.0000
      7 ****         2.4860  -1.6330  -1.7147 C.3            1 S1                 0.0000
      8 ****         2.0452  -0.4942  -0.9113 N.am           1 S1                 0.0000
      9 ****         1.3450  -0.5726   0.2321 C.2            1 S1                 0.0000
     10 ****         0.9875  -1.6419   0.7274 O.2            1 S1                 0.0000
     11 ****         0.9952   0.7647   0.9083 C.3            1 S1                 0.0000
     12 ****        -0.5211   0.9453   1.1643 C.3            1 S1                 0.0000
     13 ****        -0.5961   1.2156   2.6798 C.3            1 S1                 0.0000
     14 ****         0.0056   2.6010   2.9816 C.3            1 S1                 0.0000
     15 ****         1.5147   2.3685   2.7708 C.3            1 S1                 0.0000
     16 ****         1.5705   0.8895   2.3420 C.3            1 S1                 0.0000
     17 ****         0.4783   0.2849   3.2240 C.3            1 S1                 0.0000
     18 ****        -0.4841  -3.1408  -2.0633 C.2            1 S1                 0.0000
     19 ****        -2.1810  -2.8691  -1.7792 S.3            1 S1                 0.0000
     20 ****        -4.0781   1.3370  -1.4616 H              1 S1                 0.0000
     21 ****        -2.3314   1.2609  -1.2579 H              1 S1                 0.0000
     22 ****        -3.3675   0.0979  -0.4282 H              1 S1                 0.0000
     23 ****        -4.0610  -0.8433  -2.6706 H              1 S1                 0.0000
     24 ****        -3.0079   0.2976  -3.4750 H              1 S1                 0.0000
     25 ****         1.9352  -2.7841  -3.4542 H              1 S1                 0.0000
     26 ****         1.7172  -1.0738  -3.6491 H              1 S1                 0.0000
     27 ****         2.5373  -2.5343  -1.1017 H              1 S1                 0.0000
     28 ****         3.5059  -1.4412  -2.0482 H              1 S1                 0.0000
     29 ****         2.2899   0.4243  -1.2520 H              1 S1                 0.0000
     30 ****         1.3682   1.5783   0.2835 H              1 S1                 0.0000
     31 ****        -0.9332   1.7739   0.5882 H              1 S1                 0.0000
     32 ****        -1.0947   0.0529   0.9077 H              1 S1                 0.0000
     33 ****        -1.5909   1.0690   3.1011 H              1 S1                 0.0000
     34 ****        -0.3931   3.3764   2.3262 H              1 S1                 0.0000
     35 ****        -0.1960   2.8973   4.0118 H              1 S1                 0.0000
     36 ****         1.9415   3.0387   2.0236 H              1 S1                 0.0000
     37 ****         2.0588   2.5212   3.7038 H              1 S1                 0.0000
     38 ****         2.5564   0.4398   2.4682 H              1 S1                 0.0000
     39 ****         0.6631   0.4168   4.2916 H              1 S1                 0.0000
     40 ****         0.2752  -0.7688   3.0323 H              1 S1                 0.0000
     41 ****        -0.0368  -4.0876  -1.7994 H              1 S1                 0.0000
     42 ****        -0.4636  -0.0775  -3.1672 LP             1 S1                 0.0000
     43 ****         1.2174  -2.5039   0.2756 LP             1 S1                 0.0000
     44 ****         0.4672  -1.6482   1.5814 LP             1 S1                 0.0000
@<TRIPOS>BOND
    1    1    2 1     
    2    1   20 1     
    3    1   21 1     
    4    1   22 1     
    5    2    3 1     
    6    2   23 1     
    7    2   24 1     
    8    3   19 1     
    9    3    4 2     
   10    4    5 1     
   11    5    6 1     
   12    5   18 2     
   13    6    7 1     
   14    6   25 1     
   15    6   26 1     
   16    7    8 1     
   17    7   27 1     
   18    7   28 1     
   19    8    9 am    
   20    8   29 1     
   21    9   10 2     
   22    9   11 1     
   23   11   16 1     
   24   11   12 1     
   25   11   30 1     
   26   12   13 1     
   27   12   31 1     
   28   12   32 1     
   29   13   17 1     
   30   13   14 1     
   31   13   33 1     
   32   14   15 1     
   33   14   34 1     
   34   14   35 1     
   35   15   16 1     
   36   15   36 1     
   37   15   37 1     
   38   16   17 1     
   39   16   38 1     
   40   17   39 1     
   41   17   40 1     
   42   18   19 1     
   43   18   41 1     
   44    4   42 1     
   45   10   43 1     
   46   10   44 1     
@<TRIPOS>SUBSTRUCTURE
      1 S1             1
@<TRIPOS>SET
LONE_PAIRS      STATIC     ATOMS    <user>   **** ""
3 42 43 44
DONOR_HYDROGENS      STATIC     ATOMS    <user>   **** ""
1 29
ATOM$BLUE        STATIC     ATOMS    COLORGROUP SYSTEM
3 42 43 44
ATOM$RED        STATIC     ATOMS    COLORGROUP SYSTEM
1 29
