#       Name:                AV-unprocessed.smi:1508
#       Creating user name   scv26
#       Creation time:       Fri Mar 27 06:21:18 2020


#       File generated by GOLD software.
#

@<TRIPOS>MOLECULE
AV-unprocessed.smi:1508
    42    43     1
SMALL
NO_CHARGES


@<TRIPOS>ATOM
      1 ****        -0.4674   2.6357  -1.4963 C.3            1 S1                 0.0000
      2 ****        -0.8197   1.6793  -0.3461 C.3            1 S1                 0.0000
      3 ****        -0.3122   0.2230  -0.5299 C.3            1 S1                 0.0000
      4 ****         1.2378   0.1410  -0.5881 C.3            1 S1                 0.0000
      5 ****         1.8789   0.7554   0.5700 N.am           1 S1                 0.0000
      6 ****         1.9273   0.2314   1.8029 C.2            1 S1                 0.0000
      7 ****         1.4186  -0.8704   2.0221 O.2            1 S1                 0.0000
      8 ****         2.5526   1.0197   2.7050 N.pl3          1 S1                -1.0000
      9 ****         2.6501   0.6250   3.9853 C.2            1 S1                 0.0000
     10 ****         3.7497   0.0281   4.4724 N.2            1 S1                 0.0000
     11 ****         3.6433  -0.2974   5.8178 N.2            1 S1                 0.0000
     12 ****         2.4635   0.0726   6.3154 C.2            1 S1                 0.0000
     13 ****         1.3764   0.8535   5.1866 S.3            1 S1                 0.0000
     14 ****        -0.9324  -0.4436  -1.7120 N.4            1 S1                 1.0000
     15 ****        -0.5550  -1.8673  -1.9056 C.3            1 S1                 0.0000
     16 ****        -1.7968  -2.6035  -2.4269 C.3            1 S1                 0.0000
     17 ****        -2.8015  -1.5022  -2.7440 C.3            1 S1                 0.0000
     18 ****        -2.4091  -0.3897  -1.7794 C.3            1 S1                 0.0000
     19 ****        -0.8893   3.6241  -1.3139 H              1 S1                 0.0000
     20 ****        -0.8603   2.2819  -2.4494 H              1 S1                 0.0000
     21 ****         0.6103   2.7590  -1.6003 H              1 S1                 0.0000
     22 ****        -0.4180   2.0907   0.5802 H              1 S1                 0.0000
     23 ****        -1.8992   1.6856  -0.1967 H              1 S1                 0.0000
     24 ****        -0.6438  -0.3375   0.3457 H              1 S1                 0.0000
     25 ****         1.5827  -0.8911  -0.6567 H              1 S1                 0.0000
     26 ****         1.6111   0.6370  -1.4840 H              1 S1                 0.0000
     27 ****         2.3124   1.6568   0.4315 H              1 S1                 0.0000
     28 ****         2.2329  -0.1127   7.3538 H              1 S1                 0.0000
     29 ****         0.2712  -1.9277  -2.6145 H              1 S1                 0.0000
     30 ****        -0.2271  -2.3275  -0.9721 H              1 S1                 0.0000
     31 ****        -1.5803  -3.2297  -3.2927 H              1 S1                 0.0000
     32 ****        -2.1953  -3.2494  -1.6433 H              1 S1                 0.0000
     33 ****        -2.6699  -1.1643  -3.7728 H              1 S1                 0.0000
     34 ****        -3.8365  -1.8238  -2.6235 H              1 S1                 0.0000
     35 ****        -2.8313  -0.5916  -0.7932 H              1 S1                 0.0000
     36 ****        -2.7702   0.5831  -2.1140 H              1 S1                 0.0000
     37 ****        -0.6024   0.0461  -2.5315 H              1 S1                 0.0000
     38 ****         0.9712  -1.3709   1.2809 LP             1 S1                 0.0000
     39 ****         1.4534  -1.2633   2.9410 LP             1 S1                 0.0000
     40 ****         2.9421   1.8955   2.4198 LP             1 S1                 0.0000
     41 ****         4.5626  -0.1626   3.9220 LP             1 S1                 0.0000
     42 ****         4.3605  -0.7516   6.3462 LP             1 S1                 0.0000
@<TRIPOS>BOND
    1    1    2 1     
    2    1   19 1     
    3    1   20 1     
    4    1   21 1     
    5    2    3 1     
    6    2   22 1     
    7    2   23 1     
    8    3    4 1     
    9    3   14 1     
   10    3   24 1     
   11    4    5 1     
   12    4   25 1     
   13    4   26 1     
   14    5    6 am    
   15    5   27 1     
   16    6    7 2     
   17    6    8 1     
   18    8    9 1     
   19    9   13 1     
   20    9   10 2     
   21   10   11 1     
   22   11   12 2     
   23   12   13 1     
   24   12   28 1     
   25   14   18 1     
   26   14   15 1     
   27   14   37 1     
   28   15   16 1     
   29   15   29 1     
   30   15   30 1     
   31   16   17 1     
   32   16   31 1     
   33   16   32 1     
   34   17   18 1     
   35   17   33 1     
   36   17   34 1     
   37   18   35 1     
   38   18   36 1     
   39    7   38 1     
   40    7   39 1     
   41    8   40 1     
   42   10   41 1     
   43   11   42 1     
@<TRIPOS>SUBSTRUCTURE
      1 S1             1
@<TRIPOS>SET
LONE_PAIRS      STATIC     ATOMS    <user>   **** ""
5 38 39 40 41 42
DONOR_HYDROGENS      STATIC     ATOMS    <user>   **** ""
2 27 37
ATOM$BLUE        STATIC     ATOMS    COLORGROUP SYSTEM
5 38 39 40 41 42
ATOM$RED        STATIC     ATOMS    COLORGROUP SYSTEM
2 27 37
