#       Name:                AV-unprocessed.smi:632
#       Creating user name   scv26
#       Creation time:       Fri Mar 27 00:05:16 2020


#       File generated by GOLD software.
#

@<TRIPOS>MOLECULE
AV-unprocessed.smi:632
    48    49     1
SMALL
NO_CHARGES


@<TRIPOS>ATOM
      1 ****        -5.8439   0.7404  -0.2304 C.3            1 S1                 0.0000
      2 ****        -4.9801   2.0108  -0.3509 C.3            1 S1                 0.0000
      3 ****        -4.9735   2.4307  -1.8375 C.3            1 S1                 0.0000
      4 ****        -5.6030   3.1694   0.4527 C.3            1 S1                 0.0000
      5 ****        -3.5825   1.7298   0.1507 C.2            1 S1                 0.0000
      6 ****        -3.3400   1.3744   1.4183 N.2            1 S1                 0.0000
      7 ****        -1.9924   1.1613   1.6664 N.2            1 S1                 0.0000
      8 ****        -1.2239   1.3413   0.5843 C.2            1 S1                 0.0000
      9 ****         0.1101   1.1853   0.6089 N.pl3          1 S1                -1.0000
     10 ****         0.6600   0.0100   0.2264 C.2            1 S1                 0.0000
     11 ****         0.0485  -0.9989  -0.1329 O.2            1 S1                 0.0000
     12 ****         2.0008   0.0059   0.2593 N.am           1 S1                 0.0000
     13 ****         2.8702  -1.1099  -0.1062 C.3            1 S1                 0.0000
     14 ****         3.1077  -2.0294   1.1080 C.3            1 S1                 0.0000
     15 ****         4.0748  -3.1772   0.7674 C.3            1 S1                 0.0000
     16 ****         5.4053  -2.6688   0.1798 C.3            1 S1                 0.0000
     17 ****         6.1664  -2.0248   1.1826 O.3            1 S1                 0.0000
     18 ****         5.1737  -1.7102  -1.0039 C.3            1 S1                 0.0000
     19 ****         4.2052  -0.5685  -0.6483 C.3            1 S1                 0.0000
     20 ****        -2.1310   1.8211  -0.8470 S.3            1 S1                 0.0000
     21 ****        -6.8557   0.9104  -0.5995 H              1 S1                 0.0000
     22 ****        -5.9278   0.4109   0.8058 H              1 S1                 0.0000
     23 ****        -5.4173  -0.0839  -0.8035 H              1 S1                 0.0000
     24 ****        -4.5632   1.6471  -2.4761 H              1 S1                 0.0000
     25 ****        -4.3847   3.3348  -1.9976 H              1 S1                 0.0000
     26 ****        -5.9829   2.6382  -2.1946 H              1 S1                 0.0000
     27 ****        -6.6070   3.4054   0.0986 H              1 S1                 0.0000
     28 ****        -5.0023   4.0761   0.3709 H              1 S1                 0.0000
     29 ****        -5.6835   2.9236   1.5122 H              1 S1                 0.0000
     30 ****         2.4560   0.8542   0.5628 H              1 S1                 0.0000
     31 ****         2.3975  -1.6901  -0.9010 H              1 S1                 0.0000
     32 ****         3.5100  -1.4475   1.9385 H              1 S1                 0.0000
     33 ****         2.1604  -2.4435   1.4551 H              1 S1                 0.0000
     34 ****         4.2595  -3.7869   1.6525 H              1 S1                 0.0000
     35 ****         3.5956  -3.8351   0.0413 H              1 S1                 0.0000
     36 ****         5.9917  -3.5219  -0.1632 H              1 S1                 0.0000
     37 ****         6.3208  -2.6394   1.8836 H              1 S1                 0.0000
     38 ****         6.1231  -1.3021  -1.3525 H              1 S1                 0.0000
     39 ****         4.7605  -2.2742  -1.8411 H              1 S1                 0.0000
     40 ****         4.0266   0.0463  -1.5312 H              1 S1                 0.0000
     41 ****         4.6683   0.0856   0.0920 H              1 S1                 0.0000
     42 ****        -4.0536   1.2735   2.1115 LP             1 S1                 0.0000
     43 ****        -1.6313   0.9000   2.5616 LP             1 S1                 0.0000
     44 ****         0.6964   1.9375   0.9098 LP             1 S1                 0.0000
     45 ****        -0.9511  -0.9946  -0.1600 LP             1 S1                 0.0000
     46 ****         0.5523  -1.8213  -0.3972 LP             1 S1                 0.0000
     47 ****         5.6636  -1.2342   1.5320 LP             1 S1                 0.0000
     48 ****         7.0398  -1.7223   0.8009 LP             1 S1                 0.0000
@<TRIPOS>BOND
    1    1    2 1     
    2    1   21 1     
    3    1   22 1     
    4    1   23 1     
    5    2    3 1     
    6    2    4 1     
    7    2    5 1     
    8    3   24 1     
    9    3   25 1     
   10    3   26 1     
   11    4   27 1     
   12    4   28 1     
   13    4   29 1     
   14    5   20 1     
   15    5    6 2     
   16    6    7 1     
   17    7    8 2     
   18    8    9 1     
   19    8   20 1     
   20    9   10 1     
   21   10   11 2     
   22   10   12 am    
   23   12   13 1     
   24   12   30 1     
   25   13   19 1     
   26   13   14 1     
   27   13   31 1     
   28   14   15 1     
   29   14   32 1     
   30   14   33 1     
   31   15   16 1     
   32   15   34 1     
   33   15   35 1     
   34   16   17 1     
   35   16   18 1     
   36   16   36 1     
   37   17   37 1     
   38   18   19 1     
   39   18   38 1     
   40   18   39 1     
   41   19   40 1     
   42   19   41 1     
   43    6   42 1     
   44    7   43 1     
   45    9   44 1     
   46   11   45 1     
   47   11   46 1     
   48   17   47 1     
   49   17   48 1     
@<TRIPOS>SUBSTRUCTURE
      1 S1             1
@<TRIPOS>SET
LONE_PAIRS      STATIC     ATOMS    <user>   **** ""
7 42 43 44 45 46 47 48
DONOR_HYDROGENS      STATIC     ATOMS    <user>   **** ""
2 30 37
ATOM$BLUE        STATIC     ATOMS    COLORGROUP SYSTEM
7 42 43 44 45 46 47 48
ATOM$RED        STATIC     ATOMS    COLORGROUP SYSTEM
2 30 37
