AV-unprocessed.smi:166|AV-procd|sdf|1391|dock7
  -GOLD-   2262019133D 1   1.00000     0.00000
 Structure written by MMmdl.
 54 58  0  0  0  0  0  0  0  0  1 V2000
  147.1770  139.8034  152.3116 O   0  0  0  0  0  0  0  0  0  0  0  0
  147.5300  140.1224  153.6468 C   0  0  2  0  0  0  0  0  0  0  0  0
  148.9697  140.6880  153.6773 C   0  0  0  0  0  0  0  0  0  0  0  0
  149.5287  140.7966  155.0161 N   0  0  0  0  0  0  0  0  0  0  0  0
  148.8998  141.2828  156.1406 C   0  0  0  0  0  0  0  0  0  0  0  0
  149.6191  141.2725  157.2295 N   0  0  0  0  0  0  0  0  0  0  0  0
  150.8340  140.7310  156.8275 C   0  0  0  0  0  0  0  0  0  0  0  0
  152.0589  140.4314  157.4876 C   0  0  0  0  0  0  0  0  0  0  0  0
  152.3008  140.6506  158.7967 N   0  0  0  0  0  0  0  0  0  0  0  0
  152.1211  142.0458  159.1860 C   0  0  0  0  0  0  0  0  0  0  0  0
  152.1718  142.1909  160.7155 C   0  0  0  0  0  0  0  0  0  0  0  0
  153.4637  141.5780  161.2783 C   0  0  0  0  0  0  0  0  0  0  0  0
  153.6100  140.1142  160.8266 C   0  0  2  0  0  0  0  0  0  0  0  0
  154.8655  139.6445  161.2998 O   0  0  0  0  0  0  0  0  0  0  0  0
  154.8402  139.1289  162.6221 C   0  0  0  0  0  0  0  0  0  0  0  0
  154.2548  137.7337  162.5885 C   0  0  0  0  0  0  0  0  0  0  0  0
  154.4622  136.7923  163.7533 C   0  0  0  0  0  0  0  0  0  0  0  0
  155.1473  136.5225  162.4382 C   0  0  0  0  0  0  0  0  0  0  0  0
  153.5248  140.0225  159.2885 C   0  0  0  0  0  0  0  0  0  0  0  0
  153.0568  139.8745  156.7594 N   0  0  0  0  0  0  0  0  0  0  0  0
  152.8759  139.6295  155.4579 C   0  0  0  0  0  0  0  0  0  0  0  0
  151.7964  139.8595  154.7066 N   0  0  0  0  0  0  0  0  0  0  0  0
  150.7904  140.4175  155.4403 C   0  0  0  0  0  0  0  0  0  0  0  0
  147.3784  138.8641  154.4947 C   0  0  0  0  0  0  0  0  0  0  0  0
  145.9392  138.9508  154.9832 C   0  0  0  0  0  0  0  0  0  0  0  0
  145.7887  140.3336  155.2517 O   0  0  0  0  0  0  0  0  0  0  0  0
  146.4532  141.0650  154.2268 C   0  0  0  0  0  0  0  0  0  0  0  0
  146.2416  139.6752  152.2699 H   0  0  0  0  0  0  0  0  0  0  0  0
  149.6335  140.0596  153.0817 H   0  0  0  0  0  0  0  0  0  0  0  0
  148.9934  141.6768  153.2173 H   0  0  0  0  0  0  0  0  0  0  0  0
  147.8831  141.6479  156.1297 H   0  0  0  0  0  0  0  0  0  0  0  0
  152.9030  142.6544  158.7297 H   0  0  0  0  0  0  0  0  0  0  0  0
  151.1663  142.4166  158.8101 H   0  0  0  0  0  0  0  0  0  0  0  0
  152.1025  143.2427  160.9941 H   0  0  0  0  0  0  0  0  0  0  0  0
  151.3079  141.6936  161.1583 H   0  0  0  0  0  0  0  0  0  0  0  0
  154.3213  142.1576  160.9334 H   0  0  0  0  0  0  0  0  0  0  0  0
  153.4638  141.6378  162.3671 H   0  0  0  0  0  0  0  0  0  0  0  0
  152.8038  139.5317  161.2768 H   0  0  0  0  0  0  0  0  0  0  0  0
  155.8458  139.0978  163.0443 H   0  0  0  0  0  0  0  0  0  0  0  0
  154.2215  139.7477  163.2716 H   0  0  0  0  0  0  0  0  0  0  0  0
  153.2788  137.6785  162.1097 H   0  0  0  0  0  0  0  0  0  0  0  0
  155.0806  137.1364  164.5802 H   0  0  0  0  0  0  0  0  0  0  0  0
  153.6318  136.1459  164.0297 H   0  0  0  0  0  0  0  0  0  0  0  0
  154.7741  135.6975  161.8349 H   0  0  0  0  0  0  0  0  0  0  0  0
  156.2220  136.6868  162.3889 H   0  0  0  0  0  0  0  0  0  0  0  0
  153.5447  138.9816  158.9650 H   0  0  0  0  0  0  0  0  0  0  0  0
  154.3932  140.5129  158.8474 H   0  0  0  0  0  0  0  0  0  0  0  0
  153.7159  139.1842  154.9455 H   0  0  0  0  0  0  0  0  0  0  0  0
  147.5932  137.9406  153.9554 H   0  0  0  0  0  0  0  0  0  0  0  0
  148.0460  138.9062  155.3566 H   0  0  0  0  0  0  0  0  0  0  0  0
  145.2391  138.6473  154.2034 H   0  0  0  0  0  0  0  0  0  0  0  0
  145.7562  138.3447  155.8706 H   0  0  0  0  0  0  0  0  0  0  0  0
  146.8755  141.9679  154.6660 H   0  0  0  0  0  0  0  0  0  0  0  0
  145.7302  141.3768  153.4711 H   0  0  0  0  0  0  0  0  0  0  0  0
  1  2  1  0  0  0  0
  1 28  1  0  0  0  0
  2 27  1  0  0  0  0
  2  3  1  0  0  0  0
  2 24  1  0  0  0  0
  3  4  1  0  0  0  0
  3 29  1  0  0  0  0
  3 30  1  0  0  0  0
  4 23  1  0  0  0  0
  4  5  1  0  0  0  0
  5  6  2  0  0  0  0
  5 31  1  0  0  0  0
  6  7  1  0  0  0  0
  7 23  2  0  0  0  0
  7  8  1  0  0  0  0
  8  9  1  0  0  0  0
  8 20  2  0  0  0  0
  9 19  1  0  0  0  0
  9 10  1  0  0  0  0
 10 11  1  0  0  0  0
 10 32  1  0  0  0  0
 10 33  1  0  0  0  0
 11 12  1  0  0  0  0
 11 34  1  0  0  0  0
 11 35  1  0  0  0  0
 12 13  1  0  0  0  0
 12 36  1  0  0  0  0
 12 37  1  0  0  0  0
 13 14  1  0  0  0  0
 13 19  1  0  0  0  0
 13 38  1  0  0  0  0
 14 15  1  0  0  0  0
 15 16  1  0  0  0  0
 15 39  1  0  0  0  0
 15 40  1  0  0  0  0
 16 18  1  0  0  0  0
 16 17  1  0  0  0  0
 16 41  1  0  0  0  0
 17 18  1  0  0  0  0
 17 42  1  0  0  0  0
 17 43  1  0  0  0  0
 18 44  1  0  0  0  0
 18 45  1  0  0  0  0
 19 46  1  0  0  0  0
 19 47  1  0  0  0  0
 20 21  1  0  0  0  0
 21 22  2  0  0  0  0
 21 48  1  0  0  0  0
 22 23  1  0  0  0  0
 24 25  1  0  0  0  0
 24 49  1  0  0  0  0
 24 50  1  0  0  0  0
 25 26  1  0  0  0  0
 25 51  1  0  0  0  0
 25 52  1  0  0  0  0
 26 27  1  0  0  0  0
 27 53  1  0  0  0  0
 27 54  1  0  0  0  0
M  END
> <s_m_source_file>
AV-unprocessed.smi

> <i_m_source_file_index>
166

> <i_lp_mmshare_version>
43012

> <i_f3d_flags>
0

> <s_epik_input>
W0NIMl0xT1tDSDJdW0NIMl1bQ0BAXTEoW09IXSlbQ0gyXW4oW2NIXW4yKWMoYzIzKW5bY0hdbmMzTjRbQ0gyXVtDSDJdW0NIMl1bQ0BIXShbQ0gyXTQpT1tDSDJdW0NIXTVbQ0gyXVtDSDJdNQ==

> <s_epik_cmdline>
J2VwaWtfcHl0aG9uJywgJy1waCcsICc3LjAnLCAnLXRuJywgJzgnLCAnLW1hJywgJzIwMCcsICctbWV0YWxfYmluZGluZycsICctaW1hZScsICc8aW5maWxlLm1hZT4nLCAnLW9tYWUnLCAnPG91dGZpbGUubWFlPic=

> <r_lp_tautomer_probability>
1

> <r_epik_Ionization_Penalty>
0.00342552

> <r_epik_Ionization_Penalty_Charging>
0

> <r_epik_Ionization_Penalty_Neutral>
0.00342552

> <r_epik_State_Penalty>
0.0022204

> <r_epik_Charging_Adjusted_Penalty>
0.0022204

> <i_epik_Tot_Q>
0

> <i_epik_Tot_abs_Q>
0

> <r_epik_Metal_State_Penalty>
-0

> <b_epik_Metal_Only>
0

> <s_lp_Force_Field>
OPLS_2005

> <r_lp_Energy>
47.9091

> <b_lp_Chiralities_Consistent>
1

> <s_lp_Variant>
AV-unprocessed.smi:166-4

> <Gold.Version>
5.8.1

> <Gold.Id.Protein>
6NUR|6NUR_protein|mol2

> <Gold.PLP.Fitness>
58.2290

> <Gold.PLP.PLP>
-49.0811

> <Gold.PLP.part.hbond>
-3.0000

> <Gold.PLP.part.metal>
0.0000

> <Gold.PLP.part.buried>
-2.7722

> <Gold.PLP.part.nonpolar>
-44.0009

> <Gold.PLP.part.repulsive>
0.2585

> <Gold.PLP.ligand.clash>
0.0000

> <Gold.PLP.ligand.torsion>
1.0714

> <Gold.PLP.Chemscore.Hbond>
3.0000

> <Gold.PLP.Chemscore.CHOScore>
0.4897

> <Gold.PLP.Chemscore.Metal>
0.0000

> <Gold.Chemscore.Hbonds>
donor molecule, donor type, donor heavy atom, donor atom, acceptor molecule, acceptor atom, score
      P1  H  7989  7998       L1    22  0.75
      P1  H  7997  8008       L1    20  0.16

> <Gold.PLP.Chemscore.Internal.Correction>
0.8218

> <Gold.Rescore>
     Score         DG    S(hbond)    S(metal)    S(lipo)     H(rot)  DE(clash)    DE(int)     intcor
     13.89     -16.14       1.89        0.00      95.94       2.68       0.51       1.73       ----

> <Gold.Chemscore.Fitness>
13.8909

> <Gold.Chemscore.DG>
-16.1368

> <Gold.Chemscore.ZeroCoef>
-5.4800

> <Gold.Chemscore.Hbond>
1.8854

> <Gold.Chemscore.Metal>
0.0000

> <Gold.Chemscore.Lipo>
95.9372

> <Gold.Chemscore.Internal_Hbond>
0.0000

> <Gold.Chemscore.DEClash>
0.5142

> <Gold.Chemscore.DEInternal>
1.7317

> <Gold.Chemscore.Rot>
2.6817

> <Gold.Chemscore.Internal.Correction>
   9.000000E+99

> <Gold.Chemscore.Hbonds>
donor molecule, donor type, donor heavy atom, donor atom, acceptor molecule, acceptor atom, score
      P1  H  7989  7998       L1    22  0.09

> <Gold.Chemscore.Hbond.Weighted>
-6.2972

> <Gold.Chemscore.Metal.Weighted>
-0.0000

> <Gold.Chemscore.Lipo.Weighted>
-11.2247

> <Gold.Chemscore.Internal_Hbond.Weighted>
0.0000

> <Gold.Chemscore.DEClash.Weighted>
0.5142

> <Gold.Chemscore.DEInternal.Weighted>
1.7317

> <Gold.Chemscore.Rot.Weighted>
6.8651

> <Gold.Chemscore.Internal.Correction.Weighted>
   9.000000E+99

> <Gold.Protein.RotatedTorsions>
[ 6907 6896 6895 6894 ] final  -79.51 input  -60.11 | X-H torsion
[ 7974 7965 7964 7962 ] final -123.14 input  175.53 | X-H torsion
[ 8008 7997 7996 7995 ] final  -47.05 input   59.86 | X-H torsion
[ 10167 10162 10161 10158 ] final  162.98 input  -65.29 | X-H torsion
[ 10718 10713 10712 10709 ] final -144.25 input   66.30 | X-H torsion
[ 10763 10752 10751 10750 ] final  -70.44 input  -60.55 | X-H torsion
[ 11005 11000 10999 10996 ] final  -77.75 input  -57.11 | X-H torsion

> <Gold.Protein.ActiveResidues>
 VAL166  LYS551  ARG553  GLY616  TRP617  ASP618  TYR619  PRO620  LYS621  CYS622 
 ASP623  PHE694  ASN695  SER759  ASP760  ASP761  ALA762  ILE779  LEU786  VAL792 
 PHE793  MET794  SER795  GLU796  ALA797  LYS798  CYS799  TRP800  GLU811  SER814 

> <Gold.Protein.RotatedAtoms>
  150.6948  134.4110  159.5161 H   0  0  0  0  0  0  0  0  0  0  0  0  # atno 6907 bound_to 6896
  152.1869  134.8703  160.0530 H   0  0  0  0  0  0  0  0  0  0  0  0  # atno 6908 bound_to 6896
  151.9673  133.3679  159.4095 H   0  0  0  0  0  0  0  0  0  0  0  0  # atno 6909 bound_to 6896
  145.0219  140.7995  143.4376 H   0  0  0  0  0  0  0  0  0  0  0  0  # atno 7974 bound_to 7965
  154.4013  140.1356  156.4111 H   0  0  0  0  0  0  0  0  0  0  0  0  # atno 8008 bound_to 7997
  155.7733  140.3483  155.5238 H   0  0  0  0  0  0  0  0  0  0  0  0  # atno 8009 bound_to 7997
  155.8746  140.0977  157.1517 H   0  0  0  0  0  0  0  0  0  0  0  0  # atno 8010 bound_to 7997
  139.4867  144.4383  151.8984 H   0  0  0  0  0  0  0  0  0  0  0  0  # atno 10167 bound_to 10162
  156.3679  130.7772  151.1949 H   0  0  0  0  0  0  0  0  0  0  0  0  # atno 10718 bound_to 10713
  154.4177  135.5994  153.5990 H   0  0  0  0  0  0  0  0  0  0  0  0  # atno 10763 bound_to 10752
  152.9792  135.5944  154.3993 H   0  0  0  0  0  0  0  0  0  0  0  0  # atno 10764 bound_to 10752
  154.3814  135.2841  155.2187 H   0  0  0  0  0  0  0  0  0  0  0  0  # atno 10765 bound_to 10752
  141.1662  133.7035  156.7867 H   0  0  0  0  0  0  0  0  0  0  0  0  # atno 11005 bound_to 11000
  145.1884  139.2314  143.5255 LP  0  0  0  0  0  0  0  0  0  0  0  0  # atno 17320 bound_to 7965
  146.3486  140.1675  142.8590 LP  0  0  0  0  0  0  0  0  0  0  0  0  # atno 17321 bound_to 7965
  140.3834  144.2707  150.5906 LP  0  0  0  0  0  0  0  0  0  0  0  0  # atno 17342 bound_to 10162
  140.5213  143.2265  151.8385 LP  0  0  0  0  0  0  0  0  0  0  0  0  # atno 17343 bound_to 10162
  157.7481  131.0381  150.4486 LP  0  0  0  0  0  0  0  0  0  0  0  0  # atno 17370 bound_to 10713
  156.4708  130.4052  149.6519 LP  0  0  0  0  0  0  0  0  0  0  0  0  # atno 17371 bound_to 10713
  140.2355  134.8653  157.3520 LP  0  0  0  0  0  0  0  0  0  0  0  0  # atno 17394 bound_to 11000
  140.1848  134.4444  155.7750 LP  0  0  0  0  0  0  0  0  0  0  0  0  # atno 17395 bound_to 11000

$$$$
