AV-unprocessed.smi:261|AV-procd|sdf|1984|dock1
  -GOLD-   2262021163D 1   1.00000     0.00000
 Structure written by MMmdl.
 51 54  0  0  0  0  0  0  0  0  1 V2000
  151.6315  144.7123  160.1758 C   0  0  0  0  0  0  0  0  0  0  0  0
  152.5076  144.6013  159.0661 O   0  0  0  0  0  0  0  0  0  0  0  0
  152.2380  143.4768  158.2417 C   0  0  2  0  0  0  0  0  0  0  0  0
  150.7441  143.2510  157.9890 C   0  0  0  0  0  0  0  0  0  0  0  0
  150.6309  141.7481  157.6818 C   0  0  1  0  0  0  0  0  0  0  0  0
  150.7543  141.4606  156.1749 C   0  0  0  0  0  0  0  0  0  0  0  0
  150.0243  142.2226  155.3574 N   0  0  0  0  0  0  0  0  0  0  0  0
  151.5014  140.5798  155.7517 O   0  0  0  0  0  0  0  0  0  0  0  0
  151.7383  141.1641  158.4430 N   0  0  0  0  0  0  0  0  0  0  0  0
  151.7748  139.8622  158.8406 C   0  0  0  0  0  0  0  0  0  0  0  0
  150.8396  139.0094  158.3432 N   0  0  0  0  0  0  0  0  0  0  0  0
  150.8320  137.7215  158.6945 C   0  0  0  0  0  0  0  0  0  0  0  0
  151.6563  137.0792  159.5214 N   0  0  0  0  0  0  0  0  0  0  0  0
  152.5997  137.9225  160.0284 C   0  0  0  0  0  0  0  0  0  0  0  0
  152.7326  139.3139  159.7471 C   0  0  0  0  0  0  0  0  0  0  0  0
  153.8158  139.8248  160.4554 N   0  0  0  0  0  0  0  0  0  0  0  0
  154.2964  138.8007  161.1043 C   0  0  0  0  0  0  0  0  0  0  0  0
  153.6297  137.6156  160.9003 N   0  0  0  0  0  0  0  0  0  0  0  0
  153.9495  136.3229  161.4833 C   0  0  0  0  0  0  0  0  0  0  0  0
  153.5731  136.1942  162.9766 C   0  0  2  0  0  0  0  0  0  0  0  0
  154.4256  136.9871  163.7806 O   0  0  0  0  0  0  0  0  0  0  0  0
  153.5056  134.7470  163.5175 C   0  0  2  0  0  0  0  0  0  0  0  0
  153.0821  134.5970  164.9769 C   0  0  0  0  0  0  0  0  0  0  0  0
  153.5137  133.1754  165.2805 C   0  0  0  0  0  0  0  0  0  0  0  0
  154.7084  132.9501  164.3467 C   0  0  0  0  0  0  0  0  0  0  0  0
  154.7540  134.0721  163.4709 O   0  0  0  0  0  0  0  0  0  0  0  0
  152.6564  142.1811  158.9378 C   0  0  0  0  0  0  0  0  0  0  0  0
  152.7702  143.5567  157.2917 H   0  0  0  0  0  0  0  0  0  0  0  0
  149.6706  141.3796  158.0472 H   0  0  0  0  0  0  0  0  0  0  0  0
  151.8730  145.6123  160.7413 H   0  0  0  0  0  0  0  0  0  0  0  0
  151.7278  143.8608  160.8497 H   0  0  0  0  0  0  0  0  0  0  0  0
  150.5926  144.7880  159.8528 H   0  0  0  0  0  0  0  0  0  0  0  0
  150.1806  143.4765  158.8957 H   0  0  0  0  0  0  0  0  0  0  0  0
  150.3508  143.8874  157.1950 H   0  0  0  0  0  0  0  0  0  0  0  0
  150.0736  142.0820  154.3590 H   0  0  0  0  0  0  0  0  0  0  0  0
  149.4310  142.9432  155.7424 H   0  0  0  0  0  0  0  0  0  0  0  0
  150.0546  137.1197  158.2475 H   0  0  0  0  0  0  0  0  0  0  0  0
  155.1599  138.8814  161.7482 H   0  0  0  0  0  0  0  0  0  0  0  0
  153.4437  135.5519  160.9009 H   0  0  0  0  0  0  0  0  0  0  0  0
  155.0179  136.1430  161.3579 H   0  0  0  0  0  0  0  0  0  0  0  0
  152.5777  136.6248  163.0903 H   0  0  0  0  0  0  0  0  0  0  0  0
  154.9443  136.4140  164.3237 H   0  0  0  0  0  0  0  0  0  0  0  0
  152.8102  134.1790  162.8965 H   0  0  0  0  0  0  0  0  0  0  0  0
  153.6285  135.2898  165.6176 H   0  0  0  0  0  0  0  0  0  0  0  0
  152.0148  134.7597  165.1293 H   0  0  0  0  0  0  0  0  0  0  0  0
  153.7674  133.0322  166.3311 H   0  0  0  0  0  0  0  0  0  0  0  0
  152.7114  132.4802  165.0302 H   0  0  0  0  0  0  0  0  0  0  0  0
  155.6465  132.8826  164.8979 H   0  0  0  0  0  0  0  0  0  0  0  0
  154.5870  132.0318  163.7710 H   0  0  0  0  0  0  0  0  0  0  0  0
  153.6956  141.9392  158.7135 H   0  0  0  0  0  0  0  0  0  0  0  0
  152.5420  142.2679  160.0194 H   0  0  0  0  0  0  0  0  0  0  0  0
  1  2  1  0  0  0  0
  1 30  1  0  0  0  0
  1 31  1  0  0  0  0
  1 32  1  0  0  0  0
  2  3  1  0  0  0  0
  3 28  1  0  0  0  0
  3 27  1  0  0  0  0
  3  4  1  0  0  0  0
  4  5  1  0  0  0  0
  4 33  1  0  0  0  0
  4 34  1  0  0  0  0
  5 29  1  0  0  0  0
  5  6  1  0  0  0  0
  5  9  1  0  0  0  0
  6  7  1  0  0  0  0
  6  8  2  0  0  0  0
  7 35  1  0  0  0  0
  7 36  1  0  0  0  0
  9 10  1  0  0  0  0
  9 27  1  0  0  0  0
 10 15  1  0  0  0  0
 10 11  2  0  0  0  0
 11 12  1  0  0  0  0
 12 13  2  0  0  0  0
 12 37  1  0  0  0  0
 13 14  1  0  0  0  0
 14 18  1  0  0  0  0
 14 15  2  0  0  0  0
 15 16  1  0  0  0  0
 16 17  2  0  0  0  0
 17 18  1  0  0  0  0
 17 38  1  0  0  0  0
 18 19  1  0  0  0  0
 19 20  1  0  0  0  0
 19 39  1  0  0  0  0
 19 40  1  0  0  0  0
 20 21  1  0  0  0  0
 20 22  1  0  0  0  0
 20 41  1  0  0  0  0
 21 42  1  0  0  0  0
 22 26  1  0  0  0  0
 22 23  1  0  0  0  0
 22 43  1  0  0  0  0
 23 24  1  0  0  0  0
 23 44  1  0  0  0  0
 23 45  1  0  0  0  0
 24 25  1  0  0  0  0
 24 46  1  0  0  0  0
 24 47  1  0  0  0  0
 25 26  1  0  0  0  0
 25 48  1  0  0  0  0
 25 49  1  0  0  0  0
 27 50  1  0  0  0  0
 27 51  1  0  0  0  0
M  END
> <s_m_source_file>
AV-unprocessed.smi

> <i_m_source_file_index>
261

> <i_lp_mmshare_version>
43012

> <i_f3d_flags>
0

> <s_epik_input>
W0NIM11PW0NASF0xW0NIMl1bQ0BASF0oQyg9TylbTkgyXSlOKFtDSDJdMSljKG5bY0hdbjIpYyhjMjMpbltjSF1uM1tDSDJdW0NASF0oW09IXSlbQ0BASF00W0NIMl1bQ0gyXVtDSDJdTzQ=

> <s_epik_cmdline>
J2VwaWtfcHl0aG9uJywgJy1waCcsICc3LjAnLCAnLXRuJywgJzgnLCAnLW1hJywgJzIwMCcsICctbWV0YWxfYmluZGluZycsICctaW1hZScsICc8aW5maWxlLm1hZT4nLCAnLW9tYWUnLCAnPG91dGZpbGUubWFlPic=

> <r_lp_tautomer_probability>
1

> <r_epik_Ionization_Penalty>
0.000713824

> <r_epik_Ionization_Penalty_Charging>
0

> <r_epik_Ionization_Penalty_Neutral>
0.000713824

> <r_epik_State_Penalty>
0.000402132

> <r_epik_Charging_Adjusted_Penalty>
0.000402132

> <i_epik_Tot_Q>
0

> <i_epik_Tot_abs_Q>
0

> <r_epik_Metal_State_Penalty>
-0

> <b_epik_Metal_Only>
0

> <s_lp_Force_Field>
OPLS_2005

> <r_lp_Energy>
44.2831

> <b_lp_Chiralities_Consistent>
1

> <s_lp_Variant>
AV-unprocessed.smi:261-2

> <Gold.Version>
5.8.1

> <Gold.Id.Protein>
6NUR|6NUR_protein|mol2

> <Gold.PLP.Fitness>
49.9654

> <Gold.PLP.PLP>
-45.1536

> <Gold.PLP.part.hbond>
-2.7655

> <Gold.PLP.part.metal>
0.0000

> <Gold.PLP.part.buried>
-5.3813

> <Gold.PLP.part.nonpolar>
-36.5333

> <Gold.PLP.part.repulsive>
0.1962

> <Gold.PLP.ligand.clash>
0.0000

> <Gold.PLP.ligand.torsion>
0.7769

> <Gold.PLP.Chemscore.Hbond>
2.0651

> <Gold.PLP.Chemscore.CHOScore>
0.0000

> <Gold.PLP.Chemscore.Metal>
0.0000

> <Gold.Chemscore.Hbonds>
donor molecule, donor type, donor heavy atom, donor atom, acceptor molecule, acceptor atom, score
      L1  H     7    36       P1  8028  0.93
      P1  H  6896  6908       L1    13  1.00
      P1  H  7989  7998       L1     8  0.32

> <Gold.PLP.Chemscore.Internal.Correction>
0.1705

> <Gold.Rescore>
     Score         DG    S(hbond)    S(metal)    S(lipo)     H(rot)  DE(clash)    DE(int)     intcor
     13.15     -14.89       1.83        0.00      97.89       3.18       0.02       1.73       ----

> <Gold.Chemscore.Fitness>
13.1478

> <Gold.Chemscore.DG>
-14.8914

> <Gold.Chemscore.ZeroCoef>
-5.4800

> <Gold.Chemscore.Hbond>
1.8285

> <Gold.Chemscore.Metal>
0.0000

> <Gold.Chemscore.Lipo>
97.8868

> <Gold.Chemscore.Internal_Hbond>
0.0000

> <Gold.Chemscore.DEClash>
0.0181

> <Gold.Chemscore.DEInternal>
1.7255

> <Gold.Chemscore.Rot>
3.1831

> <Gold.Chemscore.Internal.Correction>
   9.000000E+99

> <Gold.Chemscore.Hbonds>
donor molecule, donor type, donor heavy atom, donor atom, acceptor molecule, acceptor atom, score
      L1  H     7    36       P1  8028  0.91
      P1  H  6896  6908       L1    13  0.94
      P1  H  7989  7998       L1     8  0.17

> <Gold.Chemscore.Hbond.Weighted>
-6.1073

> <Gold.Chemscore.Metal.Weighted>
-0.0000

> <Gold.Chemscore.Lipo.Weighted>
-11.4528

> <Gold.Chemscore.Internal_Hbond.Weighted>
0.0000

> <Gold.Chemscore.DEClash.Weighted>
0.0181

> <Gold.Chemscore.DEInternal.Weighted>
1.7255

> <Gold.Chemscore.Rot.Weighted>
8.1486

> <Gold.Chemscore.Internal.Correction.Weighted>
   9.000000E+99

> <Gold.Protein.RotatedTorsions>
[ 6907 6896 6895 6894 ] final -111.05 input  -60.11 | X-H torsion
[ 7974 7965 7964 7962 ] final -160.13 input  175.53 | X-H torsion
[ 8008 7997 7996 7995 ] final  -36.06 input   59.86 | X-H torsion
[ 10167 10162 10161 10158 ] final   -5.82 input  -65.29 | X-H torsion
[ 10718 10713 10712 10709 ] final  -34.26 input   66.30 | X-H torsion
[ 10763 10752 10751 10750 ] final -141.58 input  -60.55 | X-H torsion
[ 11005 11000 10999 10996 ] final   73.06 input  -57.11 | X-H torsion

> <Gold.Protein.ActiveResidues>
 VAL166  LYS551  ARG553  GLY616  TRP617  ASP618  TYR619  PRO620  LYS621  CYS622 
 ASP623  PHE694  ASN695  SER759  ASP760  ASP761  ALA762  ILE779  LEU786  VAL792 
 PHE793  MET794  SER795  GLU796  ALA797  LYS798  CYS799  TRP800  GLU811  SER814 

> <Gold.Protein.RotatedAtoms>
  150.7665  133.9291  159.3421 H   0  0  0  0  0  0  0  0  0  0  0  0  # atno 6907 bound_to 6896
  151.7188  135.0896  160.0290 H   0  0  0  0  0  0  0  0  0  0  0  0  # atno 6908 bound_to 6896
  152.3663  133.6323  159.6088 H   0  0  0  0  0  0  0  0  0  0  0  0  # atno 6909 bound_to 6896
  144.7439  140.3586  143.6101 H   0  0  0  0  0  0  0  0  0  0  0  0  # atno 7974 bound_to 7965
  154.4081  140.1641  156.2312 H   0  0  0  0  0  0  0  0  0  0  0  0  # atno 8008 bound_to 7997
  155.9281  140.3416  155.6204 H   0  0  0  0  0  0  0  0  0  0  0  0  # atno 8009 bound_to 7997
  155.7140  140.0760  157.2349 H   0  0  0  0  0  0  0  0  0  0  0  0  # atno 8010 bound_to 7997
  140.6976  143.6264  150.8564 H   0  0  0  0  0  0  0  0  0  0  0  0  # atno 10167 bound_to 10162
  156.3527  130.4311  149.7690 H   0  0  0  0  0  0  0  0  0  0  0  0  # atno 10718 bound_to 10713
  154.8540  135.3520  154.5891 H   0  0  0  0  0  0  0  0  0  0  0  0  # atno 10763 bound_to 10752
  153.6501  135.6994  153.5216 H   0  0  0  0  0  0  0  0  0  0  0  0  # atno 10764 bound_to 10752
  153.2901  135.4237  155.1117 H   0  0  0  0  0  0  0  0  0  0  0  0  # atno 10765 bound_to 10752
  139.9459  134.7314  156.0981 H   0  0  0  0  0  0  0  0  0  0  0  0  # atno 11005 bound_to 11000
  145.7201  139.1707  143.2489 LP  0  0  0  0  0  0  0  0  0  0  0  0  # atno 17320 bound_to 7965
  146.1283  140.7219  142.9424 LP  0  0  0  0  0  0  0  0  0  0  0  0  # atno 17321 bound_to 7965
  139.9984  143.5771  152.2885 LP  0  0  0  0  0  0  0  0  0  0  0  0  # atno 17342 bound_to 10162
  139.6451  144.7657  151.2259 LP  0  0  0  0  0  0  0  0  0  0  0  0  # atno 17343 bound_to 10162
  156.4884  130.8073  151.3084 LP  0  0  0  0  0  0  0  0  0  0  0  0  # atno 17370 bound_to 10713
  157.7463  130.9983  150.2848 LP  0  0  0  0  0  0  0  0  0  0  0  0  # atno 17371 bound_to 10713
  141.1109  133.6644  156.2976 LP  0  0  0  0  0  0  0  0  0  0  0  0  # atno 17394 bound_to 11000
  140.5836  134.5720  157.5485 LP  0  0  0  0  0  0  0  0  0  0  0  0  # atno 17395 bound_to 11000

$$$$
