AV-unprocessed.smi:1115|AV-procd|sdf|4803|dock4
  -GOLD-   22720 3353D 1   1.00000     0.00000
 Structure written by MMmdl.
 50 51  0  0  0  0  0  0  0  0  1 V2000
  143.9225  132.7238  149.3462 C   0  0  0  0  0  0  0  0  0  0  0  0
  144.9347  132.9131  150.3804 N   0  0  0  0  0  0  0  0  0  0  0  0
  145.9765  131.9104  150.5655 C   0  0  0  0  0  0  0  0  0  0  0  0
  144.9825  134.1273  151.1032 C   0  0  0  0  0  0  0  0  0  0  0  0
  145.8827  134.3108  152.1825 C   0  0  0  0  0  0  0  0  0  0  0  0
  145.8938  135.5384  152.8721 C   0  0  0  0  0  0  0  0  0  0  0  0
  144.9984  136.5573  152.4739 C   0  0  0  0  0  0  0  0  0  0  0  0
  144.9289  137.8438  153.0733 N   0  0  0  0  0  0  0  0  0  0  0  0
  145.4670  138.2573  154.2332 C   0  0  0  0  0  0  0  0  0  0  0  0
  146.1029  137.5502  155.0148 O   0  0  0  0  0  0  0  0  0  0  0  0
  145.1974  139.5515  154.4537 N   0  0  0  0  0  0  0  0  0  0  0  0
  145.5840  140.3182  155.6381 C   0  0  0  0  0  0  0  0  0  0  0  0
  146.7632  141.2982  155.3637 C   0  0  0  0  0  0  0  0  0  0  0  0
  146.4962  141.9332  153.9752 C   0  0  0  0  0  0  0  0  0  0  0  0
  146.6643  142.4357  156.4090 C   0  0  0  0  0  0  0  0  0  0  0  0
  148.0778  140.5964  155.3885 N   0  0  0  0  0  0  0  0  0  0  0  0
  149.2399  141.4700  155.5908 C   0  0  0  0  0  0  0  0  0  0  0  0
  150.5468  140.6715  155.7315 C   0  0  0  0  0  0  0  0  0  0  0  0
  150.7333  139.8520  154.5843 O   0  0  0  0  0  0  0  0  0  0  0  0
  149.6549  138.9468  154.3835 C   0  0  0  0  0  0  0  0  0  0  0  0
  148.3394  139.7302  154.2332 C   0  0  0  0  0  0  0  0  0  0  0  0
  144.1493  136.2883  151.3831 C   0  0  0  0  0  0  0  0  0  0  0  0
  144.1344  135.1133  150.7205 N   0  0  0  0  0  0  0  0  0  0  0  0
  144.0566  133.4500  148.5439 H   0  0  0  0  0  0  0  0  0  0  0  0
  142.9212  132.8447  149.7607 H   0  0  0  0  0  0  0  0  0  0  0  0
  143.9813  131.7269  148.9094 H   0  0  0  0  0  0  0  0  0  0  0  0
  146.9591  132.3354  150.3578 H   0  0  0  0  0  0  0  0  0  0  0  0
  145.8341  131.0619  149.8963 H   0  0  0  0  0  0  0  0  0  0  0  0
  145.9675  131.5323  151.5884 H   0  0  0  0  0  0  0  0  0  0  0  0
  146.5676  133.5369  152.4943 H   0  0  0  0  0  0  0  0  0  0  0  0
  146.5969  135.6756  153.6787 H   0  0  0  0  0  0  0  0  0  0  0  0
  144.3562  138.5171  152.5854 H   0  0  0  0  0  0  0  0  0  0  0  0
  144.6556  140.0448  153.7593 H   0  0  0  0  0  0  0  0  0  0  0  0
  144.7264  140.8614  156.0395 H   0  0  0  0  0  0  0  0  0  0  0  0
  145.8417  139.6074  156.4228 H   0  0  0  0  0  0  0  0  0  0  0  0
  145.4677  142.2853  153.8873 H   0  0  0  0  0  0  0  0  0  0  0  0
  146.6660  141.2215  153.1665 H   0  0  0  0  0  0  0  0  0  0  0  0
  147.1304  142.7998  153.7885 H   0  0  0  0  0  0  0  0  0  0  0  0
  145.6965  142.9355  156.3517 H   0  0  0  0  0  0  0  0  0  0  0  0
  147.4224  143.2035  156.2559 H   0  0  0  0  0  0  0  0  0  0  0  0
  146.7666  142.0678  157.4296 H   0  0  0  0  0  0  0  0  0  0  0  0
  149.3411  142.1619  154.7546 H   0  0  0  0  0  0  0  0  0  0  0  0
  149.1229  142.0736  156.4888 H   0  0  0  0  0  0  0  0  0  0  0  0
  151.3957  141.3487  155.8268 H   0  0  0  0  0  0  0  0  0  0  0  0
  150.5272  140.0536  156.6306 H   0  0  0  0  0  0  0  0  0  0  0  0
  149.8483  138.3561  153.4880 H   0  0  0  0  0  0  0  0  0  0  0  0
  149.5950  138.2493  155.2205 H   0  0  0  0  0  0  0  0  0  0  0  0
  147.5378  139.0057  154.1011 H   0  0  0  0  0  0  0  0  0  0  0  0
  148.3856  140.3229  153.3195 H   0  0  0  0  0  0  0  0  0  0  0  0
  143.4550  137.0373  151.0303 H   0  0  0  0  0  0  0  0  0  0  0  0
  1  2  1  0  0  0  0
  1 24  1  0  0  0  0
  1 25  1  0  0  0  0
  1 26  1  0  0  0  0
  2  3  1  0  0  0  0
  2  4  1  0  0  0  0
  3 27  1  0  0  0  0
  3 28  1  0  0  0  0
  3 29  1  0  0  0  0
  4 23  1  0  0  0  0
  4  5  2  0  0  0  0
  5  6  1  0  0  0  0
  5 30  1  0  0  0  0
  6  7  2  0  0  0  0
  6 31  1  0  0  0  0
  7  8  1  0  0  0  0
  7 22  1  0  0  0  0
  8  9  1  0  0  0  0
  8 32  1  0  0  0  0
  9 10  2  0  0  0  0
  9 11  1  0  0  0  0
 11 12  1  0  0  0  0
 11 33  1  0  0  0  0
 12 13  1  0  0  0  0
 12 34  1  0  0  0  0
 12 35  1  0  0  0  0
 13 14  1  0  0  0  0
 13 15  1  0  0  0  0
 13 16  1  0  0  0  0
 14 36  1  0  0  0  0
 14 37  1  0  0  0  0
 14 38  1  0  0  0  0
 15 39  1  0  0  0  0
 15 40  1  0  0  0  0
 15 41  1  0  0  0  0
 16 21  1  0  0  0  0
 16 17  1  0  0  0  0
 17 18  1  0  0  0  0
 17 42  1  0  0  0  0
 17 43  1  0  0  0  0
 18 19  1  0  0  0  0
 18 44  1  0  0  0  0
 18 45  1  0  0  0  0
 19 20  1  0  0  0  0
 20 21  1  0  0  0  0
 20 46  1  0  0  0  0
 20 47  1  0  0  0  0
 21 48  1  0  0  0  0
 21 49  1  0  0  0  0
 22 23  2  0  0  0  0
 22 50  1  0  0  0  0
M  END
> <s_m_source_file>
AV-unprocessed.smi

> <i_m_source_file_index>
1115

> <i_lp_mmshare_version>
43012

> <i_f3d_flags>
0

> <s_epik_input>
W0NIM11OKFtDSDNdKWMxW2NIXVtjSF1jKFtjSF1uMSlbTkhdQyg9TylbTkhdW0NIMl1DKFtDSDNdKShbQ0gzXSlOMltDSDJdW0NIMl1PW0NIMl1bQ0gyXTI=

> <s_epik_cmdline>
J2VwaWtfcHl0aG9uJywgJy1waCcsICc3LjAnLCAnLXRuJywgJzgnLCAnLW1hJywgJzIwMCcsICctbWV0YWxfYmluZGluZycsICctaW1hZScsICc8aW5maWxlLm1hZT4nLCAnLW9tYWUnLCAnPG91dGZpbGUubWFlPic=

> <r_lp_tautomer_probability>
1

> <r_epik_Ionization_Penalty>
0.880664

> <r_epik_Ionization_Penalty_Charging>
0

> <r_epik_Ionization_Penalty_Neutral>
0.880664

> <r_epik_State_Penalty>
0.865003

> <r_epik_Charging_Adjusted_Penalty>
0.865003

> <i_epik_Tot_Q>
0

> <i_epik_Tot_abs_Q>
0

> <r_epik_Metal_State_Penalty>
0.539426

> <b_epik_Metal_Only>
0

> <s_lp_Force_Field>
OPLS_2005

> <r_lp_Energy>
45.7519

> <b_lp_Chiralities_Consistent>
1

> <s_lp_Variant>
AV-unprocessed.smi:1115-2

> <Gold.Version>
5.8.1

> <Gold.Id.Protein>
6NUR|6NUR_protein|mol2

> <Gold.PLP.Fitness>
43.8754

> <Gold.PLP.PLP>
-34.0156

> <Gold.PLP.part.hbond>
-3.0000

> <Gold.PLP.part.metal>
0.0000

> <Gold.PLP.part.buried>
-1.5806

> <Gold.PLP.part.nonpolar>
-29.8469

> <Gold.PLP.part.repulsive>
0.4608

> <Gold.PLP.ligand.clash>
0.0000

> <Gold.PLP.ligand.torsion>
0.8947

> <Gold.PLP.Chemscore.Hbond>
2.9357

> <Gold.PLP.Chemscore.CHOScore>
0.9249

> <Gold.PLP.Chemscore.Metal>
0.0000

> <Gold.Chemscore.Hbonds>
donor molecule, donor type, donor heavy atom, donor atom, acceptor molecule, acceptor atom, score
      L1  H     8    32       P1 10175  0.94
      L1  H    11    33       P1 10175  1.00
      P1  H  7989  7998       L1    19  1.00
      L1  C    22    50       P1 10171  0.88

> <Gold.PLP.Chemscore.Internal.Correction>
0.0675

> <Gold.Rescore>
     Score         DG    S(hbond)    S(metal)    S(lipo)     H(rot)  DE(clash)    DE(int)     intcor
     16.91     -20.52       2.82        0.00      79.09       1.42       1.47       2.14       ----

> <Gold.Chemscore.Fitness>
16.9105

> <Gold.Chemscore.DG>
-20.5184

> <Gold.Chemscore.ZeroCoef>
-5.4800

> <Gold.Chemscore.Hbond>
2.8215

> <Gold.Chemscore.Metal>
0.0000

> <Gold.Chemscore.Lipo>
79.0941

> <Gold.Chemscore.Internal_Hbond>
0.0000

> <Gold.Chemscore.DEClash>
1.4710

> <Gold.Chemscore.DEInternal>
2.1368

> <Gold.Chemscore.Rot>
1.4217

> <Gold.Chemscore.Internal.Correction>
   9.000000E+99

> <Gold.Chemscore.Hbonds>
donor molecule, donor type, donor heavy atom, donor atom, acceptor molecule, acceptor atom, score
      L1  H     8    32       P1 10175  0.84
      L1  H    11    33       P1 10175  1.00
      P1  H  7989  7998       L1    19  0.45

> <Gold.Chemscore.Hbond.Weighted>
-9.4239

> <Gold.Chemscore.Metal.Weighted>
-0.0000

> <Gold.Chemscore.Lipo.Weighted>
-9.2540

> <Gold.Chemscore.Internal_Hbond.Weighted>
0.0000

> <Gold.Chemscore.DEClash.Weighted>
1.4710

> <Gold.Chemscore.DEInternal.Weighted>
2.1368

> <Gold.Chemscore.Rot.Weighted>
3.6395

> <Gold.Chemscore.Internal.Correction.Weighted>
   9.000000E+99

> <Gold.Protein.RotatedTorsions>
[ 6907 6896 6895 6894 ] final  -23.46 input  -60.11 | X-H torsion
[ 7974 7965 7964 7962 ] final   13.10 input  175.53 | X-H torsion
[ 8008 7997 7996 7995 ] final   93.76 input   59.86 | X-H torsion
[ 10167 10162 10161 10158 ] final -146.89 input  -65.29 | X-H torsion
[ 10718 10713 10712 10709 ] final   15.64 input   66.30 | X-H torsion
[ 10763 10752 10751 10750 ] final  -66.73 input  -60.55 | X-H torsion
[ 11005 11000 10999 10996 ] final  172.05 input  -57.11 | X-H torsion

> <Gold.Protein.ActiveResidues>
 VAL166  LYS551  ARG553  GLY616  TRP617  ASP618  TYR619  PRO620  LYS621  CYS622 
 ASP623  PHE694  ASN695  SER759  ASP760  ASP761  ALA762  ILE779  LEU786  VAL792 
 PHE793  MET794  SER795  GLU796  ALA797  LYS798  CYS799  TRP800  GLU811  SER814 

> <Gold.Protein.RotatedAtoms>
  151.2037  135.0453  159.8882 H   0  0  0  0  0  0  0  0  0  0  0  0  # atno 6907 bound_to 6896
  152.5430  134.0821  159.8250 H   0  0  0  0  0  0  0  0  0  0  0  0  # atno 6908 bound_to 6896
  151.0965  133.5228  159.2644 H   0  0  0  0  0  0  0  0  0  0  0  0  # atno 6909 bound_to 6896
  146.2337  139.9239  142.8506 H   0  0  0  0  0  0  0  0  0  0  0  0  # atno 7974 bound_to 7965
  156.0504  140.3308  155.7344 H   0  0  0  0  0  0  0  0  0  0  0  0  # atno 8008 bound_to 7997
  155.5610  140.0619  157.2846 H   0  0  0  0  0  0  0  0  0  0  0  0  # atno 8009 bound_to 7997
  154.4433  140.1877  156.0771 H   0  0  0  0  0  0  0  0  0  0  0  0  # atno 8010 bound_to 7997
  139.7672  143.8291  152.2618 H   0  0  0  0  0  0  0  0  0  0  0  0  # atno 10167 bound_to 10162
  157.0564  130.6291  149.5777 H   0  0  0  0  0  0  0  0  0  0  0  0  # atno 10718 bound_to 10713
  154.3642  135.6109  153.5706 H   0  0  0  0  0  0  0  0  0  0  0  0  # atno 10763 bound_to 10752
  152.9792  135.5822  154.4598 H   0  0  0  0  0  0  0  0  0  0  0  0  # atno 10764 bound_to 10752
  154.4341  135.2848  155.1870 H   0  0  0  0  0  0  0  0  0  0  0  0  # atno 10765 bound_to 10752
  140.3255  134.7401  157.4096 H   0  0  0  0  0  0  0  0  0  0  0  0  # atno 11005 bound_to 11000
  145.2110  140.9895  143.4101 LP  0  0  0  0  0  0  0  0  0  0  0  0  # atno 17320 bound_to 7965
  144.9691  139.3898  143.6318 LP  0  0  0  0  0  0  0  0  0  0  0  0  # atno 17321 bound_to 7965
  139.8314  144.7252  150.9445 LP  0  0  0  0  0  0  0  0  0  0  0  0  # atno 17342 bound_to 10162
  140.7811  143.4066  151.1061 LP  0  0  0  0  0  0  0  0  0  0  0  0  # atno 17343 bound_to 10162
  155.9991  130.5067  150.7597 LP  0  0  0  0  0  0  0  0  0  0  0  0  # atno 17370 bound_to 10713
  157.4989  131.0917  151.0338 LP  0  0  0  0  0  0  0  0  0  0  0  0  # atno 17371 bound_to 10713
  140.0905  134.5608  155.8449 LP  0  0  0  0  0  0  0  0  0  0  0  0  # atno 17394 bound_to 11000
  141.2076  133.6666  156.6317 LP  0  0  0  0  0  0  0  0  0  0  0  0  # atno 17395 bound_to 11000

$$$$
