#       Name:                AV-unprocessed.smi:1554
#       Creating user name   scv26
#       Creation time:       Fri Mar 27 06:43:55 2020


#       File generated by GOLD software.
#

@<TRIPOS>MOLECULE
AV-unprocessed.smi:1554
    53    55     1
SMALL
NO_CHARGES


@<TRIPOS>ATOM
      1 ****        -1.7242   5.5425  -3.4826 C.3            1 S1                 0.0000
      2 ****        -1.4141   4.4249  -2.5012 C.ar           1 S1                 0.0000
      3 ****        -1.2250   4.7557  -1.1405 C.ar           1 S1                 0.0000
      4 ****        -0.9419   3.7121  -0.2673 C.ar           1 S1                 0.0000
      5 ****        -0.7064   3.7111   1.1091 N.pl3          1 S1                 1.0000
      6 ****        -0.4680   2.4378   1.5284 C.2            1 S1                 0.0000
      7 ****        -0.5477   1.6251   0.4401 N.pl3          1 S1                 0.0000
      8 ****        -0.3672   0.1692   0.3463 C.3            1 S1                 0.0000
      9 ****         1.1142  -0.2401   0.2113 C.3            1 S1                 0.0000
     10 ****         1.6522   0.3091  -0.9746 O.3            1 S1                 0.0000
     11 ****         1.3054  -1.7685   0.1468 C.3            1 S1                 0.0000
     12 ****         0.8927  -2.5076   1.3403 N.3            1 S1                 0.0000
     13 ****         1.7410  -2.2289   2.4969 C.3            1 S1                 0.0000
     14 ****         1.3125  -3.0399   3.7316 C.3            1 S1                 0.0000
     15 ****         1.3141  -4.4285   3.4181 O.3            1 S1                 0.0000
     16 ****         0.4584  -4.7524   2.3260 C.3            1 S1                 0.0000
     17 ****         0.5341  -6.2639   2.0867 C.3            1 S1                 0.0000
     18 ****         0.8962  -3.9450   1.0887 C.3            1 S1                 0.0000
     19 ****        -0.8442   2.3763  -0.7039 C.ar           1 S1                 0.0000
     20 ****        -1.0284   2.0338  -2.0416 C.ar           1 S1                 0.0000
     21 ****        -1.3185   3.0807  -2.9455 C.ar           1 S1                 0.0000
     22 ****        -1.5253   2.7359  -4.4106 C.3            1 S1                 0.0000
     23 ****        -1.7098   6.5175  -2.9946 H              1 S1                 0.0000
     24 ****        -2.7129   5.4027  -3.9200 H              1 S1                 0.0000
     25 ****        -0.9886   5.5638  -4.2869 H              1 S1                 0.0000
     26 ****        -1.2963   5.7767  -0.7950 H              1 S1                 0.0000
     27 ****        -0.2529   2.1281   2.5411 H              1 S1                 0.0000
     28 ****        -0.7890  -0.2589   1.2566 H              1 S1                 0.0000
     29 ****        -0.9663  -0.2197  -0.4771 H              1 S1                 0.0000
     30 ****         1.6866   0.1799   1.0379 H              1 S1                 0.0000
     31 ****         1.2004  -0.0699  -1.7127 H              1 S1                 0.0000
     32 ****         0.7426  -2.1392  -0.7114 H              1 S1                 0.0000
     33 ****         2.3521  -1.9920  -0.0673 H              1 S1                 0.0000
     34 ****         2.7806  -2.4581   2.2578 H              1 S1                 0.0000
     35 ****         1.7037  -1.1701   2.7500 H              1 S1                 0.0000
     36 ****         1.9986  -2.8613   4.5597 H              1 S1                 0.0000
     37 ****         0.3194  -2.7366   4.0667 H              1 S1                 0.0000
     38 ****        -0.5677  -4.4898   2.5899 H              1 S1                 0.0000
     39 ****        -0.1138  -6.5641   1.2628 H              1 S1                 0.0000
     40 ****         0.2203  -6.8147   2.9736 H              1 S1                 0.0000
     41 ****         1.5509  -6.5740   1.8440 H              1 S1                 0.0000
     42 ****         0.2296  -4.1743   0.2565 H              1 S1                 0.0000
     43 ****         1.8947  -4.2628   0.7835 H              1 S1                 0.0000
     44 ****        -0.9507   1.0125  -2.3831 H              1 S1                 0.0000
     45 ****        -1.4548   1.6612  -4.5816 H              1 S1                 0.0000
     46 ****        -0.7694   3.2218  -5.0279 H              1 S1                 0.0000
     47 ****        -2.5102   3.0612  -4.7465 H              1 S1                 0.0000
     48 ****        -0.7061   4.5185   1.7193 H              1 S1                 0.0000
     49 ****         2.6279   0.0978  -1.0317 LP             1 S1                 0.0000
     50 ****         1.5254   1.3011  -0.9746 LP             1 S1                 0.0000
     51 ****        -0.0345  -2.1976   1.5510 LP             1 S1                 0.0000
     52 ****         1.0100  -4.9375   4.2234 LP             1 S1                 0.0000
     53 ****         2.2472  -4.7014   3.1840 LP             1 S1                 0.0000
@<TRIPOS>BOND
    1    1    2 1     
    2    1   23 1     
    3    1   24 1     
    4    1   25 1     
    5    2   21 ar    
    6    2    3 ar    
    7    3    4 ar    
    8    3   26 1     
    9    4   19 ar    
   10    4    5 1     
   11    5    6 2     
   12    5   48 1     
   13    6    7 1     
   14    6   27 1     
   15    7    8 1     
   16    7   19 1     
   17    8    9 1     
   18    8   28 1     
   19    8   29 1     
   20    9   10 1     
   21    9   11 1     
   22    9   30 1     
   23   10   31 1     
   24   11   12 1     
   25   11   32 1     
   26   11   33 1     
   27   12   18 1     
   28   12   13 1     
   29   13   14 1     
   30   13   34 1     
   31   13   35 1     
   32   14   15 1     
   33   14   36 1     
   34   14   37 1     
   35   15   16 1     
   36   16   17 1     
   37   16   18 1     
   38   16   38 1     
   39   17   39 1     
   40   17   40 1     
   41   17   41 1     
   42   18   42 1     
   43   18   43 1     
   44   19   20 ar    
   45   20   21 ar    
   46   20   44 1     
   47   21   22 1     
   48   22   45 1     
   49   22   46 1     
   50   22   47 1     
   51   10   49 1     
   52   10   50 1     
   53   12   51 1     
   54   15   52 1     
   55   15   53 1     
@<TRIPOS>SUBSTRUCTURE
      1 S1             1
@<TRIPOS>SET
LONE_PAIRS      STATIC     ATOMS    <user>   **** ""
5 49 50 51 52 53
DONOR_HYDROGENS      STATIC     ATOMS    <user>   **** ""
2 48 31
ATOM$BLUE        STATIC     ATOMS    COLORGROUP SYSTEM
5 49 50 51 52 53
ATOM$RED        STATIC     ATOMS    COLORGROUP SYSTEM
2 48 31
