#       Name:                AV-unprocessed.smi:1737
#       Creating user name   scv26
#       Creation time:       Fri Mar 27 08:20:57 2020


#       File generated by GOLD software.
#

@<TRIPOS>MOLECULE
AV-unprocessed.smi:1737
    48    49     1
SMALL
NO_CHARGES


@<TRIPOS>ATOM
      1 ****        -5.0782  -0.8751   1.4506 C.3            1 S1                 0.0000
      2 ****        -4.8410   0.5971   1.1554 C.ar           1 S1                 0.0000
      3 ****        -5.9434   1.4765   1.1016 C.ar           1 S1                 0.0000
      4 ****        -5.7228   2.8375   0.8299 C.ar           1 S1                 0.0000
      5 ****        -4.4002   3.2644   0.6219 C.ar           1 S1                 0.0000
      6 ****        -3.3408   2.4312   0.6715 N.ar           1 S1                 0.0000
      7 ****        -3.5364   1.1144   0.9334 C.ar           1 S1                 0.0000
      8 ****        -2.4662   0.1775   0.9948 N.am           1 S1                 0.0000
      9 ****        -1.1484   0.4049   0.8541 C.2            1 S1                 0.0000
     10 ****        -0.6273   1.5065   0.6762 O.2            1 S1                 0.0000
     11 ****        -0.4456  -0.7344   0.9326 N.am           1 S1                 0.0000
     12 ****         1.0078  -0.8206   0.8222 C.3            1 S1                 0.0000
     13 ****         1.5203  -0.6537  -0.6336 C.3            1 S1                 0.0000
     14 ****         0.8884  -1.7323  -1.5466 C.3            1 S1                 0.0000
     15 ****         3.0195  -0.6508  -0.6574 N.4            1 S1                 1.0000
     16 ****         3.6457  -1.0241  -1.9560 C.3            1 S1                 0.0000
     17 ****         5.1809  -1.0181  -1.8526 C.3            1 S1                 0.0000
     18 ****         5.6330   0.2560  -1.4187 O.3            1 S1                 0.0000
     19 ****         5.1272   0.5776  -0.1316 C.3            1 S1                 0.0000
     20 ****         3.5924   0.6400  -0.1861 C.3            1 S1                 0.0000
     21 ****        -6.1406  -1.0906   1.5676 H              1 S1                 0.0000
     22 ****        -4.5739  -1.1642   2.3732 H              1 S1                 0.0000
     23 ****        -4.6986  -1.4950   0.6377 H              1 S1                 0.0000
     24 ****        -6.9481   1.1151   1.2657 H              1 S1                 0.0000
     25 ****        -6.5454   3.5354   0.7816 H              1 S1                 0.0000
     26 ****        -4.1859   4.3013   0.4086 H              1 S1                 0.0000
     27 ****        -2.7411  -0.7800   1.1561 H              1 S1                 0.0000
     28 ****        -0.9470  -1.5981   1.0819 H              1 S1                 0.0000
     29 ****         1.4378  -0.0801   1.4954 H              1 S1                 0.0000
     30 ****         1.3151  -1.7923   1.2104 H              1 S1                 0.0000
     31 ****         1.1887   0.3121  -1.0184 H              1 S1                 0.0000
     32 ****        -0.1996  -1.7251  -1.4854 H              1 S1                 0.0000
     33 ****         1.2235  -2.7335  -1.2735 H              1 S1                 0.0000
     34 ****         1.1235  -1.5669  -2.5980 H              1 S1                 0.0000
     35 ****         3.3437  -2.0257  -2.2610 H              1 S1                 0.0000
     36 ****         3.3202  -0.3308  -2.7334 H              1 S1                 0.0000
     37 ****         5.5281  -1.7933  -1.1675 H              1 S1                 0.0000
     38 ****         5.6220  -1.2350  -2.8257 H              1 S1                 0.0000
     39 ****         5.4639  -0.1550   0.6037 H              1 S1                 0.0000
     40 ****         5.5312   1.5432   0.1733 H              1 S1                 0.0000
     41 ****         3.2821   1.4427  -0.8570 H              1 S1                 0.0000
     42 ****         3.2217   0.8994   0.8036 H              1 S1                 0.0000
     43 ****         3.3118  -1.3593   0.0005 H              1 S1                 0.0000
     44 ****        -2.4171   2.7817   0.5162 LP             1 S1                 0.0000
     45 ****        -1.1969   2.3269   0.6260 LP             1 S1                 0.0000
     46 ****         0.3655   1.5807   0.5819 LP             1 S1                 0.0000
     47 ****         5.3260   0.9491  -2.0709 LP             1 S1                 0.0000
     48 ****         6.6324   0.2513  -1.3832 LP             1 S1                 0.0000
@<TRIPOS>BOND
    1    1    2 1     
    2    1   21 1     
    3    1   22 1     
    4    1   23 1     
    5    2    7 ar    
    6    2    3 ar    
    7    3    4 ar    
    8    3   24 1     
    9    4    5 ar    
   10    4   25 1     
   11    5    6 ar    
   12    5   26 1     
   13    6    7 ar    
   14    7    8 1     
   15    8    9 am    
   16    8   27 1     
   17    9   10 2     
   18    9   11 am    
   19   11   12 1     
   20   11   28 1     
   21   12   13 1     
   22   12   29 1     
   23   12   30 1     
   24   13   14 1     
   25   13   15 1     
   26   13   31 1     
   27   14   32 1     
   28   14   33 1     
   29   14   34 1     
   30   15   20 1     
   31   15   16 1     
   32   15   43 1     
   33   16   17 1     
   34   16   35 1     
   35   16   36 1     
   36   17   18 1     
   37   17   37 1     
   38   17   38 1     
   39   18   19 1     
   40   19   20 1     
   41   19   39 1     
   42   19   40 1     
   43   20   41 1     
   44   20   42 1     
   45    6   44 1     
   46   10   45 1     
   47   10   46 1     
   48   18   47 1     
   49   18   48 1     
@<TRIPOS>SUBSTRUCTURE
      1 S1             1
@<TRIPOS>SET
LONE_PAIRS      STATIC     ATOMS    <user>   **** ""
5 44 45 46 47 48
DONOR_HYDROGENS      STATIC     ATOMS    <user>   **** ""
3 27 28 43
ATOM$BLUE        STATIC     ATOMS    COLORGROUP SYSTEM
5 44 45 46 47 48
ATOM$RED        STATIC     ATOMS    COLORGROUP SYSTEM
3 27 28 43
