AV-unprocessed.smi:1518|AV-procd|sdf|6124|dock4
  -GOLD-   22720 6263D 1   1.00000     0.00000
 Structure written by MMmdl.
 45 47  0  0  0  0  0  0  0  0  1 V2000
  145.1891  144.5902  151.9401 C   0  0  0  0  0  0  0  0  0  0  0  0
  144.3239  144.6969  153.1950 C   0  0  0  0  0  0  0  0  0  0  0  0
  143.3629  145.4656  153.1843 O   0  0  0  0  0  0  0  0  0  0  0  0
  144.6954  143.8614  154.3733 C   0  0  0  0  0  0  0  0  0  0  0  0
  143.9807  144.0182  155.5822 C   0  0  0  0  0  0  0  0  0  0  0  0
  144.3096  143.2458  156.7106 C   0  0  0  0  0  0  0  0  0  0  0  0
  145.3551  142.3081  156.6413 C   0  0  0  0  0  0  0  0  0  0  0  0
  146.0815  142.1287  155.4481 C   0  0  0  0  0  0  0  0  0  0  0  0
  147.0883  141.1878  155.4710 O   0  0  0  0  0  0  0  0  0  0  0  0
  147.9826  141.1216  154.3671 C   0  0  0  0  0  0  0  0  0  0  0  0
  149.4082  140.8410  154.8682 C   0  0  2  0  0  0  0  0  0  0  0  0
  150.1682  140.2827  153.8153 O   0  0  0  0  0  0  0  0  0  0  0  0
  149.4522  139.9628  156.1361 C   0  0  0  0  0  0  0  0  0  0  0  0
  150.6440  140.1934  156.9408 N   0  0  0  0  0  0  0  0  0  0  0  0
  151.7325  139.3939  157.0715 C   0  0  0  0  0  0  0  0  0  0  0  0
  151.8359  138.0865  156.3377 C   0  0  0  0  0  0  0  0  0  0  0  0
  153.0266  137.3722  156.6014 O   0  0  0  0  0  0  0  0  0  0  0  0
  152.6933  139.8557  157.8756 N   0  0  0  0  0  0  0  0  0  0  0  0
  152.1797  141.0633  158.3055 C   0  0  0  0  0  0  0  0  0  0  0  0
  152.7223  142.0341  159.1776 C   0  0  0  0  0  0  0  0  0  0  0  0
  152.0028  143.2108  159.4723 C   0  0  0  0  0  0  0  0  0  0  0  0
  150.7336  143.4332  158.9002 C   0  0  0  0  0  0  0  0  0  0  0  0
  150.1752  142.4790  158.0282 C   0  0  0  0  0  0  0  0  0  0  0  0
  150.8975  141.3059  157.7375 C   0  0  0  0  0  0  0  0  0  0  0  0
  145.7438  142.9111  154.3142 C   0  0  0  0  0  0  0  0  0  0  0  0
  145.1415  143.5819  151.5290 H   0  0  0  0  0  0  0  0  0  0  0  0
  146.2278  144.8293  152.1692 H   0  0  0  0  0  0  0  0  0  0  0  0
  144.8414  145.2862  151.1764 H   0  0  0  0  0  0  0  0  0  0  0  0
  143.1739  144.7332  155.6581 H   0  0  0  0  0  0  0  0  0  0  0  0
  143.7589  143.3730  157.6308 H   0  0  0  0  0  0  0  0  0  0  0  0
  145.6013  141.7195  157.5128 H   0  0  0  0  0  0  0  0  0  0  0  0
  147.6713  140.3554  153.6547 H   0  0  0  0  0  0  0  0  0  0  0  0
  147.9799  142.0807  153.8467 H   0  0  0  0  0  0  0  0  0  0  0  0
  149.8723  141.8019  155.0911 H   0  0  0  0  0  0  0  0  0  0  0  0
  149.7110  140.4359  153.0024 H   0  0  0  0  0  0  0  0  0  0  0  0
  148.5700  140.1429  156.7509 H   0  0  0  0  0  0  0  0  0  0  0  0
  149.4207  138.9056  155.8700 H   0  0  0  0  0  0  0  0  0  0  0  0
  150.9934  137.4501  156.6061 H   0  0  0  0  0  0  0  0  0  0  0  0
  151.7733  138.2769  155.2660 H   0  0  0  0  0  0  0  0  0  0  0  0
  153.7089  137.9912  156.8108 H   0  0  0  0  0  0  0  0  0  0  0  0
  153.6942  141.8729  159.6200 H   0  0  0  0  0  0  0  0  0  0  0  0
  152.4270  143.9459  160.1404 H   0  0  0  0  0  0  0  0  0  0  0  0
  150.1888  144.3369  159.1314 H   0  0  0  0  0  0  0  0  0  0  0  0
  149.2027  142.6461  157.5898 H   0  0  0  0  0  0  0  0  0  0  0  0
  146.2905  142.7838  153.3935 H   0  0  0  0  0  0  0  0  0  0  0  0
  1  2  1  0  0  0  0
  1 26  1  0  0  0  0
  1 27  1  0  0  0  0
  1 28  1  0  0  0  0
  2  3  2  0  0  0  0
  2  4  1  0  0  0  0
  4 25  1  0  0  0  0
  4  5  2  0  0  0  0
  5  6  1  0  0  0  0
  5 29  1  0  0  0  0
  6  7  2  0  0  0  0
  6 30  1  0  0  0  0
  7  8  1  0  0  0  0
  7 31  1  0  0  0  0
  8  9  1  0  0  0  0
  8 25  2  0  0  0  0
  9 10  1  0  0  0  0
 10 11  1  0  0  0  0
 10 32  1  0  0  0  0
 10 33  1  0  0  0  0
 11 12  1  0  0  0  0
 11 13  1  0  0  0  0
 11 34  1  0  0  0  0
 12 35  1  0  0  0  0
 13 14  1  0  0  0  0
 13 36  1  0  0  0  0
 13 37  1  0  0  0  0
 14 24  1  0  0  0  0
 14 15  1  0  0  0  0
 15 16  1  0  0  0  0
 15 18  2  0  0  0  0
 16 17  1  0  0  0  0
 16 38  1  0  0  0  0
 16 39  1  0  0  0  0
 17 40  1  0  0  0  0
 18 19  1  0  0  0  0
 19 24  2  0  0  0  0
 19 20  1  0  0  0  0
 20 21  2  0  0  0  0
 20 41  1  0  0  0  0
 21 22  1  0  0  0  0
 21 42  1  0  0  0  0
 22 23  2  0  0  0  0
 22 43  1  0  0  0  0
 23 24  1  0  0  0  0
 23 44  1  0  0  0  0
 25 45  1  0  0  0  0
M  END
> <s_m_source_file>
AV-unprocessed.smi

> <i_m_source_file_index>
1518

> <i_lp_mmshare_version>
43012

> <i_f3d_flags>
0

> <s_epik_input>
W0NIM11DKD1PKWMxW2NIXVtjSF1bY0hdYyhbY0hdMSlPW0NIMl1bQ0BIXShbT0hdKVtDSDJdbihjKG4yKVtDSDJdW09IXSljKGMyMylbY0hdW2NIXVtjSF1bY0hdMw==

> <s_epik_cmdline>
J2VwaWtfcHl0aG9uJywgJy1waCcsICc3LjAnLCAnLXRuJywgJzgnLCAnLW1hJywgJzIwMCcsICctbWV0YWxfYmluZGluZycsICctaW1hZScsICc8aW5maWxlLm1hZT4nLCAnLW9tYWUnLCAnPG91dGZpbGUubWFlPic=

> <r_lp_tautomer_probability>
0.99995

> <r_epik_Ionization_Penalty>
0.0583159

> <r_epik_Ionization_Penalty_Charging>
0

> <r_epik_Ionization_Penalty_Neutral>
0.0583159

> <r_epik_State_Penalty>
0.0503525

> <r_epik_Charging_Adjusted_Penalty>
0.0503525

> <i_epik_Tot_Q>
0

> <i_epik_Tot_abs_Q>
0

> <r_epik_Metal_State_Penalty>
5.25517e-05

> <b_epik_Metal_Only>
0

> <s_lp_Force_Field>
OPLS_2005

> <r_lp_Energy>
22.7276

> <b_lp_Chiralities_Consistent>
1

> <s_lp_Variant>
AV-unprocessed.smi:1518-1

> <Gold.Version>
5.8.1

> <Gold.Id.Protein>
6NUR|6NUR_protein|mol2

> <Gold.PLP.Fitness>
53.4906

> <Gold.PLP.PLP>
-45.6955

> <Gold.PLP.part.hbond>
-5.0332

> <Gold.PLP.part.metal>
0.0000

> <Gold.PLP.part.buried>
-7.8218

> <Gold.PLP.part.nonpolar>
-33.2712

> <Gold.PLP.part.repulsive>
0.1610

> <Gold.PLP.ligand.clash>
0.0000

> <Gold.PLP.ligand.torsion>
1.0849

> <Gold.PLP.Chemscore.Hbond>
3.2758

> <Gold.PLP.Chemscore.CHOScore>
0.0000

> <Gold.PLP.Chemscore.Metal>
0.0000

> <Gold.Chemscore.Hbonds>
donor molecule, donor type, donor heavy atom, donor atom, acceptor molecule, acceptor atom, score
      L1  H    12    35       P1  7957  0.93
      P1  H  7989  7998       L1    12  0.78
      P1  H  7997  8010       L1    18  0.91
      P1  H 10752 10763       L1    17  0.07

> <Gold.PLP.Chemscore.Internal.Correction>
0.1373

> <Gold.Rescore>
     Score         DG    S(hbond)    S(metal)    S(lipo)     H(rot)  DE(clash)    DE(int)     intcor
     15.65     -16.85       2.24        0.00     104.22       3.25       0.05       1.15       ----

> <Gold.Chemscore.Fitness>
15.6527

> <Gold.Chemscore.DG>
-16.8491

> <Gold.Chemscore.ZeroCoef>
-5.4800

> <Gold.Chemscore.Hbond>
2.2429

> <Gold.Chemscore.Metal>
0.0000

> <Gold.Chemscore.Lipo>
104.2155

> <Gold.Chemscore.Internal_Hbond>
0.0000

> <Gold.Chemscore.DEClash>
0.0492

> <Gold.Chemscore.DEInternal>
1.1472

> <Gold.Chemscore.Rot>
3.2482

> <Gold.Chemscore.Internal.Correction>
   9.000000E+99

> <Gold.Chemscore.Hbonds>
donor molecule, donor type, donor heavy atom, donor atom, acceptor molecule, acceptor atom, score
      L1  H    12    35       P1  7957  0.89
      P1  H  7989  7998       L1    12  0.22
      P1  H  7997  8010       L1    18  0.65
      P1  H 10752 10763       L1    17  0.08

> <Gold.Chemscore.Hbond.Weighted>
-7.4914

> <Gold.Chemscore.Metal.Weighted>
-0.0000

> <Gold.Chemscore.Lipo.Weighted>
-12.1932

> <Gold.Chemscore.Internal_Hbond.Weighted>
0.0000

> <Gold.Chemscore.DEClash.Weighted>
0.0492

> <Gold.Chemscore.DEInternal.Weighted>
1.1472

> <Gold.Chemscore.Rot.Weighted>
8.3155

> <Gold.Chemscore.Internal.Correction.Weighted>
   9.000000E+99

> <Gold.Protein.RotatedTorsions>
[ 6907 6896 6895 6894 ] final   69.35 input  -60.11 | X-H torsion
[ 7974 7965 7964 7962 ] final  -55.56 input  175.53 | X-H torsion
[ 8008 7997 7996 7995 ] final   38.01 input   59.86 | X-H torsion
[ 10167 10162 10161 10158 ] final   78.02 input  -65.29 | X-H torsion
[ 10718 10713 10712 10709 ] final   22.47 input   66.30 | X-H torsion
[ 10763 10752 10751 10750 ] final  105.01 input  -60.55 | X-H torsion
[ 11005 11000 10999 10996 ] final   63.54 input  -57.11 | X-H torsion

> <Gold.Protein.ActiveResidues>
 VAL166  LYS551  ARG553  GLY616  TRP617  ASP618  TYR619  PRO620  LYS621  CYS622 
 ASP623  PHE694  ASN695  SER759  ASP760  ASP761  ALA762  ILE779  LEU786  VAL792 
 PHE793  MET794  SER795  GLU796  ALA797  LYS798  CYS799  TRP800  GLU811  SER814 

> <Gold.Protein.RotatedAtoms>
  152.4680  134.5029  159.9729 H   0  0  0  0  0  0  0  0  0  0  0  0  # atno 6907 bound_to 6896
  151.5062  133.3488  159.2885 H   0  0  0  0  0  0  0  0  0  0  0  0  # atno 6908 bound_to 6896
  150.8675  134.8069  159.7191 H   0  0  0  0  0  0  0  0  0  0  0  0  # atno 6909 bound_to 6896
  145.8728  140.8203  142.9879 H   0  0  0  0  0  0  0  0  0  0  0  0  # atno 7974 bound_to 7965
  155.2131  140.3325  155.4326 H   0  0  0  0  0  0  0  0  0  0  0  0  # atno 8008 bound_to 7997
  156.2362  140.1873  156.7160 H   0  0  0  0  0  0  0  0  0  0  0  0  # atno 8009 bound_to 7997
  154.6064  140.0615  156.9423 H   0  0  0  0  0  0  0  0  0  0  0  0  # atno 8010 bound_to 7997
  139.9754  144.5864  150.7948 H   0  0  0  0  0  0  0  0  0  0  0  0  # atno 10167 bound_to 10162
  157.1527  130.6682  149.6017 H   0  0  0  0  0  0  0  0  0  0  0  0  # atno 10718 bound_to 10713
  153.3736  135.3924  155.1806 H   0  0  0  0  0  0  0  0  0  0  0  0  # atno 10763 bound_to 10752
  154.8698  135.3708  154.4947 H   0  0  0  0  0  0  0  0  0  0  0  0  # atno 10764 bound_to 10752
  153.5417  135.7084  153.5694 H   0  0  0  0  0  0  0  0  0  0  0  0  # atno 10765 bound_to 10752
  140.0018  134.6431  155.9919 H   0  0  0  0  0  0  0  0  0  0  0  0  # atno 11005 bound_to 11000
  144.6726  140.1265  143.7446 LP  0  0  0  0  0  0  0  0  0  0  0  0  # atno 17320 bound_to 7965
  145.9116  139.2491  143.1434 LP  0  0  0  0  0  0  0  0  0  0  0  0  # atno 17321 bound_to 7965
  140.7507  143.2961  151.3202 LP  0  0  0  0  0  0  0  0  0  0  0  0  # atno 17342 bound_to 10162
  139.6449  144.0469  152.2583 LP  0  0  0  0  0  0  0  0  0  0  0  0  # atno 17343 bound_to 10162
  155.9767  130.4739  150.6549 LP  0  0  0  0  0  0  0  0  0  0  0  0  # atno 17370 bound_to 10713
  157.4205  131.0836  151.1135 LP  0  0  0  0  0  0  0  0  0  0  0  0  # atno 17371 bound_to 10713
  141.1647  133.6537  156.4439 LP  0  0  0  0  0  0  0  0  0  0  0  0  # atno 17394 bound_to 11000
  140.4715  134.6749  157.5131 LP  0  0  0  0  0  0  0  0  0  0  0  0  # atno 17395 bound_to 11000

$$$$
