#       Name:                AV-unprocessed.smi:1776
#       Creating user name   scv26
#       Creation time:       Fri Mar 27 08:41:34 2020


#       File generated by GOLD software.
#

@<TRIPOS>MOLECULE
AV-unprocessed.smi:1776
    39    40     1
SMALL
NO_CHARGES


@<TRIPOS>ATOM
      1 ****        -0.3285   1.5686  -0.6798 O.2            1 S1                 0.0000
      2 ****        -0.6495   0.4198  -0.3757 C.2            1 S1                 0.0000
      3 ****         0.2106  -0.5908  -0.1370 N.am           1 S1                 0.0000
      4 ****         1.6165  -0.6195  -0.1705 C.2            1 S1                 0.0000
      5 ****         2.4162   0.4047  -0.5804 C.2            1 S1                 0.0000
      6 ****         3.8702   0.3026  -0.5951 C.2            1 S1                 0.0000
      7 ****         4.7922   1.4540  -0.9561 C.3            1 S1                 0.0000
      8 ****         5.9117   1.4181  -0.2328 F              1 S1                 0.0000
      9 ****         5.1268   1.3807  -2.2435 F              1 S1                 0.0000
     10 ****         4.1948   2.6276  -0.7483 F              1 S1                 0.0000
     11 ****         4.3145  -0.9231  -0.1390 C.2            1 S1                 0.0000
     12 ****         3.5945  -1.9932   0.2621 N.pl3          1 S1                -1.0000
     13 ****         2.2357  -1.8879   0.2689 C.2            1 S1                 0.0000
     14 ****         1.5204  -2.8234   0.6298 O.2            1 S1                 0.0000
     15 ****        -2.1351   0.0474  -0.2564 C.3            1 S1                 0.0000
     16 ****        -3.0700   1.2777  -0.1836 C.3            1 S1                 0.0000
     17 ****        -4.4145   0.8393  -0.0341 O.3            1 S1                 0.0000
     18 ****        -4.5792   0.0688   1.1482 C.3            1 S1                 0.0000
     19 ****        -3.6613  -1.1617   1.0734 C.3            1 S1                 0.0000
     20 ****        -2.3166  -0.7266   0.9271 O.3            1 S1                 0.0000
     21 ****        -0.2104  -1.4706   0.1255 H              1 S1                 0.0000
     22 ****         2.0005   1.3365  -0.9233 H              1 S1                 0.0000
     23 ****         5.4150  -1.0636  -0.0841 H              1 S1                 0.0000
     24 ****        -2.3934  -0.5588  -1.1266 H              1 S1                 0.0000
     25 ****        -2.7986   1.9341   0.6453 H              1 S1                 0.0000
     26 ****        -3.0022   1.8683  -1.0978 H              1 S1                 0.0000
     27 ****        -4.3508   0.6721   2.0282 H              1 S1                 0.0000
     28 ****        -5.6214  -0.2394   1.2308 H              1 S1                 0.0000
     29 ****        -3.7462  -1.7546   1.9841 H              1 S1                 0.0000
     30 ****        -3.9418  -1.8081   0.2403 H              1 S1                 0.0000
     31 ****         0.6377   1.8114  -0.7667 LP             1 S1                 0.0000
     32 ****        -1.0339   2.2591  -0.8399 LP             1 S1                 0.0000
     33 ****         4.0459  -2.8391   0.5462 LP             1 S1                 0.0000
     34 ****         0.5255  -2.7229   0.6247 LP             1 S1                 0.0000
     35 ****         1.9346  -3.6834   0.9279 LP             1 S1                 0.0000
     36 ****        -4.6643   0.2801  -0.8245 LP             1 S1                 0.0000
     37 ****        -5.0142   1.6383   0.0119 LP             1 S1                 0.0000
     38 ****        -2.0690  -0.1690   1.7194 LP             1 S1                 0.0000
     39 ****        -1.7201  -1.5281   0.8841 LP             1 S1                 0.0000
@<TRIPOS>BOND
    1    1    2 2     
    2    2    3 am    
    3    2   15 1     
    4    3    4 1     
    5    3   21 1     
    6    4   13 1     
    7    4    5 2     
    8    5    6 1     
    9    5   22 1     
   10    6    7 1     
   11    6   11 2     
   12    7    8 1     
   13    7    9 1     
   14    7   10 1     
   15   11   12 1     
   16   11   23 1     
   17   12   13 1     
   18   13   14 2     
   19   15   20 1     
   20   15   16 1     
   21   15   24 1     
   22   16   17 1     
   23   16   25 1     
   24   16   26 1     
   25   17   18 1     
   26   18   19 1     
   27   18   27 1     
   28   18   28 1     
   29   19   20 1     
   30   19   29 1     
   31   19   30 1     
   32    1   31 1     
   33    1   32 1     
   34   12   33 1     
   35   14   34 1     
   36   14   35 1     
   37   17   36 1     
   38   17   37 1     
   39   20   38 1     
   40   20   39 1     
@<TRIPOS>SUBSTRUCTURE
      1 S1             1
@<TRIPOS>SET
LONE_PAIRS      STATIC     ATOMS    <user>   **** ""
9 31 32 33 34 35 36 37 38 39
DONOR_HYDROGENS      STATIC     ATOMS    <user>   **** ""
1 21
ATOM$BLUE        STATIC     ATOMS    COLORGROUP SYSTEM
9 31 32 33 34 35 36 37 38 39
ATOM$RED        STATIC     ATOMS    COLORGROUP SYSTEM
1 21
