AV-unprocessed.smi:1145|AV-procd|sdf|4884|dock9
  -GOLD-   22720 3453D 1   1.00000     0.00000
 Structure written by MMmdl.
 36 37  0  0  0  0  0  0  0  0  1 V2000
  153.6619  139.8016  160.1296 C   0  0  0  0  0  0  0  0  0  0  0  0
  153.3229  141.2110  159.6259 C   0  0  2  0  0  0  0  0  0  0  0  0
  152.9851  142.1601  160.7957 C   0  0  0  0  0  0  0  0  0  0  0  0
  152.5151  143.4588  160.3447 N   0  0  0  0  0  0  0  0  0  0  0  0
  151.9403  144.4670  161.0897 C   0  0  0  0  0  0  0  0  0  0  0  0
  151.6827  145.5037  160.2393 C   0  0  0  0  0  0  0  0  0  0  0  0
  152.1387  145.0280  158.9782 C   0  0  0  0  0  0  0  0  0  0  0  0
  152.6316  143.8019  159.0432 N   0  0  0  0  0  0  0  0  0  0  0  0
  152.2034  141.1259  158.6892 N   0  0  0  0  0  0  0  0  0  0  0  0
  152.1393  140.3241  157.6139 C   0  0  0  0  0  0  0  0  0  0  0  0
  153.0159  139.5092  157.3232 O   0  0  0  0  0  0  0  0  0  0  0  0
  150.9079  140.4903  156.7141 C   0  0  1  0  0  0  0  0  0  0  0  0
  149.6665  139.8697  157.3753 C   0  0  0  0  0  0  0  0  0  0  0  0
  148.4394  139.9737  156.4559 C   0  0  0  0  0  0  0  0  0  0  0  0
  148.2684  141.3608  155.8181 C   0  0  0  0  0  0  0  0  0  0  0  0
  147.1851  141.6706  155.3272 O   0  0  0  0  0  0  0  0  0  0  0  0
  149.3222  142.1954  155.7779 N   0  0  0  0  0  0  0  0  0  0  0  0
  150.6287  141.9754  156.3990 C   0  0  0  0  0  0  0  0  0  0  0  0
  154.5075  139.8246  160.8175 H   0  0  0  0  0  0  0  0  0  0  0  0
  153.9293  139.1426  159.3031 H   0  0  0  0  0  0  0  0  0  0  0  0
  152.8180  139.3532  160.6555 H   0  0  0  0  0  0  0  0  0  0  0  0
  154.2088  141.5912  159.1140 H   0  0  0  0  0  0  0  0  0  0  0  0
  152.2336  141.7126  161.4486 H   0  0  0  0  0  0  0  0  0  0  0  0
  153.8709  142.3244  161.4106 H   0  0  0  0  0  0  0  0  0  0  0  0
  151.7716  144.3661  162.1518 H   0  0  0  0  0  0  0  0  0  0  0  0
  151.2390  146.4579  160.4820 H   0  0  0  0  0  0  0  0  0  0  0  0
  152.1258  145.5334  158.0239 H   0  0  0  0  0  0  0  0  0  0  0  0
  151.4364  141.7641  158.8439 H   0  0  0  0  0  0  0  0  0  0  0  0
  151.0902  139.9674  155.7730 H   0  0  0  0  0  0  0  0  0  0  0  0
  149.8501  138.8216  157.6171 H   0  0  0  0  0  0  0  0  0  0  0  0
  149.4531  140.3696  158.3218 H   0  0  0  0  0  0  0  0  0  0  0  0
  148.5296  139.2483  155.6467 H   0  0  0  0  0  0  0  0  0  0  0  0
  147.5363  139.7130  157.0088 H   0  0  0  0  0  0  0  0  0  0  0  0
  149.1867  143.0872  155.3238 H   0  0  0  0  0  0  0  0  0  0  0  0
  150.6601  142.5781  157.3081 H   0  0  0  0  0  0  0  0  0  0  0  0
  151.3994  142.3699  155.7361 H   0  0  0  0  0  0  0  0  0  0  0  0
  1  2  1  0  0  0  0
  1 19  1  0  0  0  0
  1 20  1  0  0  0  0
  1 21  1  0  0  0  0
  2  3  1  0  0  0  0
  2  9  1  0  0  0  0
  2 22  1  0  0  0  0
  3  4  1  0  0  0  0
  3 23  1  0  0  0  0
  3 24  1  0  0  0  0
  4  8  1  0  0  0  0
  4  5  1  0  0  0  0
  5  6  2  0  0  0  0
  5 25  1  0  0  0  0
  6  7  1  0  0  0  0
  6 26  1  0  0  0  0
  7  8  2  0  0  0  0
  7 27  1  0  0  0  0
  9 10  1  0  0  0  0
  9 28  1  0  0  0  0
 10 11  2  0  0  0  0
 10 12  1  0  0  0  0
 12 18  1  0  0  0  0
 12 13  1  0  0  0  0
 12 29  1  0  0  0  0
 13 14  1  0  0  0  0
 13 30  1  0  0  0  0
 13 31  1  0  0  0  0
 14 15  1  0  0  0  0
 14 32  1  0  0  0  0
 14 33  1  0  0  0  0
 15 16  2  0  0  0  0
 15 17  1  0  0  0  0
 17 18  1  0  0  0  0
 17 34  1  0  0  0  0
 18 35  1  0  0  0  0
 18 36  1  0  0  0  0
M  END
> <s_m_source_file>
AV-unprocessed.smi

> <i_m_source_file_index>
1145

> <i_lp_mmshare_version>
43012

> <i_f3d_flags>
0

> <s_epik_input>
bjFbY0hdW2NIXVtjSF1uMVtDSDJdW0NAQEhdKFtDSDNdKVtOSF1DKD1PKVtDQEBIXTJbQ0gyXVtDSDJdQyg9TylbTkhdW0NIMl0y

> <s_epik_cmdline>
J2VwaWtfcHl0aG9uJywgJy1waCcsICc3LjAnLCAnLXRuJywgJzgnLCAnLW1hJywgJzIwMCcsICctbWV0YWxfYmluZGluZycsICctaW1hZScsICc8aW5maWxlLm1hZT4nLCAnLW9tYWUnLCAnPG91dGZpbGUubWFlPic=

> <r_lp_tautomer_probability>
1

> <r_epik_Ionization_Penalty>
0.000314064

> <r_epik_Ionization_Penalty_Charging>
0

> <r_epik_Ionization_Penalty_Neutral>
0.000314064

> <r_epik_State_Penalty>
-0

> <r_epik_Charging_Adjusted_Penalty>
0

> <i_epik_Tot_Q>
0

> <i_epik_Tot_abs_Q>
0

> <r_epik_Metal_State_Penalty>
-0

> <b_epik_Metal_Only>
0

> <s_lp_Force_Field>
OPLS_2005

> <r_lp_Energy>
12.228

> <b_lp_Chiralities_Consistent>
1

> <s_lp_Variant>
AV-unprocessed.smi:1145-3

> <Gold.Version>
5.8.1

> <Gold.Id.Protein>
6NUR|6NUR_protein|mol2

> <Gold.PLP.Fitness>
43.6421

> <Gold.PLP.PLP>
-39.4659

> <Gold.PLP.part.hbond>
-2.0000

> <Gold.PLP.part.metal>
0.0000

> <Gold.PLP.part.buried>
-7.2152

> <Gold.PLP.part.nonpolar>
-31.6594

> <Gold.PLP.part.repulsive>
0.3817

> <Gold.PLP.ligand.clash>
0.0000

> <Gold.PLP.ligand.torsion>
0.4803

> <Gold.PLP.Chemscore.Hbond>
1.7040

> <Gold.PLP.Chemscore.CHOScore>
0.0000

> <Gold.PLP.Chemscore.Metal>
0.0000

> <Gold.Chemscore.Hbonds>
donor molecule, donor type, donor heavy atom, donor atom, acceptor molecule, acceptor atom, score
      L1  H    17    34       P1  8028  0.85
      P1  H  7997  8009       L1    11  1.00

> <Gold.PLP.Chemscore.Internal.Correction>
0.0247

> <Gold.Rescore>
     Score         DG    S(hbond)    S(metal)    S(lipo)     H(rot)  DE(clash)    DE(int)     intcor
     15.38     -17.09       1.95        0.00      83.01       1.80       0.08       1.63       ----

> <Gold.Chemscore.Fitness>
15.3799

> <Gold.Chemscore.DG>
-17.0900

> <Gold.Chemscore.ZeroCoef>
-5.4800

> <Gold.Chemscore.Hbond>
1.9464

> <Gold.Chemscore.Metal>
0.0000

> <Gold.Chemscore.Lipo>
83.0139

> <Gold.Chemscore.Internal_Hbond>
0.0000

> <Gold.Chemscore.DEClash>
0.0756

> <Gold.Chemscore.DEInternal>
1.6345

> <Gold.Chemscore.Rot>
1.7982

> <Gold.Chemscore.Internal.Correction>
   9.000000E+99

> <Gold.Chemscore.Hbonds>
donor molecule, donor type, donor heavy atom, donor atom, acceptor molecule, acceptor atom, score
      L1  H    17    34       P1  8028  0.85
      P1  H  7997  8009       L1    11  0.94

> <Gold.Chemscore.Hbond.Weighted>
-6.5009

> <Gold.Chemscore.Metal.Weighted>
-0.0000

> <Gold.Chemscore.Lipo.Weighted>
-9.7126

> <Gold.Chemscore.Internal_Hbond.Weighted>
0.0000

> <Gold.Chemscore.DEClash.Weighted>
0.0756

> <Gold.Chemscore.DEInternal.Weighted>
1.6345

> <Gold.Chemscore.Rot.Weighted>
4.6035

> <Gold.Chemscore.Internal.Correction.Weighted>
   9.000000E+99

> <Gold.Protein.RotatedTorsions>
[ 6907 6896 6895 6894 ] final   -3.92 input  -60.11 | X-H torsion
[ 7974 7965 7964 7962 ] final  -64.60 input  175.53 | X-H torsion
[ 8008 7997 7996 7995 ] final -175.05 input   59.86 | X-H torsion
[ 10167 10162 10161 10158 ] final   71.51 input  -65.29 | X-H torsion
[ 10718 10713 10712 10709 ] final  152.64 input   66.30 | X-H torsion
[ 10763 10752 10751 10750 ] final  122.42 input  -60.55 | X-H torsion
[ 11005 11000 10999 10996 ] final -149.81 input  -57.11 | X-H torsion

> <Gold.Protein.ActiveResidues>
 VAL166  LYS551  ARG553  GLY616  TRP617  ASP618  TYR619  PRO620  LYS621  CYS622 
 ASP623  PHE694  ASN695  SER759  ASP760  ASP761  ALA762  ILE779  LEU786  VAL792 
 PHE793  MET794  SER795  GLU796  ALA797  LYS798  CYS799  TRP800  GLU811  SER814 

> <Gold.Protein.RotatedAtoms>
  151.5060  135.1063  159.9841 H   0  0  0  0  0  0  0  0  0  0  0  0  # atno 6907 bound_to 6896
  152.4682  133.7965  159.6941 H   0  0  0  0  0  0  0  0  0  0  0  0  # atno 6908 bound_to 6896
  150.8676  133.7488  159.2997 H   0  0  0  0  0  0  0  0  0  0  0  0  # atno 6909 bound_to 6896
  145.7647  140.8844  143.0412 H   0  0  0  0  0  0  0  0  0  0  0  0  # atno 7974 bound_to 7965
  155.9777  140.1175  157.0754 H   0  0  0  0  0  0  0  0  0  0  0  0  # atno 8008 bound_to 7997
  154.4174  140.1150  156.5461 H   0  0  0  0  0  0  0  0  0  0  0  0  # atno 8009 bound_to 7997
  155.6512  140.3473  155.4751 H   0  0  0  0  0  0  0  0  0  0  0  0  # atno 8010 bound_to 7997
  140.0453  144.5356  150.7403 H   0  0  0  0  0  0  0  0  0  0  0  0  # atno 10167 bound_to 10162
  157.2552  131.0787  151.1703 H   0  0  0  0  0  0  0  0  0  0  0  0  # atno 10718 bound_to 10713
  153.6295  135.3398  155.3037 H   0  0  0  0  0  0  0  0  0  0  0  0  # atno 10763 bound_to 10752
  154.8583  135.4292  154.2121 H   0  0  0  0  0  0  0  0  0  0  0  0  # atno 10764 bound_to 10752
  153.3013  135.7025  153.7274 H   0  0  0  0  0  0  0  0  0  0  0  0  # atno 10765 bound_to 10752
  140.7469  134.3451  157.5135 H   0  0  0  0  0  0  0  0  0  0  0  0  # atno 11005 bound_to 11000
  144.6824  139.9771  143.7483 LP  0  0  0  0  0  0  0  0  0  0  0  0  # atno 17320 bound_to 7965
  146.0230  139.3267  143.0801 LP  0  0  0  0  0  0  0  0  0  0  0  0  # atno 17321 bound_to 7965
  140.7241  143.2618  151.4179 LP  0  0  0  0  0  0  0  0  0  0  0  0  # atno 17342 bound_to 10162
  139.5987  144.1341  152.2174 LP  0  0  0  0  0  0  0  0  0  0  0  0  # atno 17343 bound_to 10162
  157.3235  130.6949  149.6283 LP  0  0  0  0  0  0  0  0  0  0  0  0  # atno 17370 bound_to 10713
  155.9665  130.4328  150.4980 LP  0  0  0  0  0  0  0  0  0  0  0  0  # atno 17371 bound_to 10713
  139.8795  134.9117  156.3042 LP  0  0  0  0  0  0  0  0  0  0  0  0  # atno 17394 bound_to 11000
  140.9786  133.7281  156.0639 LP  0  0  0  0  0  0  0  0  0  0  0  0  # atno 17395 bound_to 11000

$$$$
