AV-unprocessed.smi:34|AV-procd|sdf|226|dock5
  -GOLD-   2262015553D 1   1.00000     0.00000
 Structure written by MMmdl.
 55 59  0  0  0  0  0  0  0  0  1 V2000
  153.2757  139.6630  159.0537 O   0  0  0  0  0  0  0  0  0  0  0  0
  152.6588  140.6285  158.6026 C   0  0  0  0  0  0  0  0  0  0  0  0
  152.0094  140.5929  157.3042 N   0  0  0  0  0  0  0  0  0  0  0  0
  152.0156  139.5931  156.3916 C   0  0  0  0  0  0  0  0  0  0  0  0
  152.7793  139.6353  155.2687 N   0  0  0  0  0  0  0  0  0  0  0  0
  152.7490  138.6231  154.3983 C   0  0  0  0  0  0  0  0  0  0  0  0
  152.0432  137.4929  154.4614 N   0  0  0  0  0  0  0  0  0  0  0  0
  151.2789  137.4327  155.5914 C   0  0  0  0  0  0  0  0  0  0  0  0
  151.2078  138.4431  156.5917 C   0  0  0  0  0  0  0  0  0  0  0  0
  150.3141  138.0629  157.5826 N   0  0  0  0  0  0  0  0  0  0  0  0
  149.8808  136.8976  157.1853 C   0  0  0  0  0  0  0  0  0  0  0  0
  150.4361  136.4192  156.0163 N   0  0  0  0  0  0  0  0  0  0  0  0
  150.1153  135.1272  155.3101 C   0  0  1  0  0  0  0  0  0  0  0  0
  150.2931  134.0679  156.1989 O   0  0  0  0  0  0  0  0  0  0  0  0
  149.0712  133.8432  156.8855 C   0  0  2  0  0  0  0  0  0  0  0  0
  149.0869  132.4945  157.6189 C   0  0  0  0  0  0  0  0  0  0  0  0
  149.9653  131.5981  156.9517 O   0  0  0  0  0  0  0  0  0  0  0  0
  151.2862  131.5829  157.2365 C   0  0  0  0  0  0  0  0  0  0  0  0
  151.7784  132.1191  158.2312 O   0  0  0  0  0  0  0  0  0  0  0  0
  152.0878  130.8321  156.2284 C   0  0  0  0  0  0  0  0  0  0  0  0
  153.5000  130.8770  156.2941 C   0  0  0  0  0  0  0  0  0  0  0  0
  154.2843  130.1640  155.3671 C   0  0  0  0  0  0  0  0  0  0  0  0
  153.6657  129.3968  154.3631 C   0  0  0  0  0  0  0  0  0  0  0  0
  152.2617  129.3430  154.2876 C   0  0  0  0  0  0  0  0  0  0  0  0
  151.4757  130.0558  155.2137 C   0  0  0  0  0  0  0  0  0  0  0  0
  148.0865  133.9180  155.7244 C   0  0  1  0  0  0  0  0  0  0  0  0
  146.8404  134.1438  156.1418 F   0  0  0  0  0  0  0  0  0  0  0  0
  148.6254  135.0825  154.9009 C   0  0  2  0  0  0  0  0  0  0  0  0
  148.4505  134.8428  153.5200 O   0  0  0  0  0  0  0  0  0  0  0  0
  152.4692  141.8866  159.3999 C   0  0  0  0  0  0  0  0  0  0  0  0
  152.0629  143.0770  158.7556 C   0  0  0  0  0  0  0  0  0  0  0  0
  151.8689  144.2590  159.4967 C   0  0  0  0  0  0  0  0  0  0  0  0
  152.0717  144.2592  160.8893 C   0  0  0  0  0  0  0  0  0  0  0  0
  152.4644  143.0754  161.5414 C   0  0  0  0  0  0  0  0  0  0  0  0
  152.6589  141.8927  160.8015 C   0  0  0  0  0  0  0  0  0  0  0  0
  151.5076  141.4279  157.0393 H   0  0  0  0  0  0  0  0  0  0  0  0
  153.3813  138.7339  153.5297 H   0  0  0  0  0  0  0  0  0  0  0  0
  149.1393  136.3476  157.7468 H   0  0  0  0  0  0  0  0  0  0  0  0
  150.8236  135.0871  154.4818 H   0  0  0  0  0  0  0  0  0  0  0  0
  148.8820  134.6570  157.5888 H   0  0  0  0  0  0  0  0  0  0  0  0
  149.4764  132.6382  158.6266 H   0  0  0  0  0  0  0  0  0  0  0  0
  148.0812  132.0858  157.7281 H   0  0  0  0  0  0  0  0  0  0  0  0
  153.9969  131.4573  157.0583 H   0  0  0  0  0  0  0  0  0  0  0  0
  155.3618  130.2058  155.4274 H   0  0  0  0  0  0  0  0  0  0  0  0
  154.2672  128.8490  153.6527 H   0  0  0  0  0  0  0  0  0  0  0  0
  151.7855  128.7525  153.5187 H   0  0  0  0  0  0  0  0  0  0  0  0
  150.4008  129.9881  155.1312 H   0  0  0  0  0  0  0  0  0  0  0  0
  148.0951  132.9860  155.1563 H   0  0  0  0  0  0  0  0  0  0  0  0
  148.1178  136.0060  155.1804 H   0  0  0  0  0  0  0  0  0  0  0  0
  148.8139  135.5723  153.0411 H   0  0  0  0  0  0  0  0  0  0  0  0
  151.9016  143.0935  157.6873 H   0  0  0  0  0  0  0  0  0  0  0  0
  151.5634  145.1659  158.9959 H   0  0  0  0  0  0  0  0  0  0  0  0
  151.9227  145.1657  161.4574 H   0  0  0  0  0  0  0  0  0  0  0  0
  152.6146  143.0735  162.6109 H   0  0  0  0  0  0  0  0  0  0  0  0
  152.9516  140.9939  161.3244 H   0  0  0  0  0  0  0  0  0  0  0  0
  1  2  2  0  0  0  0
  2  3  1  0  0  0  0
  2 30  1  0  0  0  0
  3  4  1  0  0  0  0
  3 36  1  0  0  0  0
  4  9  1  0  0  0  0
  4  5  2  0  0  0  0
  5  6  1  0  0  0  0
  6  7  2  0  0  0  0
  6 37  1  0  0  0  0
  7  8  1  0  0  0  0
  8 12  1  0  0  0  0
  8  9  2  0  0  0  0
  9 10  1  0  0  0  0
 10 11  2  0  0  0  0
 11 12  1  0  0  0  0
 11 38  1  0  0  0  0
 12 13  1  0  0  0  0
 13 28  1  0  0  0  0
 13 14  1  0  0  0  0
 13 39  1  0  0  0  0
 14 15  1  0  0  0  0
 15 16  1  0  0  0  0
 15 26  1  0  0  0  0
 15 40  1  0  0  0  0
 16 17  1  0  0  0  0
 16 41  1  0  0  0  0
 16 42  1  0  0  0  0
 17 18  1  0  0  0  0
 18 19  2  0  0  0  0
 18 20  1  0  0  0  0
 20 25  1  0  0  0  0
 20 21  2  0  0  0  0
 21 22  1  0  0  0  0
 21 43  1  0  0  0  0
 22 23  2  0  0  0  0
 22 44  1  0  0  0  0
 23 24  1  0  0  0  0
 23 45  1  0  0  0  0
 24 25  2  0  0  0  0
 24 46  1  0  0  0  0
 25 47  1  0  0  0  0
 26 27  1  0  0  0  0
 26 28  1  0  0  0  0
 26 48  1  0  0  0  0
 28 29  1  0  0  0  0
 28 49  1  0  0  0  0
 29 50  1  0  0  0  0
 30 35  1  0  0  0  0
 30 31  2  0  0  0  0
 31 32  1  0  0  0  0
 31 51  1  0  0  0  0
 32 33  2  0  0  0  0
 32 52  1  0  0  0  0
 33 34  1  0  0  0  0
 33 53  1  0  0  0  0
 34 35  2  0  0  0  0
 34 54  1  0  0  0  0
 35 55  1  0  0  0  0
M  END
> <s_m_source_file>
AV-unprocessed.smi

> <i_m_source_file_index>
34

> <i_lp_mmshare_version>
43012

> <i_f3d_flags>
0

> <s_epik_input>
W2NIXTFbY0hdW2NIXVtjSF1bY0hdYzFDKD1PKVtOSF1jKG5bY0hdbjIpYyhjMjMpbltjSF1uM1tDQEBIXTRPW0NASF0oW0NAQEhdKEYpW0NASF00W09IXSlbQ0gyXU9DKD1PKWM1W2NIXVtjSF1bY0hdW2NIXVtjSF01

> <s_epik_cmdline>
J2VwaWtfcHl0aG9uJywgJy1waCcsICc3LjAnLCAnLXRuJywgJzgnLCAnLW1hJywgJzIwMCcsICctbWV0YWxfYmluZGluZycsICctaW1hZScsICc8aW5maWxlLm1hZT4nLCAnLW9tYWUnLCAnPG91dGZpbGUubWFlPic=

> <r_lp_tautomer_probability>
1

> <r_epik_Ionization_Penalty>
0.00257489

> <r_epik_Ionization_Penalty_Charging>
0

> <r_epik_Ionization_Penalty_Neutral>
0.00257489

> <r_epik_State_Penalty>
0.00519398

> <r_epik_Charging_Adjusted_Penalty>
0.00519398

> <i_epik_Tot_Q>
0

> <i_epik_Tot_abs_Q>
0

> <r_epik_Metal_State_Penalty>
0.335891

> <b_epik_Metal_Only>
0

> <s_epik_Chemistry_Notes>
This compound has an ester and may undergo hydrolysis at high or low pH. This compound contains an acetal/aminal-like group ( X-CH(R)-Y where X, Y are N, S, or O) that may be acid/base labile, releasing an aldehyde.

> <s_lp_Force_Field>
OPLS_2005

> <r_lp_Energy>
40.9193

> <b_lp_Chiralities_Consistent>
1

> <s_lp_Variant>
AV-unprocessed.smi:34-12

> <Gold.Version>
5.8.1

> <Gold.Id.Protein>
6NUR|6NUR_protein|mol2

> <Gold.PLP.Fitness>
62.6313

> <Gold.PLP.PLP>
-54.4134

> <Gold.PLP.part.hbond>
-4.9336

> <Gold.PLP.part.metal>
0.0000

> <Gold.PLP.part.buried>
-6.2927

> <Gold.PLP.part.nonpolar>
-43.8721

> <Gold.PLP.part.repulsive>
0.2258

> <Gold.PLP.ligand.clash>
0.0000

> <Gold.PLP.ligand.torsion>
1.6442

> <Gold.PLP.Chemscore.Hbond>
3.7706

> <Gold.PLP.Chemscore.CHOScore>
0.0000

> <Gold.PLP.Chemscore.Metal>
0.0000

> <Gold.Chemscore.Hbonds>
donor molecule, donor type, donor heavy atom, donor atom, acceptor molecule, acceptor atom, score
      L1  H    29    50       P1  7948  0.48
      P1  H  6896  6908       L1    19  0.72
      P1  H  7997  8008       L1     5  1.00
      P1  H 10752 10764       L1     7  0.83

> <Gold.PLP.Chemscore.Internal.Correction>
0.1945

> <Gold.Rescore>
     Score         DG    S(hbond)    S(metal)    S(lipo)     H(rot)  DE(clash)    DE(int)     intcor
     19.15     -22.11       2.92        0.00     118.19       2.72       0.02       2.93       ----

> <Gold.Chemscore.Fitness>
19.1515

> <Gold.Chemscore.DG>
-22.1079

> <Gold.Chemscore.ZeroCoef>
-5.4800

> <Gold.Chemscore.Hbond>
2.9242

> <Gold.Chemscore.Metal>
0.0000

> <Gold.Chemscore.Lipo>
118.1881

> <Gold.Chemscore.Internal_Hbond>
0.0000

> <Gold.Chemscore.DEClash>
0.0240

> <Gold.Chemscore.DEInternal>
2.9324

> <Gold.Chemscore.Rot>
2.7215

> <Gold.Chemscore.Internal.Correction>
   9.000000E+99

> <Gold.Chemscore.Hbonds>
donor molecule, donor type, donor heavy atom, donor atom, acceptor molecule, acceptor atom, score
      L1  H    29    50       P1  7948  0.39
      P1  H  6896  6908       L1    19  0.72
      P1  H  7997  8008       L1     5  0.29
      P1  H 10752 10764       L1     7  0.37

> <Gold.Chemscore.Hbond.Weighted>
-9.7670

> <Gold.Chemscore.Metal.Weighted>
-0.0000

> <Gold.Chemscore.Lipo.Weighted>
-13.8280

> <Gold.Chemscore.Internal_Hbond.Weighted>
0.0000

> <Gold.Chemscore.DEClash.Weighted>
0.0240

> <Gold.Chemscore.DEInternal.Weighted>
2.9324

> <Gold.Chemscore.Rot.Weighted>
6.9670

> <Gold.Chemscore.Internal.Correction.Weighted>
   9.000000E+99

> <Gold.Protein.RotatedTorsions>
[ 6907 6896 6895 6894 ] final   31.12 input  -60.11 | X-H torsion
[ 7974 7965 7964 7962 ] final -151.68 input  175.53 | X-H torsion
[ 8008 7997 7996 7995 ] final  -21.38 input   59.86 | X-H torsion
[ 10167 10162 10161 10158 ] final  -52.60 input  -65.29 | X-H torsion
[ 10718 10713 10712 10709 ] final  147.66 input   66.30 | X-H torsion
[ 10763 10752 10751 10750 ] final  -74.71 input  -60.55 | X-H torsion
[ 11005 11000 10999 10996 ] final  110.84 input  -57.11 | X-H torsion

> <Gold.Protein.ActiveResidues>
 VAL166  LYS551  ARG553  GLY616  TRP617  ASP618  TYR619  PRO620  LYS621  CYS622 
 ASP623  PHE694  ASN695  SER759  ASP760  ASP761  ALA762  ILE779  LEU786  VAL792 
 PHE793  MET794  SER795  GLU796  ALA797  LYS798  CYS799  TRP800  GLU811  SER814 

> <Gold.Protein.RotatedAtoms>
  152.0557  134.9625  160.0574 H   0  0  0  0  0  0  0  0  0  0  0  0  # atno 6907 bound_to 6896
  152.1008  133.4244  159.4594 H   0  0  0  0  0  0  0  0  0  0  0  0  # atno 6908 bound_to 6896
  150.6839  134.2681  159.4620 H   0  0  0  0  0  0  0  0  0  0  0  0  # atno 6909 bound_to 6896
  144.7836  140.4765  143.5822 H   0  0  0  0  0  0  0  0  0  0  0  0  # atno 7974 bound_to 7965
  154.4709  140.2036  155.9997 H   0  0  0  0  0  0  0  0  0  0  0  0  # atno 8008 bound_to 7997
  156.1009  140.3244  155.7911 H   0  0  0  0  0  0  0  0  0  0  0  0  # atno 8009 bound_to 7997
  155.4799  140.0538  157.2959 H   0  0  0  0  0  0  0  0  0  0  0  0  # atno 8010 bound_to 7997
  140.6529  143.2578  151.4671 H   0  0  0  0  0  0  0  0  0  0  0  0  # atno 10167 bound_to 10162
  157.3183  131.0900  151.1261 H   0  0  0  0  0  0  0  0  0  0  0  0  # atno 10718 bound_to 10713
  154.4768  135.5855  153.6361 H   0  0  0  0  0  0  0  0  0  0  0  0  # atno 10763 bound_to 10752
  152.9842  135.6080  154.3297 H   0  0  0  0  0  0  0  0  0  0  0  0  # atno 10764 bound_to 10752
  154.3184  135.2844  155.2511 H   0  0  0  0  0  0  0  0  0  0  0  0  # atno 10765 bound_to 10752
  139.8890  134.9494  156.6341 H   0  0  0  0  0  0  0  0  0  0  0  0  # atno 11005 bound_to 11000
  145.5982  139.1501  143.3144 LP  0  0  0  0  0  0  0  0  0  0  0  0  # atno 17320 bound_to 7965
  146.2057  140.6104  142.9082 LP  0  0  0  0  0  0  0  0  0  0  0  0  # atno 17321 bound_to 7965
  139.5747  144.1847  152.1886 LP  0  0  0  0  0  0  0  0  0  0  0  0  # atno 17342 bound_to 10162
  140.1154  144.5420  150.6897 LP  0  0  0  0  0  0  0  0  0  0  0  0  # atno 17343 bound_to 10162
  157.2556  130.6635  149.5951 LP  0  0  0  0  0  0  0  0  0  0  0  0  # atno 17370 bound_to 10713
  155.9683  130.4524  150.5774 LP  0  0  0  0  0  0  0  0  0  0  0  0  # atno 17371 bound_to 10713
  140.7644  133.8791  155.8443 LP  0  0  0  0  0  0  0  0  0  0  0  0  # atno 17394 bound_to 11000
  140.9895  134.1298  157.4421 LP  0  0  0  0  0  0  0  0  0  0  0  0  # atno 17395 bound_to 11000

$$$$
