AV-unprocessed.smi:3282|AV-procd|sdf|12560|dock2
  -GOLD-   2272018483D 1   1.00000     0.00000
 Structure written by MMmdl.
 34 35  0  0  0  0  0  0  0  0  1 V2000
  153.0902  143.1295  163.0932 C   0  0  0  0  0  0  0  0  0  0  0  0
  153.2164  142.6512  161.6377 C   0  0  0  0  0  0  0  0  0  0  0  0
  152.2298  143.3317  160.6738 C   0  0  0  0  0  0  0  0  0  0  0  0
  151.7002  144.3982  160.9897 O   0  0  0  0  0  0  0  0  0  0  0  0
  151.9730  142.7288  159.4942 N   0  0  0  0  0  0  0  0  0  0  0  0
  152.5428  141.4610  159.0424 C   0  0  0  0  0  0  0  0  0  0  0  0
  151.8001  141.1009  157.7556 C   0  0  0  0  0  0  0  0  0  0  0  0
  151.2735  142.4340  157.2255 C   0  0  1  0  0  0  0  0  0  0  0  0
  150.0267  142.2893  156.4812 N   0  0  0  0  0  0  0  0  0  0  0  0
  149.7669  141.3049  155.6089 C   0  0  0  0  0  0  0  0  0  0  0  0
  150.5620  140.4010  155.3486 O   0  0  0  0  0  0  0  0  0  0  0  0
  148.5430  141.4386  155.0708 N   0  0  0  0  0  0  0  0  0  0  0  0
  147.9315  140.6051  154.1006 C   0  0  0  0  0  0  0  0  0  0  0  0
  148.3080  139.3710  153.7617 N   0  0  0  0  0  0  0  0  0  0  0  0
  147.4080  138.9890  152.7775 C   0  0  0  0  0  0  0  0  0  0  0  0
  146.5302  140.0229  152.5757 C   0  0  0  0  0  0  0  0  0  0  0  0
  146.8517  141.0590  153.4110 O   0  0  0  0  0  0  0  0  0  0  0  0
  151.0759  143.2850  158.4844 C   0  0  0  0  0  0  0  0  0  0  0  0
  153.8151  142.6208  163.7289 H   0  0  0  0  0  0  0  0  0  0  0  0
  152.0983  142.9228  163.4968 H   0  0  0  0  0  0  0  0  0  0  0  0
  153.2737  144.2011  163.1783 H   0  0  0  0  0  0  0  0  0  0  0  0
  154.2345  142.8350  161.2932 H   0  0  0  0  0  0  0  0  0  0  0  0
  153.0565  141.5732  161.6003 H   0  0  0  0  0  0  0  0  0  0  0  0
  153.6055  141.6001  158.8391 H   0  0  0  0  0  0  0  0  0  0  0  0
  152.4382  140.6714  159.7876 H   0  0  0  0  0  0  0  0  0  0  0  0
  152.4341  140.5832  157.0353 H   0  0  0  0  0  0  0  0  0  0  0  0
  150.9679  140.4383  157.9988 H   0  0  0  0  0  0  0  0  0  0  0  0
  152.0381  142.9024  156.6023 H   0  0  0  0  0  0  0  0  0  0  0  0
  149.3182  142.9914  156.6367 H   0  0  0  0  0  0  0  0  0  0  0  0
  147.9917  142.2250  155.3812 H   0  0  0  0  0  0  0  0  0  0  0  0
  147.4622  138.0212  152.3011 H   0  0  0  0  0  0  0  0  0  0  0  0
  145.6835  140.1709  151.9219 H   0  0  0  0  0  0  0  0  0  0  0  0
  150.0524  143.2124  158.8567 H   0  0  0  0  0  0  0  0  0  0  0  0
  151.2873  144.3368  158.2851 H   0  0  0  0  0  0  0  0  0  0  0  0
  1  2  1  0  0  0  0
  1 19  1  0  0  0  0
  1 20  1  0  0  0  0
  1 21  1  0  0  0  0
  2  3  1  0  0  0  0
  2 22  1  0  0  0  0
  2 23  1  0  0  0  0
  3  4  2  0  0  0  0
  3  5  1  0  0  0  0
  5 18  1  0  0  0  0
  5  6  1  0  0  0  0
  6  7  1  0  0  0  0
  6 24  1  0  0  0  0
  6 25  1  0  0  0  0
  7  8  1  0  0  0  0
  7 26  1  0  0  0  0
  7 27  1  0  0  0  0
  8  9  1  0  0  0  0
  8 18  1  0  0  0  0
  8 28  1  0  0  0  0
  9 10  1  0  0  0  0
  9 29  1  0  0  0  0
 10 11  2  0  0  0  0
 10 12  1  0  0  0  0
 12 13  1  0  0  0  0
 12 30  1  0  0  0  0
 13 17  1  0  0  0  0
 13 14  2  0  0  0  0
 14 15  1  0  0  0  0
 15 16  2  0  0  0  0
 15 31  1  0  0  0  0
 16 17  1  0  0  0  0
 16 32  1  0  0  0  0
 18 33  1  0  0  0  0
 18 34  1  0  0  0  0
M  END
> <s_m_source_file>
AV-unprocessed.smi

> <i_m_source_file_index>
3282

> <i_lp_mmshare_version>
43012

> <i_f3d_flags>
0

> <s_epik_input>
W0NIM11bQ0gyXUMoPU8pTjFbQ0gyXVtDSDJdW0NASF0oW0NIMl0xKVtOSF1DKD1PKVtOSF1jMm5bY0hdW2NIXW8y

> <s_epik_cmdline>
J2VwaWtfcHl0aG9uJywgJy1waCcsICc3LjAnLCAnLXRuJywgJzgnLCAnLW1hJywgJzIwMCcsICctbWV0YWxfYmluZGluZycsICctaW1hZScsICc8aW5maWxlLm1hZT4nLCAnLW9tYWUnLCAnPG91dGZpbGUubWFlPic=

> <r_lp_tautomer_probability>
0.785861

> <r_epik_Ionization_Penalty>
4.35681e-05

> <r_epik_Ionization_Penalty_Charging>
0

> <r_epik_Ionization_Penalty_Neutral>
4.35681e-05

> <r_epik_State_Penalty>
0.0212547

> <r_epik_Charging_Adjusted_Penalty>
0.0212547

> <i_epik_Tot_Q>
0

> <i_epik_Tot_abs_Q>
0

> <r_epik_Metal_State_Penalty>
0.00779955

> <b_epik_Metal_Only>
0

> <s_lp_Force_Field>
OPLS_2005

> <r_lp_Energy>
25.4051

> <b_lp_Chiralities_Consistent>
1

> <s_lp_Variant>
AV-unprocessed.smi:3282-1

> <Gold.Version>
5.8.1

> <Gold.Id.Protein>
6NUR|6NUR_protein|mol2

> <Gold.PLP.Fitness>
41.0611

> <Gold.PLP.PLP>
-32.4839

> <Gold.PLP.part.hbond>
-1.7294

> <Gold.PLP.part.metal>
0.0000

> <Gold.PLP.part.buried>
-2.4720

> <Gold.PLP.part.nonpolar>
-29.3433

> <Gold.PLP.part.repulsive>
1.5494

> <Gold.PLP.ligand.clash>
0.0000

> <Gold.PLP.ligand.torsion>
0.6184

> <Gold.PLP.Chemscore.Hbond>
1.3365

> <Gold.PLP.Chemscore.CHOScore>
1.9319

> <Gold.PLP.Chemscore.Metal>
0.0000

> <Gold.Chemscore.Hbonds>
donor molecule, donor type, donor heavy atom, donor atom, acceptor molecule, acceptor atom, score
      L1  H     9    29       P1  8028  0.64
      P1  H  7989  7998       L1    11  0.62
      L1  C    15    31       P1  7948  1.00
      L1  C    16    32       P1 10175  0.97

> <Gold.PLP.Chemscore.Internal.Correction>
0.0090

> <Gold.Rescore>
     Score         DG    S(hbond)    S(metal)    S(lipo)     H(rot)  DE(clash)    DE(int)     intcor
     10.19     -15.38       1.41        0.00      73.15       1.32       1.80       3.40       ----

> <Gold.Chemscore.Fitness>
10.1864

> <Gold.Chemscore.DG>
-15.3787

> <Gold.Chemscore.ZeroCoef>
-5.4800

> <Gold.Chemscore.Hbond>
1.4129

> <Gold.Chemscore.Metal>
0.0000

> <Gold.Chemscore.Lipo>
73.1511

> <Gold.Chemscore.Internal_Hbond>
0.0000

> <Gold.Chemscore.DEClash>
1.7966

> <Gold.Chemscore.DEInternal>
3.3957

> <Gold.Chemscore.Rot>
1.3199

> <Gold.Chemscore.Internal.Correction>
   9.000000E+99

> <Gold.Chemscore.Hbonds>
donor molecule, donor type, donor heavy atom, donor atom, acceptor molecule, acceptor atom, score
      L1  H     9    29       P1  8028  0.60
      P1  H  7989  7998       L1    11  0.41

> <Gold.Chemscore.Hbond.Weighted>
-4.7190

> <Gold.Chemscore.Metal.Weighted>
-0.0000

> <Gold.Chemscore.Lipo.Weighted>
-8.5587

> <Gold.Chemscore.Internal_Hbond.Weighted>
0.0000

> <Gold.Chemscore.DEClash.Weighted>
1.7966

> <Gold.Chemscore.DEInternal.Weighted>
3.3957

> <Gold.Chemscore.Rot.Weighted>
3.3789

> <Gold.Chemscore.Internal.Correction.Weighted>
   9.000000E+99

> <Gold.Protein.RotatedTorsions>
[ 6907 6896 6895 6894 ] final  170.97 input  -60.11 | X-H torsion
[ 7974 7965 7964 7962 ] final -166.72 input  175.53 | X-H torsion
[ 8008 7997 7996 7995 ] final  -55.11 input   59.86 | X-H torsion
[ 10167 10162 10161 10158 ] final    0.98 input  -65.29 | X-H torsion
[ 10718 10713 10712 10709 ] final  -90.14 input   66.30 | X-H torsion
[ 10763 10752 10751 10750 ] final  -19.55 input  -60.55 | X-H torsion
[ 11005 11000 10999 10996 ] final   25.19 input  -57.11 | X-H torsion

> <Gold.Protein.ActiveResidues>
 VAL166  LYS551  ARG553  GLY616  TRP617  ASP618  TYR619  PRO620  LYS621  CYS622 
 ASP623  PHE694  ASN695  SER759  ASP760  ASP761  ALA762  ILE779  LEU786  VAL792 
 PHE793  MET794  SER795  GLU796  ALA797  LYS798  CYS799  TRP800  GLU811  SER814 

> <Gold.Protein.RotatedAtoms>
  151.8077  133.3378  159.3545 H   0  0  0  0  0  0  0  0  0  0  0  0  # atno 6907 bound_to 6896
  150.7336  134.5693  159.5891 H   0  0  0  0  0  0  0  0  0  0  0  0  # atno 6908 bound_to 6896
  152.3097  134.7513  160.0390 H   0  0  0  0  0  0  0  0  0  0  0  0  # atno 6909 bound_to 6896
  144.7239  140.2625  143.6262 H   0  0  0  0  0  0  0  0  0  0  0  0  # atno 7974 bound_to 7965
  154.4184  140.1160  156.5424 H   0  0  0  0  0  0  0  0  0  0  0  0  # atno 8008 bound_to 7997
  155.6494  140.3496  155.4724 H   0  0  0  0  0  0  0  0  0  0  0  0  # atno 8009 bound_to 7997
  155.9805  140.1159  157.0721 H   0  0  0  0  0  0  0  0  0  0  0  0  # atno 8010 bound_to 7997
  140.6704  143.7064  150.7911 H   0  0  0  0  0  0  0  0  0  0  0  0  # atno 10167 bound_to 10162
  155.9986  130.4899  150.5278 H   0  0  0  0  0  0  0  0  0  0  0  0  # atno 10718 bound_to 10713
  153.6065  135.6997  153.5363 H   0  0  0  0  0  0  0  0  0  0  0  0  # atno 10763 bound_to 10752
  153.3052  135.4117  155.1287 H   0  0  0  0  0  0  0  0  0  0  0  0  # atno 10764 bound_to 10752
  154.8572  135.3658  154.5603 H   0  0  0  0  0  0  0  0  0  0  0  0  # atno 10765 bound_to 10752
  140.3505  134.2234  155.7680 H   0  0  0  0  0  0  0  0  0  0  0  0  # atno 11005 bound_to 11000
  145.8121  139.2008  143.1987 LP  0  0  0  0  0  0  0  0  0  0  0  0  # atno 17320 bound_to 7965
  146.0586  140.7994  142.9746 LP  0  0  0  0  0  0  0  0  0  0  0  0  # atno 17321 bound_to 7965
  140.0749  143.5025  152.2561 LP  0  0  0  0  0  0  0  0  0  0  0  0  # atno 17342 bound_to 10162
  139.5970  144.7570  151.3263 LP  0  0  0  0  0  0  0  0  0  0  0  0  # atno 17343 bound_to 10162
  157.3231  131.0685  151.1917 LP  0  0  0  0  0  0  0  0  0  0  0  0  # atno 17370 bound_to 10713
  157.2823  130.6756  149.6072 LP  0  0  0  0  0  0  0  0  0  0  0  0  # atno 17371 bound_to 10713
  141.2013  133.7965  157.0445 LP  0  0  0  0  0  0  0  0  0  0  0  0  # atno 17394 bound_to 11000
  140.0707  134.9704  157.1462 LP  0  0  0  0  0  0  0  0  0  0  0  0  # atno 17395 bound_to 11000

$$$$
