#       Name:                AV-unprocessed.smi:1233
#       Creating user name   scv26
#       Creation time:       Fri Mar 27 04:24:44 2020


#       File generated by GOLD software.
#

@<TRIPOS>MOLECULE
AV-unprocessed.smi:1233
    45    46     1
SMALL
NO_CHARGES


@<TRIPOS>ATOM
      1 ****        -2.1587   5.0106  -0.7494 C.3            1 S1                 0.0000
      2 ****        -1.3355   3.8531  -0.6572 O.3            1 S1                 0.0000
      3 ****         0.0174   4.0219  -0.4313 C.ar           1 S1                 0.0000
      4 ****         0.4969   5.2844  -0.2984 N.ar           1 S1                 0.0000
      5 ****         1.8178   5.4507  -0.0816 C.ar           1 S1                 0.0000
      6 ****         2.7253   4.3790   0.0044 C.ar           1 S1                 0.0000
      7 ****         2.2305   3.0688  -0.1330 C.ar           1 S1                 0.0000
      8 ****         0.8436   2.8772  -0.3435 C.ar           1 S1                 0.0000
      9 ****         0.2440   1.5991  -0.5136 N.am           1 S1                 0.0000
     10 ****         0.6682   0.4099  -0.0541 C.2            1 S1                 0.0000
     11 ****         1.6901   0.2250   0.6070 O.2            1 S1                 0.0000
     12 ****        -0.1853  -0.5696  -0.3885 N.am           1 S1                 0.0000
     13 ****        -0.0685  -1.9729   0.0127 C.3            1 S1                 0.0000
     14 ****        -0.8783  -2.8286  -0.9942 C.3            1 S1                 0.0000
     15 ****        -1.2303  -4.2663  -0.5498 C.3            1 S1                 0.0000
     16 ****        -0.0819  -5.0449   0.1237 C.3            1 S1                 0.0000
     17 ****         0.4885  -4.4480   1.4365 C.3            1 S1                 0.0000
     18 ****        -0.3172  -3.3801   2.0288 N.am           1 S1                 0.0000
     19 ****        -0.6026  -2.2042   1.4442 C.2            1 S1                 0.0000
     20 ****        -1.2861  -1.3542   2.0142 O.2            1 S1                 0.0000
     21 ****        -3.1909   4.7055  -0.9213 H              1 S1                 0.0000
     22 ****        -1.8584   5.6469  -1.5830 H              1 S1                 0.0000
     23 ****        -2.1356   5.5926   0.1730 H              1 S1                 0.0000
     24 ****         2.1623   6.4692   0.0193 H              1 S1                 0.0000
     25 ****         3.7778   4.5577   0.1676 H              1 S1                 0.0000
     26 ****         2.9222   2.2418  -0.0892 H              1 S1                 0.0000
     27 ****        -0.6602   1.6044  -0.9627 H              1 S1                 0.0000
     28 ****        -1.0016  -0.3216  -0.9278 H              1 S1                 0.0000
     29 ****         0.9833  -2.2588  -0.0337 H              1 S1                 0.0000
     30 ****        -1.8110  -2.3219  -1.2481 H              1 S1                 0.0000
     31 ****        -0.3117  -2.8812  -1.9248 H              1 S1                 0.0000
     32 ****        -2.0889  -4.2423   0.1227 H              1 S1                 0.0000
     33 ****        -1.5725  -4.8244  -1.4217 H              1 S1                 0.0000
     34 ****        -0.4461  -6.0503   0.3379 H              1 S1                 0.0000
     35 ****         0.7318  -5.1794  -0.5896 H              1 S1                 0.0000
     36 ****         0.5990  -5.2397   2.1779 H              1 S1                 0.0000
     37 ****         1.4975  -4.0699   1.2658 H              1 S1                 0.0000
     38 ****        -0.6753  -3.5412   2.9591 H              1 S1                 0.0000
     39 ****        -1.4309   3.3538  -1.5183 LP             1 S1                 0.0000
     40 ****        -1.6926   3.2960   0.0925 LP             1 S1                 0.0000
     41 ****        -0.1148   6.0732  -0.3597 LP             1 S1                 0.0000
     42 ****         2.2800   0.9975   0.8424 LP             1 S1                 0.0000
     43 ****         1.9303  -0.6976   0.9087 LP             1 S1                 0.0000
     44 ****        -1.5049  -0.4954   1.5508 LP             1 S1                 0.0000
     45 ****        -1.6226  -1.5222   2.9408 LP             1 S1                 0.0000
@<TRIPOS>BOND
    1    1    2 1     
    2    1   21 1     
    3    1   22 1     
    4    1   23 1     
    5    2    3 1     
    6    3    8 ar    
    7    3    4 ar    
    8    4    5 ar    
    9    5    6 ar    
   10    5   24 1     
   11    6    7 ar    
   12    6   25 1     
   13    7    8 ar    
   14    7   26 1     
   15    8    9 1     
   16    9   10 am    
   17    9   27 1     
   18   10   11 2     
   19   10   12 am    
   20   12   13 1     
   21   12   28 1     
   22   13   19 1     
   23   13   14 1     
   24   13   29 1     
   25   14   15 1     
   26   14   30 1     
   27   14   31 1     
   28   15   16 1     
   29   15   32 1     
   30   15   33 1     
   31   16   17 1     
   32   16   34 1     
   33   16   35 1     
   34   17   18 1     
   35   17   36 1     
   36   17   37 1     
   37   18   19 am    
   38   18   38 1     
   39   19   20 2     
   40    2   39 1     
   41    2   40 1     
   42    4   41 1     
   43   11   42 1     
   44   11   43 1     
   45   20   44 1     
   46   20   45 1     
@<TRIPOS>SUBSTRUCTURE
      1 S1             1
@<TRIPOS>SET
LONE_PAIRS      STATIC     ATOMS    <user>   **** ""
7 39 40 41 42 43 44 45
DONOR_HYDROGENS      STATIC     ATOMS    <user>   **** ""
3 27 28 38
ATOM$BLUE        STATIC     ATOMS    COLORGROUP SYSTEM
7 39 40 41 42 43 44 45
ATOM$RED        STATIC     ATOMS    COLORGROUP SYSTEM
3 27 28 38
