AV-unprocessed.smi:72|AV-procd|sdf|758|dock8
  -GOLD-   2262017 93D 1   1.00000     0.00000
 Structure written by MMmdl.
 29 30  0  0  0  0  0  0  0  0  1 V2000
  145.9935  141.4031  154.0744 N   0  0  0  0  0  0  0  0  0  0  0  0
  147.2505  140.8495  154.2021 C   0  0  0  0  0  0  0  0  0  0  0  0
  147.3739  139.4961  153.8578 N   0  0  0  0  0  0  0  0  0  0  0  0
  148.5512  138.9710  153.9854 C   0  0  0  0  0  0  0  0  0  0  0  0
  149.6769  139.7503  154.4670 N   0  0  0  0  0  0  0  0  0  0  0  0
  151.0515  139.1340  154.6002 C   0  0  1  0  0  0  0  0  0  0  0  0
  151.6101  139.5332  155.8173 O   0  0  0  0  0  0  0  0  0  0  0  0
  152.2339  138.4184  156.4455 C   0  0  1  0  0  0  0  0  0  0  0  0
  152.3090  138.6466  157.9633 C   0  0  0  0  0  0  0  0  0  0  0  0
  153.3549  139.5446  158.2677 O   0  0  0  0  0  0  0  0  0  0  0  0
  151.3150  137.2640  156.0424 C   0  0  2  0  0  0  0  0  0  0  0  0
  151.9209  135.9938  156.1927 O   0  0  0  0  0  0  0  0  0  0  0  0
  150.9643  137.5992  154.5953 C   0  0  2  0  0  0  0  0  0  0  0  0
  151.8842  137.0449  153.6730 O   0  0  0  0  0  0  0  0  0  0  0  0
  149.4866  141.1256  154.7747 C   0  0  0  0  0  0  0  0  0  0  0  0
  150.4338  141.8181  155.1463 O   0  0  0  0  0  0  0  0  0  0  0  0
  148.1930  141.6413  154.6271 N   0  0  0  0  0  0  0  0  0  0  0  0
  151.6643  139.5407  153.7946 H   0  0  0  0  0  0  0  0  0  0  0  0
  153.2261  138.2666  156.0152 H   0  0  0  0  0  0  0  0  0  0  0  0
  150.4064  137.2943  156.6455 H   0  0  0  0  0  0  0  0  0  0  0  0
  149.9615  137.2595  154.3323 H   0  0  0  0  0  0  0  0  0  0  0  0
  145.7865  142.3670  154.2915 H   0  0  0  0  0  0  0  0  0  0  0  0
  145.1878  140.8868  153.7521 H   0  0  0  0  0  0  0  0  0  0  0  0
  148.7720  137.9310  153.7415 H   0  0  0  0  0  0  0  0  0  0  0  0
  151.3617  139.0165  158.3570 H   0  0  0  0  0  0  0  0  0  0  0  0
  152.5275  137.7083  158.4737 H   0  0  0  0  0  0  0  0  0  0  0  0
  152.9834  140.4014  158.4119 H   0  0  0  0  0  0  0  0  0  0  0  0
  151.8045  135.7107  157.0867 H   0  0  0  0  0  0  0  0  0  0  0  0
  151.4044  136.7479  152.9148 H   0  0  0  0  0  0  0  0  0  0  0  0
  1  2  1  0  0  0  0
  1 22  1  0  0  0  0
  1 23  1  0  0  0  0
  2 17  2  0  0  0  0
  2  3  1  0  0  0  0
  3  4  2  0  0  0  0
  4  5  1  0  0  0  0
  4 24  1  0  0  0  0
  5  6  1  0  0  0  0
  5 15  1  0  0  0  0
  6 18  1  0  0  0  0
  6 13  1  0  0  0  0
  6  7  1  0  0  0  0
  7  8  1  0  0  0  0
  8 19  1  0  0  0  0
  8  9  1  0  0  0  0
  8 11  1  0  0  0  0
  9 10  1  0  0  0  0
  9 25  1  0  0  0  0
  9 26  1  0  0  0  0
 10 27  1  0  0  0  0
 11 20  1  0  0  0  0
 11 12  1  0  0  0  0
 11 13  1  0  0  0  0
 12 28  1  0  0  0  0
 13 21  1  0  0  0  0
 13 14  1  0  0  0  0
 14 29  1  0  0  0  0
 15 16  2  0  0  0  0
 15 17  1  0  0  0  0
M  END
> <s_m_source_file>
AV-unprocessed.smi

> <i_m_source_file_index>
72

> <i_lp_mmshare_version>
43012

> <i_f3d_flags>
0

> <s_epik_input>
W05IMl1jMW5bY0hdbihjKD1PKW4xKVtDQEBIXTJPW0NASF0oW0NIMl1bT0hdKVtDQEBIXShbT0hdKVtDQEhdMltPSF0=

> <s_epik_cmdline>
J2VwaWtfcHl0aG9uJywgJy1waCcsICc3LjAnLCAnLXRuJywgJzgnLCAnLW1hJywgJzIwMCcsICctbWV0YWxfYmluZGluZycsICctaW1hZScsICc8aW5maWxlLm1hZT4nLCAnLW9tYWUnLCAnPG91dGZpbGUubWFlPic=

> <r_lp_tautomer_probability>
4.77166e-05

> <r_epik_Ionization_Penalty>
1.3546

> <r_epik_Ionization_Penalty_Charging>
1.46833e-10

> <r_epik_Ionization_Penalty_Neutral>
1.3546

> <r_epik_State_Penalty>
3.51908

> <r_epik_Charging_Adjusted_Penalty>
3.51908

> <i_epik_Tot_Q>
0

> <i_epik_Tot_abs_Q>
0

> <r_epik_Metal_State_Penalty>
3.44088

> <b_epik_Metal_Only>
1

> <s_epik_Chemistry_Notes>
This compound contains an acetal/aminal-like group ( X-CH(R)-Y where X, Y are N, S, or O) that may be acid/base labile, releasing an aldehyde.

> <s_lp_Force_Field>
OPLS_2005

> <r_lp_Energy>
31.7119

> <b_lp_Chiralities_Consistent>
1

> <s_lp_Variant>
AV-unprocessed.smi:72-96

> <Gold.Version>
5.8.1

> <Gold.Id.Protein>
6NUR|6NUR_protein|mol2

> <Gold.PLP.Fitness>
39.0014

> <Gold.PLP.PLP>
-23.4545

> <Gold.PLP.part.hbond>
-5.9817

> <Gold.PLP.part.metal>
0.0000

> <Gold.PLP.part.buried>
-1.4161

> <Gold.PLP.part.nonpolar>
-16.8260

> <Gold.PLP.part.repulsive>
0.4465

> <Gold.PLP.ligand.clash>
0.0000

> <Gold.PLP.ligand.torsion>
0.5084

> <Gold.PLP.Chemscore.Hbond>
4.5160

> <Gold.PLP.Chemscore.CHOScore>
1.0000

> <Gold.PLP.Chemscore.Metal>
0.0000

> <Gold.Chemscore.Hbonds>
donor molecule, donor type, donor heavy atom, donor atom, acceptor molecule, acceptor atom, score
      L1  H     1    23       P1 10175  1.00
      L1  H    14    29       P1  7949  1.00
      P1  H  7989  7998       L1    16  0.07
      P1  H  7997  8008       L1    10  0.90
      P1  H 10752 10764       L1    14  0.74
      P1  H 10752 10765       L1    12  0.77
      L1  C     4    24       P1  7948  1.00

> <Gold.PLP.Chemscore.Internal.Correction>
0.0157

> <Gold.Rescore>
     Score         DG    S(hbond)    S(metal)    S(lipo)     H(rot)  DE(clash)    DE(int)     intcor
      7.46     -10.02       3.70        0.00      22.10       4.06       0.49       2.07       ----

> <Gold.Chemscore.Fitness>
7.4638

> <Gold.Chemscore.DG>
-10.0226

> <Gold.Chemscore.ZeroCoef>
-5.4800

> <Gold.Chemscore.Hbond>
3.6979

> <Gold.Chemscore.Metal>
0.0000

> <Gold.Chemscore.Lipo>
22.0972

> <Gold.Chemscore.Internal_Hbond>
0.0000

> <Gold.Chemscore.DEClash>
0.4853

> <Gold.Chemscore.DEInternal>
2.0735

> <Gold.Chemscore.Rot>
4.0600

> <Gold.Chemscore.Internal.Correction>
   9.000000E+99

> <Gold.Chemscore.Hbonds>
donor molecule, donor type, donor heavy atom, donor atom, acceptor molecule, acceptor atom, score
      L1  H     1    23       P1 10175  0.82
      L1  H    14    29       P1  7949  0.84
      P1  H  7997  8008       L1    10  0.22
      P1  H 10752 10764       L1    14  0.17
      P1  H 10752 10765       L1    12  0.72

> <Gold.Chemscore.Hbond.Weighted>
-12.3509

> <Gold.Chemscore.Metal.Weighted>
-0.0000

> <Gold.Chemscore.Lipo.Weighted>
-2.5854

> <Gold.Chemscore.Internal_Hbond.Weighted>
0.0000

> <Gold.Chemscore.DEClash.Weighted>
0.4853

> <Gold.Chemscore.DEInternal.Weighted>
2.0735

> <Gold.Chemscore.Rot.Weighted>
10.3936

> <Gold.Chemscore.Internal.Correction.Weighted>
   9.000000E+99

> <Gold.Protein.RotatedTorsions>
[ 6907 6896 6895 6894 ] final   37.03 input  -60.11 | X-H torsion
[ 7974 7965 7964 7962 ] final  175.42 input  175.53 | X-H torsion
[ 8008 7997 7996 7995 ] final -111.45 input   59.86 | X-H torsion
[ 10167 10162 10161 10158 ] final -146.95 input  -65.29 | X-H torsion
[ 10718 10713 10712 10709 ] final  100.58 input   66.30 | X-H torsion
[ 10763 10752 10751 10750 ] final -121.23 input  -60.55 | X-H torsion
[ 11005 11000 10999 10996 ] final   19.97 input  -57.11 | X-H torsion

> <Gold.Protein.ActiveResidues>
 VAL166  LYS551  ARG553  GLY616  TRP617  ASP618  TYR619  PRO620  LYS621  CYS622 
 ASP623  PHE694  ASN695  SER759  ASP760  ASP761  ALA762  ILE779  LEU786  VAL792 
 PHE793  MET794  SER795  GLU796  ALA797  LYS798  CYS799  TRP800  GLU811  SER814 

> <Gold.Protein.RotatedAtoms>
  152.1377  134.9086  160.0555 H   0  0  0  0  0  0  0  0  0  0  0  0  # atno 6907 bound_to 6896
  152.0166  133.3877  159.4249 H   0  0  0  0  0  0  0  0  0  0  0  0  # atno 6908 bound_to 6896
  150.6862  134.3593  159.4987 H   0  0  0  0  0  0  0  0  0  0  0  0  # atno 6909 bound_to 6896
  144.7202  139.9943  143.6440 H   0  0  0  0  0  0  0  0  0  0  0  0  # atno 7974 bound_to 7965
  154.9900  140.0395  157.2315 H   0  0  0  0  0  0  0  0  0  0  0  0  # atno 8008 bound_to 7997
  154.7637  140.2789  155.6171 H   0  0  0  0  0  0  0  0  0  0  0  0  # atno 8009 bound_to 7997
  156.2908  140.2623  156.2422 H   0  0  0  0  0  0  0  0  0  0  0  0  # atno 8010 bound_to 7997
  139.7666  143.8299  152.2617 H   0  0  0  0  0  0  0  0  0  0  0  0  # atno 10167 bound_to 10162
  157.6850  131.0702  150.5123 H   0  0  0  0  0  0  0  0  0  0  0  0  # atno 10718 bound_to 10713
  154.8663  135.4175  154.2587 H   0  0  0  0  0  0  0  0  0  0  0  0  # atno 10763 bound_to 10752
  153.3519  135.6999  153.6787 H   0  0  0  0  0  0  0  0  0  0  0  0  # atno 10764 bound_to 10752
  153.5723  135.3589  155.2815 H   0  0  0  0  0  0  0  0  0  0  0  0  # atno 10765 bound_to 10752
  140.4078  134.1650  155.7666 H   0  0  0  0  0  0  0  0  0  0  0  0  # atno 11005 bound_to 11000
  146.0386  139.3401  143.0711 LP  0  0  0  0  0  0  0  0  0  0  0  0  # atno 17320 bound_to 7965
  145.8363  140.9604  143.0822 LP  0  0  0  0  0  0  0  0  0  0  0  0  # atno 17321 bound_to 7965
  139.8321  144.7249  150.9438 LP  0  0  0  0  0  0  0  0  0  0  0  0  # atno 17342 bound_to 10162
  140.7811  143.4061  151.1069 LP  0  0  0  0  0  0  0  0  0  0  0  0  # atno 17343 bound_to 10162
  156.5439  130.4215  149.6140 LP  0  0  0  0  0  0  0  0  0  0  0  0  # atno 17370 bound_to 10713
  156.2961  130.7151  151.2011 LP  0  0  0  0  0  0  0  0  0  0  0  0  # atno 17371 bound_to 10713
  141.1832  133.8368  157.1181 LP  0  0  0  0  0  0  0  0  0  0  0  0  # atno 17394 bound_to 11000
  140.0289  134.9910  157.0742 LP  0  0  0  0  0  0  0  0  0  0  0  0  # atno 17395 bound_to 11000

$$$$
