AV-unprocessed.smi:3331|AV-procd|sdf|12823|dock6
  -GOLD-   2272019203D 1   1.00000     0.00000
 Structure written by MMmdl.
 46 47  0  0  0  0  0  0  0  0  1 V2000
  152.0821  137.5652  159.0077 C   0  0  0  0  0  0  0  0  0  0  0  0
  151.5499  137.9740  157.6272 C   0  0  2  0  0  0  0  0  0  0  0  0
  151.8280  136.8826  156.5671 C   0  0  0  0  0  0  0  0  0  0  0  0
  151.4355  137.3158  155.1358 C   0  0  1  0  0  0  0  0  0  0  0  0
  149.9160  137.2408  154.9035 C   0  0  0  0  0  0  0  0  0  0  0  0
  152.0216  138.7122  154.8321 C   0  0  0  0  0  0  0  0  0  0  0  0
  151.5755  139.6683  155.8555 N   0  0  0  0  0  0  0  0  0  0  0  0
  150.6958  140.6878  155.6824 C   0  0  0  0  0  0  0  0  0  0  0  0
  150.1438  140.8920  154.5990 O   0  0  0  0  0  0  0  0  0  0  0  0
  150.3610  141.6421  156.8536 C   0  0  2  0  0  0  0  0  0  0  0  0
  148.8389  141.7159  157.0510 C   0  0  0  0  0  0  0  0  0  0  0  0
  150.9016  143.0021  156.6704 N   0  0  0  0  0  0  0  0  0  0  0  0
  151.3630  143.6172  157.9106 C   0  0  0  0  0  0  0  0  0  0  0  0
  152.4073  142.7092  158.5735 C   0  0  0  0  0  0  0  0  0  0  0  0
  152.5184  142.9788  159.9936 N   0  0  0  0  0  0  0  0  0  0  0  0
  153.2156  142.2686  160.9477 C   0  0  0  0  0  0  0  0  0  0  0  0
  153.0185  142.8951  162.1448 C   0  0  0  0  0  0  0  0  0  0  0  0
  152.1738  143.9924  161.8165 C   0  0  0  0  0  0  0  0  0  0  0  0
  151.8752  144.0392  160.5281 N   0  0  0  0  0  0  0  0  0  0  0  0
  152.1352  139.3275  157.1707 C   0  0  0  0  0  0  0  0  0  0  0  0
  153.1654  137.4407  158.9949 H   0  0  0  0  0  0  0  0  0  0  0  0
  151.6420  136.6225  159.3342 H   0  0  0  0  0  0  0  0  0  0  0  0
  151.8428  138.3177  159.7595 H   0  0  0  0  0  0  0  0  0  0  0  0
  150.4691  138.0910  157.7192 H   0  0  0  0  0  0  0  0  0  0  0  0
  152.8942  136.6518  156.5759 H   0  0  0  0  0  0  0  0  0  0  0  0
  151.3198  135.9553  156.8342 H   0  0  0  0  0  0  0  0  0  0  0  0
  151.8916  136.6088  154.4418 H   0  0  0  0  0  0  0  0  0  0  0  0
  149.3679  137.9060  155.5703 H   0  0  0  0  0  0  0  0  0  0  0  0
  149.5446  136.2299  155.0710 H   0  0  0  0  0  0  0  0  0  0  0  0
  149.6625  137.5157  153.8795 H   0  0  0  0  0  0  0  0  0  0  0  0
  153.1109  138.6581  154.8640 H   0  0  0  0  0  0  0  0  0  0  0  0
  151.8009  139.0153  153.8108 H   0  0  0  0  0  0  0  0  0  0  0  0
  150.8023  141.2704  157.7758 H   0  0  0  0  0  0  0  0  0  0  0  0
  148.4123  140.7297  157.2379 H   0  0  0  0  0  0  0  0  0  0  0  0
  148.3413  142.1324  156.1742 H   0  0  0  0  0  0  0  0  0  0  0  0
  148.5861  142.3455  157.9047 H   0  0  0  0  0  0  0  0  0  0  0  0
  151.6399  143.0167  155.9811 H   0  0  0  0  0  0  0  0  0  0  0  0
  151.8005  144.5933  157.6952 H   0  0  0  0  0  0  0  0  0  0  0  0
  150.5335  143.7769  158.6000 H   0  0  0  0  0  0  0  0  0  0  0  0
  152.1384  141.6598  158.4431 H   0  0  0  0  0  0  0  0  0  0  0  0
  153.3868  142.8459  158.1123 H   0  0  0  0  0  0  0  0  0  0  0  0
  153.7857  141.3858  160.6982 H   0  0  0  0  0  0  0  0  0  0  0  0
  153.4159  142.6123  163.1080 H   0  0  0  0  0  0  0  0  0  0  0  0
  151.7711  144.7506  162.4718 H   0  0  0  0  0  0  0  0  0  0  0  0
  151.9363  140.0897  157.9254 H   0  0  0  0  0  0  0  0  0  0  0  0
  153.2220  139.2655  157.0981 H   0  0  0  0  0  0  0  0  0  0  0  0
  1  2  1  0  0  0  0
  1 21  1  0  0  0  0
  1 22  1  0  0  0  0
  1 23  1  0  0  0  0
  2 20  1  0  0  0  0
  2  3  1  0  0  0  0
  2 24  1  0  0  0  0
  3  4  1  0  0  0  0
  3 25  1  0  0  0  0
  3 26  1  0  0  0  0
  4  5  1  0  0  0  0
  4  6  1  0  0  0  0
  4 27  1  0  0  0  0
  5 28  1  0  0  0  0
  5 29  1  0  0  0  0
  5 30  1  0  0  0  0
  6  7  1  0  0  0  0
  6 31  1  0  0  0  0
  6 32  1  0  0  0  0
  7  8  1  0  0  0  0
  7 20  1  0  0  0  0
  8  9  2  0  0  0  0
  8 10  1  0  0  0  0
 10 11  1  0  0  0  0
 10 12  1  0  0  0  0
 10 33  1  0  0  0  0
 11 34  1  0  0  0  0
 11 35  1  0  0  0  0
 11 36  1  0  0  0  0
 12 13  1  0  0  0  0
 12 37  1  0  0  0  0
 13 14  1  0  0  0  0
 13 38  1  0  0  0  0
 13 39  1  0  0  0  0
 14 15  1  0  0  0  0
 14 40  1  0  0  0  0
 14 41  1  0  0  0  0
 15 19  1  0  0  0  0
 15 16  1  0  0  0  0
 16 17  2  0  0  0  0
 16 42  1  0  0  0  0
 17 18  1  0  0  0  0
 17 43  1  0  0  0  0
 18 19  2  0  0  0  0
 18 44  1  0  0  0  0
 20 45  1  0  0  0  0
 20 46  1  0  0  0  0
M  END
> <s_m_source_file>
AV-unprocessed.smi

> <i_m_source_file_index>
3331

> <i_lp_mmshare_version>
43012

> <i_f3d_flags>
0

> <s_epik_input>
W0NIM11bQ0BASF0xW0NIMl1bQ0BASF0oW0NIM10pW0NIMl1OKFtDSDJdMSlDKD1PKVtDQEhdKFtDSDNdKVtOSF1bQ0gyXVtDSDJdbjJbY0hdW2NIXVtjSF1uMg==

> <s_epik_cmdline>
J2VwaWtfcHl0aG9uJywgJy1waCcsICc3LjAnLCAnLXRuJywgJzgnLCAnLW1hJywgJzIwMCcsICctbWV0YWxfYmluZGluZycsICctaW1hZScsICc8aW5maWxlLm1hZT4nLCAnLW9tYWUnLCAnPG91dGZpbGUubWFlPic=

> <r_lp_tautomer_probability>
1

> <r_epik_Ionization_Penalty>
0.767994

> <r_epik_Ionization_Penalty_Charging>
0

> <r_epik_Ionization_Penalty_Neutral>
0.767994

> <r_epik_State_Penalty>
0.795453

> <r_epik_Charging_Adjusted_Penalty>
0.795453

> <i_epik_Tot_Q>
0

> <i_epik_Tot_abs_Q>
0

> <r_epik_Metal_State_Penalty>
0.794784

> <b_epik_Metal_Only>
0

> <s_lp_Force_Field>
OPLS_2005

> <r_lp_Energy>
29.1229

> <b_lp_Chiralities_Consistent>
1

> <s_lp_Variant>
AV-unprocessed.smi:3331-7

> <Gold.Version>
5.8.1

> <Gold.Id.Protein>
6NUR|6NUR_protein|mol2

> <Gold.PLP.Fitness>
44.4645

> <Gold.PLP.PLP>
-43.9186

> <Gold.PLP.part.hbond>
-2.0000

> <Gold.PLP.part.metal>
0.0000

> <Gold.PLP.part.buried>
-5.0844

> <Gold.PLP.part.nonpolar>
-38.2561

> <Gold.PLP.part.repulsive>
0.2179

> <Gold.PLP.ligand.clash>
0.0000

> <Gold.PLP.ligand.torsion>
0.8065

> <Gold.PLP.Chemscore.Hbond>
0.7040

> <Gold.PLP.Chemscore.CHOScore>
0.0000

> <Gold.PLP.Chemscore.Metal>
0.0000

> <Gold.Chemscore.Hbonds>
donor molecule, donor type, donor heavy atom, donor atom, acceptor molecule, acceptor atom, score
      P1  H  7989  7998       L1     9  0.70

> <Gold.PLP.Chemscore.Internal.Correction>
0.0470

> <Gold.Rescore>
     Score         DG    S(hbond)    S(metal)    S(lipo)     H(rot)  DE(clash)    DE(int)     intcor
     14.44     -15.91       0.68        0.00     106.30       1.66       0.51       0.96       ----

> <Gold.Chemscore.Fitness>
14.4410

> <Gold.Chemscore.DG>
-15.9119

> <Gold.Chemscore.ZeroCoef>
-5.4800

> <Gold.Chemscore.Hbond>
0.6758

> <Gold.Chemscore.Metal>
0.0000

> <Gold.Chemscore.Lipo>
106.2973

> <Gold.Chemscore.Internal_Hbond>
0.0000

> <Gold.Chemscore.DEClash>
0.5072

> <Gold.Chemscore.DEInternal>
0.9637

> <Gold.Chemscore.Rot>
1.6649

> <Gold.Chemscore.Internal.Correction>
   9.000000E+99

> <Gold.Chemscore.Hbonds>
donor molecule, donor type, donor heavy atom, donor atom, acceptor molecule, acceptor atom, score
      P1  H  7989  7998       L1     9  0.18

> <Gold.Chemscore.Hbond.Weighted>
-2.2572

> <Gold.Chemscore.Metal.Weighted>
-0.0000

> <Gold.Chemscore.Lipo.Weighted>
-12.4368

> <Gold.Chemscore.Internal_Hbond.Weighted>
0.0000

> <Gold.Chemscore.DEClash.Weighted>
0.5072

> <Gold.Chemscore.DEInternal.Weighted>
0.9637

> <Gold.Chemscore.Rot.Weighted>
4.2621

> <Gold.Chemscore.Internal.Correction.Weighted>
   9.000000E+99

> <Gold.Protein.RotatedTorsions>
[ 6907 6896 6895 6894 ] final  160.83 input  -60.11 | X-H torsion
[ 7974 7965 7964 7962 ] final -115.88 input  175.53 | X-H torsion
[ 8008 7997 7996 7995 ] final -175.60 input   59.86 | X-H torsion
[ 10167 10162 10161 10158 ] final  -75.68 input  -65.29 | X-H torsion
[ 10718 10713 10712 10709 ] final  166.25 input   66.30 | X-H torsion
[ 10763 10752 10751 10750 ] final  138.24 input  -60.55 | X-H torsion
[ 11005 11000 10999 10996 ] final -131.57 input  -57.11 | X-H torsion

> <Gold.Protein.ActiveResidues>
 VAL166  LYS551  ARG553  GLY616  TRP617  ASP618  TYR619  PRO620  LYS621  CYS622 
 ASP623  PHE694  ASN695  SER759  ASP760  ASP761  ALA762  ILE779  LEU786  VAL792 
 PHE793  MET794  SER795  GLU796  ALA797  LYS798  CYS799  TRP800  GLU811  SER814 

> <Gold.Protein.RotatedAtoms>
  151.9648  133.3707  159.4048 H   0  0  0  0  0  0  0  0  0  0  0  0  # atno 6907 bound_to 6896
  150.6958  134.4202  159.5211 H   0  0  0  0  0  0  0  0  0  0  0  0  # atno 6908 bound_to 6896
  152.1897  134.8683  160.0569 H   0  0  0  0  0  0  0  0  0  0  0  0  # atno 6909 bound_to 6896
  145.1032  140.8565  143.3913 H   0  0  0  0  0  0  0  0  0  0  0  0  # atno 7974 bound_to 7965
  155.9846  140.1188  157.0695 H   0  0  0  0  0  0  0  0  0  0  0  0  # atno 8008 bound_to 7997
  154.4193  140.1137  156.5550 H   0  0  0  0  0  0  0  0  0  0  0  0  # atno 8009 bound_to 7997
  155.6425  140.3473  155.4722 H   0  0  0  0  0  0  0  0  0  0  0  0  # atno 8010 bound_to 7997
  140.4922  143.2378  151.7889 H   0  0  0  0  0  0  0  0  0  0  0  0  # atno 10167 bound_to 10162
  157.0686  131.0360  151.2620 H   0  0  0  0  0  0  0  0  0  0  0  0  # atno 10718 bound_to 10713
  153.8864  135.3038  155.3446 H   0  0  0  0  0  0  0  0  0  0  0  0  # atno 10763 bound_to 10752
  154.7737  135.4872  153.9704 H   0  0  0  0  0  0  0  0  0  0  0  0  # atno 10764 bound_to 10752
  153.1322  135.6806  153.9257 H   0  0  0  0  0  0  0  0  0  0  0  0  # atno 10765 bound_to 10752
  140.9247  134.1399  157.4285 H   0  0  0  0  0  0  0  0  0  0  0  0  # atno 11005 bound_to 11000
  145.0931  139.2876  143.5725 LP  0  0  0  0  0  0  0  0  0  0  0  0  # atno 17320 bound_to 7965
  146.3529  140.0474  142.8638 LP  0  0  0  0  0  0  0  0  0  0  0  0  # atno 17321 bound_to 7965
  139.4853  144.4634  151.9513 LP  0  0  0  0  0  0  0  0  0  0  0  0  # atno 17342 bound_to 10162
  140.3721  144.2842  150.5918 LP  0  0  0  0  0  0  0  0  0  0  0  0  # atno 17343 bound_to 10162
  157.4896  130.7814  149.7495 LP  0  0  0  0  0  0  0  0  0  0  0  0  # atno 17370 bound_to 10713
  155.9957  130.3910  150.2808 LP  0  0  0  0  0  0  0  0  0  0  0  0  # atno 17371 bound_to 10713
  139.8783  134.9984  156.5897 LP  0  0  0  0  0  0  0  0  0  0  0  0  # atno 17394 bound_to 11000
  140.7942  133.8557  155.8672 LP  0  0  0  0  0  0  0  0  0  0  0  0  # atno 17395 bound_to 11000

$$$$
