AV-unprocessed.smi:2377|AV-procd|sdf|9447|dock7
  -GOLD-   2272013 73D 1   1.00000     0.00000
 Structure written by MMmdl.
 23 23  0  0  0  0  0  0  0  0  1 V2000
  151.5468  138.4525  154.6739 C   0  0  0  0  0  0  0  0  0  0  0  0
  150.8667  139.6983  155.0049 N   0  0  0  0  0  0  0  0  0  0  0  0
  151.4195  140.3606  156.1835 C   0  0  0  0  0  0  0  0  0  0  0  0
  150.4342  141.3862  156.7722 C   0  0  2  0  0  0  0  0  0  0  0  0
  149.7879  142.0562  155.7074 O   0  0  0  0  0  0  0  0  0  0  0  0
  151.1525  142.3660  157.6860 C   0  0  0  0  0  0  0  0  0  0  0  0
  151.2745  143.7318  157.3484 C   0  0  0  0  0  0  0  0  0  0  0  0
  151.9600  144.5921  158.2274 C   0  0  0  0  0  0  0  0  0  0  0  0
  152.4993  144.0505  159.4110 C   0  0  0  0  0  0  0  0  0  0  0  0
  152.3931  142.7464  159.7444 N   0  0  0  0  0  0  0  0  0  0  0  0
  151.7342  141.9282  158.8958 C   0  0  0  0  0  0  0  0  0  0  0  0
  151.1112  138.0018  153.7822 H   0  0  0  0  0  0  0  0  0  0  0  0
  151.4634  137.7317  155.4878 H   0  0  0  0  0  0  0  0  0  0  0  0
  152.6059  138.6236  154.4784 H   0  0  0  0  0  0  0  0  0  0  0  0
  149.8785  139.5192  155.1510 H   0  0  0  0  0  0  0  0  0  0  0  0
  151.6316  139.6054  156.9418 H   0  0  0  0  0  0  0  0  0  0  0  0
  152.3718  140.8378  155.9474 H   0  0  0  0  0  0  0  0  0  0  0  0
  149.6700  140.8672  157.3530 H   0  0  0  0  0  0  0  0  0  0  0  0
  149.3887  142.8430  156.0459 H   0  0  0  0  0  0  0  0  0  0  0  0
  150.8529  144.1150  156.4307 H   0  0  0  0  0  0  0  0  0  0  0  0
  152.0711  145.6420  157.9994 H   0  0  0  0  0  0  0  0  0  0  0  0
  153.0318  144.6814  160.1072 H   0  0  0  0  0  0  0  0  0  0  0  0
  151.6715  140.8917  159.1931 H   0  0  0  0  0  0  0  0  0  0  0  0
  1  2  1  0  0  0  0
  1 12  1  0  0  0  0
  1 13  1  0  0  0  0
  1 14  1  0  0  0  0
  2  3  1  0  0  0  0
  2 15  1  0  0  0  0
  3  4  1  0  0  0  0
  3 16  1  0  0  0  0
  3 17  1  0  0  0  0
  4  5  1  0  0  0  0
  4  6  1  0  0  0  0
  4 18  1  0  0  0  0
  5 19  1  0  0  0  0
  6 11  1  0  0  0  0
  6  7  2  0  0  0  0
  7  8  1  0  0  0  0
  7 20  1  0  0  0  0
  8  9  2  0  0  0  0
  8 21  1  0  0  0  0
  9 10  1  0  0  0  0
  9 22  1  0  0  0  0
 10 11  2  0  0  0  0
 11 23  1  0  0  0  0
M  END
> <s_m_source_file>
AV-unprocessed.smi

> <i_m_source_file_index>
2377

> <i_lp_mmshare_version>
43012

> <i_f3d_flags>
0

> <s_epik_input>
W0NIM11bTkhdW0NIMl1bQ0BIXShbT0hdKWMxW2NIXVtjSF1bY0hdbltjSF0x

> <s_epik_cmdline>
J2VwaWtfcHl0aG9uJywgJy1waCcsICc3LjAnLCAnLXRuJywgJzgnLCAnLW1hJywgJzIwMCcsICctbWV0YWxfYmluZGluZycsICctaW1hZScsICc8aW5maWxlLm1hZT4nLCAnLW9tYWUnLCAnPG91dGZpbGUubWFlPic=

> <r_epik_Ionization_Penalty>
2.4626

> <r_epik_Ionization_Penalty_Charging>
0

> <r_epik_Ionization_Penalty_Neutral>
2.4626

> <r_epik_State_Penalty>
2.6219

> <r_epik_Charging_Adjusted_Penalty>
2.6219

> <i_epik_Tot_Q>
0

> <i_epik_Tot_abs_Q>
0

> <r_epik_Metal_State_Penalty>
2.61964

> <b_epik_Metal_Only>
0

> <s_lp_Force_Field>
OPLS_2005

> <r_lp_Energy>
11.5551

> <b_lp_Chiralities_Consistent>
1

> <s_lp_Variant>
AV-unprocessed.smi:2377-3

> <Gold.Version>
5.8.1

> <Gold.Id.Protein>
6NUR|6NUR_protein|mol2

> <Gold.PLP.Fitness>
34.3277

> <Gold.PLP.PLP>
-29.0531

> <Gold.PLP.part.hbond>
-2.0000

> <Gold.PLP.part.metal>
0.0000

> <Gold.PLP.part.buried>
-3.8824

> <Gold.PLP.part.nonpolar>
-22.7843

> <Gold.PLP.part.repulsive>
0.0000

> <Gold.PLP.ligand.clash>
0.0000

> <Gold.PLP.ligand.torsion>
0.3646

> <Gold.PLP.Chemscore.Hbond>
2.0000

> <Gold.PLP.Chemscore.CHOScore>
0.0000

> <Gold.PLP.Chemscore.Metal>
0.0000

> <Gold.Chemscore.Hbonds>
donor molecule, donor type, donor heavy atom, donor atom, acceptor molecule, acceptor atom, score
      L1  H     5    19       P1  8028  0.91
      P1  H  7989  7998       L1     2  0.85

> <Gold.PLP.Chemscore.Internal.Correction>
0.0039

> <Gold.Rescore>
     Score         DG    S(hbond)    S(metal)    S(lipo)     H(rot)  DE(clash)    DE(int)     intcor
     12.95     -13.00       0.98        0.00      78.76       1.94       0.02       0.02       ----

> <Gold.Chemscore.Fitness>
12.9537

> <Gold.Chemscore.DG>
-12.9965

> <Gold.Chemscore.ZeroCoef>
-5.4800

> <Gold.Chemscore.Hbond>
0.9755

> <Gold.Chemscore.Metal>
0.0000

> <Gold.Chemscore.Lipo>
78.7637

> <Gold.Chemscore.Internal_Hbond>
0.0000

> <Gold.Chemscore.DEClash>
0.0234

> <Gold.Chemscore.DEInternal>
0.0194

> <Gold.Chemscore.Rot>
1.9363

> <Gold.Chemscore.Internal.Correction>
   9.000000E+99

> <Gold.Chemscore.Hbonds>
donor molecule, donor type, donor heavy atom, donor atom, acceptor molecule, acceptor atom, score
      L1  H     5    19       P1  8028  0.87
      P1  H  7989  7998       L1     2  0.05

> <Gold.Chemscore.Hbond.Weighted>
-3.2581

> <Gold.Chemscore.Metal.Weighted>
-0.0000

> <Gold.Chemscore.Lipo.Weighted>
-9.2154

> <Gold.Chemscore.Internal_Hbond.Weighted>
0.0000

> <Gold.Chemscore.DEClash.Weighted>
0.0234

> <Gold.Chemscore.DEInternal.Weighted>
0.0194

> <Gold.Chemscore.Rot.Weighted>
4.9570

> <Gold.Chemscore.Internal.Correction.Weighted>
   9.000000E+99

> <Gold.Protein.RotatedTorsions>
[ 6907 6896 6895 6894 ] final  -45.07 input  -60.11 | X-H torsion
[ 7974 7965 7964 7962 ] final  149.81 input  175.53 | X-H torsion
[ 8008 7997 7996 7995 ] final   94.15 input   59.86 | X-H torsion
[ 10167 10162 10161 10158 ] final  134.87 input  -65.29 | X-H torsion
[ 10718 10713 10712 10709 ] final -158.62 input   66.30 | X-H torsion
[ 10763 10752 10751 10750 ] final  -87.18 input  -60.55 | X-H torsion
[ 11005 11000 10999 10996 ] final   21.66 input  -57.11 | X-H torsion

> <Gold.Protein.ActiveResidues>
 VAL166  LYS551  ARG553  GLY616  TRP617  ASP618  TYR619  PRO620  LYS621  CYS622 
 ASP623  PHE694  ASN695  SER759  ASP760  ASP761  ALA762  ILE779  LEU786  VAL792 
 PHE793  MET794  SER795  GLU796  ALA797  LYS798  CYS799  TRP800  GLU811  SER814 

> <Gold.Protein.RotatedAtoms>
  150.9259  134.8675  159.7519 H   0  0  0  0  0  0  0  0  0  0  0  0  # atno 6907 bound_to 6896
  152.5015  134.4150  159.9471 H   0  0  0  0  0  0  0  0  0  0  0  0  # atno 6908 bound_to 6896
  151.4180  133.3667  159.2787 H   0  0  0  0  0  0  0  0  0  0  0  0  # atno 6909 bound_to 6896
  144.8411  139.6327  143.6016 H   0  0  0  0  0  0  0  0  0  0  0  0  # atno 7974 bound_to 7965
  156.0548  140.3303  155.7392 H   0  0  0  0  0  0  0  0  0  0  0  0  # atno 8008 bound_to 7997
  155.5546  140.0613  157.2860 H   0  0  0  0  0  0  0  0  0  0  0  0  # atno 8009 bound_to 7997
  154.4452  140.1888  156.0709 H   0  0  0  0  0  0  0  0  0  0  0  0  # atno 8010 bound_to 7997
  139.5239  144.6546  151.5202 H   0  0  0  0  0  0  0  0  0  0  0  0  # atno 10167 bound_to 10162
  156.5567  130.8629  151.2797 H   0  0  0  0  0  0  0  0  0  0  0  0  # atno 10718 bound_to 10713
  154.6307  135.5422  153.7677 H   0  0  0  0  0  0  0  0  0  0  0  0  # atno 10763 bound_to 10752
  153.0283  135.6435  154.1305 H   0  0  0  0  0  0  0  0  0  0  0  0  # atno 10764 bound_to 10752
  154.1235  135.2919  155.3182 H   0  0  0  0  0  0  0  0  0  0  0  0  # atno 10765 bound_to 10752
  140.3892  134.1838  155.7662 H   0  0  0  0  0  0  0  0  0  0  0  0  # atno 11005 bound_to 11000
  146.2703  139.6619  142.9301 LP  0  0  0  0  0  0  0  0  0  0  0  0  # atno 17320 bound_to 7965
  145.4693  141.0435  143.2707 LP  0  0  0  0  0  0  0  0  0  0  0  0  # atno 17321 bound_to 7965
  140.6365  143.8973  150.6652 LP  0  0  0  0  0  0  0  0  0  0  0  0  # atno 17342 bound_to 10162
  140.2294  143.3747  152.1578 LP  0  0  0  0  0  0  0  0  0  0  0  0  # atno 17343 bound_to 10162
  157.7377  130.9800  150.2207 LP  0  0  0  0  0  0  0  0  0  0  0  0  # atno 17370 bound_to 10713
  156.2836  130.3736  149.7911 LP  0  0  0  0  0  0  0  0  0  0  0  0  # atno 17371 bound_to 10713
  141.1897  133.8233  157.0947 LP  0  0  0  0  0  0  0  0  0  0  0  0  # atno 17394 bound_to 11000
  140.0420  134.9849  157.0979 LP  0  0  0  0  0  0  0  0  0  0  0  0  # atno 17395 bound_to 11000

$$$$
