AV-unprocessed.smi:1019|AV-procd|sdf|4445|dock8
  -GOLD-   22720 2403D 1   1.00000     0.00000
 Structure written by MMmdl.
 44 46  0  0  0  0  0  0  0  0  2 V2000
  145.8129  135.5185  153.9384 C   0  0  0  0  0  0  0  0  0  0  0  0
  146.3072  136.4952  152.9398 N   0  3  1  0  0  0  0  0  0  0  0  0
  145.6421  136.3141  151.6252 C   0  0  0  0  0  0  0  0  0  0  0  0
  145.5142  134.8488  151.2449 C   0  0  0  0  0  0  0  0  0  0  0  0
  144.2374  134.2842  151.0399 C   0  0  0  0  0  0  0  0  0  0  0  0
  144.1120  132.9259  150.6889 C   0  0  0  0  0  0  0  0  0  0  0  0
  145.2624  132.1276  150.5392 C   0  0  0  0  0  0  0  0  0  0  0  0
  146.5386  132.6879  150.7400 C   0  0  0  0  0  0  0  0  0  0  0  0
  146.6651  134.0462  151.0907 C   0  0  0  0  0  0  0  0  0  0  0  0
  146.2576  137.8972  153.4329 C   0  0  0  0  0  0  0  0  0  0  0  0
  147.4323  138.7554  152.9126 C   0  0  1  0  0  0  0  0  0  0  0  0
  147.3962  138.7622  151.4997 O   0  0  0  0  0  0  0  0  0  0  0  0
  147.3789  140.2204  153.3901 C   0  0  0  0  0  0  0  0  0  0  0  0
  148.3701  140.5090  154.4102 N   0  0  0  0  0  0  0  0  0  0  0  0
  148.3838  141.5619  155.2500 C   0  0  0  0  0  0  0  0  0  0  0  0
  149.3977  141.6452  156.1061 N   0  0  0  0  0  0  0  0  0  0  0  0
  150.1247  140.5101  155.7906 C   0  0  0  0  0  0  0  0  0  0  0  0
  151.3290  140.0106  156.3360 C   0  0  0  0  0  0  0  0  0  0  0  0
  151.8959  138.8173  155.8423 C   0  0  0  0  0  0  0  0  0  0  0  0
  151.2692  138.1061  154.7983 C   0  0  0  0  0  0  0  0  0  0  0  0
  150.0683  138.5833  154.2395 C   0  0  0  0  0  0  0  0  0  0  0  0
  149.5061  139.7748  154.7347 C   0  0  0  0  0  0  0  0  0  0  0  0
  144.7554  135.6799  154.1513 H   0  0  0  0  0  0  0  0  0  0  0  0
  146.3635  135.5886  154.8755 H   0  0  0  0  0  0  0  0  0  0  0  0
  145.9331  134.4986  153.5719 H   0  0  0  0  0  0  0  0  0  0  0  0
  144.6340  136.7300  151.6581 H   0  0  0  0  0  0  0  0  0  0  0  0
  146.1805  136.8681  150.8543 H   0  0  0  0  0  0  0  0  0  0  0  0
  143.3504  134.8905  151.1533 H   0  0  0  0  0  0  0  0  0  0  0  0
  143.1332  132.4963  150.5336 H   0  0  0  0  0  0  0  0  0  0  0  0
  145.1655  131.0859  150.2698 H   0  0  0  0  0  0  0  0  0  0  0  0
  147.4210  132.0756  150.6240 H   0  0  0  0  0  0  0  0  0  0  0  0
  147.6480  134.4675  151.2436 H   0  0  0  0  0  0  0  0  0  0  0  0
  145.3295  138.3786  153.1254 H   0  0  0  0  0  0  0  0  0  0  0  0
  146.2358  137.8771  154.5229 H   0  0  0  0  0  0  0  0  0  0  0  0
  148.3846  138.3274  153.2242 H   0  0  0  0  0  0  0  0  0  0  0  0
  148.1460  139.2417  151.1800 H   0  0  0  0  0  0  0  0  0  0  0  0
  147.5459  140.8983  152.5517 H   0  0  0  0  0  0  0  0  0  0  0  0
  146.3918  140.4579  153.7892 H   0  0  0  0  0  0  0  0  0  0  0  0
  147.6082  142.3135  155.2270 H   0  0  0  0  0  0  0  0  0  0  0  0
  151.8186  140.5469  157.1353 H   0  0  0  0  0  0  0  0  0  0  0  0
  152.8166  138.4457  156.2675 H   0  0  0  0  0  0  0  0  0  0  0  0
  151.7111  137.1929  154.4270 H   0  0  0  0  0  0  0  0  0  0  0  0
  149.5874  138.0404  153.4395 H   0  0  0  0  0  0  0  0  0  0  0  0
  147.2829  136.2833  152.7853 H   0  0  0  0  0  0  0  0  0  0  0  0
  1  2  1  0  0  0  0
  1 23  1  0  0  0  0
  1 24  1  0  0  0  0
  1 25  1  0  0  0  0
  2  3  1  0  0  0  0
  2 10  1  0  0  0  0
  2 44  1  0  0  0  0
  3  4  1  0  0  0  0
  3 26  1  0  0  0  0
  3 27  1  0  0  0  0
  4  9  1  0  0  0  0
  4  5  2  0  0  0  0
  5  6  1  0  0  0  0
  5 28  1  0  0  0  0
  6  7  2  0  0  0  0
  6 29  1  0  0  0  0
  7  8  1  0  0  0  0
  7 30  1  0  0  0  0
  8  9  2  0  0  0  0
  8 31  1  0  0  0  0
  9 32  1  0  0  0  0
 10 11  1  0  0  0  0
 10 33  1  0  0  0  0
 10 34  1  0  0  0  0
 11 12  1  0  0  0  0
 11 13  1  0  0  0  0
 11 35  1  0  0  0  0
 12 36  1  0  0  0  0
 13 14  1  0  0  0  0
 13 37  1  0  0  0  0
 13 38  1  0  0  0  0
 14 22  1  0  0  0  0
 14 15  1  0  0  0  0
 15 16  2  0  0  0  0
 15 39  1  0  0  0  0
 16 17  1  0  0  0  0
 17 22  2  0  0  0  0
 17 18  1  0  0  0  0
 18 19  2  0  0  0  0
 18 40  1  0  0  0  0
 19 20  1  0  0  0  0
 19 41  1  0  0  0  0
 20 21  2  0  0  0  0
 20 42  1  0  0  0  0
 21 22  1  0  0  0  0
 21 43  1  0  0  0  0
M  CHG  1   2   1
M  END
> <s_m_source_file>
AV-unprocessed.smi

> <i_m_source_file_index>
1019

> <i_lp_mmshare_version>
43012

> <i_f3d_flags>
0

> <s_epik_input>
W2NIXTFbY0hdW2NIXVtjSF1bY0hdYzFbQ0gyXU4oW0NIM10pW0NIMl1bQ0BIXShbT0hdKVtDSDJdbihbY0hdbjIpYyhjMjMpW2NIXVtjSF1bY0hdW2NIXTM=

> <s_epik_cmdline>
J2VwaWtfcHl0aG9uJywgJy1waCcsICc3LjAnLCAnLXRuJywgJzgnLCAnLW1hJywgJzIwMCcsICctbWV0YWxfYmluZGluZycsICctaW1hZScsICc8aW5maWxlLm1hZT4nLCAnLW9tYWUnLCAnPG91dGZpbGUubWFlPic=

> <r_epik_Ionization_Penalty>
0.0996557

> <r_epik_Ionization_Penalty_Charging>
0.0475377

> <r_epik_Ionization_Penalty_Neutral>
0.0521179

> <r_epik_State_Penalty>
0.0851777

> <r_epik_Charging_Adjusted_Penalty>
0.132715

> <i_epik_Tot_Q>
1

> <i_epik_Tot_abs_Q>
1

> <r_epik_Metal_State_Penalty>
0.0423478

> <b_epik_Metal_Only>
0

> <s_lp_Force_Field>
OPLS_2005

> <r_lp_Energy>
16.033

> <b_lp_Chiralities_Consistent>
1

> <s_lp_Variant>
AV-unprocessed.smi:1019-3

> <Gold.Version>
5.8.1

> <Gold.Id.Protein>
6NUR|6NUR_protein|mol2

> <Gold.PLP.Fitness>
53.4109

> <Gold.PLP.PLP>
-46.8730

> <Gold.PLP.part.hbond>
-3.7436

> <Gold.PLP.part.metal>
0.0000

> <Gold.PLP.part.buried>
0.1026

> <Gold.PLP.part.nonpolar>
-42.4960

> <Gold.PLP.part.repulsive>
0.1144

> <Gold.PLP.ligand.clash>
1.4504

> <Gold.PLP.ligand.torsion>
1.3796

> <Gold.PLP.Chemscore.Hbond>
3.0000

> <Gold.PLP.Chemscore.CHOScore>
0.5419

> <Gold.PLP.Chemscore.Metal>
0.0000

> <Gold.Chemscore.Hbonds>
donor molecule, donor type, donor heavy atom, donor atom, acceptor molecule, acceptor atom, score
      L1  H     2    44       P1  7948  2.00
      L1  H    12    36       P1  7957  1.00
      L1  C    15    39       P1  8028  0.27

> <Gold.PLP.Chemscore.Internal.Correction>
0.1217

> <Gold.Rescore>
     Score         DG    S(hbond)    S(metal)    S(lipo)     H(rot)  DE(clash)    DE(int)     intcor
     15.80     -18.63       1.89        0.00     110.02       2.36       0.25       2.58       ----

> <Gold.Chemscore.Fitness>
15.7956

> <Gold.Chemscore.DG>
-18.6251

> <Gold.Chemscore.ZeroCoef>
-5.4800

> <Gold.Chemscore.Hbond>
1.8917

> <Gold.Chemscore.Metal>
0.0000

> <Gold.Chemscore.Lipo>
110.0222

> <Gold.Chemscore.Internal_Hbond>
0.0000

> <Gold.Chemscore.DEClash>
0.2542

> <Gold.Chemscore.DEInternal>
2.5753

> <Gold.Chemscore.Rot>
2.3616

> <Gold.Chemscore.Internal.Correction>
   9.000000E+99

> <Gold.Chemscore.Hbonds>
donor molecule, donor type, donor heavy atom, donor atom, acceptor molecule, acceptor atom, score
      L1  H     2    44       P1  7948  0.99
      L1  H    12    36       P1  7957  0.60

> <Gold.Chemscore.Hbond.Weighted>
-6.3183

> <Gold.Chemscore.Metal.Weighted>
-0.0000

> <Gold.Chemscore.Lipo.Weighted>
-12.8726

> <Gold.Chemscore.Internal_Hbond.Weighted>
0.0000

> <Gold.Chemscore.DEClash.Weighted>
0.2542

> <Gold.Chemscore.DEInternal.Weighted>
2.5753

> <Gold.Chemscore.Rot.Weighted>
6.0457

> <Gold.Chemscore.Internal.Correction.Weighted>
   9.000000E+99

> <Gold.Protein.RotatedTorsions>
[ 6907 6896 6895 6894 ] final   85.67 input  -60.11 | X-H torsion
[ 7974 7965 7964 7962 ] final  -40.84 input  175.53 | X-H torsion
[ 8008 7997 7996 7995 ] final  -42.22 input   59.86 | X-H torsion
[ 10167 10162 10161 10158 ] final  178.39 input  -65.29 | X-H torsion
[ 10718 10713 10712 10709 ] final  -95.93 input   66.30 | X-H torsion
[ 10763 10752 10751 10750 ] final  -52.64 input  -60.55 | X-H torsion
[ 11005 11000 10999 10996 ] final  -85.88 input  -57.11 | X-H torsion

> <Gold.Protein.ActiveResidues>
 VAL166  LYS551  ARG553  GLY616  TRP617  ASP618  TYR619  PRO620  LYS621  CYS622 
 ASP623  PHE694  ASN695  SER759  ASP760  ASP761  ALA762  ILE779  LEU786  VAL792 
 PHE793  MET794  SER795  GLU796  ALA797  LYS798  CYS799  TRP800  GLU811  SER814 

> <Gold.Protein.RotatedAtoms>
  152.5379  134.2551  159.8913 H   0  0  0  0  0  0  0  0  0  0  0  0  # atno 6907 bound_to 6896
  151.2513  133.4342  159.2619 H   0  0  0  0  0  0  0  0  0  0  0  0  # atno 6908 bound_to 6896
  151.0537  134.9704  159.8281 H   0  0  0  0  0  0  0  0  0  0  0  0  # atno 6909 bound_to 6896
  146.0267  140.6783  142.9152 H   0  0  0  0  0  0  0  0  0  0  0  0  # atno 7974 bound_to 7965
  154.4000  140.1479  156.3319 H   0  0  0  0  0  0  0  0  0  0  0  0  # atno 8008 bound_to 7997
  155.8435  140.3461  155.5626 H   0  0  0  0  0  0  0  0  0  0  0  0  # atno 8009 bound_to 7997
  155.8061  140.0877  157.1920 H   0  0  0  0  0  0  0  0  0  0  0  0  # atno 8010 bound_to 7997
  139.5292  144.2686  152.0647 H   0  0  0  0  0  0  0  0  0  0  0  0  # atno 10167 bound_to 10162
  156.0052  130.5130  150.6150 H   0  0  0  0  0  0  0  0  0  0  0  0  # atno 10718 bound_to 10713
  154.1460  135.6497  153.4953 H   0  0  0  0  0  0  0  0  0  0  0  0  # atno 10763 bound_to 10752
  153.0152  135.5327  154.6856 H   0  0  0  0  0  0  0  0  0  0  0  0  # atno 10764 bound_to 10752
  154.6131  135.2956  155.0381 H   0  0  0  0  0  0  0  0  0  0  0  0  # atno 10765 bound_to 10752
  141.1636  133.7424  156.9080 H   0  0  0  0  0  0  0  0  0  0  0  0  # atno 11005 bound_to 11000
  144.7012  140.3663  143.7154 LP  0  0  0  0  0  0  0  0  0  0  0  0  # atno 17320 bound_to 7965
  145.7106  139.1684  143.2541 LP  0  0  0  0  0  0  0  0  0  0  0  0  # atno 17321 bound_to 7965
  140.2146  144.4528  150.6370 LP  0  0  0  0  0  0  0  0  0  0  0  0  # atno 17342 bound_to 10162
  140.6458  143.2213  151.6189 LP  0  0  0  0  0  0  0  0  0  0  0  0  # atno 17343 bound_to 10162
  157.3976  131.0805  151.1338 LP  0  0  0  0  0  0  0  0  0  0  0  0  # atno 17370 bound_to 10713
  157.2009  130.6394  149.5738 LP  0  0  0  0  0  0  0  0  0  0  0  0  # atno 17371 bound_to 10713
  140.1536  134.9213  157.2625 LP  0  0  0  0  0  0  0  0  0  0  0  0  # atno 17394 bound_to 11000
  140.2693  134.3479  155.7379 LP  0  0  0  0  0  0  0  0  0  0  0  0  # atno 17395 bound_to 11000

$$$$
