AV-unprocessed.smi:486|AV-procd|sdf|2695|dock5
  -GOLD-   2262023123D 1   1.00000     0.00000
 Structure written by MMmdl.
 43 45  0  0  0  0  0  0  0  0  1 V2000
  143.2934  145.5668  155.3064 C   0  0  0  0  0  0  0  0  0  0  0  0
  144.0941  144.9253  154.3245 O   0  0  0  0  0  0  0  0  0  0  0  0
  145.0226  143.9990  154.7488 C   0  0  0  0  0  0  0  0  0  0  0  0
  145.8636  143.4382  153.7679 C   0  0  0  0  0  0  0  0  0  0  0  0
  146.8403  142.4857  154.1150 C   0  0  0  0  0  0  0  0  0  0  0  0
  146.9983  142.0684  155.4511 C   0  0  0  0  0  0  0  0  0  0  0  0
  147.9765  141.1307  155.7035 O   0  0  0  0  0  0  0  0  0  0  0  0
  149.1225  141.1083  154.8622 C   0  0  0  0  0  0  0  0  0  0  0  0
  150.3797  141.2477  155.7348 C   0  0  2  0  0  0  0  0  0  0  0  0
  151.3728  140.3774  155.2286 O   0  0  0  0  0  0  0  0  0  0  0  0
  150.0996  140.8908  157.2091 C   0  0  0  0  0  0  0  0  0  0  0  0
  151.1576  141.3328  158.1083 N   0  0  0  0  0  0  0  0  0  0  0  0
  152.2213  140.6214  158.5558 C   0  0  0  0  0  0  0  0  0  0  0  0
  152.4514  139.2019  158.1440 C   0  0  0  0  0  0  0  0  0  0  0  0
  153.0490  141.2664  159.3779 N   0  0  0  0  0  0  0  0  0  0  0  0
  152.4687  142.5167  159.4716 C   0  0  0  0  0  0  0  0  0  0  0  0
  152.8689  143.6624  160.1960 C   0  0  0  0  0  0  0  0  0  0  0  0
  152.1058  144.8472  160.1365 C   0  0  0  0  0  0  0  0  0  0  0  0
  150.9339  144.9028  159.3545 C   0  0  0  0  0  0  0  0  0  0  0  0
  150.5170  143.7725  158.6254 C   0  0  0  0  0  0  0  0  0  0  0  0
  151.2826  142.5925  158.6871 C   0  0  0  0  0  0  0  0  0  0  0  0
  146.1551  142.6297  156.4414 C   0  0  0  0  0  0  0  0  0  0  0  0
  145.1788  143.5841  156.0943 C   0  0  0  0  0  0  0  0  0  0  0  0
  142.6191  146.2700  154.8178 H   0  0  0  0  0  0  0  0  0  0  0  0
  143.9043  146.1323  156.0110 H   0  0  0  0  0  0  0  0  0  0  0  0
  142.6808  144.8487  155.8534 H   0  0  0  0  0  0  0  0  0  0  0  0
  145.7597  143.7417  152.7364 H   0  0  0  0  0  0  0  0  0  0  0  0
  147.4749  142.0702  153.3459 H   0  0  0  0  0  0  0  0  0  0  0  0
  149.1479  140.1485  154.3435 H   0  0  0  0  0  0  0  0  0  0  0  0
  149.0864  141.8956  154.1069 H   0  0  0  0  0  0  0  0  0  0  0  0
  150.7491  142.2719  155.6780 H   0  0  0  0  0  0  0  0  0  0  0  0
  150.9973  139.5143  155.1422 H   0  0  0  0  0  0  0  0  0  0  0  0
  149.1584  141.3352  157.5343 H   0  0  0  0  0  0  0  0  0  0  0  0
  149.9766  139.8127  157.3203 H   0  0  0  0  0  0  0  0  0  0  0  0
  153.3172  138.7890  158.6629 H   0  0  0  0  0  0  0  0  0  0  0  0
  152.6358  139.1465  157.0712 H   0  0  0  0  0  0  0  0  0  0  0  0
  151.5842  138.5884  158.3867 H   0  0  0  0  0  0  0  0  0  0  0  0
  153.7647  143.6296  160.7982 H   0  0  0  0  0  0  0  0  0  0  0  0
  152.4213  145.7168  160.6941 H   0  0  0  0  0  0  0  0  0  0  0  0
  150.3542  145.8134  159.3158 H   0  0  0  0  0  0  0  0  0  0  0  0
  149.6178  143.8105  158.0288 H   0  0  0  0  0  0  0  0  0  0  0  0
  146.2371  142.3455  157.4794 H   0  0  0  0  0  0  0  0  0  0  0  0
  144.5601  143.9843  156.8828 H   0  0  0  0  0  0  0  0  0  0  0  0
  1  2  1  0  0  0  0
  1 24  1  0  0  0  0
  1 25  1  0  0  0  0
  1 26  1  0  0  0  0
  2  3  1  0  0  0  0
  3 23  1  0  0  0  0
  3  4  2  0  0  0  0
  4  5  1  0  0  0  0
  4 27  1  0  0  0  0
  5  6  2  0  0  0  0
  5 28  1  0  0  0  0
  6  7  1  0  0  0  0
  6 22  1  0  0  0  0
  7  8  1  0  0  0  0
  8  9  1  0  0  0  0
  8 29  1  0  0  0  0
  8 30  1  0  0  0  0
  9 10  1  0  0  0  0
  9 11  1  0  0  0  0
  9 31  1  0  0  0  0
 10 32  1  0  0  0  0
 11 12  1  0  0  0  0
 11 33  1  0  0  0  0
 11 34  1  0  0  0  0
 12 21  1  0  0  0  0
 12 13  1  0  0  0  0
 13 14  1  0  0  0  0
 13 15  2  0  0  0  0
 14 35  1  0  0  0  0
 14 36  1  0  0  0  0
 14 37  1  0  0  0  0
 15 16  1  0  0  0  0
 16 21  2  0  0  0  0
 16 17  1  0  0  0  0
 17 18  2  0  0  0  0
 17 38  1  0  0  0  0
 18 19  1  0  0  0  0
 18 39  1  0  0  0  0
 19 20  2  0  0  0  0
 19 40  1  0  0  0  0
 20 21  1  0  0  0  0
 20 41  1  0  0  0  0
 22 23  2  0  0  0  0
 22 42  1  0  0  0  0
 23 43  1  0  0  0  0
M  END
> <s_m_source_file>
AV-unprocessed.smi

> <i_m_source_file_index>
486

> <i_lp_mmshare_version>
43012

> <i_f3d_flags>
0

> <s_epik_input>
W0NIM11PYzFbY0hdW2NIXWMoW2NIXVtjSF0xKU9bQ0gyXVtDQEhdKFtPSF0pW0NIMl1uKGMobjIpW0NIM10pYyhjMjMpW2NIXVtjSF1bY0hdW2NIXTM=

> <s_epik_cmdline>
J2VwaWtfcHl0aG9uJywgJy1waCcsICc3LjAnLCAnLXRuJywgJzgnLCAnLW1hJywgJzIwMCcsICctbWV0YWxfYmluZGluZycsICctaW1hZScsICc8aW5maWxlLm1hZT4nLCAnLW9tYWUnLCAnPG91dGZpbGUubWFlPic=

> <r_lp_tautomer_probability>
1

> <r_epik_Ionization_Penalty>
0.114052

> <r_epik_Ionization_Penalty_Charging>
0

> <r_epik_Ionization_Penalty_Neutral>
0.114052

> <r_epik_State_Penalty>
0.103717

> <r_epik_Charging_Adjusted_Penalty>
0.103717

> <i_epik_Tot_Q>
0

> <i_epik_Tot_abs_Q>
0

> <r_epik_Metal_State_Penalty>
0.000113338

> <b_epik_Metal_Only>
0

> <s_lp_Force_Field>
OPLS_2005

> <r_lp_Energy>
19.9985

> <b_lp_Chiralities_Consistent>
1

> <s_lp_Variant>
AV-unprocessed.smi:486-1

> <Gold.Version>
5.8.1

> <Gold.Id.Protein>
6NUR|6NUR_protein|mol2

> <Gold.PLP.Fitness>
48.4313

> <Gold.PLP.PLP>
-49.0070

> <Gold.PLP.part.hbond>
-1.0000

> <Gold.PLP.part.metal>
0.0000

> <Gold.PLP.part.buried>
-9.8509

> <Gold.PLP.part.nonpolar>
-39.3196

> <Gold.PLP.part.repulsive>
0.1834

> <Gold.PLP.ligand.clash>
0.0000

> <Gold.PLP.ligand.torsion>
1.7872

> <Gold.PLP.Chemscore.Hbond>
0.9600

> <Gold.PLP.Chemscore.CHOScore>
0.0000

> <Gold.PLP.Chemscore.Metal>
0.0000

> <Gold.Chemscore.Hbonds>
donor molecule, donor type, donor heavy atom, donor atom, acceptor molecule, acceptor atom, score
      P1  H  7989  7998       L1    10  0.96

> <Gold.PLP.Chemscore.Internal.Correction>
0.1187

> <Gold.Rescore>
     Score         DG    S(hbond)    S(metal)    S(lipo)     H(rot)  DE(clash)    DE(int)     intcor
     15.45     -17.12       0.78        0.00     127.68       2.30       0.03       1.64       ----

> <Gold.Chemscore.Fitness>
15.4495

> <Gold.Chemscore.DG>
-17.1216

> <Gold.Chemscore.ZeroCoef>
-5.4800

> <Gold.Chemscore.Hbond>
0.7777

> <Gold.Chemscore.Metal>
0.0000

> <Gold.Chemscore.Lipo>
127.6754

> <Gold.Chemscore.Internal_Hbond>
0.0000

> <Gold.Chemscore.DEClash>
0.0340

> <Gold.Chemscore.DEInternal>
1.6380

> <Gold.Chemscore.Rot>
2.3023

> <Gold.Chemscore.Internal.Correction>
   9.000000E+99

> <Gold.Chemscore.Hbonds>
donor molecule, donor type, donor heavy atom, donor atom, acceptor molecule, acceptor atom, score
      P1  H  7989  7998       L1    10  0.20

> <Gold.Chemscore.Hbond.Weighted>
-2.5976

> <Gold.Chemscore.Metal.Weighted>
-0.0000

> <Gold.Chemscore.Lipo.Weighted>
-14.9380

> <Gold.Chemscore.Internal_Hbond.Weighted>
0.0000

> <Gold.Chemscore.DEClash.Weighted>
0.0340

> <Gold.Chemscore.DEInternal.Weighted>
1.6380

> <Gold.Chemscore.Rot.Weighted>
5.8940

> <Gold.Chemscore.Internal.Correction.Weighted>
   9.000000E+99

> <Gold.Protein.RotatedTorsions>
[ 6907 6896 6895 6894 ] final  171.18 input  -60.11 | X-H torsion
[ 7974 7965 7964 7962 ] final -133.91 input  175.53 | X-H torsion
[ 8008 7997 7996 7995 ] final   52.78 input   59.86 | X-H torsion
[ 10167 10162 10161 10158 ] final  -86.24 input  -65.29 | X-H torsion
[ 10718 10713 10712 10709 ] final  135.05 input   66.30 | X-H torsion
[ 10763 10752 10751 10750 ] final  -86.49 input  -60.55 | X-H torsion
[ 11005 11000 10999 10996 ] final -122.45 input  -57.11 | X-H torsion

> <Gold.Protein.ActiveResidues>
 VAL166  LYS551  ARG553  GLY616  TRP617  ASP618  TYR619  PRO620  LYS621  CYS622 
 ASP623  PHE694  ASN695  SER759  ASP760  ASP761  ALA762  ILE779  LEU786  VAL792 
 PHE793  MET794  SER795  GLU796  ALA797  LYS798  CYS799  TRP800  GLU811  SER814 

> <Gold.Protein.RotatedAtoms>
  151.8043  133.3374  159.3536 H   0  0  0  0  0  0  0  0  0  0  0  0  # atno 6907 bound_to 6896
  150.7347  134.5723  159.5906 H   0  0  0  0  0  0  0  0  0  0  0  0  # atno 6908 bound_to 6896
  152.3120  134.7487  160.0385 H   0  0  0  0  0  0  0  0  0  0  0  0  # atno 6909 bound_to 6896
  144.9150  140.6943  143.5001 H   0  0  0  0  0  0  0  0  0  0  0  0  # atno 7974 bound_to 7965
  155.4575  140.3460  155.4308 H   0  0  0  0  0  0  0  0  0  0  0  0  # atno 8008 bound_to 7997
  156.1181  140.1479  156.9273 H   0  0  0  0  0  0  0  0  0  0  0  0  # atno 8009 bound_to 7997
  154.4804  140.0871  156.7342 H   0  0  0  0  0  0  0  0  0  0  0  0  # atno 8010 bound_to 7997
  140.3961  143.2683  151.9203 H   0  0  0  0  0  0  0  0  0  0  0  0  # atno 10167 bound_to 10162
  157.4610  131.1073  150.9920 H   0  0  0  0  0  0  0  0  0  0  0  0  # atno 10718 bound_to 10713
  154.6230  135.5447  153.7596 H   0  0  0  0  0  0  0  0  0  0  0  0  # atno 10763 bound_to 10752
  153.0247  135.6417  154.1412 H   0  0  0  0  0  0  0  0  0  0  0  0  # atno 10764 bound_to 10752
  154.1346  135.2912  155.3156 H   0  0  0  0  0  0  0  0  0  0  0  0  # atno 10765 bound_to 10752
  140.9994  134.0425  157.3557 H   0  0  0  0  0  0  0  0  0  0  0  0  # atno 11005 bound_to 11000
  145.3390  139.1737  143.4496 LP  0  0  0  0  0  0  0  0  0  0  0  0  # atno 17320 bound_to 7965
  146.3177  140.3429  142.8649 LP  0  0  0  0  0  0  0  0  0  0  0  0  # atno 17321 bound_to 7965
  139.4786  144.5680  151.8134 LP  0  0  0  0  0  0  0  0  0  0  0  0  # atno 17342 bound_to 10162
  140.4789  144.1478  150.5929 LP  0  0  0  0  0  0  0  0  0  0  0  0  # atno 17343 bound_to 10162
  157.0717  130.5867  149.5404 LP  0  0  0  0  0  0  0  0  0  0  0  0  # atno 17370 bound_to 10713
  156.0029  130.5111  150.7726 LP  0  0  0  0  0  0  0  0  0  0  0  0  # atno 17371 bound_to 10713
  139.9031  135.0171  156.7361 LP  0  0  0  0  0  0  0  0  0  0  0  0  # atno 17394 bound_to 11000
  140.6914  133.9387  155.7968 LP  0  0  0  0  0  0  0  0  0  0  0  0  # atno 17395 bound_to 11000

$$$$
