AV-unprocessed.smi:285|AV-procd|sdf|2167|dock1
  -GOLD-   2262021523D 1   1.00000     0.00000
 Structure written by MMmdl.
 31 33  0  0  0  0  0  0  0  0  1 V2000
  153.2833  141.0197  159.5682 N   0  0  0  0  0  0  0  0  0  0  0  0
  152.1568  141.2814  158.8915 C   0  0  0  0  0  0  0  0  0  0  0  0
  151.3306  142.2431  159.3655 N   0  0  0  0  0  0  0  0  0  0  0  0
  150.2020  142.5258  158.7067 C   0  0  0  0  0  0  0  0  0  0  0  0
  149.7301  141.9770  157.5843 N   0  0  0  0  0  0  0  0  0  0  0  0
  150.5624  141.0046  157.1079 C   0  0  0  0  0  0  0  0  0  0  0  0
  151.7927  140.5993  157.7032 C   0  0  0  0  0  0  0  0  0  0  0  0
  152.3803  139.5888  156.9523 N   0  0  0  0  0  0  0  0  0  0  0  0
  151.5311  139.4258  155.9765 C   0  0  0  0  0  0  0  0  0  0  0  0
  151.8666  138.1391  154.6126 Br  0  0  0  0  0  0  0  0  0  0  0  0
  150.4100  140.2246  155.9780 N   0  0  0  0  0  0  0  0  0  0  0  0
  149.2806  140.2639  154.9991 C   0  0  2  0  0  0  0  0  0  0  0  0
  149.1355  141.6567  154.3931 C   0  0  0  0  0  0  0  0  0  0  0  0
  147.6449  141.6988  154.1408 C   0  0  2  0  0  0  0  0  0  0  0  0
  147.1907  143.0338  154.0554 O   0  0  0  0  0  0  0  0  0  0  0  0
  147.1070  140.9691  155.3783 C   0  0  1  0  0  0  0  0  0  0  0  0
  145.7409  140.2937  155.1844 C   0  0  0  0  0  0  0  0  0  0  0  0
  145.7610  139.4515  154.0512 O   0  0  0  0  0  0  0  0  0  0  0  0
  148.0903  139.9756  155.6693 O   0  0  0  0  0  0  0  0  0  0  0  0
  153.9164  140.3074  159.2337 H   0  0  0  0  0  0  0  0  0  0  0  0
  153.4993  141.5376  160.4076 H   0  0  0  0  0  0  0  0  0  0  0  0
  149.5899  143.3033  159.1397 H   0  0  0  0  0  0  0  0  0  0  0  0
  149.4856  139.4879  154.2622 H   0  0  0  0  0  0  0  0  0  0  0  0
  149.4300  142.4133  155.1228 H   0  0  0  0  0  0  0  0  0  0  0  0
  149.7442  141.7657  153.4950 H   0  0  0  0  0  0  0  0  0  0  0  0
  147.4002  141.1536  153.2279 H   0  0  0  0  0  0  0  0  0  0  0  0
  147.8193  143.5912  154.4892 H   0  0  0  0  0  0  0  0  0  0  0  0
  147.0774  141.6484  156.2325 H   0  0  0  0  0  0  0  0  0  0  0  0
  145.4597  139.7173  156.0662 H   0  0  0  0  0  0  0  0  0  0  0  0
  144.9695  141.0492  155.0333 H   0  0  0  0  0  0  0  0  0  0  0  0
  145.1588  139.7967  153.4097 H   0  0  0  0  0  0  0  0  0  0  0  0
  1  2  1  0  0  0  0
  1 20  1  0  0  0  0
  1 21  1  0  0  0  0
  2  7  1  0  0  0  0
  2  3  2  0  0  0  0
  3  4  1  0  0  0  0
  4  5  2  0  0  0  0
  4 22  1  0  0  0  0
  5  6  1  0  0  0  0
  6 11  1  0  0  0  0
  6  7  2  0  0  0  0
  7  8  1  0  0  0  0
  8  9  2  0  0  0  0
  9 10  1  0  0  0  0
  9 11  1  0  0  0  0
 11 12  1  0  0  0  0
 12 19  1  0  0  0  0
 12 13  1  0  0  0  0
 12 23  1  0  0  0  0
 13 14  1  0  0  0  0
 13 24  1  0  0  0  0
 13 25  1  0  0  0  0
 14 15  1  0  0  0  0
 14 16  1  0  0  0  0
 14 26  1  0  0  0  0
 15 27  1  0  0  0  0
 16 17  1  0  0  0  0
 16 19  1  0  0  0  0
 16 28  1  0  0  0  0
 17 18  1  0  0  0  0
 17 29  1  0  0  0  0
 17 30  1  0  0  0  0
 18 31  1  0  0  0  0
M  END
> <s_m_source_file>
AV-unprocessed.smi

> <i_m_source_file_index>
285

> <i_lp_mmshare_version>
43012

> <i_f3d_flags>
0

> <s_epik_input>
bjFbY0hdbmMoW05IMl0pYyhjMTIpbmMoQnIpbjJbQ0BASF0zW0NIMl1bQ0BASF0oW09IXSlbQ0BIXShPMylbQ0gyXVtPSF0=

> <s_epik_cmdline>
J2VwaWtfcHl0aG9uJywgJy1waCcsICc3LjAnLCAnLXRuJywgJzgnLCAnLW1hJywgJzIwMCcsICctbWV0YWxfYmluZGluZycsICctaW1hZScsICc8aW5maWxlLm1hZT4nLCAnLW9tYWUnLCAnPG91dGZpbGUubWFlPic=

> <r_lp_tautomer_probability>
1

> <r_epik_Ionization_Penalty>
0.000103242

> <r_epik_Ionization_Penalty_Charging>
0

> <r_epik_Ionization_Penalty_Neutral>
0.000103242

> <r_epik_State_Penalty>
-0

> <r_epik_Charging_Adjusted_Penalty>
0

> <i_epik_Tot_Q>
0

> <i_epik_Tot_abs_Q>
0

> <r_epik_Metal_State_Penalty>
-0

> <b_epik_Metal_Only>
0

> <s_epik_Chemistry_Notes>
This compound contains an acetal/aminal-like group ( X-CH(R)-Y where X, Y are N, S, or O) that may be acid/base labile, releasing an aldehyde.

> <s_lp_Force_Field>
OPLS_2005

> <r_lp_Energy>
29.9109

> <b_lp_Chiralities_Consistent>
1

> <s_lp_Variant>
AV-unprocessed.smi:285-3

> <Gold.Version>
5.8.1

> <Gold.Id.Protein>
6NUR|6NUR_protein|mol2

> <Gold.PLP.Fitness>
38.0688

> <Gold.PLP.PLP>
-29.1077

> <Gold.PLP.part.hbond>
-3.8395

> <Gold.PLP.part.metal>
0.0000

> <Gold.PLP.part.buried>
-2.7696

> <Gold.PLP.part.nonpolar>
-22.6082

> <Gold.PLP.part.repulsive>
0.2206

> <Gold.PLP.ligand.clash>
0.0000

> <Gold.PLP.ligand.torsion>
0.0233

> <Gold.PLP.Chemscore.Hbond>
3.0000

> <Gold.PLP.Chemscore.CHOScore>
0.0000

> <Gold.PLP.Chemscore.Metal>
0.0000

> <Gold.Chemscore.Hbonds>
donor molecule, donor type, donor heavy atom, donor atom, acceptor molecule, acceptor atom, score
      L1  H    15    27       P1  8028  1.00
      L1  H    18    31       P1 10175  1.00
      P1  H  7997  8010       L1     8  0.88

> <Gold.PLP.Chemscore.Internal.Correction>
0.0076

> <Gold.Rescore>
     Score         DG    S(hbond)    S(metal)    S(lipo)     H(rot)  DE(clash)    DE(int)     intcor
      9.61     -10.69       2.63        0.00      36.45       3.06       0.98       0.11       ----

> <Gold.Chemscore.Fitness>
9.6064

> <Gold.Chemscore.DG>
-10.6917

> <Gold.Chemscore.ZeroCoef>
-5.4800

> <Gold.Chemscore.Hbond>
2.6293

> <Gold.Chemscore.Metal>
0.0000

> <Gold.Chemscore.Lipo>
36.4534

> <Gold.Chemscore.Internal_Hbond>
0.0000

> <Gold.Chemscore.DEClash>
0.9759

> <Gold.Chemscore.DEInternal>
0.1094

> <Gold.Chemscore.Rot>
3.0607

> <Gold.Chemscore.Internal.Correction>
   9.000000E+99

> <Gold.Chemscore.Hbonds>
donor molecule, donor type, donor heavy atom, donor atom, acceptor molecule, acceptor atom, score
      L1  H    15    27       P1  8028  0.50
      L1  H    18    31       P1 10175  1.00
      P1  H  7997  8010       L1     8  0.59

> <Gold.Chemscore.Hbond.Weighted>
-8.7820

> <Gold.Chemscore.Metal.Weighted>
-0.0000

> <Gold.Chemscore.Lipo.Weighted>
-4.2650

> <Gold.Chemscore.Internal_Hbond.Weighted>
0.0000

> <Gold.Chemscore.DEClash.Weighted>
0.9759

> <Gold.Chemscore.DEInternal.Weighted>
0.1094

> <Gold.Chemscore.Rot.Weighted>
7.8354

> <Gold.Chemscore.Internal.Correction.Weighted>
   9.000000E+99

> <Gold.Protein.RotatedTorsions>
[ 6907 6896 6895 6894 ] final  -77.49 input  -60.11 | X-H torsion
[ 7974 7965 7964 7962 ] final  -93.77 input  175.53 | X-H torsion
[ 8008 7997 7996 7995 ] final   66.77 input   59.86 | X-H torsion
[ 10167 10162 10161 10158 ] final  -24.61 input  -65.29 | X-H torsion
[ 10718 10713 10712 10709 ] final   42.92 input   66.30 | X-H torsion
[ 10763 10752 10751 10750 ] final  159.25 input  -60.55 | X-H torsion
[ 11005 11000 10999 10996 ] final  -54.86 input  -57.11 | X-H torsion

> <Gold.Protein.ActiveResidues>
 VAL166  LYS551  ARG553  GLY616  TRP617  ASP618  TYR619  PRO620  LYS621  CYS622 
 ASP623  PHE694  ASN695  SER759  ASP760  ASP761  ALA762  ILE779  LEU786  VAL792 
 PHE793  MET794  SER795  GLU796  ALA797  LYS798  CYS799  TRP800  GLU811  SER814 

> <Gold.Protein.RotatedAtoms>
  150.6997  134.4415  159.5293 H   0  0  0  0  0  0  0  0  0  0  0  0  # atno 6907 bound_to 6896
  152.2124  134.8487  160.0505 H   0  0  0  0  0  0  0  0  0  0  0  0  # atno 6908 bound_to 6896
  151.9367  133.3591  159.3987 H   0  0  0  0  0  0  0  0  0  0  0  0  # atno 6909 bound_to 6896
  145.3822  140.9519  143.2387 H   0  0  0  0  0  0  0  0  0  0  0  0  # atno 7974 bound_to 7965
  155.6826  140.3496  155.4861 H   0  0  0  0  0  0  0  0  0  0  0  0  # atno 8008 bound_to 7997
  155.9594  140.1134  157.0931 H   0  0  0  0  0  0  0  0  0  0  0  0  # atno 8009 bound_to 7997
  154.4139  140.1178  156.5144 H   0  0  0  0  0  0  0  0  0  0  0  0  # atno 8010 bound_to 7997
  140.7288  143.4338  151.0761 H   0  0  0  0  0  0  0  0  0  0  0  0  # atno 10167 bound_to 10162
  157.4101  130.7909  149.7423 H   0  0  0  0  0  0  0  0  0  0  0  0  # atno 10718 bound_to 10713
  154.2288  135.2779  155.2897 H   0  0  0  0  0  0  0  0  0  0  0  0  # atno 10763 bound_to 10752
  154.5641  135.5638  153.7037 H   0  0  0  0  0  0  0  0  0  0  0  0  # atno 10764 bound_to 10752
  153.0025  135.6305  154.2430 H   0  0  0  0  0  0  0  0  0  0  0  0  # atno 10765 bound_to 10752
  141.1046  133.6614  156.4383 H   0  0  0  0  0  0  0  0  0  0  0  0  # atno 11005 bound_to 11000
  144.8500  139.5337  143.6861 LP  0  0  0  0  0  0  0  0  0  0  0  0  # atno 17320 bound_to 7965
  146.2837  139.6945  142.9211 LP  0  0  0  0  0  0  0  0  0  0  0  0  # atno 17321 bound_to 7965
  139.7997  143.8101  152.3161 LP  0  0  0  0  0  0  0  0  0  0  0  0  # atno 17342 bound_to 10162
  139.8113  144.7334  150.9693 LP  0  0  0  0  0  0  0  0  0  0  0  0  # atno 17343 bound_to 10162
  155.9848  130.3988  150.3293 LP  0  0  0  0  0  0  0  0  0  0  0  0  # atno 17370 bound_to 10713
  157.1430  131.0301  151.2919 LP  0  0  0  0  0  0  0  0  0  0  0  0  # atno 17371 bound_to 10713
  140.4935  134.6553  157.5220 LP  0  0  0  0  0  0  0  0  0  0  0  0  # atno 17394 bound_to 11000
  139.9911  134.6984  155.9688 LP  0  0  0  0  0  0  0  0  0  0  0  0  # atno 17395 bound_to 11000

$$$$
