AV-unprocessed.smi:1209|AV-procd|sdf|5070|dock8
  -GOLD-   22720 4113D 1   1.00000     0.00000
 Structure written by MMmdl.
 48 50  0  0  0  0  0  0  0  0  1 V2000
  146.8673  143.1833  160.7110 C   0  0  0  0  0  0  0  0  0  0  0  0
  146.8329  142.2100  159.5833 C   0  0  0  0  0  0  0  0  0  0  0  0
  147.1144  142.3177  158.2512 C   0  0  0  0  0  0  0  0  0  0  0  0
  146.8752  141.0084  157.7503 C   0  0  0  0  0  0  0  0  0  0  0  0
  147.0158  140.5098  156.3367 C   0  0  0  0  0  0  0  0  0  0  0  0
  147.5560  141.5095  155.4088 N   0  0  0  0  0  0  0  0  0  0  0  0
  146.5062  142.0706  154.5626 C   0  0  0  0  0  0  0  0  0  0  0  0
  148.6283  140.9634  154.5743 C   0  0  0  0  0  0  0  0  0  0  0  0
  149.9022  140.5253  155.3294 C   0  0  1  0  0  0  0  0  0  0  0  0
  150.8137  139.9587  154.4063 O   0  0  0  0  0  0  0  0  0  0  0  0
  150.5892  141.7119  156.0343 C   0  0  0  0  0  0  0  0  0  0  0  0
  151.3280  141.3060  157.2170 N   0  0  0  0  0  0  0  0  0  0  0  0
  151.8654  140.0949  157.4581 C   0  0  0  0  0  0  0  0  0  0  0  0
  152.5063  139.9317  158.6118 N   0  0  0  0  0  0  0  0  0  0  0  0
  152.3704  141.1844  159.1858 C   0  0  0  0  0  0  0  0  0  0  0  0
  152.8320  141.6794  160.4251 C   0  0  0  0  0  0  0  0  0  0  0  0
  152.5757  143.0138  160.8136 C   0  0  0  0  0  0  0  0  0  0  0  0
  153.0918  143.5049  162.1547 C   0  0  0  0  0  0  0  0  0  0  0  0
  151.8466  143.8760  159.9555 C   0  0  0  0  0  0  0  0  0  0  0  0
  151.5614  145.3142  160.3506 C   0  0  0  0  0  0  0  0  0  0  0  0
  151.3772  143.3971  158.7144 C   0  0  0  0  0  0  0  0  0  0  0  0
  151.6382  142.0673  158.3391 C   0  0  0  0  0  0  0  0  0  0  0  0
  146.4781  140.1829  158.7053 N   0  0  0  0  0  0  0  0  0  0  0  0
  146.4492  140.9420  159.8805 O   0  0  0  0  0  0  0  0  0  0  0  0
  147.3308  144.1204  160.4024 H   0  0  0  0  0  0  0  0  0  0  0  0
  147.4382  142.7842  161.5496 H   0  0  0  0  0  0  0  0  0  0  0  0
  145.8587  143.4039  161.0609 H   0  0  0  0  0  0  0  0  0  0  0  0
  147.4431  143.1963  157.7167 H   0  0  0  0  0  0  0  0  0  0  0  0
  147.6656  139.6356  156.3567 H   0  0  0  0  0  0  0  0  0  0  0  0
  146.0518  140.1529  155.9720 H   0  0  0  0  0  0  0  0  0  0  0  0
  146.9140  142.8205  153.8839 H   0  0  0  0  0  0  0  0  0  0  0  0
  145.7378  142.5641  155.1579 H   0  0  0  0  0  0  0  0  0  0  0  0
  146.0275  141.2957  153.9623 H   0  0  0  0  0  0  0  0  0  0  0  0
  148.2516  140.1489  153.9529 H   0  0  0  0  0  0  0  0  0  0  0  0
  148.9242  141.7438  153.8716 H   0  0  0  0  0  0  0  0  0  0  0  0
  149.6497  139.7738  156.0792 H   0  0  0  0  0  0  0  0  0  0  0  0
  150.4987  139.1031  154.1583 H   0  0  0  0  0  0  0  0  0  0  0  0
  151.2707  142.2220  155.3524 H   0  0  0  0  0  0  0  0  0  0  0  0
  149.8452  142.4493  156.3385 H   0  0  0  0  0  0  0  0  0  0  0  0
  151.7808  139.2874  156.7454 H   0  0  0  0  0  0  0  0  0  0  0  0
  153.3882  141.0225  161.0777 H   0  0  0  0  0  0  0  0  0  0  0  0
  153.7929  144.3279  162.0150 H   0  0  0  0  0  0  0  0  0  0  0  0
  153.6088  142.7129  162.6971 H   0  0  0  0  0  0  0  0  0  0  0  0
  152.2679  143.8531  162.7778 H   0  0  0  0  0  0  0  0  0  0  0  0
  150.9996  145.8361  159.5754 H   0  0  0  0  0  0  0  0  0  0  0  0
  152.4925  145.8578  160.5120 H   0  0  0  0  0  0  0  0  0  0  0  0
  150.9751  145.3486  161.2690 H   0  0  0  0  0  0  0  0  0  0  0  0
  150.8221  144.0433  158.0510 H   0  0  0  0  0  0  0  0  0  0  0  0
  1  2  1  0  0  0  0
  1 25  1  0  0  0  0
  1 26  1  0  0  0  0
  1 27  1  0  0  0  0
  2 24  1  0  0  0  0
  2  3  2  0  0  0  0
  3  4  1  0  0  0  0
  3 28  1  0  0  0  0
  4  5  1  0  0  0  0
  4 23  2  0  0  0  0
  5  6  1  0  0  0  0
  5 29  1  0  0  0  0
  5 30  1  0  0  0  0
  6  7  1  0  0  0  0
  6  8  1  0  0  0  0
  7 31  1  0  0  0  0
  7 32  1  0  0  0  0
  7 33  1  0  0  0  0
  8  9  1  0  0  0  0
  8 34  1  0  0  0  0
  8 35  1  0  0  0  0
  9 10  1  0  0  0  0
  9 11  1  0  0  0  0
  9 36  1  0  0  0  0
 10 37  1  0  0  0  0
 11 12  1  0  0  0  0
 11 38  1  0  0  0  0
 11 39  1  0  0  0  0
 12 22  1  0  0  0  0
 12 13  1  0  0  0  0
 13 14  2  0  0  0  0
 13 40  1  0  0  0  0
 14 15  1  0  0  0  0
 15 22  2  0  0  0  0
 15 16  1  0  0  0  0
 16 17  2  0  0  0  0
 16 41  1  0  0  0  0
 17 18  1  0  0  0  0
 17 19  1  0  0  0  0
 18 42  1  0  0  0  0
 18 43  1  0  0  0  0
 18 44  1  0  0  0  0
 19 20  1  0  0  0  0
 19 21  2  0  0  0  0
 20 45  1  0  0  0  0
 20 46  1  0  0  0  0
 20 47  1  0  0  0  0
 21 22  1  0  0  0  0
 21 48  1  0  0  0  0
 23 24  1  0  0  0  0
M  END
> <s_m_source_file>
AV-unprocessed.smi

> <i_m_source_file_index>
1209

> <i_lp_mmshare_version>
43012

> <i_f3d_flags>
0

> <s_epik_input>
W0NIM11jMVtjSF1jKG5vMSlbQ0gyXU4oW0NIM10pW0NIMl1bQ0BIXShbT0hdKVtDSDJdbihbY0hdbjIpYyhjMjMpW2NIXWMoW0NIM10pYyhbY0hdMylbQ0gzXQ==

> <s_epik_cmdline>
J2VwaWtfcHl0aG9uJywgJy1waCcsICc3LjAnLCAnLXRuJywgJzgnLCAnLW1hJywgJzIwMCcsICctbWV0YWxfYmluZGluZycsICctaW1hZScsICc8aW5maWxlLm1hZT4nLCAnLW9tYWUnLCAnPG91dGZpbGUubWFlPic=

> <r_epik_Ionization_Penalty>
0.103258

> <r_epik_Ionization_Penalty_Charging>
0

> <r_epik_Ionization_Penalty_Neutral>
0.103258

> <r_epik_State_Penalty>
0.0919675

> <r_epik_Charging_Adjusted_Penalty>
0.0919675

> <i_epik_Tot_Q>
0

> <i_epik_Tot_abs_Q>
0

> <r_epik_Metal_State_Penalty>
0.0812522

> <b_epik_Metal_Only>
0

> <s_lp_Force_Field>
OPLS_2005

> <r_lp_Energy>
16.8498

> <b_lp_Chiralities_Consistent>
1

> <s_lp_Variant>
AV-unprocessed.smi:1209-2

> <Gold.Version>
5.8.1

> <Gold.Id.Protein>
6NUR|6NUR_protein|mol2

> <Gold.PLP.Fitness>
53.8681

> <Gold.PLP.PLP>
-50.5604

> <Gold.PLP.part.hbond>
-2.7684

> <Gold.PLP.part.metal>
0.0000

> <Gold.PLP.part.buried>
-8.1374

> <Gold.PLP.part.nonpolar>
-38.8247

> <Gold.PLP.part.repulsive>
0.1309

> <Gold.PLP.ligand.clash>
0.0000

> <Gold.PLP.ligand.torsion>
1.3925

> <Gold.PLP.Chemscore.Hbond>
2.0000

> <Gold.PLP.Chemscore.CHOScore>
0.0000

> <Gold.PLP.Chemscore.Metal>
0.0000

> <Gold.Chemscore.Hbonds>
donor molecule, donor type, donor heavy atom, donor atom, acceptor molecule, acceptor atom, score
      P1  H  7989  7998       L1    10  0.98

> <Gold.PLP.Chemscore.Internal.Correction>
0.0928

> <Gold.Rescore>
     Score         DG    S(hbond)    S(metal)    S(lipo)     H(rot)  DE(clash)    DE(int)     intcor
     17.07     -18.73       1.64        0.00     120.08       2.45       0.00       1.66       ----

> <Gold.Chemscore.Fitness>
17.0706

> <Gold.Chemscore.DG>
-18.7318

> <Gold.Chemscore.ZeroCoef>
-5.4800

> <Gold.Chemscore.Hbond>
1.6361

> <Gold.Chemscore.Metal>
0.0000

> <Gold.Chemscore.Lipo>
120.0818

> <Gold.Chemscore.Internal_Hbond>
0.0000

> <Gold.Chemscore.DEClash>
0.0029

> <Gold.Chemscore.DEInternal>
1.6583

> <Gold.Chemscore.Rot>
2.4462

> <Gold.Chemscore.Internal.Correction>
   9.000000E+99

> <Gold.Chemscore.Hbonds>
donor molecule, donor type, donor heavy atom, donor atom, acceptor molecule, acceptor atom, score
      P1  H  7989  7998       L1    10  0.90

> <Gold.Chemscore.Hbond.Weighted>
-5.4645

> <Gold.Chemscore.Metal.Weighted>
-0.0000

> <Gold.Chemscore.Lipo.Weighted>
-14.0496

> <Gold.Chemscore.Internal_Hbond.Weighted>
0.0000

> <Gold.Chemscore.DEClash.Weighted>
0.0029

> <Gold.Chemscore.DEInternal.Weighted>
1.6583

> <Gold.Chemscore.Rot.Weighted>
6.2623

> <Gold.Chemscore.Internal.Correction.Weighted>
   9.000000E+99

> <Gold.Protein.RotatedTorsions>
[ 6907 6896 6895 6894 ] final  105.93 input  -60.11 | X-H torsion
[ 7974 7965 7964 7962 ] final -112.21 input  175.53 | X-H torsion
[ 8008 7997 7996 7995 ] final   17.93 input   59.86 | X-H torsion
[ 10167 10162 10161 10158 ] final -104.14 input  -65.29 | X-H torsion
[ 10718 10713 10712 10709 ] final -137.81 input   66.30 | X-H torsion
[ 10763 10752 10751 10750 ] final  104.36 input  -60.55 | X-H torsion
[ 11005 11000 10999 10996 ] final  139.90 input  -57.11 | X-H torsion

> <Gold.Protein.ActiveResidues>
 VAL166  LYS551  ARG553  GLY616  TRP617  ASP618  TYR619  PRO620  LYS621  CYS622 
 ASP623  PHE694  ASN695  SER759  ASP760  ASP761  ALA762  ILE779  LEU786  VAL792 
 PHE793  MET794  SER795  GLU796  ALA797  LYS798  CYS799  TRP800  GLU811  SER814 

> <Gold.Protein.RotatedAtoms>
  152.5212  133.9455  159.7646 H   0  0  0  0  0  0  0  0  0  0  0  0  # atno 6907 bound_to 6896
  150.9776  133.6270  159.2734 H   0  0  0  0  0  0  0  0  0  0  0  0  # atno 6908 bound_to 6896
  151.3459  135.0880  159.9440 H   0  0  0  0  0  0  0  0  0  0  0  0  # atno 6909 bound_to 6896
  145.1467  140.8807  143.3670 H   0  0  0  0  0  0  0  0  0  0  0  0  # atno 7974 bound_to 7965
  154.8986  140.2997  155.5330 H   0  0  0  0  0  0  0  0  0  0  0  0  # atno 8008 bound_to 7997
  156.3019  140.2411  156.3946 H   0  0  0  0  0  0  0  0  0  0  0  0  # atno 8009 bound_to 7997
  154.8544  140.0408  157.1614 H   0  0  0  0  0  0  0  0  0  0  0  0  # atno 8010 bound_to 7997
  140.2125  143.3736  152.1038 H   0  0  0  0  0  0  0  0  0  0  0  0  # atno 10167 bound_to 10162
  156.2923  130.7382  151.1411 H   0  0  0  0  0  0  0  0  0  0  0  0  # atno 10718 bound_to 10713
  153.3649  135.3946  155.1745 H   0  0  0  0  0  0  0  0  0  0  0  0  # atno 10763 bound_to 10752
  154.8685  135.3688  154.5052 H   0  0  0  0  0  0  0  0  0  0  0  0  # atno 10764 bound_to 10752
  153.5515  135.7083  153.5650 H   0  0  0  0  0  0  0  0  0  0  0  0  # atno 10765 bound_to 10752
  140.0288  134.9362  157.0621 H   0  0  0  0  0  0  0  0  0  0  0  0  # atno 11005 bound_to 11000
  145.0474  139.3209  143.5946 LP  0  0  0  0  0  0  0  0  0  0  0  0  # atno 17320 bound_to 7965
  146.3499  139.9870  142.8689 LP  0  0  0  0  0  0  0  0  0  0  0  0  # atno 17321 bound_to 7965
  139.5174  144.6992  151.5543 LP  0  0  0  0  0  0  0  0  0  0  0  0  # atno 17342 bound_to 10162
  140.6313  143.9070  150.6608 LP  0  0  0  0  0  0  0  0  0  0  0  0  # atno 17343 bound_to 10162
  157.7346  131.0580  150.5517 LP  0  0  0  0  0  0  0  0  0  0  0  0  # atno 17370 bound_to 10713
  156.5635  130.4261  149.6052 LP  0  0  0  0  0  0  0  0  0  0  0  0  # atno 17371 bound_to 10713
  140.4261  134.1830  155.7166 LP  0  0  0  0  0  0  0  0  0  0  0  0  # atno 17394 bound_to 11000
  141.1819  133.8396  157.1228 LP  0  0  0  0  0  0  0  0  0  0  0  0  # atno 17395 bound_to 11000

$$$$
