AV-unprocessed.smi:2197|AV-procd|sdf|8909|dock4
  -GOLD-   2272012123D 1   1.00000     0.00000
 Structure written by MMmdl.
 28 28  0  0  0  0  0  0  0  0  1 V2000
  151.3599  145.3944  160.1559 C   0  0  0  0  0  0  0  0  0  0  0  0
  151.4557  144.5645  158.8713 C   0  0  0  0  0  0  0  0  0  0  0  0
  150.3505  143.5005  158.7741 C   0  0  0  0  0  0  0  0  0  0  0  0
  150.2514  142.9564  157.4248 N   0  0  0  0  0  0  0  0  0  0  0  0
  150.4960  141.6810  157.0873 C   0  0  0  0  0  0  0  0  0  0  0  0
  150.8094  140.8154  157.9060 O   0  0  0  0  0  0  0  0  0  0  0  0
  150.3449  141.3357  155.5986 C   0  0  0  0  0  0  0  0  0  0  0  0
  150.5396  139.9058  155.3168 N   0  0  0  0  0  0  0  0  0  0  0  0
  149.5348  139.1679  154.7073 C   0  0  0  0  0  0  0  0  0  0  0  0
  149.6444  137.8475  154.4275 C   0  0  0  0  0  0  0  0  0  0  0  0
  150.8625  137.1192  154.7659 C   0  0  0  0  0  0  0  0  0  0  0  0
  151.0577  135.9249  154.5517 O   0  0  0  0  0  0  0  0  0  0  0  0
  151.8489  137.8954  155.3801 N   0  0  0  0  0  0  0  0  0  0  0  0
  151.7422  139.2562  155.6719 C   0  0  0  0  0  0  0  0  0  0  0  0
  152.6732  139.8460  156.2191 O   0  0  0  0  0  0  0  0  0  0  0  0
  152.7094  137.4335  155.6360 H   0  0  0  0  0  0  0  0  0  0  0  0
  152.1500  146.1447  160.1932 H   0  0  0  0  0  0  0  0  0  0  0  0
  151.4582  144.7637  161.0396 H   0  0  0  0  0  0  0  0  0  0  0  0
  150.4037  145.9144  160.2181 H   0  0  0  0  0  0  0  0  0  0  0  0
  151.3999  145.2299  158.0090 H   0  0  0  0  0  0  0  0  0  0  0  0
  152.4355  144.0867  158.8289 H   0  0  0  0  0  0  0  0  0  0  0  0
  150.5258  142.6977  159.4926 H   0  0  0  0  0  0  0  0  0  0  0  0
  149.3872  143.9418  159.0314 H   0  0  0  0  0  0  0  0  0  0  0  0
  149.9925  143.6001  156.6911 H   0  0  0  0  0  0  0  0  0  0  0  0
  149.3527  141.6550  155.2767 H   0  0  0  0  0  0  0  0  0  0  0  0
  151.0451  141.9298  155.0072 H   0  0  0  0  0  0  0  0  0  0  0  0
  148.6122  139.6646  154.4423 H   0  0  0  0  0  0  0  0  0  0  0  0
  148.8256  137.3272  153.9518 H   0  0  0  0  0  0  0  0  0  0  0  0
  1  2  1  0  0  0  0
  1 17  1  0  0  0  0
  1 18  1  0  0  0  0
  1 19  1  0  0  0  0
  2  3  1  0  0  0  0
  2 20  1  0  0  0  0
  2 21  1  0  0  0  0
  3  4  1  0  0  0  0
  3 22  1  0  0  0  0
  3 23  1  0  0  0  0
  4  5  1  0  0  0  0
  4 24  1  0  0  0  0
  5  6  2  0  0  0  0
  5  7  1  0  0  0  0
  7  8  1  0  0  0  0
  7 25  1  0  0  0  0
  7 26  1  0  0  0  0
  8 14  1  0  0  0  0
  8  9  1  0  0  0  0
  9 10  2  0  0  0  0
  9 27  1  0  0  0  0
 10 11  1  0  0  0  0
 10 28  1  0  0  0  0
 11 12  2  0  0  0  0
 11 13  1  0  0  0  0
 13 16  1  0  0  0  0
 13 14  1  0  0  0  0
 14 15  2  0  0  0  0
M  END
> <s_m_source_file>
AV-unprocessed.smi

> <i_m_source_file_index>
2197

> <i_lp_mmshare_version>
43012

> <i_f3d_flags>
0

> <s_epik_input>
W0NIM11bQ0gyXVtDSDJdW05IXUMoPU8pW0NIMl1uMVtjSF1bY0hdYyg9TylbbkhdYzE9Tw==

> <s_epik_cmdline>
J2VwaWtfcHl0aG9uJywgJy1waCcsICc3LjAnLCAnLXRuJywgJzgnLCAnLW1hJywgJzIwMCcsICctbWV0YWxfYmluZGluZycsICctaW1hZScsICc8aW5maWxlLm1hZT4nLCAnLW9tYWUnLCAnPG91dGZpbGUubWFlPic=

> <r_lp_tautomer_probability>
0.999537

> <r_epik_Ionization_Penalty>
0.00328917

> <r_epik_Ionization_Penalty_Charging>
0.00328916

> <r_epik_Ionization_Penalty_Neutral>
1.81689e-08

> <r_epik_State_Penalty>
0.00232387

> <r_epik_Charging_Adjusted_Penalty>
0.00561303

> <i_epik_Tot_Q>
0

> <i_epik_Tot_abs_Q>
0

> <r_epik_Metal_State_Penalty>
0.365275

> <b_epik_Metal_Only>
0

> <s_lp_Force_Field>
OPLS_2005

> <r_lp_Energy>
1.80706

> <b_lp_Chiralities_Consistent>
1

> <s_lp_Variant>
AV-unprocessed.smi:2197-1

> <Gold.Version>
5.8.1

> <Gold.Id.Protein>
6NUR|6NUR_protein|mol2

> <Gold.PLP.Fitness>
39.4769

> <Gold.PLP.PLP>
-30.6170

> <Gold.PLP.part.hbond>
-3.0000

> <Gold.PLP.part.metal>
0.0000

> <Gold.PLP.part.buried>
-2.5231

> <Gold.PLP.part.nonpolar>
-24.9153

> <Gold.PLP.part.repulsive>
0.3261

> <Gold.PLP.ligand.clash>
0.0000

> <Gold.PLP.ligand.torsion>
0.0745

> <Gold.PLP.Chemscore.Hbond>
3.0000

> <Gold.PLP.Chemscore.CHOScore>
0.0000

> <Gold.PLP.Chemscore.Metal>
0.0000

> <Gold.Chemscore.Hbonds>
donor molecule, donor type, donor heavy atom, donor atom, acceptor molecule, acceptor atom, score
      L1  H     4    24       P1  8028  1.00
      P1  H  7997  8009       L1    15  1.00
      P1  H 10752 10763       L1    12  1.00

> <Gold.PLP.Chemscore.Internal.Correction>
0.0090

> <Gold.Rescore>
     Score         DG    S(hbond)    S(metal)    S(lipo)     H(rot)  DE(clash)    DE(int)     intcor
     11.65     -16.39       2.95        0.00      53.85       2.05       0.52       4.23       ----

> <Gold.Chemscore.Fitness>
11.6480

> <Gold.Chemscore.DG>
-16.3948

> <Gold.Chemscore.ZeroCoef>
-5.4800

> <Gold.Chemscore.Hbond>
2.9507

> <Gold.Chemscore.Metal>
0.0000

> <Gold.Chemscore.Lipo>
53.8461

> <Gold.Chemscore.Internal_Hbond>
0.0000

> <Gold.Chemscore.DEClash>
0.5205

> <Gold.Chemscore.DEInternal>
4.2262

> <Gold.Chemscore.Rot>
2.0471

> <Gold.Chemscore.Internal.Correction>
   9.000000E+99

> <Gold.Chemscore.Hbonds>
donor molecule, donor type, donor heavy atom, donor atom, acceptor molecule, acceptor atom, score
      L1  H     4    24       P1  8028  0.99
      P1  H  7997  8009       L1    15  1.00
      P1  H 10752 10763       L1    12  0.74

> <Gold.Chemscore.Hbond.Weighted>
-9.8554

> <Gold.Chemscore.Metal.Weighted>
-0.0000

> <Gold.Chemscore.Lipo.Weighted>
-6.3000

> <Gold.Chemscore.Internal_Hbond.Weighted>
0.0000

> <Gold.Chemscore.DEClash.Weighted>
0.5205

> <Gold.Chemscore.DEInternal.Weighted>
4.2262

> <Gold.Chemscore.Rot.Weighted>
5.2406

> <Gold.Chemscore.Internal.Correction.Weighted>
   9.000000E+99

> <Gold.Protein.RotatedTorsions>
[ 6907 6896 6895 6894 ] final  168.56 input  -60.11 | X-H torsion
[ 7974 7965 7964 7962 ] final   93.68 input  175.53 | X-H torsion
[ 8008 7997 7996 7995 ] final -155.47 input   59.86 | X-H torsion
[ 10167 10162 10161 10158 ] final  -89.07 input  -65.29 | X-H torsion
[ 10718 10713 10712 10709 ] final  -22.64 input   66.30 | X-H torsion
[ 10763 10752 10751 10750 ] final   50.07 input  -60.55 | X-H torsion
[ 11005 11000 10999 10996 ] final   38.63 input  -57.11 | X-H torsion

> <Gold.Protein.ActiveResidues>
 VAL166  LYS551  ARG553  GLY616  TRP617  ASP618  TYR619  PRO620  LYS621  CYS622 
 ASP623  PHE694  ASN695  SER759  ASP760  ASP761  ALA762  ILE779  LEU786  VAL792 
 PHE793  MET794  SER795  GLU796  ALA797  LYS798  CYS799  TRP800  GLU811  SER814 

> <Gold.Protein.RotatedAtoms>
  151.8458  133.3431  159.3657 H   0  0  0  0  0  0  0  0  0  0  0  0  # atno 6907 bound_to 6896
  150.7221  134.5347  159.5727 H   0  0  0  0  0  0  0  0  0  0  0  0  # atno 6908 bound_to 6896
  152.2831  134.7807  160.0444 H   0  0  0  0  0  0  0  0  0  0  0  0  # atno 6909 bound_to 6896
  145.4757  139.2280  143.2910 H   0  0  0  0  0  0  0  0  0  0  0  0  # atno 7974 bound_to 7965
  155.7023  140.0768  157.2405 H   0  0  0  0  0  0  0  0  0  0  0  0  # atno 8008 bound_to 7997
  154.4071  140.1645  156.2258 H   0  0  0  0  0  0  0  0  0  0  0  0  # atno 8009 bound_to 7997
  155.9356  140.3388  155.6288 H   0  0  0  0  0  0  0  0  0  0  0  0  # atno 8010 bound_to 7997
  140.3684  143.2806  151.9530 H   0  0  0  0  0  0  0  0  0  0  0  0  # atno 10167 bound_to 10162
  156.5018  130.4590  149.6696 H   0  0  0  0  0  0  0  0  0  0  0  0  # atno 10718 bound_to 10713
  152.9785  135.5891  154.4192 H   0  0  0  0  0  0  0  0  0  0  0  0  # atno 10763 bound_to 10752
  154.3818  135.2767  155.2208 H   0  0  0  0  0  0  0  0  0  0  0  0  # atno 10764 bound_to 10752
  154.4119  135.6079  153.6012 H   0  0  0  0  0  0  0  0  0  0  0  0  # atno 10765 bound_to 10752
  140.2107  134.3758  155.8050 H   0  0  0  0  0  0  0  0  0  0  0  0  # atno 11005 bound_to 11000
  146.2370  140.5539  142.8950 LP  0  0  0  0  0  0  0  0  0  0  0  0  # atno 17320 bound_to 7965
  144.7919  140.6047  143.6536 LP  0  0  0  0  0  0  0  0  0  0  0  0  # atno 17321 bound_to 7965
  139.4806  144.5929  151.7741 LP  0  0  0  0  0  0  0  0  0  0  0  0  # atno 17342 bound_to 10162
  140.5057  144.1101  150.5982 LP  0  0  0  0  0  0  0  0  0  0  0  0  # atno 17343 bound_to 10162
  156.3325  130.7339  151.2271 LP  0  0  0  0  0  0  0  0  0  0  0  0  # atno 17370 bound_to 10713
  157.7462  131.0426  150.4702 LP  0  0  0  0  0  0  0  0  0  0  0  0  # atno 17371 bound_to 10713
  141.2226  133.7141  156.8413 LP  0  0  0  0  0  0  0  0  0  0  0  0  # atno 17394 bound_to 11000
  140.1954  134.8936  157.3108 LP  0  0  0  0  0  0  0  0  0  0  0  0  # atno 17395 bound_to 11000

$$$$
