AV-unprocessed.smi:2893|AV-procd|sdf|11122|dock8
  -GOLD-   2272015593D 1   1.00000     0.00000
 Structure written by MMmdl.
 37 39  0  0  0  0  0  0  0  0  1 V2000
  146.9519  135.3030  161.8838 C   0  0  0  0  0  0  0  0  0  0  0  0
  147.0174  135.4178  160.3552 C   0  0  0  0  0  0  0  0  0  0  0  0
  147.9523  136.4552  159.9362 N   0  0  0  0  0  0  0  0  0  0  0  0
  149.0011  136.2694  159.1162 C   0  0  0  0  0  0  0  0  0  0  0  0
  149.3005  135.1725  158.6423 O   0  0  0  0  0  0  0  0  0  0  0  0
  149.8360  137.4887  158.8296 C   0  0  0  0  0  0  0  0  0  0  0  0
  151.1838  137.3470  158.4338 C   0  0  0  0  0  0  0  0  0  0  0  0
  151.9145  138.5158  158.1607 C   0  0  0  0  0  0  0  0  0  0  0  0
  151.2514  139.7500  158.2967 C   0  0  0  0  0  0  0  0  0  0  0  0
  151.9569  140.9308  158.0250 N   0  0  0  0  0  0  0  0  0  0  0  0
  151.4486  142.2345  158.4387 C   0  0  2  0  0  0  0  0  0  0  0  0
  151.5608  143.2807  157.3253 C   0  0  0  0  0  0  0  0  0  0  0  0
  152.3487  144.3999  158.0178 C   0  0  1  0  0  0  0  0  0  0  0  0
  151.5325  145.0955  159.1162 C   0  0  0  0  0  0  0  0  0  0  0  0
  151.5218  144.0349  160.2170 C   0  0  0  0  0  0  0  0  0  0  0  0
  152.2907  142.8845  159.5539 C   0  0  2  0  0  0  0  0  0  0  0  0
  153.2381  143.6258  158.8018 O   0  0  0  0  0  0  0  0  0  0  0  0
  149.9515  139.8234  158.6754 N   0  0  0  0  0  0  0  0  0  0  0  0
  149.2561  138.7114  158.9360 N   0  0  0  0  0  0  0  0  0  0  0  0
  146.2728  134.5048  162.1837 H   0  0  0  0  0  0  0  0  0  0  0  0
  146.5944  136.2283  162.3367 H   0  0  0  0  0  0  0  0  0  0  0  0
  147.9331  135.0806  162.3046 H   0  0  0  0  0  0  0  0  0  0  0  0
  147.3476  134.4700  159.9297 H   0  0  0  0  0  0  0  0  0  0  0  0
  146.0250  135.6132  159.9459 H   0  0  0  0  0  0  0  0  0  0  0  0
  147.7901  137.3882  160.2873 H   0  0  0  0  0  0  0  0  0  0  0  0
  151.6498  136.3767  158.3407 H   0  0  0  0  0  0  0  0  0  0  0  0
  152.9492  138.4630  157.8551 H   0  0  0  0  0  0  0  0  0  0  0  0
  152.8921  140.8756  157.6485 H   0  0  0  0  0  0  0  0  0  0  0  0
  150.4093  142.1288  158.7528 H   0  0  0  0  0  0  0  0  0  0  0  0
  152.1230  142.9016  156.4703 H   0  0  0  0  0  0  0  0  0  0  0  0
  150.5880  143.6176  156.9659 H   0  0  0  0  0  0  0  0  0  0  0  0
  152.8398  145.0864  157.3278 H   0  0  0  0  0  0  0  0  0  0  0  0
  152.0348  145.9996  159.4618 H   0  0  0  0  0  0  0  0  0  0  0  0
  150.5320  145.3667  158.7778 H   0  0  0  0  0  0  0  0  0  0  0  0
  152.0516  144.3949  161.0996 H   0  0  0  0  0  0  0  0  0  0  0  0
  150.5146  143.7449  160.5182 H   0  0  0  0  0  0  0  0  0  0  0  0
  152.7267  142.1850  160.2678 H   0  0  0  0  0  0  0  0  0  0  0  0
  1  2  1  0  0  0  0
  1 20  1  0  0  0  0
  1 21  1  0  0  0  0
  1 22  1  0  0  0  0
  2  3  1  0  0  0  0
  2 23  1  0  0  0  0
  2 24  1  0  0  0  0
  3  4  1  0  0  0  0
  3 25  1  0  0  0  0
  4  5  2  0  0  0  0
  4  6  1  0  0  0  0
  6 19  1  0  0  0  0
  6  7  2  0  0  0  0
  7  8  1  0  0  0  0
  7 26  1  0  0  0  0
  8  9  2  0  0  0  0
  8 27  1  0  0  0  0
  9 10  1  0  0  0  0
  9 18  1  0  0  0  0
 10 11  1  0  0  0  0
 10 28  1  0  0  0  0
 11 16  1  0  0  0  0
 11 12  1  0  0  0  0
 11 29  1  0  0  0  0
 12 13  1  0  0  0  0
 12 30  1  0  0  0  0
 12 31  1  0  0  0  0
 13 17  1  0  0  0  0
 13 14  1  0  0  0  0
 13 32  1  0  0  0  0
 14 15  1  0  0  0  0
 14 33  1  0  0  0  0
 14 34  1  0  0  0  0
 15 16  1  0  0  0  0
 15 35  1  0  0  0  0
 15 36  1  0  0  0  0
 16 17  1  0  0  0  0
 16 37  1  0  0  0  0
 18 19  2  0  0  0  0
M  END
> <s_m_source_file>
AV-unprocessed.smi

> <i_m_source_file_index>
2893

> <i_lp_mmshare_version>
43012

> <i_f3d_flags>
0

> <s_epik_input>
W0NIM11bQ0gyXVtOSF1DKD1PKWMxW2NIXVtjSF1jKG5uMSlbTkhdW0NASF0oW0NIMl1bQ0BASF0yMylbQ0BASF0oTzMpW0NIMl1bQ0gyXTI=

> <s_epik_cmdline>
J2VwaWtfcHl0aG9uJywgJy1waCcsICc3LjAnLCAnLXRuJywgJzgnLCAnLW1hJywgJzIwMCcsICctbWV0YWxfYmluZGluZycsICctaW1hZScsICc8aW5maWxlLm1hZT4nLCAnLW9tYWUnLCAnPG91dGZpbGUubWFlPic=

> <r_lp_tautomer_probability>
1

> <r_epik_Ionization_Penalty>
0.00432031

> <r_epik_Ionization_Penalty_Charging>
0

> <r_epik_Ionization_Penalty_Neutral>
0.00432031

> <r_epik_State_Penalty>
-0

> <r_epik_Charging_Adjusted_Penalty>
0

> <i_epik_Tot_Q>
0

> <i_epik_Tot_abs_Q>
0

> <r_epik_Metal_State_Penalty>
-0

> <b_epik_Metal_Only>
0

> <s_lp_Force_Field>
OPLS_2005

> <r_lp_Energy>
51.3486

> <b_lp_Chiralities_Consistent>
1

> <s_lp_Variant>
AV-unprocessed.smi:2893-1

> <Gold.Version>
5.8.1

> <Gold.Id.Protein>
6NUR|6NUR_protein|mol2

> <Gold.PLP.Fitness>
37.0991

> <Gold.PLP.PLP>
-34.9296

> <Gold.PLP.part.hbond>
-4.0543

> <Gold.PLP.part.metal>
0.0000

> <Gold.PLP.part.buried>
-0.5241

> <Gold.PLP.part.nonpolar>
-30.9035

> <Gold.PLP.part.repulsive>
0.2769

> <Gold.PLP.ligand.clash>
0.0000

> <Gold.PLP.ligand.torsion>
0.4257

> <Gold.PLP.Chemscore.Hbond>
1.0000

> <Gold.PLP.Chemscore.CHOScore>
0.0000

> <Gold.PLP.Chemscore.Metal>
0.0000

> <Gold.Chemscore.Hbonds>
donor molecule, donor type, donor heavy atom, donor atom, acceptor molecule, acceptor atom, score
      P1  H  6896  6908       L1     5  1.00

> <Gold.PLP.Chemscore.Internal.Correction>
0.0210

> <Gold.Rescore>
     Score         DG    S(hbond)    S(metal)    S(lipo)     H(rot)  DE(clash)    DE(int)     intcor
     15.76     -16.79       0.97        0.00      95.38       1.21       0.88       0.15       ----

> <Gold.Chemscore.Fitness>
15.7571

> <Gold.Chemscore.DG>
-16.7865

> <Gold.Chemscore.ZeroCoef>
-5.4800

> <Gold.Chemscore.Hbond>
0.9686

> <Gold.Chemscore.Metal>
0.0000

> <Gold.Chemscore.Lipo>
95.3754

> <Gold.Chemscore.Internal_Hbond>
0.0000

> <Gold.Chemscore.DEClash>
0.8795

> <Gold.Chemscore.DEInternal>
0.1499

> <Gold.Chemscore.Rot>
1.2061

> <Gold.Chemscore.Internal.Correction>
   9.000000E+99

> <Gold.Chemscore.Hbonds>
donor molecule, donor type, donor heavy atom, donor atom, acceptor molecule, acceptor atom, score
      P1  H  6896  6908       L1     5  0.94

> <Gold.Chemscore.Hbond.Weighted>
-3.2352

> <Gold.Chemscore.Metal.Weighted>
-0.0000

> <Gold.Chemscore.Lipo.Weighted>
-11.1589

> <Gold.Chemscore.Internal_Hbond.Weighted>
0.0000

> <Gold.Chemscore.DEClash.Weighted>
0.8795

> <Gold.Chemscore.DEInternal.Weighted>
0.1499

> <Gold.Chemscore.Rot.Weighted>
3.0876

> <Gold.Chemscore.Internal.Correction.Weighted>
   9.000000E+99

> <Gold.Protein.RotatedTorsions>
[ 6907 6896 6895 6894 ] final  147.48 input  -60.11 | X-H torsion
[ 7974 7965 7964 7962 ] final  126.55 input  175.53 | X-H torsion
[ 8008 7997 7996 7995 ] final -114.21 input   59.86 | X-H torsion
[ 10167 10162 10161 10158 ] final   -2.85 input  -65.29 | X-H torsion
[ 10718 10713 10712 10709 ] final   71.99 input   66.30 | X-H torsion
[ 10763 10752 10751 10750 ] final    9.23 input  -60.55 | X-H torsion
[ 11005 11000 10999 10996 ] final  167.81 input  -57.11 | X-H torsion

> <Gold.Protein.ActiveResidues>
 VAL166  LYS551  ARG553  GLY616  TRP617  ASP618  TYR619  PRO620  LYS621  CYS622 
 ASP623  PHE694  ASN695  SER759  ASP760  ASP761  ALA762  ILE779  LEU786  VAL792 
 PHE793  MET794  SER795  GLU796  ALA797  LYS798  CYS799  TRP800  GLU811  SER814 

> <Gold.Protein.RotatedAtoms>
  152.1542  133.4541  159.4828 H   0  0  0  0  0  0  0  0  0  0  0  0  # atno 6907 bound_to 6896
  150.6899  134.2152  159.4384 H   0  0  0  0  0  0  0  0  0  0  0  0  # atno 6908 bound_to 6896
  152.0050  134.9907  160.0617 H   0  0  0  0  0  0  0  0  0  0  0  0  # atno 6909 bound_to 6896
  145.0605  139.3809  143.5008 H   0  0  0  0  0  0  0  0  0  0  0  0  # atno 7974 bound_to 7965
  155.0327  140.0393  157.2480 H   0  0  0  0  0  0  0  0  0  0  0  0  # atno 8008 bound_to 7997
  154.7283  140.2725  155.6455 H   0  0  0  0  0  0  0  0  0  0  0  0  # atno 8009 bound_to 7997
  156.2835  140.2689  156.1975 H   0  0  0  0  0  0  0  0  0  0  0  0  # atno 8010 bound_to 7997
  140.6867  143.6608  150.8268 H   0  0  0  0  0  0  0  0  0  0  0  0  # atno 10167 bound_to 10162
  157.6479  130.9556  150.0866 H   0  0  0  0  0  0  0  0  0  0  0  0  # atno 10718 bound_to 10713
  153.2163  135.6875  153.8053 H   0  0  0  0  0  0  0  0  0  0  0  0  # atno 10763 bound_to 10752
  153.7268  135.3259  155.3279 H   0  0  0  0  0  0  0  0  0  0  0  0  # atno 10764 bound_to 10752
  154.8247  135.4626  154.0991 H   0  0  0  0  0  0  0  0  0  0  0  0  # atno 10765 bound_to 10752
  140.2806  134.7753  157.3755 H   0  0  0  0  0  0  0  0  0  0  0  0  # atno 11005 bound_to 11000
  146.3524  140.0301  142.8651 LP  0  0  0  0  0  0  0  0  0  0  0  0  # atno 17320 bound_to 7965
  145.1415  140.9573  143.4486 LP  0  0  0  0  0  0  0  0  0  0  0  0  # atno 17321 bound_to 7965
  140.0316  143.5438  152.2757 LP  0  0  0  0  0  0  0  0  0  0  0  0  # atno 17342 bound_to 10162
  139.6232  144.7633  151.2694 LP  0  0  0  0  0  0  0  0  0  0  0  0  # atno 17343 bound_to 10162
  156.1827  130.3651  149.9014 LP  0  0  0  0  0  0  0  0  0  0  0  0  # atno 17370 bound_to 10713
  156.6962  130.8915  151.3594 LP  0  0  0  0  0  0  0  0  0  0  0  0  # atno 17371 bound_to 10713
  140.1287  134.5124  155.8124 LP  0  0  0  0  0  0  0  0  0  0  0  0  # atno 17394 bound_to 11000
  141.2163  133.6782  156.6999 LP  0  0  0  0  0  0  0  0  0  0  0  0  # atno 17395 bound_to 11000

$$$$
