AV-unprocessed.smi:637|AV-procd|sdf|3142|dock10
  -GOLD-   22720 0 73D 1   1.00000     0.00000
 Structure written by MMmdl.
 38 40  0  0  0  0  0  0  0  0  1 V2000
  143.5244  145.6378  153.9720 C   0  0  0  0  0  0  0  0  0  0  0  0
  144.4435  144.5344  154.3733 C   0  0  0  0  0  0  0  0  0  0  0  0
  144.4276  143.8116  155.5413 C   0  0  0  0  0  0  0  0  0  0  0  0
  145.4502  142.8190  155.6079 C   0  0  0  0  0  0  0  0  0  0  0  0
  146.2310  142.8125  154.4764 C   0  0  0  0  0  0  0  0  0  0  0  0
  147.3251  141.8688  154.3169 C   0  0  0  0  0  0  0  0  0  0  0  0
  147.3094  140.8556  153.2759 C   0  0  0  0  0  0  0  0  0  0  0  0
  148.3296  139.9740  153.1987 C   0  0  0  0  0  0  0  0  0  0  0  0
  149.4504  140.0084  154.1361 C   0  0  0  0  0  0  0  0  0  0  0  0
  150.3758  139.1975  154.1129 O   0  0  0  0  0  0  0  0  0  0  0  0
  149.3686  141.0159  155.0526 N   0  0  0  0  0  0  0  0  0  0  0  0
  150.3795  141.1651  156.1085 C   0  0  0  0  0  0  0  0  0  0  0  0
  149.9303  142.1359  157.2259 C   0  0  1  0  0  0  0  0  0  0  0  0
  149.0015  141.4669  158.0543 O   0  0  0  0  0  0  0  0  0  0  0  0
  151.1021  142.7045  158.0166 C   0  0  0  0  0  0  0  0  0  0  0  0
  151.4228  144.0777  157.9341 C   0  0  0  0  0  0  0  0  0  0  0  0
  152.4739  144.6089  158.7062 C   0  0  0  0  0  0  0  0  0  0  0  0
  153.2105  143.7705  159.5647 C   0  0  0  0  0  0  0  0  0  0  0  0
  152.8966  142.4005  159.6497 C   0  0  0  0  0  0  0  0  0  0  0  0
  153.6013  141.5950  160.4790 F   0  0  0  0  0  0  0  0  0  0  0  0
  151.8463  141.8686  158.8771 C   0  0  0  0  0  0  0  0  0  0  0  0
  148.3313  141.9293  155.1285 N   0  0  0  0  0  0  0  0  0  0  0  0
  145.7294  144.0093  153.3139 S   0  0  0  0  0  0  0  0  0  0  0  0
  142.7311  145.7764  154.7069 H   0  0  0  0  0  0  0  0  0  0  0  0
  143.0577  145.4219  153.0107 H   0  0  0  0  0  0  0  0  0  0  0  0
  144.0673  146.5786  153.8804 H   0  0  0  0  0  0  0  0  0  0  0  0
  143.7203  143.9579  156.3443 H   0  0  0  0  0  0  0  0  0  0  0  0
  145.5563  142.1699  156.4654 H   0  0  0  0  0  0  0  0  0  0  0  0
  146.4923  140.8057  152.5720 H   0  0  0  0  0  0  0  0  0  0  0  0
  148.3175  139.2201  152.4254 H   0  0  0  0  0  0  0  0  0  0  0  0
  150.6308  140.1916  156.5336 H   0  0  0  0  0  0  0  0  0  0  0  0
  151.3076  141.5296  155.6633 H   0  0  0  0  0  0  0  0  0  0  0  0
  149.3919  142.9674  156.7694 H   0  0  0  0  0  0  0  0  0  0  0  0
  148.2231  141.2902  157.5482 H   0  0  0  0  0  0  0  0  0  0  0  0
  150.8532  144.7303  157.2886 H   0  0  0  0  0  0  0  0  0  0  0  0
  152.7115  145.6605  158.6438 H   0  0  0  0  0  0  0  0  0  0  0  0
  154.0143  144.1787  160.1592 H   0  0  0  0  0  0  0  0  0  0  0  0
  151.6036  140.8192  158.9595 H   0  0  0  0  0  0  0  0  0  0  0  0
  1  2  1  0  0  0  0
  1 24  1  0  0  0  0
  1 25  1  0  0  0  0
  1 26  1  0  0  0  0
  2 23  1  0  0  0  0
  2  3  2  0  0  0  0
  3  4  1  0  0  0  0
  3 27  1  0  0  0  0
  4  5  2  0  0  0  0
  4 28  1  0  0  0  0
  5  6  1  0  0  0  0
  5 23  1  0  0  0  0
  6 22  2  0  0  0  0
  6  7  1  0  0  0  0
  7  8  2  0  0  0  0
  7 29  1  0  0  0  0
  8  9  1  0  0  0  0
  8 30  1  0  0  0  0
  9 10  2  0  0  0  0
  9 11  1  0  0  0  0
 11 12  1  0  0  0  0
 11 22  1  0  0  0  0
 12 13  1  0  0  0  0
 12 31  1  0  0  0  0
 12 32  1  0  0  0  0
 13 14  1  0  0  0  0
 13 15  1  0  0  0  0
 13 33  1  0  0  0  0
 14 34  1  0  0  0  0
 15 21  1  0  0  0  0
 15 16  2  0  0  0  0
 16 17  1  0  0  0  0
 16 35  1  0  0  0  0
 17 18  2  0  0  0  0
 17 36  1  0  0  0  0
 18 19  1  0  0  0  0
 18 37  1  0  0  0  0
 19 20  1  0  0  0  0
 19 21  2  0  0  0  0
 21 38  1  0  0  0  0
M  END
> <s_m_source_file>
AV-unprocessed.smi

> <i_m_source_file_index>
637

> <i_lp_mmshare_version>
43012

> <i_f3d_flags>
0

> <s_epik_input>
W0NIM11jMVtjSF1bY0hdYyhzMSktYzJbY0hdW2NIXWMoPU8pbihuMilbQ0gyXVtDQEhdKFtPSF0pYzNbY0hdW2NIXVtjSF1jKEYpW2NIXTM=

> <s_epik_cmdline>
J2VwaWtfcHl0aG9uJywgJy1waCcsICc3LjAnLCAnLXRuJywgJzgnLCAnLW1hJywgJzIwMCcsICctbWV0YWxfYmluZGluZycsICctaW1hZScsICc8aW5maWxlLm1hZT4nLCAnLW9tYWUnLCAnPG91dGZpbGUubWFlPic=

> <r_lp_tautomer_probability>
1

> <r_epik_Ionization_Penalty>
2.26963e-07

> <r_epik_Ionization_Penalty_Charging>
5.89185e-08

> <r_epik_Ionization_Penalty_Neutral>
1.68044e-07

> <r_epik_State_Penalty>
-0

> <r_epik_Charging_Adjusted_Penalty>
5.89185e-08

> <i_epik_Tot_Q>
0

> <i_epik_Tot_abs_Q>
0

> <r_epik_Metal_State_Penalty>
-0

> <b_epik_Metal_Only>
0

> <s_lp_Force_Field>
OPLS_2005

> <r_lp_Energy>
25.403

> <b_lp_Chiralities_Consistent>
1

> <s_lp_Variant>
AV-unprocessed.smi:637-2

> <Gold.Version>
5.8.1

> <Gold.Id.Protein>
6NUR|6NUR_protein|mol2

> <Gold.PLP.Fitness>
49.2364

> <Gold.PLP.PLP>
-51.3525

> <Gold.PLP.part.hbond>
-0.8647

> <Gold.PLP.part.metal>
0.0000

> <Gold.PLP.part.buried>
0.1328

> <Gold.PLP.part.nonpolar>
-51.7295

> <Gold.PLP.part.repulsive>
1.6461

> <Gold.PLP.ligand.clash>
0.0000

> <Gold.PLP.ligand.torsion>
1.6144

> <Gold.PLP.Chemscore.Hbond>
0.3583

> <Gold.PLP.Chemscore.CHOScore>
0.0000

> <Gold.PLP.Chemscore.Metal>
0.0000

> <Gold.Chemscore.Hbonds>
donor molecule, donor type, donor heavy atom, donor atom, acceptor molecule, acceptor atom, score
      P1  H  7989  7998       L1    10  0.20

> <Gold.PLP.Chemscore.Internal.Correction>
0.0378

> <Gold.Rescore>
     Score         DG    S(hbond)    S(metal)    S(lipo)     H(rot)  DE(clash)    DE(int)     intcor
     12.63     -16.65       0.00        0.00     135.31       1.82       1.35       2.67       ----

> <Gold.Chemscore.Fitness>
12.6311

> <Gold.Chemscore.DG>
-16.6460

> <Gold.Chemscore.ZeroCoef>
-5.4800

> <Gold.Chemscore.Hbond>
0.0000

> <Gold.Chemscore.Metal>
0.0000

> <Gold.Chemscore.Lipo>
135.3065

> <Gold.Chemscore.Internal_Hbond>
0.0000

> <Gold.Chemscore.DEClash>
1.3462

> <Gold.Chemscore.DEInternal>
2.6687

> <Gold.Chemscore.Rot>
1.8222

> <Gold.Chemscore.Internal.Correction>
   9.000000E+99

> <Gold.Chemscore.Hbond.Weighted>
-0.0000

> <Gold.Chemscore.Metal.Weighted>
-0.0000

> <Gold.Chemscore.Lipo.Weighted>
-15.8309

> <Gold.Chemscore.Internal_Hbond.Weighted>
0.0000

> <Gold.Chemscore.DEClash.Weighted>
1.3462

> <Gold.Chemscore.DEInternal.Weighted>
2.6687

> <Gold.Chemscore.Rot.Weighted>
4.6649

> <Gold.Chemscore.Internal.Correction.Weighted>
   9.000000E+99

> <Gold.Protein.RotatedTorsions>
[ 6907 6896 6895 6894 ] final -174.22 input  -60.11 | X-H torsion
[ 7974 7965 7964 7962 ] final -171.49 input  175.53 | X-H torsion
[ 8008 7997 7996 7995 ] final   42.58 input   59.86 | X-H torsion
[ 10167 10162 10161 10158 ] final  -35.59 input  -65.29 | X-H torsion
[ 10718 10713 10712 10709 ] final  122.20 input   66.30 | X-H torsion
[ 10763 10752 10751 10750 ] final -179.30 input  -60.55 | X-H torsion
[ 11005 11000 10999 10996 ] final  174.66 input  -57.11 | X-H torsion

> <Gold.Protein.ActiveResidues>
 VAL166  LYS551  ARG553  GLY616  TRP617  ASP618  TYR619  PRO620  LYS621  CYS622 
 ASP623  PHE694  ASN695  SER759  ASP760  ASP761  ALA762  ILE779  LEU786  VAL792 
 PHE793  MET794  SER795  GLU796  ALA797  LYS798  CYS799  TRP800  GLU811  SER814 

> <Gold.Protein.RotatedAtoms>
  151.5688  133.3393  159.2985 H   0  0  0  0  0  0  0  0  0  0  0  0  # atno 6907 bound_to 6896
  150.8380  134.7663  159.6920 H   0  0  0  0  0  0  0  0  0  0  0  0  # atno 6908 bound_to 6896
  152.4453  134.5515  159.9919 H   0  0  0  0  0  0  0  0  0  0  0  0  # atno 6909 bound_to 6896
  144.7156  140.1915  143.6348 H   0  0  0  0  0  0  0  0  0  0  0  0  # atno 7974 bound_to 7965
  155.2885  140.3377  155.4254 H   0  0  0  0  0  0  0  0  0  0  0  0  # atno 8008 bound_to 7997
  156.2057  140.1750  156.7845 H   0  0  0  0  0  0  0  0  0  0  0  0  # atno 8009 bound_to 7997
  154.5617  140.0686  156.8814 H   0  0  0  0  0  0  0  0  0  0  0  0  # atno 8010 bound_to 7997
  140.7161  143.3466  151.2243 H   0  0  0  0  0  0  0  0  0  0  0  0  # atno 10167 bound_to 10162
  157.5760  131.1079  150.8278 H   0  0  0  0  0  0  0  0  0  0  0  0  # atno 10718 bound_to 10713
  154.5368  135.2803  155.1131 H   0  0  0  0  0  0  0  0  0  0  0  0  # atno 10763 bound_to 10752
  154.2629  135.6318  153.5285 H   0  0  0  0  0  0  0  0  0  0  0  0  # atno 10764 bound_to 10752
  152.9969  135.5610  154.5897 H   0  0  0  0  0  0  0  0  0  0  0  0  # atno 10765 bound_to 10752
  140.3537  134.7173  157.4285 H   0  0  0  0  0  0  0  0  0  0  0  0  # atno 11005 bound_to 11000
  145.8764  139.2299  143.1631 LP  0  0  0  0  0  0  0  0  0  0  0  0  # atno 17320 bound_to 7965
  146.0036  140.8498  143.0006 LP  0  0  0  0  0  0  0  0  0  0  0  0  # atno 17321 bound_to 7965
  139.6987  143.9569  152.2895 LP  0  0  0  0  0  0  0  0  0  0  0  0  # atno 17342 bound_to 10162
  139.9255  144.6774  150.8417 LP  0  0  0  0  0  0  0  0  0  0  0  0  # atno 17343 bound_to 10162
  156.8736  130.5155  149.5295 LP  0  0  0  0  0  0  0  0  0  0  0  0  # atno 17370 bound_to 10713
  156.0805  130.5816  150.9554 LP  0  0  0  0  0  0  0  0  0  0  0  0  # atno 17371 bound_to 10713
  140.0682  134.5900  155.8671 LP  0  0  0  0  0  0  0  0  0  0  0  0  # atno 17394 bound_to 11000
  141.2004  133.6612  156.5897 LP  0  0  0  0  0  0  0  0  0  0  0  0  # atno 17395 bound_to 11000

$$$$
