AV-unprocessed.smi:1709|AV-procd|sdf|6891|dock1
  -GOLD-   22720 8 93D 1   1.00000     0.00000
 Structure written by MMmdl.
 43 45  0  0  0  0  0  0  0  0  2 V2000
  149.9051  138.7601  154.0926 C   0  0  0  0  0  0  0  0  0  0  0  0
  150.9091  138.1698  155.0702 C   0  0  0  0  0  0  0  0  0  0  0  0
  151.7635  139.0370  155.7837 C   0  0  0  0  0  0  0  0  0  0  0  0
  152.6914  138.4945  156.6883 C   0  0  0  0  0  0  0  0  0  0  0  0
  152.7260  137.0986  156.8411 C   0  0  0  0  0  0  0  0  0  0  0  0
  151.9132  136.2628  156.1627 N   0  0  0  0  0  0  0  0  0  0  0  0
  151.0077  136.7683  155.2856 C   0  0  0  0  0  0  0  0  0  0  0  0
  150.1093  135.9584  154.5232 N   0  0  0  0  0  0  0  0  0  0  0  0
  149.5955  134.7287  154.7413 C   0  0  0  0  0  0  0  0  0  0  0  0
  149.8863  134.0910  155.7517 O   0  0  0  0  0  0  0  0  0  0  0  0
  148.7633  134.2535  153.8004 N   0  0  0  0  0  0  0  0  0  0  0  0
  148.1032  132.9524  153.8248 C   0  0  2  0  0  0  0  0  0  0  0  0
  149.0690  131.8010  154.0771 C   0  0  0  0  0  0  0  0  0  0  0  0
  148.2763  130.5962  153.5675 C   0  0  0  0  0  0  0  0  0  0  0  0
  147.4627  131.0921  152.4335 N   0  3  1  0  0  0  0  0  0  0  0  0
  146.1231  130.4658  152.3175 C   0  0  0  0  0  0  0  0  0  0  0  0
  145.3625  131.0246  151.1006 C   0  0  0  0  0  0  0  0  0  0  0  0
  145.3685  132.5666  151.0379 C   0  0  0  0  0  0  0  0  0  0  0  0
  146.0728  133.1993  152.2480 C   0  0  0  0  0  0  0  0  0  0  0  0
  147.4721  132.5822  152.4720 C   0  0  1  0  0  0  0  0  0  0  0  0
  149.9931  139.8457  154.0390 H   0  0  0  0  0  0  0  0  0  0  0  0
  148.8869  138.5213  154.4010 H   0  0  0  0  0  0  0  0  0  0  0  0
  150.0669  138.3629  153.0901 H   0  0  0  0  0  0  0  0  0  0  0  0
  151.7106  140.1066  155.6416 H   0  0  0  0  0  0  0  0  0  0  0  0
  153.3586  139.1318  157.2496 H   0  0  0  0  0  0  0  0  0  0  0  0
  153.4235  136.6396  157.5258 H   0  0  0  0  0  0  0  0  0  0  0  0
  149.8091  136.3826  153.6577 H   0  0  0  0  0  0  0  0  0  0  0  0
  148.5798  134.8447  153.0013 H   0  0  0  0  0  0  0  0  0  0  0  0
  147.3427  132.9277  154.6082 H   0  0  0  0  0  0  0  0  0  0  0  0
  149.9779  131.9276  153.4864 H   0  0  0  0  0  0  0  0  0  0  0  0
  149.3548  131.7064  155.1254 H   0  0  0  0  0  0  0  0  0  0  0  0
  148.9205  129.7706  153.2644 H   0  0  0  0  0  0  0  0  0  0  0  0
  147.6237  130.2343  154.3637 H   0  0  0  0  0  0  0  0  0  0  0  0
  146.2333  129.3847  152.2246 H   0  0  0  0  0  0  0  0  0  0  0  0
  145.5534  130.6454  153.2306 H   0  0  0  0  0  0  0  0  0  0  0  0
  145.8058  130.6301  150.1854 H   0  0  0  0  0  0  0  0  0  0  0  0
  144.3358  130.6580  151.1171 H   0  0  0  0  0  0  0  0  0  0  0  0
  145.8741  132.8847  150.1254 H   0  0  0  0  0  0  0  0  0  0  0  0
  144.3479  132.9437  150.9640 H   0  0  0  0  0  0  0  0  0  0  0  0
  146.1567  134.2770  152.1057 H   0  0  0  0  0  0  0  0  0  0  0  0
  145.4548  133.0604  153.1363 H   0  0  0  0  0  0  0  0  0  0  0  0
  148.1343  132.8994  151.6645 H   0  0  0  0  0  0  0  0  0  0  0  0
  147.9623  130.8439  151.5915 H   0  0  0  0  0  0  0  0  0  0  0  0
  1  2  1  0  0  0  0
  1 21  1  0  0  0  0
  1 22  1  0  0  0  0
  1 23  1  0  0  0  0
  2  7  1  0  0  0  0
  2  3  2  0  0  0  0
  3  4  1  0  0  0  0
  3 24  1  0  0  0  0
  4  5  2  0  0  0  0
  4 25  1  0  0  0  0
  5  6  1  0  0  0  0
  5 26  1  0  0  0  0
  6  7  2  0  0  0  0
  7  8  1  0  0  0  0
  8  9  1  0  0  0  0
  8 27  1  0  0  0  0
  9 10  2  0  0  0  0
  9 11  1  0  0  0  0
 11 12  1  0  0  0  0
 11 28  1  0  0  0  0
 12 20  1  0  0  0  0
 12 13  1  0  0  0  0
 12 29  1  0  0  0  0
 13 14  1  0  0  0  0
 13 30  1  0  0  0  0
 13 31  1  0  0  0  0
 14 15  1  0  0  0  0
 14 32  1  0  0  0  0
 14 33  1  0  0  0  0
 15 20  1  0  0  0  0
 15 16  1  0  0  0  0
 15 43  1  0  0  0  0
 16 17  1  0  0  0  0
 16 34  1  0  0  0  0
 16 35  1  0  0  0  0
 17 18  1  0  0  0  0
 17 36  1  0  0  0  0
 17 37  1  0  0  0  0
 18 19  1  0  0  0  0
 18 38  1  0  0  0  0
 18 39  1  0  0  0  0
 19 20  1  0  0  0  0
 19 40  1  0  0  0  0
 19 41  1  0  0  0  0
 20 42  1  0  0  0  0
M  CHG  1  15   1
M  END
> <s_m_source_file>
AV-unprocessed.smi

> <i_m_source_file_index>
1709

> <i_lp_mmshare_version>
43012

> <i_f3d_flags>
0

> <s_epik_input>
W0NIM11jMVtjSF1bY0hdW2NIXW5jMVtOSF1DKD1PKVtOSF1bQ0BIXShbQ0gyXVtDSDJdMilbQ0BASF0oTjIzKVtDSDJdW0NIMl1bQ0gyXVtDSDJdMw==

> <s_epik_cmdline>
J2VwaWtfcHl0aG9uJywgJy1waCcsICc3LjAnLCAnLXRuJywgJzgnLCAnLW1hJywgJzIwMCcsICctbWV0YWxfYmluZGluZycsICctaW1hZScsICc8aW5maWxlLm1hZT4nLCAnLW9tYWUnLCAnPG91dGZpbGUubWFlPic=

> <r_epik_Ionization_Penalty>
0.00101524

> <r_epik_Ionization_Penalty_Charging>
0.000974069

> <r_epik_Ionization_Penalty_Neutral>
4.11757e-05

> <r_epik_State_Penalty>
0.000633842

> <r_epik_Charging_Adjusted_Penalty>
0.00160791

> <i_epik_Tot_Q>
1

> <i_epik_Tot_abs_Q>
1

> <r_epik_Metal_State_Penalty>
-0

> <b_epik_Metal_Only>
0

> <s_lp_Force_Field>
OPLS_2005

> <r_lp_Energy>
44.7529

> <b_lp_Chiralities_Consistent>
1

> <s_lp_Variant>
AV-unprocessed.smi:1709-1

> <Gold.Version>
5.8.1

> <Gold.Id.Protein>
6NUR|6NUR_protein|mol2

> <Gold.PLP.Fitness>
46.3045

> <Gold.PLP.PLP>
-34.7901

> <Gold.PLP.part.hbond>
-4.4309

> <Gold.PLP.part.metal>
0.0000

> <Gold.PLP.part.buried>
-2.9325

> <Gold.PLP.part.nonpolar>
-27.9869

> <Gold.PLP.part.repulsive>
0.1111

> <Gold.PLP.ligand.clash>
0.0000

> <Gold.PLP.ligand.torsion>
0.2481

> <Gold.PLP.Chemscore.Hbond>
4.0000

> <Gold.PLP.Chemscore.CHOScore>
0.0000

> <Gold.PLP.Chemscore.Metal>
0.0000

> <Gold.Chemscore.Hbonds>
donor molecule, donor type, donor heavy atom, donor atom, acceptor molecule, acceptor atom, score
      L1  H     8    27       P1  7948  1.00
      L1  H    11    28       P1  7948  1.00
      L1  H    15    43       P1 10747  1.00
      P1  H 10752 10763       L1     6  1.00

> <Gold.PLP.Chemscore.Internal.Correction>
0.0106

> <Gold.Rescore>
     Score         DG    S(hbond)    S(metal)    S(lipo)     H(rot)  DE(clash)    DE(int)     intcor
     20.67     -22.15       3.14        0.00      74.63       1.00       0.00       1.48       ----

> <Gold.Chemscore.Fitness>
20.6698

> <Gold.Chemscore.DG>
-22.1497

> <Gold.Chemscore.ZeroCoef>
-5.4800

> <Gold.Chemscore.Hbond>
3.1431

> <Gold.Chemscore.Metal>
0.0000

> <Gold.Chemscore.Lipo>
74.6289

> <Gold.Chemscore.Internal_Hbond>
0.0000

> <Gold.Chemscore.DEClash>
0.0048

> <Gold.Chemscore.DEInternal>
1.4750

> <Gold.Chemscore.Rot>
1.0000

> <Gold.Chemscore.Internal.Correction>
   9.000000E+99

> <Gold.Chemscore.Hbonds>
donor molecule, donor type, donor heavy atom, donor atom, acceptor molecule, acceptor atom, score
      L1  H     8    27       P1  7948  0.28
      L1  H    11    28       P1  7948  0.44
      L1  H    15    43       P1 10747  1.00
      P1  H 10752 10763       L1     6  0.08

> <Gold.Chemscore.Hbond.Weighted>
-10.4981

> <Gold.Chemscore.Metal.Weighted>
-0.0000

> <Gold.Chemscore.Lipo.Weighted>
-8.7316

> <Gold.Chemscore.Internal_Hbond.Weighted>
0.0000

> <Gold.Chemscore.DEClash.Weighted>
0.0048

> <Gold.Chemscore.DEInternal.Weighted>
1.4750

> <Gold.Chemscore.Rot.Weighted>
2.5600

> <Gold.Chemscore.Internal.Correction.Weighted>
   9.000000E+99

> <Gold.Protein.RotatedTorsions>
[ 6907 6896 6895 6894 ] final  118.21 input  -60.11 | X-H torsion
[ 7974 7965 7964 7962 ] final  137.93 input  175.53 | X-H torsion
[ 8008 7997 7996 7995 ] final  -43.87 input   59.86 | X-H torsion
[ 10167 10162 10161 10158 ] final   92.24 input  -65.29 | X-H torsion
[ 10718 10713 10712 10709 ] final  -75.05 input   66.30 | X-H torsion
[ 10763 10752 10751 10750 ] final   83.62 input  -60.55 | X-H torsion
[ 11005 11000 10999 10996 ] final   92.84 input  -57.11 | X-H torsion

> <Gold.Protein.ActiveResidues>
 VAL166  LYS551  ARG553  GLY616  TRP617  ASP618  TYR619  PRO620  LYS621  CYS622 
 ASP623  PHE694  ASN695  SER759  ASP760  ASP761  ALA762  ILE779  LEU786  VAL792 
 PHE793  MET794  SER795  GLU796  ALA797  LYS798  CYS799  TRP800  GLU811  SER814 

> <Gold.Protein.RotatedAtoms>
  152.4559  133.7721  159.6804 H   0  0  0  0  0  0  0  0  0  0  0  0  # atno 6907 bound_to 6896
  150.8485  133.7814  159.3040 H   0  0  0  0  0  0  0  0  0  0  0  0  # atno 6908 bound_to 6896
  151.5417  135.1071  159.9980 H   0  0  0  0  0  0  0  0  0  0  0  0  # atno 6909 bound_to 6896
  144.9421  139.4918  143.5567 H   0  0  0  0  0  0  0  0  0  0  0  0  # atno 7974 bound_to 7965
  154.3997  140.1437  156.3589 H   0  0  0  0  0  0  0  0  0  0  0  0  # atno 8008 bound_to 7997
  155.8199  140.3470  155.5487 H   0  0  0  0  0  0  0  0  0  0  0  0  # atno 8009 bound_to 7997
  155.8298  140.0910  157.1789 H   0  0  0  0  0  0  0  0  0  0  0  0  # atno 8010 bound_to 7997
  139.8296  144.6693  150.9416 H   0  0  0  0  0  0  0  0  0  0  0  0  # atno 10167 bound_to 10162
  156.0221  130.4431  150.2985 H   0  0  0  0  0  0  0  0  0  0  0  0  # atno 10718 bound_to 10713
  153.1308  135.4684  154.9345 H   0  0  0  0  0  0  0  0  0  0  0  0  # atno 10763 bound_to 10752
  154.7662  135.3145  154.8284 H   0  0  0  0  0  0  0  0  0  0  0  0  # atno 10764 bound_to 10752
  153.8826  135.6892  153.4820 H   0  0  0  0  0  0  0  0  0  0  0  0  # atno 10765 bound_to 10752
  139.8818  134.8756  156.3631 H   0  0  0  0  0  0  0  0  0  0  0  0  # atno 11005 bound_to 11000
  146.3289  139.8447  142.8884 LP  0  0  0  0  0  0  0  0  0  0  0  0  # atno 17320 bound_to 7965
  145.2975  141.0185  143.3628 LP  0  0  0  0  0  0  0  0  0  0  0  0  # atno 17321 bound_to 7965
  140.7807  143.4013  151.1144 LP  0  0  0  0  0  0  0  0  0  0  0  0  # atno 17342 bound_to 10162
  139.7668  143.8553  152.3112 LP  0  0  0  0  0  0  0  0  0  0  0  0  # atno 17343 bound_to 10162
  157.1088  131.0215  151.3056 LP  0  0  0  0  0  0  0  0  0  0  0  0  # atno 17370 bound_to 10713
  157.4721  130.7715  149.7333 LP  0  0  0  0  0  0  0  0  0  0  0  0  # atno 17371 bound_to 10713
  140.9516  133.7447  156.0279 LP  0  0  0  0  0  0  0  0  0  0  0  0  # atno 17394 bound_to 11000
  140.8099  134.3411  157.5415 LP  0  0  0  0  0  0  0  0  0  0  0  0  # atno 17395 bound_to 11000

$$$$
