AV-unprocessed.smi:158|AV-procd|sdf|1329|dock9
  -GOLD-   2262019 23D 1   1.00000     0.00000
 Structure written by MMmdl.
 31 33  0  0  0  0  0  0  0  0  1 V2000
  155.2507  140.8741  160.8495 N   0  0  0  0  0  0  0  0  0  0  0  0
  154.0319  141.2144  160.4068 C   0  0  0  0  0  0  0  0  0  0  0  0
  153.4145  142.2767  160.9741 N   0  0  0  0  0  0  0  0  0  0  0  0
  152.1974  142.6512  160.5607 C   0  0  0  0  0  0  0  0  0  0  0  0
  151.5057  144.0184  161.3514 Cl  0  0  0  0  0  0  0  0  0  0  0  0
  151.4574  142.0854  159.6017 N   0  0  0  0  0  0  0  0  0  0  0  0
  152.0764  141.0135  159.0264 C   0  0  0  0  0  0  0  0  0  0  0  0
  153.3608  140.5157  159.3736 C   0  0  0  0  0  0  0  0  0  0  0  0
  153.6716  139.4153  158.5860 N   0  0  0  0  0  0  0  0  0  0  0  0
  152.6252  139.2748  157.8167 C   0  0  0  0  0  0  0  0  0  0  0  0
  151.6179  140.1937  158.0140 N   0  0  0  0  0  0  0  0  0  0  0  0
  150.3126  140.2861  157.2890 C   0  0  2  0  0  0  0  0  0  0  0  0
  150.3292  139.4221  156.1904 O   0  0  0  0  0  0  0  0  0  0  0  0
  149.8940  140.1089  155.0156 C   0  0  1  0  0  0  0  0  0  0  0  0
  149.0139  139.1705  154.1756 C   0  0  0  0  0  0  0  0  0  0  0  0
  148.3757  139.8833  153.1374 O   0  0  0  0  0  0  0  0  0  0  0  0
  149.1794  141.3548  155.5532 C   0  0  2  0  0  0  0  0  0  0  0  0
  149.1196  142.4250  154.6313 O   0  0  0  0  0  0  0  0  0  0  0  0
  150.0331  141.6960  156.7584 C   0  0  2  0  0  0  0  0  0  0  0  0
  151.1770  142.2812  156.3896 F   0  0  0  0  0  0  0  0  0  0  0  0
  149.5636  139.9445  158.0047 H   0  0  0  0  0  0  0  0  0  0  0  0
  150.7869  140.3961  154.4569 H   0  0  0  0  0  0  0  0  0  0  0  0
  148.1695  141.1003  155.8783 H   0  0  0  0  0  0  0  0  0  0  0  0
  149.5410  142.3210  157.5038 H   0  0  0  0  0  0  0  0  0  0  0  0
  155.7316  140.0854  160.4413 H   0  0  0  0  0  0  0  0  0  0  0  0
  155.6861  141.4072  161.5881 H   0  0  0  0  0  0  0  0  0  0  0  0
  152.5587  138.4900  157.0774 H   0  0  0  0  0  0  0  0  0  0  0  0
  149.6275  138.3899  153.7252 H   0  0  0  0  0  0  0  0  0  0  0  0
  148.2657  138.6748  154.7949 H   0  0  0  0  0  0  0  0  0  0  0  0
  148.8518  139.7349  152.3346 H   0  0  0  0  0  0  0  0  0  0  0  0
  149.1203  143.2369  155.1158 H   0  0  0  0  0  0  0  0  0  0  0  0
  1  2  1  0  0  0  0
  1 25  1  0  0  0  0
  1 26  1  0  0  0  0
  2  8  1  0  0  0  0
  2  3  2  0  0  0  0
  3  4  1  0  0  0  0
  4  5  1  0  0  0  0
  4  6  2  0  0  0  0
  6  7  1  0  0  0  0
  7 11  1  0  0  0  0
  7  8  2  0  0  0  0
  8  9  1  0  0  0  0
  9 10  2  0  0  0  0
 10 11  1  0  0  0  0
 10 27  1  0  0  0  0
 11 12  1  0  0  0  0
 12 21  1  0  0  0  0
 12 19  1  0  0  0  0
 12 13  1  0  0  0  0
 13 14  1  0  0  0  0
 14 22  1  0  0  0  0
 14 15  1  0  0  0  0
 14 17  1  0  0  0  0
 15 16  1  0  0  0  0
 15 28  1  0  0  0  0
 15 29  1  0  0  0  0
 16 30  1  0  0  0  0
 17 23  1  0  0  0  0
 17 18  1  0  0  0  0
 17 19  1  0  0  0  0
 18 31  1  0  0  0  0
 19 24  1  0  0  0  0
 19 20  1  0  0  0  0
M  END
> <s_m_source_file>
AV-unprocessed.smi

> <i_m_source_file_index>
158

> <i_lp_mmshare_version>
43012

> <i_f3d_flags>
0

> <s_epik_input>
Q2xjKG4xKW5jKFtOSDJdKWMoYzEyKW5bY0hdbjJbQ0BASF0zT1tDQEhdKFtDSDJdW09IXSlbQ0BASF0oW09IXSlbQ0BASF0zRg==

> <s_epik_cmdline>
J2VwaWtfcHl0aG9uJywgJy1waCcsICc3LjAnLCAnLXRuJywgJzgnLCAnLW1hJywgJzIwMCcsICctbWV0YWxfYmluZGluZycsICctaW1hZScsICc8aW5maWxlLm1hZT4nLCAnLW9tYWUnLCAnPG91dGZpbGUubWFlPic=

> <r_lp_tautomer_probability>
1

> <r_epik_Ionization_Penalty>
6.51543e-05

> <r_epik_Ionization_Penalty_Charging>
0

> <r_epik_Ionization_Penalty_Neutral>
6.51543e-05

> <r_epik_State_Penalty>
-0

> <r_epik_Charging_Adjusted_Penalty>
0

> <i_epik_Tot_Q>
0

> <i_epik_Tot_abs_Q>
0

> <r_epik_Metal_State_Penalty>
-0

> <b_epik_Metal_Only>
0

> <s_epik_Chemistry_Notes>
This compound contains an acetal/aminal-like group ( X-CH(R)-Y where X, Y are N, S, or O) that may be acid/base labile, releasing an aldehyde.

> <s_lp_Force_Field>
OPLS_2005

> <r_lp_Energy>
35.9636

> <b_lp_Chiralities_Consistent>
1

> <s_lp_Variant>
AV-unprocessed.smi:158-7

> <Gold.Version>
5.8.1

> <Gold.Id.Protein>
6NUR|6NUR_protein|mol2

> <Gold.PLP.Fitness>
44.3167

> <Gold.PLP.PLP>
-35.6814

> <Gold.PLP.part.hbond>
-4.7281

> <Gold.PLP.part.metal>
0.0000

> <Gold.PLP.part.buried>
-6.1101

> <Gold.PLP.part.nonpolar>
-23.9488

> <Gold.PLP.part.repulsive>
0.0345

> <Gold.PLP.ligand.clash>
0.0000

> <Gold.PLP.ligand.torsion>
0.2162

> <Gold.PLP.Chemscore.Hbond>
3.0211

> <Gold.PLP.Chemscore.CHOScore>
0.0000

> <Gold.PLP.Chemscore.Metal>
0.0000

> <Gold.Chemscore.Hbonds>
donor molecule, donor type, donor heavy atom, donor atom, acceptor molecule, acceptor atom, score
      L1  H    16    30       P1  7957  0.73
      L1  H    18    31       P1  8028  1.00
      P1  H  7997  8009       L1     9  1.00
      P1  H  8011  8017       L1    18  0.02

> <Gold.PLP.Chemscore.Internal.Correction>
0.0044

> <Gold.Rescore>
     Score         DG    S(hbond)    S(metal)    S(lipo)     H(rot)  DE(clash)    DE(int)     intcor
     10.54     -10.89       2.46        0.00      44.38       3.12       0.21       0.14       ----

> <Gold.Chemscore.Fitness>
10.5428

> <Gold.Chemscore.DG>
-10.8855

> <Gold.Chemscore.ZeroCoef>
-5.4800

> <Gold.Chemscore.Hbond>
2.4575

> <Gold.Chemscore.Metal>
0.0000

> <Gold.Chemscore.Lipo>
44.3780

> <Gold.Chemscore.Internal_Hbond>
0.0000

> <Gold.Chemscore.DEClash>
0.2064

> <Gold.Chemscore.DEInternal>
0.1362

> <Gold.Chemscore.Rot>
3.1230

> <Gold.Chemscore.Internal.Correction>
   9.000000E+99

> <Gold.Chemscore.Hbonds>
donor molecule, donor type, donor heavy atom, donor atom, acceptor molecule, acceptor atom, score
      L1  H    16    30       P1  7957  0.72
      L1  H    18    31       P1  8028  0.98
      P1  H  7997  8009       L1     9  0.15
      P1  H  8011  8017       L1    18  0.02

> <Gold.Chemscore.Hbond.Weighted>
-8.2082

> <Gold.Chemscore.Metal.Weighted>
-0.0000

> <Gold.Chemscore.Lipo.Weighted>
-5.1922

> <Gold.Chemscore.Internal_Hbond.Weighted>
0.0000

> <Gold.Chemscore.DEClash.Weighted>
0.2064

> <Gold.Chemscore.DEInternal.Weighted>
0.1362

> <Gold.Chemscore.Rot.Weighted>
7.9950

> <Gold.Chemscore.Internal.Correction.Weighted>
   9.000000E+99

> <Gold.Protein.RotatedTorsions>
[ 6907 6896 6895 6894 ] final  -68.10 input  -60.11 | X-H torsion
[ 7974 7965 7964 7962 ] final  -38.89 input  175.53 | X-H torsion
[ 8008 7997 7996 7995 ] final  127.77 input   59.86 | X-H torsion
[ 10167 10162 10161 10158 ] final    1.52 input  -65.29 | X-H torsion
[ 10718 10713 10712 10709 ] final   88.07 input   66.30 | X-H torsion
[ 10763 10752 10751 10750 ] final  169.08 input  -60.55 | X-H torsion
[ 11005 11000 10999 10996 ] final  141.21 input  -57.11 | X-H torsion

> <Gold.Protein.ActiveResidues>
 VAL166  LYS551  ARG553  GLY616  TRP617  ASP618  TYR619  PRO620  LYS621  CYS622 
 ASP623  PHE694  ASN695  SER759  ASP760  ASP761  ALA762  ILE779  LEU786  VAL792 
 PHE793  MET794  SER795  GLU796  ALA797  LYS798  CYS799  TRP800  GLU811  SER814 

> <Gold.Protein.RotatedAtoms>
  150.7374  134.5786  159.5926 H   0  0  0  0  0  0  0  0  0  0  0  0  # atno 6907 bound_to 6896
  152.3206  134.7382  160.0323 H   0  0  0  0  0  0  0  0  0  0  0  0  # atno 6908 bound_to 6896
  151.7899  133.3322  159.3532 H   0  0  0  0  0  0  0  0  0  0  0  0  # atno 6909 bound_to 6896
  146.0446  140.6563  142.9071 H   0  0  0  0  0  0  0  0  0  0  0  0  # atno 7974 bound_to 7965
  156.2899  140.2661  156.2327 H   0  0  0  0  0  0  0  0  0  0  0  0  # atno 8008 bound_to 7997
  155.0056  140.0387  157.2396 H   0  0  0  0  0  0  0  0  0  0  0  0  # atno 8009 bound_to 7997
  154.7563  140.2752  155.6256 H   0  0  0  0  0  0  0  0  0  0  0  0  # atno 8010 bound_to 7997
  140.6679  143.7130  150.7863 H   0  0  0  0  0  0  0  0  0  0  0  0  # atno 10167 bound_to 10162
  157.6946  131.0280  150.3219 H   0  0  0  0  0  0  0  0  0  0  0  0  # atno 10718 bound_to 10713
  154.3780  135.2753  155.2228 H   0  0  0  0  0  0  0  0  0  0  0  0  # atno 10763 bound_to 10752
  154.4347  135.5969  153.6094 H   0  0  0  0  0  0  0  0  0  0  0  0  # atno 10764 bound_to 10752
  152.9835  135.6004  154.4019 H   0  0  0  0  0  0  0  0  0  0  0  0  # atno 10765 bound_to 10752
  140.0384  134.9317  157.0797 H   0  0  0  0  0  0  0  0  0  0  0  0  # atno 11005 bound_to 11000
  144.7091  140.3970  143.7094 LP  0  0  0  0  0  0  0  0  0  0  0  0  # atno 17320 bound_to 7965
  145.6827  139.1622  143.2691 LP  0  0  0  0  0  0  0  0  0  0  0  0  # atno 17321 bound_to 7965
  140.0811  143.4968  152.2530 LP  0  0  0  0  0  0  0  0  0  0  0  0  # atno 17342 bound_to 10162
  139.5934  144.7558  151.3344 LP  0  0  0  0  0  0  0  0  0  0  0  0  # atno 17343 bound_to 10162
  156.3705  130.3862  149.7179 LP  0  0  0  0  0  0  0  0  0  0  0  0  # atno 17370 bound_to 10713
  156.4595  130.7945  151.2965 LP  0  0  0  0  0  0  0  0  0  0  0  0  # atno 17371 bound_to 10713
  140.4109  134.1982  155.7163 LP  0  0  0  0  0  0  0  0  0  0  0  0  # atno 17394 bound_to 11000
  141.1870  133.8290  157.1048 LP  0  0  0  0  0  0  0  0  0  0  0  0  # atno 17395 bound_to 11000

$$$$
