AV-unprocessed.smi:2083|AV-procd|sdf|8512|dock7
  -GOLD-   2272011223D 1   1.00000     0.00000
 Structure written by MMmdl.
 44 45  0  0  0  0  0  0  0  0  3 V2000
  151.3757  140.7855  156.4227 C   0  0  0  0  0  0  0  0  0  0  0  0
  150.9122  139.6058  155.6382 C   0  0  0  0  0  0  0  0  0  0  0  0
  151.0160  138.2585  155.8406 C   0  0  0  0  0  0  0  0  0  0  0  0
  150.3563  137.7115  154.7081 C   0  0  0  0  0  0  0  0  0  0  0  0
  150.2446  136.3054  154.5448 N   0  0  0  0  0  0  0  0  0  0  0  0
  150.4145  135.3349  155.4611 C   0  0  0  0  0  0  0  0  0  0  0  0
  150.6966  135.6213  156.6309 O   0  0  0  0  0  0  0  0  0  0  0  0
  150.2446  134.0909  154.9332 N   0  5  0  0  0  0  0  0  0  0  0  0
  149.2330  133.7366  153.9360 C   0  0  0  0  0  0  0  0  0  0  0  0
  147.8895  134.4682  154.2123 C   0  0  2  0  0  0  0  0  0  0  0  0
  147.0316  133.8227  155.3297 C   0  0  0  0  0  0  0  0  0  0  0  0
  147.1296  134.6703  152.9388 N   0  3  2  0  0  0  0  0  0  0  0  0
  145.9367  135.5442  153.1005 C   0  0  0  0  0  0  0  0  0  0  0  0
  145.3512  135.9337  151.7335 C   0  0  0  0  0  0  0  0  0  0  0  0
  145.0149  134.6909  150.8992 C   0  0  0  0  0  0  0  0  0  0  0  0
  146.2502  133.7840  150.7689 C   0  0  2  0  0  0  0  0  0  0  0  0
  145.9351  132.5197  149.9569 C   0  0  0  0  0  0  0  0  0  0  0  0
  146.7986  133.4355  152.1662 C   0  0  0  0  0  0  0  0  0  0  0  0
  149.8904  138.6426  153.8889 N   0  0  0  0  0  0  0  0  0  0  0  0
  150.2441  139.8611  154.4806 O   0  0  0  0  0  0  0  0  0  0  0  0
  152.3816  140.6215  156.8092 H   0  0  0  0  0  0  0  0  0  0  0  0
  150.7136  140.9690  157.2688 H   0  0  0  0  0  0  0  0  0  0  0  0
  151.3940  141.6843  155.8060 H   0  0  0  0  0  0  0  0  0  0  0  0
  151.4889  137.7481  156.6663 H   0  0  0  0  0  0  0  0  0  0  0  0
  150.0076  135.9924  153.6151 H   0  0  0  0  0  0  0  0  0  0  0  0
  149.5663  133.9820  152.9263 H   0  0  0  0  0  0  0  0  0  0  0  0
  149.0539  132.6614  153.9201 H   0  0  0  0  0  0  0  0  0  0  0  0
  148.1617  135.4625  154.5693 H   0  0  0  0  0  0  0  0  0  0  0  0
  147.5477  133.8299  156.2914 H   0  0  0  0  0  0  0  0  0  0  0  0
  146.7652  132.7866  155.1140 H   0  0  0  0  0  0  0  0  0  0  0  0
  146.1035  134.3761  155.4736 H   0  0  0  0  0  0  0  0  0  0  0  0
  145.1855  135.0327  153.7041 H   0  0  0  0  0  0  0  0  0  0  0  0
  146.2075  136.4556  153.6349 H   0  0  0  0  0  0  0  0  0  0  0  0
  144.4572  136.5426  151.8707 H   0  0  0  0  0  0  0  0  0  0  0  0
  146.0675  136.5544  151.1933 H   0  0  0  0  0  0  0  0  0  0  0  0
  144.1982  134.1430  151.3713 H   0  0  0  0  0  0  0  0  0  0  0  0
  144.6597  134.9916  149.9128 H   0  0  0  0  0  0  0  0  0  0  0  0
  147.0226  134.3362  150.2309 H   0  0  0  0  0  0  0  0  0  0  0  0
  145.1675  131.9166  150.4428 H   0  0  0  0  0  0  0  0  0  0  0  0
  146.8225  131.8972  149.8394 H   0  0  0  0  0  0  0  0  0  0  0  0
  145.5772  132.7733  148.9586 H   0  0  0  0  0  0  0  0  0  0  0  0
  147.6851  132.8105  152.0547 H   0  0  0  0  0  0  0  0  0  0  0  0
  146.0615  132.8428  152.7100 H   0  0  0  0  0  0  0  0  0  0  0  0
  147.7620  135.2000  152.3558 H   0  0  0  0  0  0  0  0  0  0  0  0
  1  2  1  0  0  0  0
  1 21  1  0  0  0  0
  1 22  1  0  0  0  0
  1 23  1  0  0  0  0
  2 20  1  0  0  0  0
  2  3  2  0  0  0  0
  3  4  1  0  0  0  0
  3 24  1  0  0  0  0
  4  5  1  0  0  0  0
  4 19  2  0  0  0  0
  5  6  1  0  0  0  0
  5 25  1  0  0  0  0
  6  7  2  0  0  0  0
  6  8  1  0  0  0  0
  8  9  1  0  0  0  0
  9 10  1  0  0  0  0
  9 26  1  0  0  0  0
  9 27  1  0  0  0  0
 10 11  1  0  0  0  0
 10 12  1  0  0  0  0
 10 28  1  0  0  0  0
 11 29  1  0  0  0  0
 11 30  1  0  0  0  0
 11 31  1  0  0  0  0
 12 18  1  0  0  0  0
 12 13  1  0  0  0  0
 12 44  1  0  0  0  0
 13 14  1  0  0  0  0
 13 32  1  0  0  0  0
 13 33  1  0  0  0  0
 14 15  1  0  0  0  0
 14 34  1  0  0  0  0
 14 35  1  0  0  0  0
 15 16  1  0  0  0  0
 15 36  1  0  0  0  0
 15 37  1  0  0  0  0
 16 17  1  0  0  0  0
 16 18  1  0  0  0  0
 16 38  1  0  0  0  0
 17 39  1  0  0  0  0
 17 40  1  0  0  0  0
 17 41  1  0  0  0  0
 18 42  1  0  0  0  0
 18 43  1  0  0  0  0
 19 20  1  0  0  0  0
M  CHG  1   8  -1
M  CHG  1  12   1
M  END
> <s_m_source_file>
AV-unprocessed.smi

> <i_m_source_file_index>
2083

> <i_lp_mmshare_version>
43012

> <i_f3d_flags>
0

> <s_epik_input>
W0NIM11jMVtjSF1jKG5vMSlbTkhdQyg9TylbTkhdW0NIMl1bQ0BIXShbQ0gzXSlOMltDSDJdW0NIMl1bQ0gyXVtDQEBIXShbQ0gzXSlbQ0gyXTI=

> <s_epik_cmdline>
J2VwaWtfcHl0aG9uJywgJy1waCcsICc3LjAnLCAnLXRuJywgJzgnLCAnLW1hJywgJzIwMCcsICctbWV0YWxfYmluZGluZycsICctaW1hZScsICc8aW5maWxlLm1hZT4nLCAnLW9tYWUnLCAnPG91dGZpbGUubWFlPic=

> <r_epik_Ionization_Penalty>
6.76934

> <r_epik_Ionization_Penalty_Charging>
6.76934

> <r_epik_Ionization_Penalty_Neutral>
5.77849e-06

> <r_epik_State_Penalty>
6.79457

> <r_epik_Charging_Adjusted_Penalty>
13.5639

> <i_epik_Tot_Q>
0

> <i_epik_Tot_abs_Q>
2

> <r_epik_Metal_State_Penalty>
2.72837

> <b_epik_Metal_Only>
1

> <s_lp_Force_Field>
OPLS_2005

> <r_lp_Energy>
16.9315

> <b_lp_Chiralities_Consistent>
1

> <s_lp_Variant>
AV-unprocessed.smi:2083-23

> <Gold.Version>
5.8.1

> <Gold.Id.Protein>
6NUR|6NUR_protein|mol2

> <Gold.PLP.Fitness>
40.1921

> <Gold.PLP.PLP>
-30.8728

> <Gold.PLP.part.hbond>
-3.4454

> <Gold.PLP.part.metal>
0.0000

> <Gold.PLP.part.buried>
-5.4281

> <Gold.PLP.part.nonpolar>
-23.5694

> <Gold.PLP.part.repulsive>
1.2624

> <Gold.PLP.ligand.clash>
0.0000

> <Gold.PLP.ligand.torsion>
0.8129

> <Gold.PLP.Chemscore.Hbond>
3.5952

> <Gold.PLP.Chemscore.CHOScore>
0.0000

> <Gold.PLP.Chemscore.Metal>
0.0000

> <Gold.Chemscore.Hbonds>
donor molecule, donor type, donor heavy atom, donor atom, acceptor molecule, acceptor atom, score
      L1  H     5    25       P1  7948  0.60
      L1  H    12    44       P1  7948  2.00
      P1  H  7989  7998       L1    20  1.00

> <Gold.PLP.Chemscore.Internal.Correction>
0.1596

> <Gold.Rescore>
     Score         DG    S(hbond)    S(metal)    S(lipo)     H(rot)  DE(clash)    DE(int)     intcor
     13.36     -15.72       1.98        0.00      64.13       1.52       0.15       2.21       ----

> <Gold.Chemscore.Fitness>
13.3589

> <Gold.Chemscore.DG>
-15.7169

> <Gold.Chemscore.ZeroCoef>
-5.4800

> <Gold.Chemscore.Hbond>
1.9827

> <Gold.Chemscore.Metal>
0.0000

> <Gold.Chemscore.Lipo>
64.1311

> <Gold.Chemscore.Internal_Hbond>
0.0000

> <Gold.Chemscore.DEClash>
0.1474

> <Gold.Chemscore.DEInternal>
2.2106

> <Gold.Chemscore.Rot>
1.5190

> <Gold.Chemscore.Internal.Correction>
   9.000000E+99

> <Gold.Chemscore.Hbonds>
donor molecule, donor type, donor heavy atom, donor atom, acceptor molecule, acceptor atom, score
      L1  H     5    25       P1  7948  0.04
      L1  H    12    44       P1  7948  0.98
      P1  H  7989  7998       L1    20  0.26

> <Gold.Chemscore.Hbond.Weighted>
-6.6222

> <Gold.Chemscore.Metal.Weighted>
-0.0000

> <Gold.Chemscore.Lipo.Weighted>
-7.5033

> <Gold.Chemscore.Internal_Hbond.Weighted>
0.0000

> <Gold.Chemscore.DEClash.Weighted>
0.1474

> <Gold.Chemscore.DEInternal.Weighted>
2.2106

> <Gold.Chemscore.Rot.Weighted>
3.8886

> <Gold.Chemscore.Internal.Correction.Weighted>
   9.000000E+99

> <Gold.Protein.RotatedTorsions>
[ 6907 6896 6895 6894 ] final  -32.45 input  -60.11 | X-H torsion
[ 7974 7965 7964 7962 ] final   78.90 input  175.53 | X-H torsion
[ 8008 7997 7996 7995 ] final   30.60 input   59.86 | X-H torsion
[ 10167 10162 10161 10158 ] final -130.83 input  -65.29 | X-H torsion
[ 10718 10713 10712 10709 ] final -149.26 input   66.30 | X-H torsion
[ 10763 10752 10751 10750 ] final  -37.52 input  -60.55 | X-H torsion
[ 11005 11000 10999 10996 ] final   21.86 input  -57.11 | X-H torsion

> <Gold.Protein.ActiveResidues>
 VAL166  LYS551  ARG553  GLY616  TRP617  ASP618  TYR619  PRO620  LYS621  CYS622 
 ASP623  PHE694  ASN695  SER759  ASP760  ASP761  ALA762  ILE779  LEU786  VAL792 
 PHE793  MET794  SER795  GLU796  ALA797  LYS798  CYS799  TRP800  GLU811  SER814 

> <Gold.Protein.RotatedAtoms>
  151.0786  134.9844  159.8344 H   0  0  0  0  0  0  0  0  0  0  0  0  # atno 6907 bound_to 6896
  152.5417  134.2210  159.8797 H   0  0  0  0  0  0  0  0  0  0  0  0  # atno 6908 bound_to 6896
  151.2239  133.4444  159.2635 H   0  0  0  0  0  0  0  0  0  0  0  0  # atno 6909 bound_to 6896
  145.6711  139.2497  143.1868 H   0  0  0  0  0  0  0  0  0  0  0  0  # atno 7974 bound_to 7965
  155.0930  140.3222  155.4568 H   0  0  0  0  0  0  0  0  0  0  0  0  # atno 8008 bound_to 7997
  156.2737  140.2074  156.6003 H   0  0  0  0  0  0  0  0  0  0  0  0  # atno 8009 bound_to 7997
  154.6888  140.0518  157.0329 H   0  0  0  0  0  0  0  0  0  0  0  0  # atno 8010 bound_to 7997
  139.9252  143.6335  152.2543 H   0  0  0  0  0  0  0  0  0  0  0  0  # atno 10167 bound_to 10162
  156.4308  130.8075  151.2301 H   0  0  0  0  0  0  0  0  0  0  0  0  # atno 10718 bound_to 10713
  153.8977  135.6805  153.4757 H   0  0  0  0  0  0  0  0  0  0  0  0  # atno 10763 bound_to 10752
  153.1146  135.4767  154.9091 H   0  0  0  0  0  0  0  0  0  0  0  0  # atno 10764 bound_to 10752
  154.7591  135.3205  154.8367 H   0  0  0  0  0  0  0  0  0  0  0  0  # atno 10765 bound_to 10752
  140.3869  134.1861  155.7663 H   0  0  0  0  0  0  0  0  0  0  0  0  # atno 11005 bound_to 11000
  146.1044  140.7504  142.9533 LP  0  0  0  0  0  0  0  0  0  0  0  0  # atno 17320 bound_to 7965
  144.7056  140.3839  143.7120 LP  0  0  0  0  0  0  0  0  0  0  0  0  # atno 17321 bound_to 7965
  139.6828  144.7654  151.1578 LP  0  0  0  0  0  0  0  0  0  0  0  0  # atno 17342 bound_to 10162
  140.7652  143.5700  150.9005 LP  0  0  0  0  0  0  0  0  0  0  0  0  # atno 17343 bound_to 10162
  157.7508  131.0199  150.3685 LP  0  0  0  0  0  0  0  0  0  0  0  0  # atno 17370 bound_to 10713
  156.4022  130.3918  149.6951 LP  0  0  0  0  0  0  0  0  0  0  0  0  # atno 17371 bound_to 10713
  141.1904  133.8217  157.0919 LP  0  0  0  0  0  0  0  0  0  0  0  0  # atno 17394 bound_to 11000
  140.0436  134.9842  157.1007 LP  0  0  0  0  0  0  0  0  0  0  0  0  # atno 17395 bound_to 11000

$$$$
