AV-unprocessed.smi:2026|AV-procd|sdf|8206|dock5
  -GOLD-   2272010463D 1   1.00000     0.00000
 Structure written by MMmdl.
 45 47  0  0  0  0  0  0  0  0  2 V2000
  152.9953  142.8984  161.4287 C   0  0  0  0  0  0  0  0  0  0  0  0
  152.4037  142.5316  160.0791 C   0  0  0  0  0  0  0  0  0  0  0  0
  152.7930  141.3205  159.4633 C   0  0  0  0  0  0  0  0  0  0  0  0
  152.2663  140.9438  158.2083 C   0  0  0  0  0  0  0  0  0  0  0  0
  152.5040  139.8204  157.4345 N   0  0  0  0  0  0  0  0  0  0  0  0
  151.7199  140.0481  156.3846 C   0  0  0  0  0  0  0  0  0  0  0  0
  151.0042  141.1890  156.3852 N   0  0  0  0  0  0  0  0  0  0  0  0
  150.0910  141.6467  155.3529 C   0  0  0  0  0  0  0  0  0  0  0  0
  149.3191  140.4905  154.6878 C   0  0  1  0  0  0  0  0  0  0  0  0
  150.1950  139.8070  153.8115 O   0  0  0  0  0  0  0  0  0  0  0  0
  148.7861  139.4932  155.7368 C   0  0  0  0  0  0  0  0  0  0  0  0
  147.7978  138.5700  155.1684 N   0  0  0  0  0  0  0  0  0  0  0  0
  147.8875  137.2268  155.1917 C   0  0  0  0  0  0  0  0  0  0  0  0
  148.8343  136.6392  155.7135 O   0  0  0  0  0  0  0  0  0  0  0  0
  146.8212  136.6581  154.5807 N   0  5  0  0  0  0  0  0  0  0  0  0
  145.9434  137.7062  154.0994 C   0  0  0  0  0  0  0  0  0  0  0  0
  145.8228  137.6342  152.5655 C   0  0  0  0  0  0  0  0  0  0  0  0
  144.5664  137.6011  154.7819 C   0  0  0  0  0  0  0  0  0  0  0  0
  146.6836  138.9568  154.5383 C   0  0  0  0  0  0  0  0  0  0  0  0
  146.2986  140.1086  154.3307 O   0  0  0  0  0  0  0  0  0  0  0  0
  151.3333  141.8196  157.5802 C   0  0  0  0  0  0  0  0  0  0  0  0
  150.9375  143.0268  158.1834 C   0  0  0  0  0  0  0  0  0  0  0  0
  151.4728  143.3875  159.4376 C   0  0  0  0  0  0  0  0  0  0  0  0
  151.0365  144.6918  160.0810 C   0  0  0  0  0  0  0  0  0  0  0  0
  153.6629  142.1189  161.7970 H   0  0  0  0  0  0  0  0  0  0  0  0
  152.2061  143.0388  162.1677 H   0  0  0  0  0  0  0  0  0  0  0  0
  153.5687  143.8226  161.3539 H   0  0  0  0  0  0  0  0  0  0  0  0
  153.5014  140.6679  159.9518 H   0  0  0  0  0  0  0  0  0  0  0  0
  151.6609  139.3454  155.5661 H   0  0  0  0  0  0  0  0  0  0  0  0
  149.3989  142.3676  155.7900 H   0  0  0  0  0  0  0  0  0  0  0  0
  150.6715  142.1888  154.6052 H   0  0  0  0  0  0  0  0  0  0  0  0
  148.4954  140.9057  154.1053 H   0  0  0  0  0  0  0  0  0  0  0  0
  149.8066  139.7888  152.9506 H   0  0  0  0  0  0  0  0  0  0  0  0
  149.6067  138.9552  156.2145 H   0  0  0  0  0  0  0  0  0  0  0  0
  148.3005  140.0428  156.5450 H   0  0  0  0  0  0  0  0  0  0  0  0
  145.1783  138.4263  152.1823 H   0  0  0  0  0  0  0  0  0  0  0  0
  145.3944  136.6827  152.2487 H   0  0  0  0  0  0  0  0  0  0  0  0
  146.7937  137.7351  152.0778 H   0  0  0  0  0  0  0  0  0  0  0  0
  143.8924  138.3846  154.4337 H   0  0  0  0  0  0  0  0  0  0  0  0
  144.6435  137.6920  155.8667 H   0  0  0  0  0  0  0  0  0  0  0  0
  144.0919  136.6430  154.5667 H   0  0  0  0  0  0  0  0  0  0  0  0
  150.2256  143.6682  157.6855 H   0  0  0  0  0  0  0  0  0  0  0  0
  150.3516  145.2435  159.4365 H   0  0  0  0  0  0  0  0  0  0  0  0
  151.8979  145.3306  160.2770 H   0  0  0  0  0  0  0  0  0  0  0  0
  150.5258  144.4985  161.0246 H   0  0  0  0  0  0  0  0  0  0  0  0
  1  2  1  0  0  0  0
  1 25  1  0  0  0  0
  1 26  1  0  0  0  0
  1 27  1  0  0  0  0
  2 23  1  0  0  0  0
  2  3  2  0  0  0  0
  3  4  1  0  0  0  0
  3 28  1  0  0  0  0
  4 21  2  0  0  0  0
  4  5  1  0  0  0  0
  5  6  2  0  0  0  0
  6  7  1  0  0  0  0
  6 29  1  0  0  0  0
  7  8  1  0  0  0  0
  7 21  1  0  0  0  0
  8  9  1  0  0  0  0
  8 30  1  0  0  0  0
  8 31  1  0  0  0  0
  9 10  1  0  0  0  0
  9 11  1  0  0  0  0
  9 32  1  0  0  0  0
 10 33  1  0  0  0  0
 11 12  1  0  0  0  0
 11 34  1  0  0  0  0
 11 35  1  0  0  0  0
 12 19  1  0  0  0  0
 12 13  1  0  0  0  0
 13 14  2  0  0  0  0
 13 15  1  0  0  0  0
 15 16  1  0  0  0  0
 16 17  1  0  0  0  0
 16 18  1  0  0  0  0
 16 19  1  0  0  0  0
 17 36  1  0  0  0  0
 17 37  1  0  0  0  0
 17 38  1  0  0  0  0
 18 39  1  0  0  0  0
 18 40  1  0  0  0  0
 18 41  1  0  0  0  0
 19 20  2  0  0  0  0
 21 22  1  0  0  0  0
 22 23  2  0  0  0  0
 22 42  1  0  0  0  0
 23 24  1  0  0  0  0
 24 43  1  0  0  0  0
 24 44  1  0  0  0  0
 24 45  1  0  0  0  0
M  CHG  1  15  -1
M  END
> <s_m_source_file>
AV-unprocessed.smi

> <i_m_source_file_index>
2026

> <i_lp_mmshare_version>
43012

> <i_f3d_flags>
0

> <s_epik_input>
W0NIM11jKFtjSF0xKWMoW0NIM10pW2NIXWMoYzEyKW4oW2NIXW4yKVtDSDJdW0NASF0oW09IXSlbQ0gyXU4oQzM9TylDKD1PKVtOSF1DMyhbQ0gzXSlbQ0gzXQ==

> <s_epik_cmdline>
J2VwaWtfcHl0aG9uJywgJy1waCcsICc3LjAnLCAnLXRuJywgJzgnLCAnLW1hJywgJzIwMCcsICctbWV0YWxfYmluZGluZycsICctaW1hZScsICc8aW5maWxlLm1hZT4nLCAnLW9tYWUnLCAnPG91dGZpbGUubWFlPic=

> <r_lp_tautomer_probability>
1

> <r_epik_Ionization_Penalty>
5.78785

> <r_epik_Ionization_Penalty_Charging>
5.68049

> <r_epik_Ionization_Penalty_Neutral>
0.107354

> <r_epik_State_Penalty>
5.7743

> <r_epik_Charging_Adjusted_Penalty>
11.4548

> <i_epik_Tot_Q>
-1

> <i_epik_Tot_abs_Q>
1

> <r_epik_Metal_State_Penalty>
1.83778

> <b_epik_Metal_Only>
1

> <s_lp_Force_Field>
OPLS_2005

> <r_lp_Energy>
18.252

> <b_lp_Chiralities_Consistent>
1

> <s_lp_Variant>
AV-unprocessed.smi:2026-6

> <Gold.Version>
5.8.1

> <Gold.Id.Protein>
6NUR|6NUR_protein|mol2

> <Gold.PLP.Fitness>
46.0695

> <Gold.PLP.PLP>
-38.5486

> <Gold.PLP.part.hbond>
-3.0000

> <Gold.PLP.part.metal>
0.0000

> <Gold.PLP.part.buried>
-5.1042

> <Gold.PLP.part.nonpolar>
-29.8065

> <Gold.PLP.part.repulsive>
0.2626

> <Gold.PLP.ligand.clash>
0.0000

> <Gold.PLP.ligand.torsion>
0.5608

> <Gold.PLP.Chemscore.Hbond>
2.8800

> <Gold.PLP.Chemscore.CHOScore>
0.0000

> <Gold.PLP.Chemscore.Metal>
0.0000

> <Gold.Chemscore.Hbonds>
donor molecule, donor type, donor heavy atom, donor atom, acceptor molecule, acceptor atom, score
      L1  H    10    33       P1  7957  1.00
      P1  H  7989  7998       L1    10  0.88
      P1  H  7997  8009       L1     5  0.86

> <Gold.PLP.Chemscore.Internal.Correction>
0.0025

> <Gold.Rescore>
     Score         DG    S(hbond)    S(metal)    S(lipo)     H(rot)  DE(clash)    DE(int)     intcor
     16.08     -19.13       2.42        0.00      99.60       2.38       0.25       2.79       ----

> <Gold.Chemscore.Fitness>
16.0819

> <Gold.Chemscore.DG>
-19.1254

> <Gold.Chemscore.ZeroCoef>
-5.4800

> <Gold.Chemscore.Hbond>
2.4194

> <Gold.Chemscore.Metal>
0.0000

> <Gold.Chemscore.Lipo>
99.5978

> <Gold.Chemscore.Internal_Hbond>
0.0000

> <Gold.Chemscore.DEClash>
0.2540

> <Gold.Chemscore.DEInternal>
2.7895

> <Gold.Chemscore.Rot>
2.3783

> <Gold.Chemscore.Internal.Correction>
   9.000000E+99

> <Gold.Chemscore.Hbonds>
donor molecule, donor type, donor heavy atom, donor atom, acceptor molecule, acceptor atom, score
      L1  H    10    33       P1  7957  0.99
      P1  H  7989  7998       L1    10  0.14
      P1  H  7997  8009       L1     5  0.10

> <Gold.Chemscore.Hbond.Weighted>
-8.0808

> <Gold.Chemscore.Metal.Weighted>
-0.0000

> <Gold.Chemscore.Lipo.Weighted>
-11.6529

> <Gold.Chemscore.Internal_Hbond.Weighted>
0.0000

> <Gold.Chemscore.DEClash.Weighted>
0.2540

> <Gold.Chemscore.DEInternal.Weighted>
2.7895

> <Gold.Chemscore.Rot.Weighted>
6.0884

> <Gold.Chemscore.Internal.Correction.Weighted>
   9.000000E+99

> <Gold.Protein.RotatedTorsions>
[ 6907 6896 6895 6894 ] final  -75.29 input  -60.11 | X-H torsion
[ 7974 7965 7964 7962 ] final -114.52 input  175.53 | X-H torsion
[ 8008 7997 7996 7995 ] final -173.22 input   59.86 | X-H torsion
[ 10167 10162 10161 10158 ] final   51.96 input  -65.29 | X-H torsion
[ 10718 10713 10712 10709 ] final   53.72 input   66.30 | X-H torsion
[ 10763 10752 10751 10750 ] final  -51.97 input  -60.55 | X-H torsion
[ 11005 11000 10999 10996 ] final   -4.44 input  -57.11 | X-H torsion

> <Gold.Protein.ActiveResidues>
 VAL166  LYS551  ARG553  GLY616  TRP617  ASP618  TYR619  PRO620  LYS621  CYS622 
 ASP623  PHE694  ASN695  SER759  ASP760  ASP761  ALA762  ILE779  LEU786  VAL792 
 PHE793  MET794  SER795  GLU796  ALA797  LYS798  CYS799  TRP800  GLU811  SER814 

> <Gold.Protein.RotatedAtoms>
  150.7064  134.4743  159.5439 H   0  0  0  0  0  0  0  0  0  0  0  0  # atno 6907 bound_to 6896
  152.2393  134.8242  160.0471 H   0  0  0  0  0  0  0  0  0  0  0  0  # atno 6908 bound_to 6896
  151.9029  133.3507  159.3874 H   0  0  0  0  0  0  0  0  0  0  0  0  # atno 6909 bound_to 6896
  145.1192  140.8659  143.3824 H   0  0  0  0  0  0  0  0  0  0  0  0  # atno 7974 bound_to 7965
  155.9546  140.1133  157.0948 H   0  0  0  0  0  0  0  0  0  0  0  0  # atno 8008 bound_to 7997
  154.4117  140.1194  156.5164 H   0  0  0  0  0  0  0  0  0  0  0  0  # atno 8009 bound_to 7997
  155.6798  140.3473  155.4853 H   0  0  0  0  0  0  0  0  0  0  0  0  # atno 8010 bound_to 7997
  140.2564  144.3422  150.6331 H   0  0  0  0  0  0  0  0  0  0  0  0  # atno 10167 bound_to 10162
  157.5192  130.8553  149.8536 H   0  0  0  0  0  0  0  0  0  0  0  0  # atno 10718 bound_to 10713
  154.1352  135.6514  153.4930 H   0  0  0  0  0  0  0  0  0  0  0  0  # atno 10763 bound_to 10752
  153.0183  135.5302  154.6961 H   0  0  0  0  0  0  0  0  0  0  0  0  # atno 10764 bound_to 10752
  154.6207  135.2964  155.0300 H   0  0  0  0  0  0  0  0  0  0  0  0  # atno 10765 bound_to 10752
  140.6803  133.9159  155.8551 H   0  0  0  0  0  0  0  0  0  0  0  0  # atno 11005 bound_to 11000
  145.0760  139.2996  143.5808 LP  0  0  0  0  0  0  0  0  0  0  0  0  # atno 17320 bound_to 7965
  146.3522  140.0250  142.8655 LP  0  0  0  0  0  0  0  0  0  0  0  0  # atno 17321 bound_to 7965
  140.6000  143.2167  151.7090 LP  0  0  0  0  0  0  0  0  0  0  0  0  # atno 17342 bound_to 10162
  139.5030  144.3807  152.0378 LP  0  0  0  0  0  0  0  0  0  0  0  0  # atno 17343 bound_to 10162
  156.0341  130.3756  150.1607 LP  0  0  0  0  0  0  0  0  0  0  0  0  # atno 17370 bound_to 10713
  156.9795  130.9859  151.3440 LP  0  0  0  0  0  0  0  0  0  0  0  0  # atno 17371 bound_to 10713
  141.0322  134.0739  157.4000 LP  0  0  0  0  0  0  0  0  0  0  0  0  # atno 17394 bound_to 11000
  139.8954  135.0140  156.6998 LP  0  0  0  0  0  0  0  0  0  0  0  0  # atno 17395 bound_to 11000

$$$$
