#       Name:                AV-unprocessed.smi:2533
#       Creating user name   scv26
#       Creation time:       Fri Mar 27 14:01:59 2020


#       File generated by GOLD software.
#

@<TRIPOS>MOLECULE
AV-unprocessed.smi:2533
    42    43     1
SMALL
NO_CHARGES


@<TRIPOS>ATOM
      1 ****        -4.7578  -1.9119  -1.1049 C.3            1 S1                 0.0000
      2 ****        -3.9866  -0.7463  -1.3569 O.3            1 S1                 0.0000
      3 ****        -2.6128  -0.8519  -1.3021 C.ar           1 S1                 0.0000
      4 ****        -1.9196  -2.0564  -1.0221 C.ar           1 S1                 0.0000
      5 ****        -0.5125  -2.0772  -0.9793 C.ar           1 S1                 0.0000
      6 ****         0.2261  -0.8991  -1.2150 C.ar           1 S1                 0.0000
      7 ****         1.7464  -0.9077  -1.1343 C.3            1 S1                 0.0000
      8 ****         2.3159  -1.9803  -1.8567 O.3            1 S1                 0.0000
      9 ****         2.2741  -0.9594   0.3175 C.3            1 S1                 0.0000
     10 ****         1.7434   0.1298   1.1501 N.am           1 S1                 0.0000
     11 ****         2.3370   1.3558   0.9027 N.2            1 S1                 0.0000
     12 ****         1.9686   2.4233   1.5346 C.2            1 S1                 0.0000
     13 ****         2.6695   3.7131   1.1864 C.3            1 S1                 0.0000
     14 ****         2.1998   4.7269   1.9139 F              1 S1                 0.0000
     15 ****         3.9784   3.5993   1.4139 F              1 S1                 0.0000
     16 ****         2.4880   3.9979  -0.1033 F              1 S1                 0.0000
     17 ****         0.9146   2.3257   2.5300 C.2            1 S1                 0.0000
     18 ****         0.3360   1.1298   2.7697 C.2            1 S1                 0.0000
     19 ****         0.7395  -0.0774   2.0534 C.2            1 S1                 0.0000
     20 ****         0.2155  -1.1750   2.2402 O.2            1 S1                 0.0000
     21 ****        -0.4595   0.3000  -1.4966 C.ar           1 S1                 0.0000
     22 ****        -1.8664   0.3216  -1.5389 C.ar           1 S1                 0.0000
     23 ****        -2.5060   1.4854  -1.8060 F              1 S1                 0.0000
     24 ****        -5.8172  -1.6656  -1.1764 H              1 S1                 0.0000
     25 ****        -4.5776  -2.3003  -0.1016 H              1 S1                 0.0000
     26 ****        -4.5509  -2.6927  -1.8378 H              1 S1                 0.0000
     27 ****        -2.4451  -2.9797  -0.8316 H              1 S1                 0.0000
     28 ****        -0.0008  -3.0012  -0.7527 H              1 S1                 0.0000
     29 ****         2.1155   0.0049  -1.6043 H              1 S1                 0.0000
     30 ****         2.0872  -1.8817  -2.7683 H              1 S1                 0.0000
     31 ****         2.0514  -1.9343   0.7546 H              1 S1                 0.0000
     32 ****         3.3638  -0.8961   0.3116 H              1 S1                 0.0000
     33 ****         0.5983   3.2047   3.0718 H              1 S1                 0.0000
     34 ****        -0.4476   1.0620   3.5100 H              1 S1                 0.0000
     35 ****         0.0915   1.2127  -1.6703 H              1 S1                 0.0000
     36 ****        -4.2586  -0.0589  -0.6835 LP             1 S1                 0.0000
     37 ****        -4.2234  -0.4261  -2.2742 LP             1 S1                 0.0000
     38 ****         1.9582  -2.8477  -1.5109 LP             1 S1                 0.0000
     39 ****         3.3106  -1.9655  -1.7548 LP             1 S1                 0.0000
     40 ****         3.0661   1.4178   0.2210 LP             1 S1                 0.0000
     41 ****         0.5217  -1.9706   1.7175 LP             1 S1                 0.0000
     42 ****        -0.5165  -1.2713   2.9146 LP             1 S1                 0.0000
@<TRIPOS>BOND
    1    1    2 1     
    2    1   24 1     
    3    1   25 1     
    4    1   26 1     
    5    2    3 1     
    6    3   22 ar    
    7    3    4 ar    
    8    4    5 ar    
    9    4   27 1     
   10    5    6 ar    
   11    5   28 1     
   12    6    7 1     
   13    6   21 ar    
   14    7    8 1     
   15    7    9 1     
   16    7   29 1     
   17    8   30 1     
   18    9   10 1     
   19    9   31 1     
   20    9   32 1     
   21   10   19 am    
   22   10   11 1     
   23   11   12 2     
   24   12   13 1     
   25   12   17 1     
   26   13   14 1     
   27   13   15 1     
   28   13   16 1     
   29   17   18 2     
   30   17   33 1     
   31   18   19 1     
   32   18   34 1     
   33   19   20 2     
   34   21   22 ar    
   35   21   35 1     
   36   22   23 1     
   37    2   36 1     
   38    2   37 1     
   39    8   38 1     
   40    8   39 1     
   41   11   40 1     
   42   20   41 1     
   43   20   42 1     
@<TRIPOS>SUBSTRUCTURE
      1 S1             1
@<TRIPOS>SET
LONE_PAIRS      STATIC     ATOMS    <user>   **** ""
7 36 37 38 39 40 41 42
DONOR_HYDROGENS      STATIC     ATOMS    <user>   **** ""
1 30
ATOM$BLUE        STATIC     ATOMS    COLORGROUP SYSTEM
7 36 37 38 39 40 41 42
ATOM$RED        STATIC     ATOMS    COLORGROUP SYSTEM
1 30
