AV-unprocessed.smi:3012|AV-procd|sdf|11461|dock3
  -GOLD-   2272016393D 1   1.00000     0.00000
 Structure written by MMmdl.
 17 17  0  0  0  0  0  0  0  0  2 V2000
  151.9750  136.8782  155.3020 O   0  0  0  0  0  0  0  0  0  0  0  0
  152.1694  138.0409  154.8849 C   0  0  0  0  0  0  0  0  0  0  0  0
  153.1718  138.7467  155.1317 O   0  5  0  0  0  0  0  0  0  0  0  0
  151.0853  138.6527  153.9971 C   0  0  0  0  0  0  0  0  0  0  0  0
  150.5032  139.9330  154.5734 C   0  0  0  0  0  0  0  0  0  0  0  0
  150.8690  140.4474  155.7756 C   0  0  0  0  0  0  0  0  0  0  0  0
  150.2828  141.6957  156.2632 C   0  0  0  0  0  0  0  0  0  0  0  0
  150.5501  142.2316  157.3369 O   0  0  0  0  0  0  0  0  0  0  0  0
  149.3527  142.2834  155.3967 N   0  0  0  0  0  0  0  0  0  0  0  0
  148.9758  141.7679  154.1557 C   0  0  0  0  0  0  0  0  0  0  0  0
  148.1528  142.3376  153.4433 O   0  0  0  0  0  0  0  0  0  0  0  0
  149.5819  140.5720  153.7647 N   0  0  0  0  0  0  0  0  0  0  0  0
  148.9220  143.1471  155.6929 H   0  0  0  0  0  0  0  0  0  0  0  0
  149.3221  140.1765  152.8726 H   0  0  0  0  0  0  0  0  0  0  0  0
  151.5046  138.8660  153.0132 H   0  0  0  0  0  0  0  0  0  0  0  0
  150.2961  137.9156  153.8393 H   0  0  0  0  0  0  0  0  0  0  0  0
  151.5996  139.9332  156.3839 H   0  0  0  0  0  0  0  0  0  0  0  0
  1  2  2  0  0  0  0
  2  3  1  0  0  0  0
  2  4  1  0  0  0  0
  4  5  1  0  0  0  0
  4 15  1  0  0  0  0
  4 16  1  0  0  0  0
  5 12  1  0  0  0  0
  5  6  2  0  0  0  0
  6  7  1  0  0  0  0
  6 17  1  0  0  0  0
  7  8  2  0  0  0  0
  7  9  1  0  0  0  0
  9 13  1  0  0  0  0
  9 10  1  0  0  0  0
 10 11  2  0  0  0  0
 10 12  1  0  0  0  0
 12 14  1  0  0  0  0
M  CHG  1   3  -1
M  END
> <s_m_source_file>
AV-unprocessed.smi

> <i_m_source_file_index>
3012

> <i_lp_mmshare_version>
43012

> <i_f3d_flags>
0

> <s_epik_input>
Tz1DKFtPSF0pW0NIMl1jMVtjSF1jKD1PKVtuSF1jKD1PKVtuSF0x

> <s_epik_cmdline>
J2VwaWtfcHl0aG9uJywgJy1waCcsICc3LjAnLCAnLXRuJywgJzgnLCAnLW1hJywgJzIwMCcsICctbWV0YWxfYmluZGluZycsICctaW1hZScsICc8aW5maWxlLm1hZT4nLCAnLW9tYWUnLCAnPG91dGZpbGUubWFlPic=

> <r_lp_tautomer_probability>
1

> <r_epik_Ionization_Penalty>
0.00187741

> <r_epik_Ionization_Penalty_Charging>
0.00187741

> <r_epik_Ionization_Penalty_Neutral>
1.02484e-13

> <r_epik_State_Penalty>
-0

> <r_epik_Charging_Adjusted_Penalty>
0.00187741

> <i_epik_Tot_Q>
-1

> <i_epik_Tot_abs_Q>
1

> <r_epik_Metal_State_Penalty>
0.67268

> <b_epik_Metal_Only>
0

> <s_lp_Force_Field>
OPLS_2005

> <r_lp_Energy>
0.757272

> <b_lp_Chiralities_Consistent>
1

> <s_lp_Variant>
AV-unprocessed.smi:3012-1

> <Gold.Version>
5.8.1

> <Gold.Id.Protein>
6NUR|6NUR_protein|mol2

> <Gold.PLP.Fitness>
38.4248

> <Gold.PLP.PLP>
-22.0535

> <Gold.PLP.part.hbond>
-5.0000

> <Gold.PLP.part.metal>
0.0000

> <Gold.PLP.part.buried>
-1.2343

> <Gold.PLP.part.nonpolar>
-16.4973

> <Gold.PLP.part.repulsive>
1.1250

> <Gold.PLP.ligand.clash>
0.0000

> <Gold.PLP.ligand.torsion>
0.0124

> <Gold.PLP.Chemscore.Hbond>
5.4649

> <Gold.PLP.Chemscore.CHOScore>
0.0000

> <Gold.PLP.Chemscore.Metal>
0.0000

> <Gold.Chemscore.Hbonds>
donor molecule, donor type, donor heavy atom, donor atom, acceptor molecule, acceptor atom, score
      L1  H     9    13       P1  8028  0.99
      L1  H    12    14       P1  7957  0.98
      P1  H  7997  8010       L1     3  1.82
      P1  H 10752 10764       L1     1  1.82

> <Gold.PLP.Chemscore.Internal.Correction>
0.0012

> <Gold.Rescore>
     Score         DG    S(hbond)    S(metal)    S(lipo)     H(rot)  DE(clash)    DE(int)     intcor
     11.58     -12.92       2.77        0.00      21.82       1.70       0.01       1.34       ----

> <Gold.Chemscore.Fitness>
11.5766

> <Gold.Chemscore.DG>
-12.9232

> <Gold.Chemscore.ZeroCoef>
-5.4800

> <Gold.Chemscore.Hbond>
2.7669

> <Gold.Chemscore.Metal>
0.0000

> <Gold.Chemscore.Lipo>
21.8190

> <Gold.Chemscore.Internal_Hbond>
0.0000

> <Gold.Chemscore.DEClash>
0.0077

> <Gold.Chemscore.DEInternal>
1.3389

> <Gold.Chemscore.Rot>
1.6997

> <Gold.Chemscore.Internal.Correction>
   9.000000E+99

> <Gold.Chemscore.Hbonds>
donor molecule, donor type, donor heavy atom, donor atom, acceptor molecule, acceptor atom, score
      L1  H     9    13       P1  8028  0.90
      L1  H    12    14       P1  7957  0.93
      P1  H  7997  8010       L1     3  0.85
      P1  H  8022  8030       L1    11  0.02
      P1  H 10752 10764       L1     1  0.87

> <Gold.Chemscore.Hbond.Weighted>
-9.2416

> <Gold.Chemscore.Metal.Weighted>
-0.0000

> <Gold.Chemscore.Lipo.Weighted>
-2.5528

> <Gold.Chemscore.Internal_Hbond.Weighted>
0.0000

> <Gold.Chemscore.DEClash.Weighted>
0.0077

> <Gold.Chemscore.DEInternal.Weighted>
1.3389

> <Gold.Chemscore.Rot.Weighted>
4.3512

> <Gold.Chemscore.Internal.Correction.Weighted>
   9.000000E+99

> <Gold.Protein.RotatedTorsions>
[ 6907 6896 6895 6894 ] final  -97.14 input  -60.11 | X-H torsion
[ 7974 7965 7964 7962 ] final -170.26 input  175.53 | X-H torsion
[ 8008 7997 7996 7995 ] final  103.54 input   59.86 | X-H torsion
[ 10167 10162 10161 10158 ] final -137.06 input  -65.29 | X-H torsion
[ 10718 10713 10712 10709 ] final   46.05 input   66.30 | X-H torsion
[ 10763 10752 10751 10750 ] final  -37.04 input  -60.55 | X-H torsion
[ 11005 11000 10999 10996 ] final  -49.05 input  -57.11 | X-H torsion

> <Gold.Protein.ActiveResidues>
 VAL166  LYS551  ARG553  GLY616  TRP617  ASP618  TYR619  PRO620  LYS621  CYS622 
 ASP623  PHE694  ASN695  SER759  ASP760  ASP761  ALA762  ILE779  LEU786  VAL792 
 PHE793  MET794  SER795  GLU796  ALA797  LYS798  CYS799  TRP800  GLU811  SER814 

> <Gold.Protein.RotatedAtoms>
  150.7008  134.1394  159.4099 H   0  0  0  0  0  0  0  0  0  0  0  0  # atno 6907 bound_to 6896
  151.9379  135.0224  160.0543 H   0  0  0  0  0  0  0  0  0  0  0  0  # atno 6908 bound_to 6896
  152.2119  133.4882  159.5151 H   0  0  0  0  0  0  0  0  0  0  0  0  # atno 6909 bound_to 6896
  144.7172  140.2098  143.6329 H   0  0  0  0  0  0  0  0  0  0  0  0  # atno 7974 bound_to 7965
  156.1493  140.3163  155.8622 H   0  0  0  0  0  0  0  0  0  0  0  0  # atno 8008 bound_to 7997
  155.4002  140.0499  157.3054 H   0  0  0  0  0  0  0  0  0  0  0  0  # atno 8009 bound_to 7997
  154.5044  140.2141  155.9292 H   0  0  0  0  0  0  0  0  0  0  0  0  # atno 8010 bound_to 7997
  139.8615  143.7071  152.2649 H   0  0  0  0  0  0  0  0  0  0  0  0  # atno 10167 bound_to 10162
  157.4440  130.8098  149.7722 H   0  0  0  0  0  0  0  0  0  0  0  0  # atno 10718 bound_to 10713
  153.8897  135.6813  153.4761 H   0  0  0  0  0  0  0  0  0  0  0  0  # atno 10763 bound_to 10752
  153.1188  135.4749  154.9158 H   0  0  0  0  0  0  0  0  0  0  0  0  # atno 10764 bound_to 10752
  154.7628  135.3216  154.8297 H   0  0  0  0  0  0  0  0  0  0  0  0  # atno 10765 bound_to 10752
  141.0736  133.6672  156.3529 H   0  0  0  0  0  0  0  0  0  0  0  0  # atno 11005 bound_to 11000
  145.8602  139.2219  143.1721 LP  0  0  0  0  0  0  0  0  0  0  0  0  # atno 17320 bound_to 7965
  146.0181  140.8374  142.9937 LP  0  0  0  0  0  0  0  0  0  0  0  0  # atno 17321 bound_to 7965
  139.7369  144.7569  151.0713 LP  0  0  0  0  0  0  0  0  0  0  0  0  # atno 17342 bound_to 10162
  140.7774  143.5020  150.9760 LP  0  0  0  0  0  0  0  0  0  0  0  0  # atno 17343 bound_to 10162
  155.9960  130.3908  150.2797 LP  0  0  0  0  0  0  0  0  0  0  0  0  # atno 17370 bound_to 10713
  157.0964  131.0183  151.3102 LP  0  0  0  0  0  0  0  0  0  0  0  0  # atno 17371 bound_to 10713
  140.5620  134.5925  157.5436 LP  0  0  0  0  0  0  0  0  0  0  0  0  # atno 17394 bound_to 11000
  139.9549  134.7552  156.0364 LP  0  0  0  0  0  0  0  0  0  0  0  0  # atno 17395 bound_to 11000

$$$$
