AV-unprocessed.smi:99|AV-procd|sdf|892|dock7
  -GOLD-   2262017383D 1   1.00000     0.00000
 Structure written by MMmdl.
 52 55  0  0  0  0  0  0  0  0  2 V2000
  148.6455  131.4798  153.2241 O   0  0  0  0  0  0  0  0  0  0  0  0
  148.1553  132.6107  153.2191 C   0  0  0  0  0  0  0  0  0  0  0  0
  148.6598  133.6452  153.9176 O   0  0  0  0  0  0  0  0  0  0  0  0
  149.8077  133.4628  154.7326 C   0  0  0  0  0  0  0  0  0  0  0  0
  149.8546  134.5333  155.8315 C   0  0  1  0  0  0  0  0  0  0  0  0
  150.9638  135.3924  155.6035 O   0  0  0  0  0  0  0  0  0  0  0  0
  150.5586  136.7103  155.4010 C   0  0  2  0  0  0  0  0  0  0  0  0
  151.3322  137.5951  156.3585 N   0  0  0  0  0  0  0  0  0  0  0  0
  151.4117  137.2251  157.6896 C   0  0  0  0  0  0  0  0  0  0  0  0
  152.0597  137.9846  158.5968 C   0  0  0  0  0  0  0  0  0  0  0  0
  152.6852  139.2324  158.1702 C   0  0  0  0  0  0  0  0  0  0  0  0
  153.2881  139.9110  158.9994 O   0  0  0  0  0  0  0  0  0  0  0  0
  152.5693  139.5923  156.8598 N   0  5  0  0  0  0  0  0  0  0  0  0
  151.9061  138.8307  155.9414 C   0  0  0  0  0  0  0  0  0  0  0  0
  151.7805  139.1687  154.7660 O   0  0  0  0  0  0  0  0  0  0  0  0
  149.0335  136.8144  155.5914 C   0  0  1  0  0  0  0  0  0  0  0  0
  148.3820  137.2458  154.4143 O   0  0  0  0  0  0  0  0  0  0  0  0
  148.5849  135.3911  155.9174 C   0  0  2  0  0  0  0  0  0  0  0  0
  148.0412  135.3165  157.2298 O   0  0  0  0  0  0  0  0  0  0  0  0
  147.9593  134.1392  157.8831 C   0  0  0  0  0  0  0  0  0  0  0  0
  148.0715  133.0419  157.3325 O   0  0  0  0  0  0  0  0  0  0  0  0
  147.7157  134.3069  159.3444 C   0  0  0  0  0  0  0  0  0  0  0  0
  147.5623  133.1605  160.1586 C   0  0  0  0  0  0  0  0  0  0  0  0
  147.3292  133.2892  161.5417 C   0  0  0  0  0  0  0  0  0  0  0  0
  147.2441  134.5661  162.1268 C   0  0  0  0  0  0  0  0  0  0  0  0
  147.3922  135.7142  161.3270 C   0  0  0  0  0  0  0  0  0  0  0  0
  147.6269  135.5876  159.9440 C   0  0  0  0  0  0  0  0  0  0  0  0
  146.9365  132.9762  152.4413 C   0  0  0  0  0  0  0  0  0  0  0  0
  146.2431  131.9716  151.7266 C   0  0  0  0  0  0  0  0  0  0  0  0
  145.0876  132.2866  150.9852 C   0  0  0  0  0  0  0  0  0  0  0  0
  144.6131  133.6103  150.9474 C   0  0  0  0  0  0  0  0  0  0  0  0
  145.2950  134.6190  151.6528 C   0  0  0  0  0  0  0  0  0  0  0  0
  146.4496  134.3058  152.3960 C   0  0  0  0  0  0  0  0  0  0  0  0
  149.7775  132.4729  155.1907 H   0  0  0  0  0  0  0  0  0  0  0  0
  150.7081  133.5112  154.1189 H   0  0  0  0  0  0  0  0  0  0  0  0
  150.0329  134.0307  156.7832 H   0  0  0  0  0  0  0  0  0  0  0  0
  150.8713  137.0153  154.4013 H   0  0  0  0  0  0  0  0  0  0  0  0
  150.9505  136.3060  158.0195 H   0  0  0  0  0  0  0  0  0  0  0  0
  152.1130  137.6754  159.6303 H   0  0  0  0  0  0  0  0  0  0  0  0
  148.7919  137.5185  156.3888 H   0  0  0  0  0  0  0  0  0  0  0  0
  148.7988  136.8297  153.6749 H   0  0  0  0  0  0  0  0  0  0  0  0
  147.8478  135.0308  155.1970 H   0  0  0  0  0  0  0  0  0  0  0  0
  147.6227  132.1700  159.7311 H   0  0  0  0  0  0  0  0  0  0  0  0
  147.2148  132.4067  162.1538 H   0  0  0  0  0  0  0  0  0  0  0  0
  147.0640  134.6647  163.1872 H   0  0  0  0  0  0  0  0  0  0  0  0
  147.3241  136.6955  161.7732 H   0  0  0  0  0  0  0  0  0  0  0  0
  147.7313  136.4897  159.3582 H   0  0  0  0  0  0  0  0  0  0  0  0
  146.5887  130.9481  151.7403 H   0  0  0  0  0  0  0  0  0  0  0  0
  144.5650  131.5107  150.4454 H   0  0  0  0  0  0  0  0  0  0  0  0
  143.7273  133.8513  150.3783 H   0  0  0  0  0  0  0  0  0  0  0  0
  144.9319  135.6357  151.6251 H   0  0  0  0  0  0  0  0  0  0  0  0
  146.9500  135.1039  152.9246 H   0  0  0  0  0  0  0  0  0  0  0  0
  1  2  2  0  0  0  0
  2  3  1  0  0  0  0
  2 28  1  0  0  0  0
  3  4  1  0  0  0  0
  4  5  1  0  0  0  0
  4 34  1  0  0  0  0
  4 35  1  0  0  0  0
  5 18  1  0  0  0  0
  5  6  1  0  0  0  0
  5 36  1  0  0  0  0
  6  7  1  0  0  0  0
  7  8  1  0  0  0  0
  7 16  1  0  0  0  0
  7 37  1  0  0  0  0
  8 14  1  0  0  0  0
  8  9  1  0  0  0  0
  9 10  2  0  0  0  0
  9 38  1  0  0  0  0
 10 11  1  0  0  0  0
 10 39  1  0  0  0  0
 11 12  2  0  0  0  0
 11 13  1  0  0  0  0
 13 14  1  0  0  0  0
 14 15  2  0  0  0  0
 16 17  1  0  0  0  0
 16 18  1  0  0  0  0
 16 40  1  0  0  0  0
 17 41  1  0  0  0  0
 18 19  1  0  0  0  0
 18 42  1  0  0  0  0
 19 20  1  0  0  0  0
 20 21  2  0  0  0  0
 20 22  1  0  0  0  0
 22 27  1  0  0  0  0
 22 23  2  0  0  0  0
 23 24  1  0  0  0  0
 23 43  1  0  0  0  0
 24 25  2  0  0  0  0
 24 44  1  0  0  0  0
 25 26  1  0  0  0  0
 25 45  1  0  0  0  0
 26 27  2  0  0  0  0
 26 46  1  0  0  0  0
 27 47  1  0  0  0  0
 28 33  1  0  0  0  0
 28 29  2  0  0  0  0
 29 30  1  0  0  0  0
 29 48  1  0  0  0  0
 30 31  2  0  0  0  0
 30 49  1  0  0  0  0
 31 32  1  0  0  0  0
 31 50  1  0  0  0  0
 32 33  2  0  0  0  0
 32 51  1  0  0  0  0
 33 52  1  0  0  0  0
M  CHG  1  13  -1
M  END
> <s_m_source_file>
AV-unprocessed.smi

> <i_m_source_file_index>
99

> <i_lp_mmshare_version>
43012

> <i_f3d_flags>
0

> <s_epik_input>
W2NIXTFbY0hdW2NIXVtjSF1bY0hdYzFDKD1PKU9bQ0gyXVtDQEBIXTJPW0NAQEhdKG4zW2NIXVtjSF1jKD1PKVtuSF1jMz1PKVtDQEBIXShbT0hdKVtDQEhdMk9DKD1PKWM0W2NIXVtjSF1bY0hdW2NIXVtjSF00

> <s_epik_cmdline>
J2VwaWtfcHl0aG9uJywgJy1waCcsICc3LjAnLCAnLXRuJywgJzgnLCAnLW1hJywgJzIwMCcsICctbWV0YWxfYmluZGluZycsICctaW1hZScsICc8aW5maWxlLm1hZT4nLCAnLW9tYWUnLCAnPG91dGZpbGUubWFlPic=

> <r_lp_tautomer_probability>
1

> <r_epik_Ionization_Penalty>
2.89159

> <r_epik_Ionization_Penalty_Charging>
2.1077e-08

> <r_epik_Ionization_Penalty_Neutral>
2.89159

> <r_epik_State_Penalty>
2.88671

> <r_epik_Charging_Adjusted_Penalty>
2.88671

> <i_epik_Tot_Q>
-1

> <i_epik_Tot_abs_Q>
1

> <r_epik_Metal_State_Penalty>
0.0727308

> <b_epik_Metal_Only>
1

> <s_epik_Chemistry_Notes>
This compound has an ester and may undergo hydrolysis at high or low pH. This compound contains an acetal/aminal-like group ( X-CH(R)-Y where X, Y are N, S, or O) that may be acid/base labile, releasing an aldehyde.

> <s_lp_Force_Field>
OPLS_2005

> <r_lp_Energy>
36.8261

> <b_lp_Chiralities_Consistent>
1

> <s_lp_Variant>
AV-unprocessed.smi:99-28

> <Gold.Version>
5.8.1

> <Gold.Id.Protein>
6NUR|6NUR_protein|mol2

> <Gold.PLP.Fitness>
57.8876

> <Gold.PLP.PLP>
-45.8233

> <Gold.PLP.part.hbond>
-4.9237

> <Gold.PLP.part.metal>
0.0000

> <Gold.PLP.part.buried>
-6.6656

> <Gold.PLP.part.nonpolar>
-34.6813

> <Gold.PLP.part.repulsive>
1.0597

> <Gold.PLP.ligand.clash>
0.0000

> <Gold.PLP.ligand.torsion>
1.5759

> <Gold.PLP.Chemscore.Hbond>
4.9913

> <Gold.PLP.Chemscore.CHOScore>
0.0000

> <Gold.PLP.Chemscore.Metal>
0.0000

> <Gold.Chemscore.Hbonds>
donor molecule, donor type, donor heavy atom, donor atom, acceptor molecule, acceptor atom, score
      L1  H    17    41       P1  7948  1.00
      P1  H  7989  7998       L1    15  0.80
      P1  H  7997  8008       L1    13  1.92
      P1  H 10752 10764       L1     6  0.60

> <Gold.PLP.Chemscore.Internal.Correction>
0.2424

> <Gold.Rescore>
     Score         DG    S(hbond)    S(metal)    S(lipo)     H(rot)  DE(clash)    DE(int)     intcor
     14.56     -17.44       2.77        0.00      91.63       3.13       0.08       2.80       ----

> <Gold.Chemscore.Fitness>
14.5559

> <Gold.Chemscore.DG>
-17.4402

> <Gold.Chemscore.ZeroCoef>
-5.4800

> <Gold.Chemscore.Hbond>
2.7735

> <Gold.Chemscore.Metal>
0.0000

> <Gold.Chemscore.Lipo>
91.6343

> <Gold.Chemscore.Internal_Hbond>
0.0000

> <Gold.Chemscore.DEClash>
0.0796

> <Gold.Chemscore.DEInternal>
2.8048

> <Gold.Chemscore.Rot>
3.1346

> <Gold.Chemscore.Internal.Correction>
   9.000000E+99

> <Gold.Chemscore.Hbonds>
donor molecule, donor type, donor heavy atom, donor atom, acceptor molecule, acceptor atom, score
      L1  H    17    41       P1  7948  0.99
      P1  H  7989  7998       L1    15  0.76
      P1  H  7997  8008       L1    13  0.48
      P1  H 10752 10764       L1     6  0.13

> <Gold.Chemscore.Hbond.Weighted>
-9.2636

> <Gold.Chemscore.Metal.Weighted>
-0.0000

> <Gold.Chemscore.Lipo.Weighted>
-10.7212

> <Gold.Chemscore.Internal_Hbond.Weighted>
0.0000

> <Gold.Chemscore.DEClash.Weighted>
0.0796

> <Gold.Chemscore.DEInternal.Weighted>
2.8048

> <Gold.Chemscore.Rot.Weighted>
8.0246

> <Gold.Chemscore.Internal.Correction.Weighted>
   9.000000E+99

> <Gold.Protein.RotatedTorsions>
[ 6907 6896 6895 6894 ] final   51.05 input  -60.11 | X-H torsion
[ 7974 7965 7964 7962 ] final  141.60 input  175.53 | X-H torsion
[ 8008 7997 7996 7995 ] final  -33.88 input   59.86 | X-H torsion
[ 10167 10162 10161 10158 ] final   23.53 input  -65.29 | X-H torsion
[ 10718 10713 10712 10709 ] final  118.84 input   66.30 | X-H torsion
[ 10763 10752 10751 10750 ] final  -49.34 input  -60.55 | X-H torsion
[ 11005 11000 10999 10996 ] final  160.79 input  -57.11 | X-H torsion

> <Gold.Protein.ActiveResidues>
 VAL166  LYS551  ARG553  GLY616  TRP617  ASP618  TYR619  PRO620  LYS621  CYS622 
 ASP623  PHE694  ASN695  SER759  ASP760  ASP761  ALA762  ILE779  LEU786  VAL792 
 PHE793  MET794  SER795  GLU796  ALA797  LYS798  CYS799  TRP800  GLU811  SER814 

> <Gold.Protein.RotatedAtoms>
  152.3085  134.7526  160.0341 H   0  0  0  0  0  0  0  0  0  0  0  0  # atno 6907 bound_to 6896
  151.8015  133.3365  159.3536 H   0  0  0  0  0  0  0  0  0  0  0  0  # atno 6908 bound_to 6896
  150.7308  134.5679  159.5920 H   0  0  0  0  0  0  0  0  0  0  0  0  # atno 6909 bound_to 6896
  144.9081  139.5330  143.5721 H   0  0  0  0  0  0  0  0  0  0  0  0  # atno 7974 bound_to 7965
  154.4136  140.1699  156.1959 H   0  0  0  0  0  0  0  0  0  0  0  0  # atno 8008 bound_to 7997
  155.9564  140.3397  155.6429 H   0  0  0  0  0  0  0  0  0  0  0  0  # atno 8009 bound_to 7997
  155.6804  140.0722  157.2477 H   0  0  0  0  0  0  0  0  0  0  0  0  # atno 8010 bound_to 7997
  140.5261  143.9920  150.6441 H   0  0  0  0  0  0  0  0  0  0  0  0  # atno 10167 bound_to 10162
  157.6003  131.1052  150.7813 H   0  0  0  0  0  0  0  0  0  0  0  0  # atno 10718 bound_to 10713
  154.0924  135.6575  153.4854 H   0  0  0  0  0  0  0  0  0  0  0  0  # atno 10763 bound_to 10752
  153.0317  135.5205  154.7367 H   0  0  0  0  0  0  0  0  0  0  0  0  # atno 10764 bound_to 10752
  154.6495  135.2999  154.9973 H   0  0  0  0  0  0  0  0  0  0  0  0  # atno 10765 bound_to 10752
  140.2094  134.8278  157.3105 H   0  0  0  0  0  0  0  0  0  0  0  0  # atno 11005 bound_to 11000
  146.3144  139.7866  142.8994 LP  0  0  0  0  0  0  0  0  0  0  0  0  # atno 17320 bound_to 7965
  145.3500  141.0305  143.3344 LP  0  0  0  0  0  0  0  0  0  0  0  0  # atno 17321 bound_to 7965
  140.3283  143.3094  152.0714 LP  0  0  0  0  0  0  0  0  0  0  0  0  # atno 17342 bound_to 10162
  139.4939  144.6527  151.6641 LP  0  0  0  0  0  0  0  0  0  0  0  0  # atno 17343 bound_to 10162
  156.8213  130.4985  149.5343 LP  0  0  0  0  0  0  0  0  0  0  0  0  # atno 17370 bound_to 10713
  156.1074  130.6015  150.9993 LP  0  0  0  0  0  0  0  0  0  0  0  0  # atno 17371 bound_to 10713
  140.1967  134.4305  155.7685 LP  0  0  0  0  0  0  0  0  0  0  0  0  # atno 17394 bound_to 11000
  141.2226  133.7052  156.8116 LP  0  0  0  0  0  0  0  0  0  0  0  0  # atno 17395 bound_to 11000

$$$$
