#       Name:                AV-unprocessed.smi:2329
#       Creating user name   scv26
#       Creation time:       Fri Mar 27 12:52:52 2020


#       File generated by GOLD software.
#

@<TRIPOS>MOLECULE
AV-unprocessed.smi:2329
    50    53     1
SMALL
NO_CHARGES


@<TRIPOS>ATOM
      1 ****        -5.2997   2.8858   0.5993 C.3            1 S1                 0.0000
      2 ****        -4.5696   1.6507   0.1145 C.ar           1 S1                 0.0000
      3 ****        -5.2646   0.4540  -0.1493 C.ar           1 S1                 0.0000
      4 ****        -4.5266  -0.6564  -0.5965 C.ar           1 S1                 0.0000
      5 ****        -3.1343  -0.5256  -0.7604 C.ar           1 S1                 0.0000
      6 ****        -2.5144   0.7114  -0.4743 C.ar           1 S1                 0.0000
      7 ****        -1.1086   0.7353  -0.6639 N.am           1 S1                 0.0000
      8 ****        -0.2502   1.7511  -0.4490 C.2            1 S1                 0.0000
      9 ****        -0.5792   2.8970  -0.1477 O.2            1 S1                 0.0000
     10 ****         1.0422   1.4140  -0.6031 N.am           1 S1                 0.0000
     11 ****         2.2155   2.2748  -0.4444 C.3            1 S1                 0.0000
     12 ****         3.5137   1.5440  -0.7905 C.3            1 S1                 0.0000
     13 ****         4.6882   1.0812  -0.0038 C.3            1 S1                 0.0000
     14 ****         5.8017   1.6205  -0.9405 C.3            1 S1                 0.0000
     15 ****         5.1332   2.4710  -1.9031 O.3            1 S1                 0.0000
     16 ****         3.9827   2.9192  -1.2160 C.3            1 S1                 0.0000
     17 ****         2.5417   3.1760  -1.6997 C.3            1 S1                 0.0000
     18 ****         2.1443   2.7094  -3.1114 C.3            1 S1                 0.0000
     19 ****         0.9297   3.5346  -3.5249 C.3            1 S1                 0.0000
     20 ****         1.1475   4.8913  -2.8643 C.3            1 S1                 0.0000
     21 ****         2.0612   4.6325  -1.6600 C.3            1 S1                 0.0000
     22 ****        -3.2344   1.7769  -0.0434 N.ar           1 S1                 0.0000
     23 ****        -6.3518   2.6737   0.7914 H              1 S1                 0.0000
     24 ****        -5.2416   3.6772  -0.1485 H              1 S1                 0.0000
     25 ****        -4.8533   3.2531   1.5238 H              1 S1                 0.0000
     26 ****        -6.3339   0.3857  -0.0133 H              1 S1                 0.0000
     27 ****        -5.0189  -1.5936  -0.8102 H              1 S1                 0.0000
     28 ****        -2.5523  -1.3693  -1.1022 H              1 S1                 0.0000
     29 ****        -0.6947  -0.1414  -0.9441 H              1 S1                 0.0000
     30 ****         1.2298   0.4612  -0.8805 H              1 S1                 0.0000
     31 ****         2.2628   2.7976   0.5156 H              1 S1                 0.0000
     32 ****         3.3591   0.8736  -1.6416 H              1 S1                 0.0000
     33 ****         4.7246   1.5433   0.9837 H              1 S1                 0.0000
     34 ****         4.7230  -0.0027   0.1080 H              1 S1                 0.0000
     35 ****         6.5404   2.1917  -0.3766 H              1 S1                 0.0000
     36 ****         6.3214   0.8164  -1.4620 H              1 S1                 0.0000
     37 ****         4.2607   3.5737  -0.3816 H              1 S1                 0.0000
     38 ****         2.9629   2.9006  -3.8066 H              1 S1                 0.0000
     39 ****         1.9219   1.6443  -3.1756 H              1 S1                 0.0000
     40 ****         0.8189   3.6063  -4.6073 H              1 S1                 0.0000
     41 ****         0.0224   3.0768  -3.1300 H              1 S1                 0.0000
     42 ****         1.6460   5.5646  -3.5626 H              1 S1                 0.0000
     43 ****         0.2049   5.3575  -2.5749 H              1 S1                 0.0000
     44 ****         1.5297   4.8443  -0.7326 H              1 S1                 0.0000
     45 ****         2.9055   5.3223  -1.6875 H              1 S1                 0.0000
     46 ****        -1.5465   3.1290  -0.0459 LP             1 S1                 0.0000
     47 ****         0.1206   3.5968  -0.0046 LP             1 S1                 0.0000
     48 ****         4.8806   1.9535  -2.7207 LP             1 S1                 0.0000
     49 ****         5.7156   3.2412  -2.1629 LP             1 S1                 0.0000
     50 ****        -2.7816   2.6461   0.1551 LP             1 S1                 0.0000
@<TRIPOS>BOND
    1    1    2 1     
    2    1   23 1     
    3    1   24 1     
    4    1   25 1     
    5    2   22 ar    
    6    2    3 ar    
    7    3    4 ar    
    8    3   26 1     
    9    4    5 ar    
   10    4   27 1     
   11    5    6 ar    
   12    5   28 1     
   13    6    7 1     
   14    6   22 ar    
   15    7    8 am    
   16    7   29 1     
   17    8    9 2     
   18    8   10 am    
   19   10   11 1     
   20   10   30 1     
   21   11   17 1     
   22   11   12 1     
   23   11   31 1     
   24   12   16 1     
   25   12   13 1     
   26   12   32 1     
   27   13   14 1     
   28   13   33 1     
   29   13   34 1     
   30   14   15 1     
   31   14   35 1     
   32   14   36 1     
   33   15   16 1     
   34   16   17 1     
   35   16   37 1     
   36   17   21 1     
   37   17   18 1     
   38   18   19 1     
   39   18   38 1     
   40   18   39 1     
   41   19   20 1     
   42   19   40 1     
   43   19   41 1     
   44   20   21 1     
   45   20   42 1     
   46   20   43 1     
   47   21   44 1     
   48   21   45 1     
   49    9   46 1     
   50    9   47 1     
   51   15   48 1     
   52   15   49 1     
   53   22   50 1     
@<TRIPOS>SUBSTRUCTURE
      1 S1             1
@<TRIPOS>SET
LONE_PAIRS      STATIC     ATOMS    <user>   **** ""
5 46 47 48 49 50
DONOR_HYDROGENS      STATIC     ATOMS    <user>   **** ""
2 29 30
ATOM$BLUE        STATIC     ATOMS    COLORGROUP SYSTEM
5 46 47 48 49 50
ATOM$RED        STATIC     ATOMS    COLORGROUP SYSTEM
2 29 30
