AV-unprocessed.smi:1932|AV-procd|sdf|7814|dock5
  -GOLD-   22720 9553D 1   1.00000     0.00000
 Structure written by MMmdl.
 44 45  0  0  0  0  0  0  0  0  1 V2000
  147.5063  135.4646  162.2090 C   0  0  0  0  0  0  0  0  0  0  0  0
  147.3346  136.4487  161.0479 C   0  0  0  0  0  0  0  0  0  0  0  0
  147.0288  137.6112  161.3148 O   0  0  0  0  0  0  0  0  0  0  0  0
  147.5227  136.0158  159.7768 N   0  0  0  0  0  0  0  0  0  0  0  0
  147.8643  134.6149  159.5143 C   0  0  0  0  0  0  0  0  0  0  0  0
  147.3681  136.8658  158.5827 C   0  0  0  0  0  0  0  0  0  0  0  0
  148.5550  137.7989  158.2884 C   0  0  0  0  0  0  0  0  0  0  0  0
  149.6993  137.3741  158.4421 O   0  0  0  0  0  0  0  0  0  0  0  0
  148.2936  139.0545  157.8898 N   0  0  0  0  0  0  0  0  0  0  0  0
  149.2922  140.0884  157.6497 C   0  0  0  0  0  0  0  0  0  0  0  0
  150.3601  139.6335  156.6637 C   0  0  0  0  0  0  0  0  0  0  0  0
  150.0042  138.7764  155.6011 C   0  0  0  0  0  0  0  0  0  0  0  0
  151.0024  138.3290  154.7167 C   0  0  0  0  0  0  0  0  0  0  0  0
  152.3254  138.7558  154.9336 C   0  0  0  0  0  0  0  0  0  0  0  0
  152.6813  139.5775  155.9429 N   0  0  0  0  0  0  0  0  0  0  0  0
  151.7223  140.0135  156.7955 C   0  0  0  0  0  0  0  0  0  0  0  0
  152.1156  140.8935  157.8187 N   0  0  0  0  0  0  0  0  0  0  0  0
  152.1306  140.2702  159.1352 C   0  0  0  0  0  0  0  0  0  0  0  0
  152.7946  141.2143  160.1522 C   0  0  0  0  0  0  0  0  0  0  0  0
  152.1205  142.4699  160.1498 O   0  0  0  0  0  0  0  0  0  0  0  0
  152.1736  143.1033  158.8745 C   0  0  0  0  0  0  0  0  0  0  0  0
  151.4876  142.2094  157.8264 C   0  0  0  0  0  0  0  0  0  0  0  0
  148.5459  135.1491  162.2961 H   0  0  0  0  0  0  0  0  0  0  0  0
  146.8797  134.5827  162.0774 H   0  0  0  0  0  0  0  0  0  0  0  0
  147.2226  135.9331  163.1518 H   0  0  0  0  0  0  0  0  0  0  0  0
  148.5308  134.1999  160.2706 H   0  0  0  0  0  0  0  0  0  0  0  0
  148.3709  134.5027  158.5548 H   0  0  0  0  0  0  0  0  0  0  0  0
  146.9595  134.0072  159.4900 H   0  0  0  0  0  0  0  0  0  0  0  0
  147.2239  136.2273  157.7098 H   0  0  0  0  0  0  0  0  0  0  0  0
  146.4583  137.4637  158.6377 H   0  0  0  0  0  0  0  0  0  0  0  0
  147.3264  139.3273  157.7898 H   0  0  0  0  0  0  0  0  0  0  0  0
  148.8180  141.0069  157.2997 H   0  0  0  0  0  0  0  0  0  0  0  0
  149.7606  140.3414  158.6002 H   0  0  0  0  0  0  0  0  0  0  0  0
  148.9809  138.4572  155.4684 H   0  0  0  0  0  0  0  0  0  0  0  0
  150.7606  137.6704  153.8957 H   0  0  0  0  0  0  0  0  0  0  0  0
  153.1193  138.4296  154.2782 H   0  0  0  0  0  0  0  0  0  0  0  0
  151.1067  140.0514  159.4414 H   0  0  0  0  0  0  0  0  0  0  0  0
  152.6636  139.3197  159.1026 H   0  0  0  0  0  0  0  0  0  0  0  0
  152.7453  140.7848  161.1528 H   0  0  0  0  0  0  0  0  0  0  0  0
  153.8510  141.3568  159.9173 H   0  0  0  0  0  0  0  0  0  0  0  0
  151.6713  144.0687  158.9335 H   0  0  0  0  0  0  0  0  0  0  0  0
  153.2118  143.2986  158.6021 H   0  0  0  0  0  0  0  0  0  0  0  0
  151.5621  142.6611  156.8366 H   0  0  0  0  0  0  0  0  0  0  0  0
  150.4269  142.1137  158.0624 H   0  0  0  0  0  0  0  0  0  0  0  0
  1  2  1  0  0  0  0
  1 23  1  0  0  0  0
  1 24  1  0  0  0  0
  1 25  1  0  0  0  0
  2  3  2  0  0  0  0
  2  4  1  0  0  0  0
  4  5  1  0  0  0  0
  4  6  1  0  0  0  0
  5 26  1  0  0  0  0
  5 27  1  0  0  0  0
  5 28  1  0  0  0  0
  6  7  1  0  0  0  0
  6 29  1  0  0  0  0
  6 30  1  0  0  0  0
  7  8  2  0  0  0  0
  7  9  1  0  0  0  0
  9 10  1  0  0  0  0
  9 31  1  0  0  0  0
 10 11  1  0  0  0  0
 10 32  1  0  0  0  0
 10 33  1  0  0  0  0
 11 16  1  0  0  0  0
 11 12  2  0  0  0  0
 12 13  1  0  0  0  0
 12 34  1  0  0  0  0
 13 14  2  0  0  0  0
 13 35  1  0  0  0  0
 14 15  1  0  0  0  0
 14 36  1  0  0  0  0
 15 16  2  0  0  0  0
 16 17  1  0  0  0  0
 17 22  1  0  0  0  0
 17 18  1  0  0  0  0
 18 19  1  0  0  0  0
 18 37  1  0  0  0  0
 18 38  1  0  0  0  0
 19 20  1  0  0  0  0
 19 39  1  0  0  0  0
 19 40  1  0  0  0  0
 20 21  1  0  0  0  0
 21 22  1  0  0  0  0
 21 41  1  0  0  0  0
 21 42  1  0  0  0  0
 22 43  1  0  0  0  0
 22 44  1  0  0  0  0
M  END
> <s_m_source_file>
AV-unprocessed.smi

> <i_m_source_file_index>
1932

> <i_lp_mmshare_version>
43012

> <i_f3d_flags>
0

> <s_epik_input>
W0NIM11DKD1PKU4oW0NIM10pW0NIMl1DKD1PKVtOSF1bQ0gyXWMxW2NIXVtjSF1bY0hdbmMxTjJbQ0gyXVtDSDJdT1tDSDJdW0NIMl0y

> <s_epik_cmdline>
J2VwaWtfcHl0aG9uJywgJy1waCcsICc3LjAnLCAnLXRuJywgJzgnLCAnLW1hJywgJzIwMCcsICctbWV0YWxfYmluZGluZycsICctaW1hZScsICc8aW5maWxlLm1hZT4nLCAnLW9tYWUnLCAnPG91dGZpbGUubWFlPic=

> <r_lp_tautomer_probability>
1

> <r_epik_Ionization_Penalty>
0.00462916

> <r_epik_Ionization_Penalty_Charging>
0

> <r_epik_Ionization_Penalty_Neutral>
0.00462916

> <r_epik_State_Penalty>
0.00334737

> <r_epik_Charging_Adjusted_Penalty>
0.00334737

> <i_epik_Tot_Q>
0

> <i_epik_Tot_abs_Q>
0

> <r_epik_Metal_State_Penalty>
-0

> <b_epik_Metal_Only>
0

> <s_lp_Force_Field>
OPLS_2005

> <r_lp_Energy>
20.2877

> <b_lp_Chiralities_Consistent>
1

> <s_lp_Variant>
AV-unprocessed.smi:1932-1

> <Gold.Version>
5.8.1

> <Gold.Id.Protein>
6NUR|6NUR_protein|mol2

> <Gold.PLP.Fitness>
41.3051

> <Gold.PLP.PLP>
-35.0881

> <Gold.PLP.part.hbond>
-2.8805

> <Gold.PLP.part.metal>
0.0000

> <Gold.PLP.part.buried>
-5.5909

> <Gold.PLP.part.nonpolar>
-26.7075

> <Gold.PLP.part.repulsive>
0.1527

> <Gold.PLP.ligand.clash>
0.0000

> <Gold.PLP.ligand.torsion>
1.0253

> <Gold.PLP.Chemscore.Hbond>
2.6864

> <Gold.PLP.Chemscore.CHOScore>
0.0000

> <Gold.PLP.Chemscore.Metal>
0.0000

> <Gold.Chemscore.Hbonds>
donor molecule, donor type, donor heavy atom, donor atom, acceptor molecule, acceptor atom, score
      P1  H  6931  6943       L1     3  0.33
      P1  H  6934  6947       L1     3  0.84
      P1  H  7997  8008       L1    15  1.00

> <Gold.PLP.Chemscore.Internal.Correction>
0.2083

> <Gold.Rescore>
     Score         DG    S(hbond)    S(metal)    S(lipo)     H(rot)  DE(clash)    DE(int)     intcor
     13.88     -16.08       1.95        0.00      78.64       2.00       0.09       2.11       ----

> <Gold.Chemscore.Fitness>
13.8837

> <Gold.Chemscore.DG>
-16.0847

> <Gold.Chemscore.ZeroCoef>
-5.4800

> <Gold.Chemscore.Hbond>
1.9498

> <Gold.Chemscore.Metal>
0.0000

> <Gold.Chemscore.Lipo>
78.6427

> <Gold.Chemscore.Internal_Hbond>
0.0000

> <Gold.Chemscore.DEClash>
0.0880

> <Gold.Chemscore.DEInternal>
2.1130

> <Gold.Chemscore.Rot>
1.9956

> <Gold.Chemscore.Internal.Correction>
   9.000000E+99

> <Gold.Chemscore.Hbonds>
donor molecule, donor type, donor heavy atom, donor atom, acceptor molecule, acceptor atom, score
      P1  H  6931  6943       L1     3  0.06
      P1  H  6934  6947       L1     3  0.80
      P1  H  7997  8008       L1    15  0.93

> <Gold.Chemscore.Hbond.Weighted>
-6.5122

> <Gold.Chemscore.Metal.Weighted>
-0.0000

> <Gold.Chemscore.Lipo.Weighted>
-9.2012

> <Gold.Chemscore.Internal_Hbond.Weighted>
0.0000

> <Gold.Chemscore.DEClash.Weighted>
0.0880

> <Gold.Chemscore.DEInternal.Weighted>
2.1130

> <Gold.Chemscore.Rot.Weighted>
5.1087

> <Gold.Chemscore.Internal.Correction.Weighted>
   9.000000E+99

> <Gold.Protein.RotatedTorsions>
[ 6907 6896 6895 6894 ] final  -86.21 input  -60.11 | X-H torsion
[ 7974 7965 7964 7962 ] final  102.93 input  175.53 | X-H torsion
[ 8008 7997 7996 7995 ] final  -19.75 input   59.86 | X-H torsion
[ 10167 10162 10161 10158 ] final   96.49 input  -65.29 | X-H torsion
[ 10718 10713 10712 10709 ] final -102.70 input   66.30 | X-H torsion
[ 10763 10752 10751 10750 ] final    1.39 input  -60.55 | X-H torsion
[ 11005 11000 10999 10996 ] final   91.79 input  -57.11 | X-H torsion

> <Gold.Protein.ActiveResidues>
 VAL166  LYS551  ARG553  GLY616  TRP617  ASP618  TYR619  PRO620  LYS621  CYS622 
 ASP623  PHE694  ASN695  SER759  ASP760  ASP761  ALA762  ILE779  LEU786  VAL792 
 PHE793  MET794  SER795  GLU796  ALA797  LYS798  CYS799  TRP800  GLU811  SER814 

> <Gold.Protein.RotatedAtoms>
  150.6867  134.3086  159.4736 H   0  0  0  0  0  0  0  0  0  0  0  0  # atno 6907 bound_to 6896
  152.0974  134.9362  160.0579 H   0  0  0  0  0  0  0  0  0  0  0  0  # atno 6908 bound_to 6896
  152.0655  133.4047  159.4473 H   0  0  0  0  0  0  0  0  0  0  0  0  # atno 6909 bound_to 6896
  145.3527  139.2436  143.3549 H   0  0  0  0  0  0  0  0  0  0  0  0  # atno 7974 bound_to 7965
  154.4815  140.2080  155.9752 H   0  0  0  0  0  0  0  0  0  0  0  0  # atno 8008 bound_to 7997
  156.1172  140.3219  155.8126 H   0  0  0  0  0  0  0  0  0  0  0  0  # atno 8009 bound_to 7997
  155.4531  140.0518  157.2990 H   0  0  0  0  0  0  0  0  0  0  0  0  # atno 8010 bound_to 7997
  139.7889  144.6859  150.9919 H   0  0  0  0  0  0  0  0  0  0  0  0  # atno 10167 bound_to 10162
  156.0238  130.5432  150.7146 H   0  0  0  0  0  0  0  0  0  0  0  0  # atno 10718 bound_to 10713
  153.3086  135.6961  153.7136 H   0  0  0  0  0  0  0  0  0  0  0  0  # atno 10763 bound_to 10752
  153.6022  135.3460  155.2950 H   0  0  0  0  0  0  0  0  0  0  0  0  # atno 10764 bound_to 10752
  154.8569  135.4343  154.2218 H   0  0  0  0  0  0  0  0  0  0  0  0  # atno 10765 bound_to 10752
  139.8833  134.8695  156.3479 H   0  0  0  0  0  0  0  0  0  0  0  0  # atno 11005 bound_to 11000
  146.2961  140.4146  142.8721 LP  0  0  0  0  0  0  0  0  0  0  0  0  # atno 17320 bound_to 7965
  144.8706  140.7267  143.6049 LP  0  0  0  0  0  0  0  0  0  0  0  0  # atno 17321 bound_to 7965
  140.7820  143.4402  151.0564 LP  0  0  0  0  0  0  0  0  0  0  0  0  # atno 17342 bound_to 10162
  139.8079  143.7992  152.3169 LP  0  0  0  0  0  0  0  0  0  0  0  0  # atno 17343 bound_to 10162
  157.4776  131.0899  151.0573 LP  0  0  0  0  0  0  0  0  0  0  0  0  # atno 17370 bound_to 10713
  157.1015  130.5984  149.5461 LP  0  0  0  0  0  0  0  0  0  0  0  0  # atno 17371 bound_to 10713
  140.9614  133.7386  156.0407 LP  0  0  0  0  0  0  0  0  0  0  0  0  # atno 17394 bound_to 11000
  140.7985  134.3536  157.5446 LP  0  0  0  0  0  0  0  0  0  0  0  0  # atno 17395 bound_to 11000

$$$$
