#       Name:                AV-unprocessed.smi:3013
#       Creating user name   scv26
#       Creation time:       Fri Mar 27 16:40:03 2020


#       File generated by GOLD software.
#

@<TRIPOS>MOLECULE
AV-unprocessed.smi:3013
    49    50     1
SMALL
NO_CHARGES


@<TRIPOS>ATOM
      1 ****         0.2448   2.8914  -1.7098 C.3            1 S1                 0.0000
      2 ****        -0.1986   2.1064  -0.4567 C.3            1 S1                 0.0000
      3 ****         0.3084   0.6475  -0.4568 C.3            1 S1                 0.0000
      4 ****         1.8357   0.5196  -0.2974 C.3            1 S1                 0.0000
      5 ****         2.2578  -0.8754  -0.2331 N.am           1 S1                 0.0000
      6 ****         2.1609  -1.6560   0.8532 C.2            1 S1                 0.0000
      7 ****         1.6785  -1.2741   1.9199 O.2            1 S1                 0.0000
      8 ****         2.6538  -2.8846   0.6209 N.am           1 S1                 0.0000
      9 ****         2.7159  -3.9808   1.5231 C.2            1 S1                 0.0000
     10 ****         2.2421  -4.0000   2.7651 N.2            1 S1                 0.0000
     11 ****         2.5789  -5.2759   3.1180 C.2            1 S1                 0.0000
     12 ****         3.2050  -5.9943   2.1857 N.2            1 S1                 0.0000
     13 ****         3.2863  -5.1294   1.1474 N.pl3          1 S1                 0.0000
     14 ****         3.9123  -5.5198  -0.1011 C.3            1 S1                 0.0000
     15 ****        -1.6741   2.1510  -0.2342 N.4            1 S1                 1.0000
     16 ****        -2.5055   1.7213  -1.3927 C.3            1 S1                 0.0000
     17 ****        -3.9809   1.5780  -0.9839 C.3            1 S1                 0.0000
     18 ****        -4.5137   2.8871  -0.3859 C.3            1 S1                 0.0000
     19 ****        -3.6214   3.3331   0.7801 C.3            1 S1                 0.0000
     20 ****        -2.1505   3.4375   0.3418 C.3            1 S1                 0.0000
     21 ****         1.3303   2.9732  -1.7592 H              1 S1                 0.0000
     22 ****        -0.1453   3.9090  -1.7081 H              1 S1                 0.0000
     23 ****        -0.0846   2.4080  -2.6297 H              1 S1                 0.0000
     24 ****         0.2589   2.5874   0.4091 H              1 S1                 0.0000
     25 ****        -0.1737   0.1137   0.3634 H              1 S1                 0.0000
     26 ****         0.0005   0.1389  -1.3708 H              1 S1                 0.0000
     27 ****         2.3465   0.9789  -1.1432 H              1 S1                 0.0000
     28 ****         2.1746   1.0486   0.5950 H              1 S1                 0.0000
     29 ****         2.6666  -1.2674  -1.0689 H              1 S1                 0.0000
     30 ****         3.0309  -3.0562  -0.2995 H              1 S1                 0.0000
     31 ****         2.3546  -5.6881   4.0907 H              1 S1                 0.0000
     32 ****         4.6786  -4.7929  -0.3713 H              1 S1                 0.0000
     33 ****         3.1614  -5.5576  -0.8904 H              1 S1                 0.0000
     34 ****         4.3767  -6.5022  -0.0063 H              1 S1                 0.0000
     35 ****        -2.4219   2.4470  -2.2028 H              1 S1                 0.0000
     36 ****        -2.1521   0.7673  -1.7825 H              1 S1                 0.0000
     37 ****        -4.5812   1.2924  -1.8482 H              1 S1                 0.0000
     38 ****        -4.0834   0.7723  -0.2557 H              1 S1                 0.0000
     39 ****        -4.5330   3.6623  -1.1531 H              1 S1                 0.0000
     40 ****        -5.5417   2.7568  -0.0468 H              1 S1                 0.0000
     41 ****        -3.9652   4.2932   1.1660 H              1 S1                 0.0000
     42 ****        -3.7091   2.6205   1.6015 H              1 S1                 0.0000
     43 ****        -1.5420   3.7077   1.2055 H              1 S1                 0.0000
     44 ****        -2.0373   4.2383  -0.3897 H              1 S1                 0.0000
     45 ****        -1.8442   1.4674   0.4898 H              1 S1                 0.0000
     46 ****         1.3344  -0.3392   2.0068 LP             1 S1                 0.0000
     47 ****         1.6308  -1.8989   2.6993 LP             1 S1                 0.0000
     48 ****         1.7750  -3.2876   3.2888 LP             1 S1                 0.0000
     49 ****         3.5330  -6.9375   2.2399 LP             1 S1                 0.0000
@<TRIPOS>BOND
    1    1    2 1     
    2    1   21 1     
    3    1   22 1     
    4    1   23 1     
    5    2    3 1     
    6    2   15 1     
    7    2   24 1     
    8    3    4 1     
    9    3   25 1     
   10    3   26 1     
   11    4    5 1     
   12    4   27 1     
   13    4   28 1     
   14    5    6 am    
   15    5   29 1     
   16    6    7 2     
   17    6    8 am    
   18    8    9 1     
   19    8   30 1     
   20    9   13 1     
   21    9   10 2     
   22   10   11 1     
   23   11   12 2     
   24   11   31 1     
   25   12   13 1     
   26   13   14 1     
   27   14   32 1     
   28   14   33 1     
   29   14   34 1     
   30   15   20 1     
   31   15   16 1     
   32   15   45 1     
   33   16   17 1     
   34   16   35 1     
   35   16   36 1     
   36   17   18 1     
   37   17   37 1     
   38   17   38 1     
   39   18   19 1     
   40   18   39 1     
   41   18   40 1     
   42   19   20 1     
   43   19   41 1     
   44   19   42 1     
   45   20   43 1     
   46   20   44 1     
   47    7   46 1     
   48    7   47 1     
   49   10   48 1     
   50   12   49 1     
@<TRIPOS>SUBSTRUCTURE
      1 S1             1
@<TRIPOS>SET
LONE_PAIRS      STATIC     ATOMS    <user>   **** ""
4 46 47 48 49
DONOR_HYDROGENS      STATIC     ATOMS    <user>   **** ""
3 29 30 45
ATOM$BLUE        STATIC     ATOMS    COLORGROUP SYSTEM
4 46 47 48 49
ATOM$RED        STATIC     ATOMS    COLORGROUP SYSTEM
3 29 30 45
