AV-unprocessed.smi:500|AV-procd|sdf|2740|dock10
  -GOLD-   2262023203D 1   1.00000     0.00000
 Structure written by MMmdl.
 45 47  0  0  0  0  0  0  0  0  3 V2000
  153.8044  138.6958  154.4051 C   0  0  0  0  0  0  0  0  0  0  0  0
  152.4014  139.0091  154.9293 C   0  0  0  0  0  0  0  0  0  0  0  0
  152.4948  139.3580  156.3025 O   0  0  0  0  0  0  0  0  0  0  0  0
  151.4387  138.8538  157.1078 C   0  0  0  0  0  0  0  0  0  0  0  0
  151.1752  139.7473  158.3320 C   0  0  0  0  0  0  0  0  0  0  0  0
  150.8833  141.1383  157.9352 N   0  0  0  0  0  0  0  0  0  0  0  0
  150.0248  141.6622  157.0013 C   0  0  0  0  0  0  0  0  0  0  0  0
  149.0968  140.9317  156.0630 C   0  0  2  0  0  0  0  0  0  0  0  0
  149.7571  140.7747  154.6868 C   0  0  0  0  0  0  0  0  0  0  0  0
  147.8166  141.6247  155.9047 N   0  5  0  0  0  0  0  0  0  0  0  0
  147.1045  141.6582  154.7423 C   0  0  0  0  0  0  0  0  0  0  0  0
  147.1705  140.9140  153.7577 O   0  0  0  0  0  0  0  0  0  0  0  0
  146.1153  142.7615  154.7188 C   0  0  0  0  0  0  0  0  0  0  0  0
  145.6217  143.4790  153.6613 C   0  0  0  0  0  0  0  0  0  0  0  0
  144.6979  144.4191  154.1965 C   0  0  0  0  0  0  0  0  0  0  0  0
  144.6891  144.2105  155.5453 C   0  0  0  0  0  0  0  0  0  0  0  0
  145.5440  143.2069  155.8804 O   0  0  0  0  0  0  0  0  0  0  0  0
  150.1627  143.0187  157.0553 N   0  3  0  0  0  0  0  0  0  0  0  0
  151.0871  143.3707  158.0361 C   0  0  0  0  0  0  0  0  0  0  0  0
  151.5375  144.6178  158.4568 C   0  0  0  0  0  0  0  0  0  0  0  0
  152.4903  144.6283  159.4963 C   0  0  0  0  0  0  0  0  0  0  0  0
  152.9568  143.4305  160.0756 C   0  0  0  0  0  0  0  0  0  0  0  0
  152.4922  142.1722  159.6394 C   0  0  0  0  0  0  0  0  0  0  0  0
  151.5516  142.1700  158.6086 C   0  0  0  0  0  0  0  0  0  0  0  0
  153.7741  138.4223  153.3502 H   0  0  0  0  0  0  0  0  0  0  0  0
  154.2508  137.8658  154.9534 H   0  0  0  0  0  0  0  0  0  0  0  0
  154.4626  139.5588  154.5084 H   0  0  0  0  0  0  0  0  0  0  0  0
  151.9704  139.8326  154.3583 H   0  0  0  0  0  0  0  0  0  0  0  0
  151.7588  138.1396  154.7923 H   0  0  0  0  0  0  0  0  0  0  0  0
  150.5416  138.8303  156.4880 H   0  0  0  0  0  0  0  0  0  0  0  0
  151.6351  137.8219  157.4030 H   0  0  0  0  0  0  0  0  0  0  0  0
  150.3474  139.3779  158.9362 H   0  0  0  0  0  0  0  0  0  0  0  0
  152.0436  139.7493  158.9907 H   0  0  0  0  0  0  0  0  0  0  0  0
  148.9458  139.9294  156.4660 H   0  0  0  0  0  0  0  0  0  0  0  0
  150.6986  140.2309  154.7671 H   0  0  0  0  0  0  0  0  0  0  0  0
  149.9705  141.7430  154.2321 H   0  0  0  0  0  0  0  0  0  0  0  0
  149.1156  140.2187  154.0022 H   0  0  0  0  0  0  0  0  0  0  0  0
  145.8948  143.3429  152.6252 H   0  0  0  0  0  0  0  0  0  0  0  0
  144.1143  145.1541  153.6622 H   0  0  0  0  0  0  0  0  0  0  0  0
  144.1618  144.6626  156.3722 H   0  0  0  0  0  0  0  0  0  0  0  0
  151.1768  145.5351  158.0153 H   0  0  0  0  0  0  0  0  0  0  0  0
  152.8685  145.5736  159.8575 H   0  0  0  0  0  0  0  0  0  0  0  0
  153.6854  143.4772  160.8718 H   0  0  0  0  0  0  0  0  0  0  0  0
  152.8534  141.2618  160.0941 H   0  0  0  0  0  0  0  0  0  0  0  0
  149.6334  143.6488  156.4662 H   0  0  0  0  0  0  0  0  0  0  0  0
  1  2  1  0  0  0  0
  1 25  1  0  0  0  0
  1 26  1  0  0  0  0
  1 27  1  0  0  0  0
  2  3  1  0  0  0  0
  2 28  1  0  0  0  0
  2 29  1  0  0  0  0
  3  4  1  0  0  0  0
  4  5  1  0  0  0  0
  4 30  1  0  0  0  0
  4 31  1  0  0  0  0
  5  6  1  0  0  0  0
  5 32  1  0  0  0  0
  5 33  1  0  0  0  0
  6 24  1  0  0  0  0
  6  7  1  0  0  0  0
  7  8  1  0  0  0  0
  7 18  2  0  0  0  0
  8  9  1  0  0  0  0
  8 10  1  0  0  0  0
  8 34  1  0  0  0  0
  9 35  1  0  0  0  0
  9 36  1  0  0  0  0
  9 37  1  0  0  0  0
 10 11  1  0  0  0  0
 11 12  2  0  0  0  0
 11 13  1  0  0  0  0
 13 17  1  0  0  0  0
 13 14  2  0  0  0  0
 14 15  1  0  0  0  0
 14 38  1  0  0  0  0
 15 16  2  0  0  0  0
 15 39  1  0  0  0  0
 16 17  1  0  0  0  0
 16 40  1  0  0  0  0
 18 19  1  0  0  0  0
 18 45  1  0  0  0  0
 19 24  2  0  0  0  0
 19 20  1  0  0  0  0
 20 21  2  0  0  0  0
 20 41  1  0  0  0  0
 21 22  1  0  0  0  0
 21 42  1  0  0  0  0
 22 23  2  0  0  0  0
 22 43  1  0  0  0  0
 23 24  1  0  0  0  0
 23 44  1  0  0  0  0
M  CHG  1  10  -1
M  CHG  1  18   1
M  END
> <s_m_source_file>
AV-unprocessed.smi

> <i_m_source_file_index>
500

> <i_lp_mmshare_version>
43012

> <i_f3d_flags>
0

> <s_epik_input>
W0NIM11bQ0gyXU9bQ0gyXVtDSDJdbihjKGMxMilbY0hdW2NIXVtjSF1bY0hdMiljKG4xKVtDQEhdKFtDSDNdKVtOSF1DKD1PKWMzW2NIXVtjSF1bY0hdbzM=

> <s_epik_cmdline>
J2VwaWtfcHl0aG9uJywgJy1waCcsICc3LjAnLCAnLXRuJywgJzgnLCAnLW1hJywgJzIwMCcsICctbWV0YWxfYmluZGluZycsICctaW1hZScsICc8aW5maWxlLm1hZT4nLCAnLW9tYWUnLCAnPG91dGZpbGUubWFlPic=

> <r_epik_Ionization_Penalty>
6.22753

> <r_epik_Ionization_Penalty_Charging>
6.22753

> <r_epik_Ionization_Penalty_Neutral>
2.56065e-12

> <r_epik_State_Penalty>
7.17947

> <r_epik_Charging_Adjusted_Penalty>
13.407

> <i_epik_Tot_Q>
0

> <i_epik_Tot_abs_Q>
2

> <r_epik_Metal_State_Penalty>
3.2092

> <b_epik_Metal_Only>
1

> <s_lp_Force_Field>
OPLS_2005

> <r_lp_Energy>
11.6209

> <b_lp_Chiralities_Consistent>
1

> <s_lp_Variant>
AV-unprocessed.smi:500-7

> <Gold.Version>
5.8.1

> <Gold.Id.Protein>
6NUR|6NUR_protein|mol2

> <Gold.PLP.Fitness>
54.9421

> <Gold.PLP.PLP>
-49.7575

> <Gold.PLP.part.hbond>
-2.0000

> <Gold.PLP.part.metal>
0.0000

> <Gold.PLP.part.buried>
-6.0712

> <Gold.PLP.part.nonpolar>
-41.7999

> <Gold.PLP.part.repulsive>
0.4389

> <Gold.PLP.ligand.clash>
0.0000

> <Gold.PLP.ligand.torsion>
1.9910

> <Gold.PLP.Chemscore.Hbond>
3.0000

> <Gold.PLP.Chemscore.CHOScore>
0.0000

> <Gold.PLP.Chemscore.Metal>
0.0000

> <Gold.Chemscore.Hbonds>
donor molecule, donor type, donor heavy atom, donor atom, acceptor molecule, acceptor atom, score
      L1  H    18    45       P1  8028  2.00
      P1  H  7997  8009       L1     3  1.00

> <Gold.PLP.Chemscore.Internal.Correction>
0.1666

> <Gold.Rescore>
     Score         DG    S(hbond)    S(metal)    S(lipo)     H(rot)  DE(clash)    DE(int)     intcor
     18.36     -21.88       1.71        0.00     132.82       1.90       0.17       3.35       ----

> <Gold.Chemscore.Fitness>
18.3638

> <Gold.Chemscore.DG>
-21.8839

> <Gold.Chemscore.ZeroCoef>
-5.4800

> <Gold.Chemscore.Hbond>
1.7144

> <Gold.Chemscore.Metal>
0.0000

> <Gold.Chemscore.Lipo>
132.8219

> <Gold.Chemscore.Internal_Hbond>
0.0000

> <Gold.Chemscore.DEClash>
0.1657

> <Gold.Chemscore.DEInternal>
3.3544

> <Gold.Chemscore.Rot>
1.8993

> <Gold.Chemscore.Internal.Correction>
   9.000000E+99

> <Gold.Chemscore.Hbonds>
donor molecule, donor type, donor heavy atom, donor atom, acceptor molecule, acceptor atom, score
      L1  H    18    45       P1  8028  0.93
      P1  H  7997  8009       L1     3  0.56

> <Gold.Chemscore.Hbond.Weighted>
-5.7259

> <Gold.Chemscore.Metal.Weighted>
-0.0000

> <Gold.Chemscore.Lipo.Weighted>
-15.5402

> <Gold.Chemscore.Internal_Hbond.Weighted>
0.0000

> <Gold.Chemscore.DEClash.Weighted>
0.1657

> <Gold.Chemscore.DEInternal.Weighted>
3.3544

> <Gold.Chemscore.Rot.Weighted>
4.8622

> <Gold.Chemscore.Internal.Correction.Weighted>
   9.000000E+99

> <Gold.Protein.RotatedTorsions>
[ 6907 6896 6895 6894 ] final -122.12 input  -60.11 | X-H torsion
[ 7974 7965 7964 7962 ] final -139.45 input  175.53 | X-H torsion
[ 8008 7997 7996 7995 ] final -178.52 input   59.86 | X-H torsion
[ 10167 10162 10161 10158 ] final   62.91 input  -65.29 | X-H torsion
[ 10718 10713 10712 10709 ] final  170.88 input   66.30 | X-H torsion
[ 10763 10752 10751 10750 ] final   63.48 input  -60.55 | X-H torsion
[ 11005 11000 10999 10996 ] final -167.50 input  -57.11 | X-H torsion

> <Gold.Protein.ActiveResidues>
 VAL166  LYS551  ARG553  GLY616  TRP617  ASP618  TYR619  PRO620  LYS621  CYS622 
 ASP623  PHE694  ASN695  SER759  ASP760  ASP761  ALA762  ILE779  LEU786  VAL792 
 PHE793  MET794  SER795  GLU796  ALA797  LYS798  CYS799  TRP800  GLU811  SER814 

> <Gold.Protein.RotatedAtoms>
  150.8546  133.7735  159.3013 H   0  0  0  0  0  0  0  0  0  0  0  0  # atno 6907 bound_to 6896
  151.5396  135.1067  159.9932 H   0  0  0  0  0  0  0  0  0  0  0  0  # atno 6908 bound_to 6896
  152.4580  133.7719  159.6859 H   0  0  0  0  0  0  0  0  0  0  0  0  # atno 6909 bound_to 6896
  144.8676  140.6317  143.5288 H   0  0  0  0  0  0  0  0  0  0  0  0  # atno 7974 bound_to 7965
  156.0198  140.1258  157.0369 H   0  0  0  0  0  0  0  0  0  0  0  0  # atno 8008 bound_to 7997
  154.4307  140.1071  156.6017 H   0  0  0  0  0  0  0  0  0  0  0  0  # atno 8009 bound_to 7997
  155.5961  140.3470  155.4582 H   0  0  0  0  0  0  0  0  0  0  0  0  # atno 8010 bound_to 7997
  140.1387  144.4574  150.6823 H   0  0  0  0  0  0  0  0  0  0  0  0  # atno 10167 bound_to 10162
  157.0017  131.0178  151.2829 H   0  0  0  0  0  0  0  0  0  0  0  0  # atno 10718 bound_to 10713
  153.0019  135.5427  154.6359 H   0  0  0  0  0  0  0  0  0  0  0  0  # atno 10763 bound_to 10752
  154.5626  135.2835  155.0907 H   0  0  0  0  0  0  0  0  0  0  0  0  # atno 10764 bound_to 10752
  154.2104  135.6468  153.5166 H   0  0  0  0  0  0  0  0  0  0  0  0  # atno 10765 bound_to 10752
  140.5525  134.5414  157.5125 H   0  0  0  0  0  0  0  0  0  0  0  0  # atno 11005 bound_to 11000
  145.4192  139.1567  143.4083 LP  0  0  0  0  0  0  0  0  0  0  0  0  # atno 17320 bound_to 7965
  146.2907  140.4301  142.8740 LP  0  0  0  0  0  0  0  0  0  0  0  0  # atno 17321 bound_to 7965
  140.6773  143.2311  151.5474 LP  0  0  0  0  0  0  0  0  0  0  0  0  # atno 17342 bound_to 10162
  139.5483  144.2463  152.1483 LP  0  0  0  0  0  0  0  0  0  0  0  0  # atno 17343 bound_to 10162
  157.5385  130.8104  149.8001 LP  0  0  0  0  0  0  0  0  0  0  0  0  # atno 17370 bound_to 10713
  156.0169  130.3810  150.2084 LP  0  0  0  0  0  0  0  0  0  0  0  0  # atno 17371 bound_to 10713
  139.9448  134.7722  156.0589 LP  0  0  0  0  0  0  0  0  0  0  0  0  # atno 17394 bound_to 11000
  141.1163  133.6627  156.3102 LP  0  0  0  0  0  0  0  0  0  0  0  0  # atno 17395 bound_to 11000

$$$$
