AV-unprocessed.smi:1196|AV-procd|sdf|5002|dock1
  -GOLD-   22720 4 13D 1   1.00000     0.00000
 Structure written by MMmdl.
 36 37  0  0  0  0  0  0  0  0  2 V2000
  146.5263  133.8063  153.3669 C   0  0  0  0  0  0  0  0  0  0  0  0
  147.2779  132.7027  152.6061 C   0  0  2  0  0  0  0  0  0  0  0  0
  146.3365  131.5464  152.2163 C   0  0  0  0  0  0  0  0  0  0  0  0
  145.4638  131.8930  151.1084 N   0  0  0  0  0  0  0  0  0  0  0  0
  145.8038  132.1474  149.7965 C   0  0  0  0  0  0  0  0  0  0  0  0
  144.6503  132.4389  149.1268 C   0  0  0  0  0  0  0  0  0  0  0  0
  143.6440  132.3362  150.1276 C   0  0  0  0  0  0  0  0  0  0  0  0
  144.1337  132.0080  151.3122 N   0  0  0  0  0  0  0  0  0  0  0  0
  148.3813  132.1957  153.4194 N   0  0  0  0  0  0  0  0  0  0  0  0
  149.2597  132.9491  154.0980 C   0  0  0  0  0  0  0  0  0  0  0  0
  149.2060  134.1790  154.1343 O   0  0  0  0  0  0  0  0  0  0  0  0
  150.3563  132.1804  154.8418 C   0  0  0  0  0  0  0  0  0  0  0  0
  150.2578  132.2875  156.3766 C   0  0  0  0  0  0  0  0  0  0  0  0
  151.3555  131.4874  157.1089 C   0  0  1  0  0  0  0  0  0  0  0  0
  151.1054  131.4267  158.5387 N   0  5  0  0  0  0  0  0  0  0  0  0
  150.9980  130.1266  158.9012 C   0  0  0  0  0  0  0  0  0  0  0  0
  150.7931  129.6742  160.0252 O   0  0  0  0  0  0  0  0  0  0  0  0
  151.1438  129.3260  157.8402 N   0  0  0  0  0  0  0  0  0  0  0  0
  151.3474  130.0200  156.7253 C   0  0  0  0  0  0  0  0  0  0  0  0
  151.5033  129.5786  155.5876 O   0  0  0  0  0  0  0  0  0  0  0  0
  145.7068  134.2045  152.7685 H   0  0  0  0  0  0  0  0  0  0  0  0
  147.1862  134.6393  153.6111 H   0  0  0  0  0  0  0  0  0  0  0  0
  146.1054  133.4299  154.2999 H   0  0  0  0  0  0  0  0  0  0  0  0
  147.6793  133.1366  151.6881 H   0  0  0  0  0  0  0  0  0  0  0  0
  146.9090  130.6578  151.9463 H   0  0  0  0  0  0  0  0  0  0  0  0
  145.7125  131.2664  153.0664 H   0  0  0  0  0  0  0  0  0  0  0  0
  146.8272  132.1046  149.4541 H   0  0  0  0  0  0  0  0  0  0  0  0
  144.5423  132.6898  148.0821 H   0  0  0  0  0  0  0  0  0  0  0  0
  142.5795  132.4893  150.0287 H   0  0  0  0  0  0  0  0  0  0  0  0
  148.5014  131.1937  153.4493 H   0  0  0  0  0  0  0  0  0  0  0  0
  150.3103  131.1331  154.5415 H   0  0  0  0  0  0  0  0  0  0  0  0
  151.3229  132.5596  154.5075 H   0  0  0  0  0  0  0  0  0  0  0  0
  150.2959  133.3358  156.6795 H   0  0  0  0  0  0  0  0  0  0  0  0
  149.2800  131.9177  156.6906 H   0  0  0  0  0  0  0  0  0  0  0  0
  152.3385  131.8976  156.8736 H   0  0  0  0  0  0  0  0  0  0  0  0
  151.0934  128.3191  157.8802 H   0  0  0  0  0  0  0  0  0  0  0  0
  1  2  1  0  0  0  0
  1 21  1  0  0  0  0
  1 22  1  0  0  0  0
  1 23  1  0  0  0  0
  2  3  1  0  0  0  0
  2  9  1  0  0  0  0
  2 24  1  0  0  0  0
  3  4  1  0  0  0  0
  3 25  1  0  0  0  0
  3 26  1  0  0  0  0
  4  8  1  0  0  0  0
  4  5  1  0  0  0  0
  5  6  2  0  0  0  0
  5 27  1  0  0  0  0
  6  7  1  0  0  0  0
  6 28  1  0  0  0  0
  7  8  2  0  0  0  0
  7 29  1  0  0  0  0
  9 10  1  0  0  0  0
  9 30  1  0  0  0  0
 10 11  2  0  0  0  0
 10 12  1  0  0  0  0
 12 13  1  0  0  0  0
 12 31  1  0  0  0  0
 12 32  1  0  0  0  0
 13 14  1  0  0  0  0
 13 33  1  0  0  0  0
 13 34  1  0  0  0  0
 14 19  1  0  0  0  0
 14 15  1  0  0  0  0
 14 35  1  0  0  0  0
 15 16  1  0  0  0  0
 16 17  2  0  0  0  0
 16 18  1  0  0  0  0
 18 19  1  0  0  0  0
 18 36  1  0  0  0  0
 19 20  2  0  0  0  0
M  CHG  1  15  -1
M  END
> <s_m_source_file>
AV-unprocessed.smi

> <i_m_source_file_index>
1196

> <i_lp_mmshare_version>
43012

> <i_f3d_flags>
0

> <s_epik_input>
bjFbY0hdW2NIXVtjSF1uMVtDSDJdW0NAQEhdKFtDSDNdKVtOSF1DKD1PKVtDSDJdW0NIMl1bQ0BASF0yW05IXUMoPU8pW05IXUMyPU8=

> <s_epik_cmdline>
J2VwaWtfcHl0aG9uJywgJy1waCcsICc3LjAnLCAnLXRuJywgJzgnLCAnLW1hJywgJzIwMCcsICctbWV0YWxfYmluZGluZycsICctaW1hZScsICc8aW5maWxlLm1hZT4nLCAnLW9tYWUnLCAnPG91dGZpbGUubWFlPic=

> <r_lp_tautomer_probability>
1

> <r_epik_Ionization_Penalty>
5.79547

> <r_epik_Ionization_Penalty_Charging>
5.79516

> <r_epik_Ionization_Penalty_Neutral>
0.000313087

> <r_epik_State_Penalty>
5.80096

> <r_epik_Charging_Adjusted_Penalty>
11.5961

> <i_epik_Tot_Q>
-1

> <i_epik_Tot_abs_Q>
1

> <r_epik_Metal_State_Penalty>
2.14443

> <b_epik_Metal_Only>
1

> <s_lp_Force_Field>
OPLS_2005

> <r_lp_Energy>
10.7967

> <b_lp_Chiralities_Consistent>
1

> <s_lp_Variant>
AV-unprocessed.smi:1196-7

> <Gold.Version>
5.8.1

> <Gold.Id.Protein>
6NUR|6NUR_protein|mol2

> <Gold.PLP.Fitness>
41.0367

> <Gold.PLP.PLP>
-28.9187

> <Gold.PLP.part.hbond>
-1.0000

> <Gold.PLP.part.metal>
0.0000

> <Gold.PLP.part.buried>
-5.2090

> <Gold.PLP.part.nonpolar>
-23.4664

> <Gold.PLP.part.repulsive>
1.1252

> <Gold.PLP.ligand.clash>
0.0000

> <Gold.PLP.ligand.torsion>
0.3799

> <Gold.PLP.Chemscore.Hbond>
2.0000

> <Gold.PLP.Chemscore.CHOScore>
2.2107

> <Gold.PLP.Chemscore.Metal>
0.0000

> <Gold.Chemscore.Hbonds>
donor molecule, donor type, donor heavy atom, donor atom, acceptor molecule, acceptor atom, score
      P1  H  6896  6907       L1    15  1.98
      L1  C     5    27       P1 10747  0.84
      L1  C     7    29       P1 10186  1.00
      L1  C     7    29       P1 10952  0.28

> <Gold.PLP.Chemscore.Internal.Correction>
0.2457

> <Gold.Rescore>
     Score         DG    S(hbond)    S(metal)    S(lipo)     H(rot)  DE(clash)    DE(int)     intcor
      7.04      -8.99       0.97        0.00      65.51       2.89       0.26       1.70       ----

> <Gold.Chemscore.Fitness>
7.0353

> <Gold.Chemscore.DG>
-8.9895

> <Gold.Chemscore.ZeroCoef>
-5.4800

> <Gold.Chemscore.Hbond>
0.9746

> <Gold.Chemscore.Metal>
0.0000

> <Gold.Chemscore.Lipo>
65.5088

> <Gold.Chemscore.Internal_Hbond>
0.0000

> <Gold.Chemscore.DEClash>
0.2573

> <Gold.Chemscore.DEInternal>
1.6968

> <Gold.Chemscore.Rot>
2.8946

> <Gold.Chemscore.Internal.Correction>
   9.000000E+99

> <Gold.Chemscore.Hbonds>
donor molecule, donor type, donor heavy atom, donor atom, acceptor molecule, acceptor atom, score
      P1  H  6896  6907       L1    15  0.50

> <Gold.Chemscore.Hbond.Weighted>
-3.2550

> <Gold.Chemscore.Metal.Weighted>
-0.0000

> <Gold.Chemscore.Lipo.Weighted>
-7.6645

> <Gold.Chemscore.Internal_Hbond.Weighted>
0.0000

> <Gold.Chemscore.DEClash.Weighted>
0.2573

> <Gold.Chemscore.DEInternal.Weighted>
1.6968

> <Gold.Chemscore.Rot.Weighted>
7.4101

> <Gold.Chemscore.Internal.Correction.Weighted>
   9.000000E+99

> <Gold.Protein.RotatedTorsions>
[ 6907 6896 6895 6894 ] final -171.06 input  -60.11 | X-H torsion
[ 7974 7965 7964 7962 ] final  112.44 input  175.53 | X-H torsion
[ 8008 7997 7996 7995 ] final   90.94 input   59.86 | X-H torsion
[ 10167 10162 10161 10158 ] final   83.07 input  -65.29 | X-H torsion
[ 10718 10713 10712 10709 ] final   17.56 input   66.30 | X-H torsion
[ 10763 10752 10751 10750 ] final -148.84 input  -60.55 | X-H torsion
[ 11005 11000 10999 10996 ] final  114.27 input  -57.11 | X-H torsion

> <Gold.Protein.ActiveResidues>
 VAL166  LYS551  ARG553  GLY616  TRP617  ASP618  TYR619  PRO620  LYS621  CYS622 
 ASP623  PHE694  ASN695  SER759  ASP760  ASP761  ALA762  ILE779  LEU786  VAL792 
 PHE793  MET794  SER795  GLU796  ALA797  LYS798  CYS799  TRP800  GLU811  SER814 

> <Gold.Protein.RotatedAtoms>
  151.5177  133.3472  159.2895 H   0  0  0  0  0  0  0  0  0  0  0  0  # atno 6907 bound_to 6896
  150.8672  134.8040  159.7138 H   0  0  0  0  0  0  0  0  0  0  0  0  # atno 6908 bound_to 6896
  152.4673  134.5055  159.9789 H   0  0  0  0  0  0  0  0  0  0  0  0  # atno 6909 bound_to 6896
  145.2295  139.2826  143.4176 H   0  0  0  0  0  0  0  0  0  0  0  0  # atno 7974 bound_to 7965
  156.0180  140.3343  155.7009 H   0  0  0  0  0  0  0  0  0  0  0  0  # atno 8008 bound_to 7997
  155.6064  140.0661  157.2736 H   0  0  0  0  0  0  0  0  0  0  0  0  # atno 8009 bound_to 7997
  154.4305  140.1801  156.1214 H   0  0  0  0  0  0  0  0  0  0  0  0  # atno 8010 bound_to 7997
  139.9222  144.6205  150.8429 H   0  0  0  0  0  0  0  0  0  0  0  0  # atno 10167 bound_to 10162
  157.0838  130.6399  149.5832 H   0  0  0  0  0  0  0  0  0  0  0  0  # atno 10718 bound_to 10713
  154.8210  135.3324  154.7037 H   0  0  0  0  0  0  0  0  0  0  0  0  # atno 10763 bound_to 10752
  153.7669  135.6928  153.4918 H   0  0  0  0  0  0  0  0  0  0  0  0  # atno 10764 bound_to 10752
  153.2071  135.4495  155.0285 H   0  0  0  0  0  0  0  0  0  0  0  0  # atno 10765 bound_to 10752
  139.8976  134.9565  156.6866 H   0  0  0  0  0  0  0  0  0  0  0  0  # atno 11005 bound_to 11000
  146.3356  140.2625  142.8602 LP  0  0  0  0  0  0  0  0  0  0  0  0  # atno 17320 bound_to 7965
  144.9690  140.8350  143.5467 LP  0  0  0  0  0  0  0  0  0  0  0  0  # atno 17321 bound_to 7965
  140.7659  143.3289  151.2454 LP  0  0  0  0  0  0  0  0  0  0  0  0  # atno 17342 bound_to 10162
  139.6852  143.9786  152.2830 LP  0  0  0  0  0  0  0  0  0  0  0  0  # atno 17343 bound_to 10162
  155.9916  130.4971  150.7307 LP  0  0  0  0  0  0  0  0  0  0  0  0  # atno 17370 bound_to 10713
  157.4778  131.0899  151.0570 LP  0  0  0  0  0  0  0  0  0  0  0  0  # atno 17371 bound_to 10713
  140.7257  133.9102  155.8177 LP  0  0  0  0  0  0  0  0  0  0  0  0  # atno 17394 bound_to 11000
  141.0192  134.0912  157.4138 LP  0  0  0  0  0  0  0  0  0  0  0  0  # atno 17395 bound_to 11000

$$$$
