#       Name:                AV-unprocessed.smi:2002
#       Creating user name   scv26
#       Creation time:       Fri Mar 27 10:34:56 2020


#       File generated by GOLD software.
#

@<TRIPOS>MOLECULE
AV-unprocessed.smi:2002
    44    45     1
SMALL
NO_CHARGES


@<TRIPOS>ATOM
      1 ****        -3.8375  -1.3525   4.2690 C.3            1 S1                 0.0000
      2 ****        -3.3207  -1.8524   2.9132 C.3            1 S1                 0.0000
      3 ****        -2.8984  -0.7404   2.0287 N.4            1 S1                 1.0000
      4 ****        -2.6410  -1.1436   0.6256 C.3            1 S1                 0.0000
      5 ****        -1.2916  -0.5352   0.2301 C.3            1 S1                 0.0000
      6 ****        -1.0800   0.5977   1.2343 C.3            1 S1                 0.0000
      7 ****         0.3826   1.0435   1.4240 C.3            1 S1                 0.0000
      8 ****         0.9344   1.6382   0.2101 N.am           1 S1                 0.0000
      9 ****         1.6543   0.9891  -0.7171 C.2            1 S1                 0.0000
     10 ****         1.9281  -0.2089  -0.6458 O.2            1 S1                 0.0000
     11 ****         2.0151   1.8119  -1.7162 N.am           1 S1                 0.0000
     12 ****         2.7920   1.5151  -2.8658 C.2            1 S1                 0.0000
     13 ****         3.4248   0.2719  -3.1594 C.2            1 S1                 0.0000
     14 ****         4.0417   0.5169  -4.3536 C.2            1 S1                 0.0000
     15 ****         4.8873  -0.3224  -5.2486 C.3            1 S1                 0.0000
     16 ****         3.8056   1.7946  -4.7559 O.3            1 S1                 0.0000
     17 ****         3.0065   2.4271  -3.7961 N.2            1 S1                 0.0000
     18 ****        -1.7172   0.0181   2.4975 C.3            1 S1                 0.0000
     19 ****        -4.1863  -2.1866   4.8785 H              1 S1                 0.0000
     20 ****        -4.6729  -0.6632   4.1431 H              1 S1                 0.0000
     21 ****        -3.0588  -0.8391   4.8334 H              1 S1                 0.0000
     22 ****        -2.4948  -2.5514   3.0536 H              1 S1                 0.0000
     23 ****        -4.1201  -2.4068   2.4194 H              1 S1                 0.0000
     24 ****        -2.6304  -2.2268   0.4955 H              1 S1                 0.0000
     25 ****        -3.4408  -0.7444   0.0015 H              1 S1                 0.0000
     26 ****        -0.5085  -1.2857   0.3468 H              1 S1                 0.0000
     27 ****        -1.2735  -0.1940  -0.8054 H              1 S1                 0.0000
     28 ****        -1.6746   1.4558   0.9155 H              1 S1                 0.0000
     29 ****         0.4337   1.7960   2.2114 H              1 S1                 0.0000
     30 ****         0.9998   0.2094   1.7624 H              1 S1                 0.0000
     31 ****         0.7608   2.6229   0.0690 H              1 S1                 0.0000
     32 ****         1.6962   2.7671  -1.6488 H              1 S1                 0.0000
     33 ****         3.4390  -0.6510  -2.5998 H              1 S1                 0.0000
     34 ****         5.1623  -1.2571  -4.7594 H              1 S1                 0.0000
     35 ****         5.8054   0.2006  -5.5166 H              1 S1                 0.0000
     36 ****         4.3542  -0.5654  -6.1677 H              1 S1                 0.0000
     37 ****        -1.9969   0.7918   3.2132 H              1 S1                 0.0000
     38 ****        -1.0159  -0.6582   2.9900 H              1 S1                 0.0000
     39 ****        -3.6650  -0.0836   1.9887 H              1 S1                 0.0000
     40 ****         1.6096  -0.7491   0.1332 LP             1 S1                 0.0000
     41 ****         2.4690  -0.6419  -1.3668 LP             1 S1                 0.0000
     42 ****         3.3320   1.7880  -5.6366 LP             1 S1                 0.0000
     43 ****         4.6727   2.2842  -4.8474 LP             1 S1                 0.0000
     44 ****         2.6700   3.3687  -3.8117 LP             1 S1                 0.0000
@<TRIPOS>BOND
    1    1    2 1     
    2    1   19 1     
    3    1   20 1     
    4    1   21 1     
    5    2    3 1     
    6    2   22 1     
    7    2   23 1     
    8    3   18 1     
    9    3    4 1     
   10    3   39 1     
   11    4    5 1     
   12    4   24 1     
   13    4   25 1     
   14    5    6 1     
   15    5   26 1     
   16    5   27 1     
   17    6    7 1     
   18    6   18 1     
   19    6   28 1     
   20    7    8 1     
   21    7   29 1     
   22    7   30 1     
   23    8    9 am    
   24    8   31 1     
   25    9   10 2     
   26    9   11 am    
   27   11   12 1     
   28   11   32 1     
   29   12   17 2     
   30   12   13 1     
   31   13   14 2     
   32   13   33 1     
   33   14   15 1     
   34   14   16 1     
   35   15   34 1     
   36   15   35 1     
   37   15   36 1     
   38   16   17 1     
   39   18   37 1     
   40   18   38 1     
   41   10   40 1     
   42   10   41 1     
   43   16   42 1     
   44   16   43 1     
   45   17   44 1     
@<TRIPOS>SUBSTRUCTURE
      1 S1             1
@<TRIPOS>SET
LONE_PAIRS      STATIC     ATOMS    <user>   **** ""
5 40 41 42 43 44
DONOR_HYDROGENS      STATIC     ATOMS    <user>   **** ""
3 39 31 32
ATOM$BLUE        STATIC     ATOMS    COLORGROUP SYSTEM
5 40 41 42 43 44
ATOM$RED        STATIC     ATOMS    COLORGROUP SYSTEM
3 39 31 32
