AV-unprocessed.smi:1516|AV-procd|sdf|6118|dock1
  -GOLD-   22720 6253D 1   1.00000     0.00000
 Structure written by MMmdl.
 45 46  0  0  0  0  0  0  0  0  1 V2000
  145.2046  135.5166  150.9909 C   0  0  0  0  0  0  0  0  0  0  0  0
  146.5368  135.9777  150.5929 N   0  0  0  0  0  0  0  0  0  0  0  0
  147.2718  135.0867  149.6917 C   0  0  0  0  0  0  0  0  0  0  0  0
  147.0821  137.1359  151.0321 C   0  0  0  0  0  0  0  0  0  0  0  0
  146.4685  137.9114  151.7688 O   0  0  0  0  0  0  0  0  0  0  0  0
  148.5093  137.5003  150.5765 C   0  0  0  0  0  0  0  0  0  0  0  0
  149.4425  137.6724  151.6886 N   0  0  0  0  0  0  0  0  0  0  0  0
  149.5285  138.7664  152.4598 C   0  0  0  0  0  0  0  0  0  0  0  0
  148.7993  139.7492  152.3258 O   0  0  0  0  0  0  0  0  0  0  0  0
  150.5164  138.6476  153.3631 N   0  0  0  0  0  0  0  0  0  0  0  0
  150.9239  139.5821  154.3527 C   0  0  0  0  0  0  0  0  0  0  0  0
  150.9096  140.9848  154.1784 C   0  0  0  0  0  0  0  0  0  0  0  0
  151.3211  141.8100  155.2425 C   0  0  0  0  0  0  0  0  0  0  0  0
  151.7346  141.2168  156.4621 C   0  0  0  0  0  0  0  0  0  0  0  0
  152.1546  141.9873  157.5701 N   0  0  0  0  0  0  0  0  0  0  0  0
  152.2716  143.4317  157.3456 C   0  0  0  0  0  0  0  0  0  0  0  0
  153.1412  144.0988  158.4248 C   0  0  0  0  0  0  0  0  0  0  0  0
  152.6375  143.7538  159.8332 C   0  0  0  0  0  0  0  0  0  0  0  0
  152.5706  142.2297  160.0035 C   0  0  0  0  0  0  0  0  0  0  0  0
  151.7072  141.5858  158.9053 C   0  0  0  0  0  0  0  0  0  0  0  0
  151.7319  139.8720  156.6260 N   0  0  0  0  0  0  0  0  0  0  0  0
  151.3343  139.0854  155.6047 C   0  0  0  0  0  0  0  0  0  0  0  0
  145.0639  135.5848  152.0703 H   0  0  0  0  0  0  0  0  0  0  0  0
  145.0346  134.4738  150.7202 H   0  0  0  0  0  0  0  0  0  0  0  0
  144.4339  136.1141  150.5024 H   0  0  0  0  0  0  0  0  0  0  0  0
  147.8644  135.6417  148.9624 H   0  0  0  0  0  0  0  0  0  0  0  0
  146.6014  134.4423  149.1218 H   0  0  0  0  0  0  0  0  0  0  0  0
  147.9470  134.4495  150.2637 H   0  0  0  0  0  0  0  0  0  0  0  0
  148.8983  136.7438  149.8932 H   0  0  0  0  0  0  0  0  0  0  0  0
  148.4711  138.4382  150.0221 H   0  0  0  0  0  0  0  0  0  0  0  0
  150.0877  136.9156  151.8611 H   0  0  0  0  0  0  0  0  0  0  0  0
  151.0853  137.8167  153.2929 H   0  0  0  0  0  0  0  0  0  0  0  0
  150.5814  141.4448  153.2593 H   0  0  0  0  0  0  0  0  0  0  0  0
  151.3175  142.8794  155.0965 H   0  0  0  0  0  0  0  0  0  0  0  0
  152.6996  143.6562  156.3689 H   0  0  0  0  0  0  0  0  0  0  0  0
  151.2707  143.8649  157.3552 H   0  0  0  0  0  0  0  0  0  0  0  0
  154.1746  143.7675  158.3155 H   0  0  0  0  0  0  0  0  0  0  0  0
  153.1458  145.1799  158.2830 H   0  0  0  0  0  0  0  0  0  0  0  0
  153.2948  144.1892  160.5862 H   0  0  0  0  0  0  0  0  0  0  0  0
  151.6488  144.1872  159.9895 H   0  0  0  0  0  0  0  0  0  0  0  0
  153.5790  141.8148  159.9636 H   0  0  0  0  0  0  0  0  0  0  0  0
  152.1715  141.9788  160.9867 H   0  0  0  0  0  0  0  0  0  0  0  0
  150.6628  141.8730  159.0338 H   0  0  0  0  0  0  0  0  0  0  0  0
  151.7638  140.5020  159.0120 H   0  0  0  0  0  0  0  0  0  0  0  0
  151.3511  138.0221  155.7947 H   0  0  0  0  0  0  0  0  0  0  0  0
  1  2  1  0  0  0  0
  1 23  1  0  0  0  0
  1 24  1  0  0  0  0
  1 25  1  0  0  0  0
  2  3  1  0  0  0  0
  2  4  1  0  0  0  0
  3 26  1  0  0  0  0
  3 27  1  0  0  0  0
  3 28  1  0  0  0  0
  4  5  2  0  0  0  0
  4  6  1  0  0  0  0
  6  7  1  0  0  0  0
  6 29  1  0  0  0  0
  6 30  1  0  0  0  0
  7  8  1  0  0  0  0
  7 31  1  0  0  0  0
  8  9  2  0  0  0  0
  8 10  1  0  0  0  0
 10 11  1  0  0  0  0
 10 32  1  0  0  0  0
 11 22  1  0  0  0  0
 11 12  2  0  0  0  0
 12 13  1  0  0  0  0
 12 33  1  0  0  0  0
 13 14  2  0  0  0  0
 13 34  1  0  0  0  0
 14 15  1  0  0  0  0
 14 21  1  0  0  0  0
 15 20  1  0  0  0  0
 15 16  1  0  0  0  0
 16 17  1  0  0  0  0
 16 35  1  0  0  0  0
 16 36  1  0  0  0  0
 17 18  1  0  0  0  0
 17 37  1  0  0  0  0
 17 38  1  0  0  0  0
 18 19  1  0  0  0  0
 18 39  1  0  0  0  0
 18 40  1  0  0  0  0
 19 20  1  0  0  0  0
 19 41  1  0  0  0  0
 19 42  1  0  0  0  0
 20 43  1  0  0  0  0
 20 44  1  0  0  0  0
 21 22  2  0  0  0  0
 22 45  1  0  0  0  0
M  END
> <s_m_source_file>
AV-unprocessed.smi

> <i_m_source_file_index>
1516

> <i_lp_mmshare_version>
43012

> <i_f3d_flags>
0

> <s_epik_input>
W0NIM11OKFtDSDNdKUMoPU8pW0NIMl1bTkhdQyg9TylbTkhdYzFbY0hdW2NIXWMobltjSF0xKU4yW0NIMl1bQ0gyXVtDSDJdW0NIMl1bQ0gyXTI=

> <s_epik_cmdline>
J2VwaWtfcHl0aG9uJywgJy1waCcsICc3LjAnLCAnLXRuJywgJzgnLCAnLW1hJywgJzIwMCcsICctbWV0YWxfYmluZGluZycsICctaW1hZScsICc8aW5maWxlLm1hZT4nLCAnLW9tYWUnLCAnPG91dGZpbGUubWFlPic=

> <r_lp_tautomer_probability>
1

> <r_epik_Ionization_Penalty>
0.256009

> <r_epik_Ionization_Penalty_Charging>
0

> <r_epik_Ionization_Penalty_Neutral>
0.256009

> <r_epik_State_Penalty>
0.242045

> <r_epik_Charging_Adjusted_Penalty>
0.242045

> <i_epik_Tot_Q>
0

> <i_epik_Tot_abs_Q>
0

> <r_epik_Metal_State_Penalty>
0.169174

> <b_epik_Metal_Only>
0

> <s_lp_Force_Field>
OPLS_2005

> <r_lp_Energy>
21.8032

> <b_lp_Chiralities_Consistent>
1

> <s_lp_Variant>
AV-unprocessed.smi:1516-1

> <Gold.Version>
5.8.1

> <Gold.Id.Protein>
6NUR|6NUR_protein|mol2

> <Gold.PLP.Fitness>
46.9600

> <Gold.PLP.PLP>
-45.1264

> <Gold.PLP.part.hbond>
-3.0000

> <Gold.PLP.part.metal>
0.0000

> <Gold.PLP.part.buried>
-0.3131

> <Gold.PLP.part.nonpolar>
-44.7138

> <Gold.PLP.part.repulsive>
0.7134

> <Gold.PLP.ligand.clash>
0.0000

> <Gold.PLP.ligand.torsion>
0.7295

> <Gold.PLP.Chemscore.Hbond>
1.0000

> <Gold.PLP.Chemscore.CHOScore>
0.0000

> <Gold.PLP.Chemscore.Metal>
0.0000

> <Gold.PLP.Chemscore.Internal.Correction>
0.2925

> <Gold.Rescore>
     Score         DG    S(hbond)    S(metal)    S(lipo)     H(rot)  DE(clash)    DE(int)     intcor
     15.02     -18.38       0.99        0.00     109.52       1.26       1.81       1.55       ----

> <Gold.Chemscore.Fitness>
15.0214

> <Gold.Chemscore.DG>
-18.3756

> <Gold.Chemscore.ZeroCoef>
-5.4800

> <Gold.Chemscore.Hbond>
0.9907

> <Gold.Chemscore.Metal>
0.0000

> <Gold.Chemscore.Lipo>
109.5173

> <Gold.Chemscore.Internal_Hbond>
0.0000

> <Gold.Chemscore.DEClash>
1.8070

> <Gold.Chemscore.DEInternal>
1.5472

> <Gold.Chemscore.Rot>
1.2605

> <Gold.Chemscore.Internal.Correction>
   9.000000E+99

> <Gold.Chemscore.Hbond.Weighted>
-3.3090

> <Gold.Chemscore.Metal.Weighted>
-0.0000

> <Gold.Chemscore.Lipo.Weighted>
-12.8135

> <Gold.Chemscore.Internal_Hbond.Weighted>
0.0000

> <Gold.Chemscore.DEClash.Weighted>
1.8070

> <Gold.Chemscore.DEInternal.Weighted>
1.5472

> <Gold.Chemscore.Rot.Weighted>
3.2269

> <Gold.Chemscore.Internal.Correction.Weighted>
   9.000000E+99

> <Gold.Protein.RotatedTorsions>
[ 6907 6896 6895 6894 ] final   36.24 input  -60.11 | X-H torsion
[ 7974 7965 7964 7962 ] final -173.79 input  175.53 | X-H torsion
[ 8008 7997 7996 7995 ] final -147.86 input   59.86 | X-H torsion
[ 10167 10162 10161 10158 ] final  -70.75 input  -65.29 | X-H torsion
[ 10718 10713 10712 10709 ] final  -67.73 input   66.30 | X-H torsion
[ 10763 10752 10751 10750 ] final  -77.79 input  -60.55 | X-H torsion
[ 11005 11000 10999 10996 ] final  165.30 input  -57.11 | X-H torsion

> <Gold.Protein.ActiveResidues>
 VAL166  LYS551  ARG553  GLY616  TRP617  ASP618  TYR619  PRO620  LYS621  CYS622 
 ASP623  PHE694  ASN695  SER759  ASP760  ASP761  ALA762  ILE779  LEU786  VAL792 
 PHE793  MET794  SER795  GLU796  ALA797  LYS798  CYS799  TRP800  GLU811  SER814 

> <Gold.Protein.RotatedAtoms>
  152.1271  134.9163  160.0560 H   0  0  0  0  0  0  0  0  0  0  0  0  # atno 6907 bound_to 6896
  152.0281  133.3921  159.4294 H   0  0  0  0  0  0  0  0  0  0  0  0  # atno 6908 bound_to 6896
  150.6853  134.3472  159.4937 H   0  0  0  0  0  0  0  0  0  0  0  0  # atno 6909 bound_to 6896
  144.7135  140.1568  143.6379 H   0  0  0  0  0  0  0  0  0  0  0  0  # atno 7974 bound_to 7965
  155.5823  140.0644  157.2780 H   0  0  0  0  0  0  0  0  0  0  0  0  # atno 8008 bound_to 7997
  154.4329  140.1850  156.1036 H   0  0  0  0  0  0  0  0  0  0  0  0  # atno 8009 bound_to 7997
  156.0296  140.3308  155.7128 H   0  0  0  0  0  0  0  0  0  0  0  0  # atno 8010 bound_to 7997
  140.5327  143.2320  151.7232 H   0  0  0  0  0  0  0  0  0  0  0  0  # atno 10167 bound_to 10162
  156.0542  130.4283  150.1897 H   0  0  0  0  0  0  0  0  0  0  0  0  # atno 10718 bound_to 10713
  154.5175  135.5752  153.6654 H   0  0  0  0  0  0  0  0  0  0  0  0  # atno 10763 bound_to 10752
  152.9910  135.6173  154.2798 H   0  0  0  0  0  0  0  0  0  0  0  0  # atno 10764 bound_to 10752
  154.2716  135.2853  155.2715 H   0  0  0  0  0  0  0  0  0  0  0  0  # atno 10765 bound_to 10752
  140.2548  134.7949  157.3535 H   0  0  0  0  0  0  0  0  0  0  0  0  # atno 11005 bound_to 11000
  145.9066  139.2462  143.1462 LP  0  0  0  0  0  0  0  0  0  0  0  0  # atno 17320 bound_to 7965
  145.9758  140.8723  143.0139 LP  0  0  0  0  0  0  0  0  0  0  0  0  # atno 17321 bound_to 7965
  139.4960  144.4089  152.0102 LP  0  0  0  0  0  0  0  0  0  0  0  0  # atno 17342 bound_to 10162
  140.3192  144.3447  150.6014 LP  0  0  0  0  0  0  0  0  0  0  0  0  # atno 17343 bound_to 10162
  156.9976  130.9912  151.3399 LP  0  0  0  0  0  0  0  0  0  0  0  0  # atno 17370 bound_to 10713
  157.5497  130.8174  149.8129 LP  0  0  0  0  0  0  0  0  0  0  0  0  # atno 17371 bound_to 10713
  140.1523  134.4834  155.7953 LP  0  0  0  0  0  0  0  0  0  0  0  0  # atno 17394 bound_to 11000
  141.2197  133.6867  156.7399 LP  0  0  0  0  0  0  0  0  0  0  0  0  # atno 17395 bound_to 11000

$$$$
