AV-unprocessed.smi:2931|AV-procd|sdf|11245|dock5
  -GOLD-   2272016143D 1   1.00000     0.00000
 Structure written by MMmdl.
 42 43  0  0  0  0  0  0  0  0  2 V2000
  145.5894  132.1865  149.5945 C   0  0  0  0  0  0  0  0  0  0  0  0
  146.2926  131.8945  150.8621 N   0  3  2  0  0  0  0  0  0  0  0  0
  145.3910  131.3157  151.8892 C   0  0  0  0  0  0  0  0  0  0  0  0
  146.1789  130.9035  153.1438 C   0  0  0  0  0  0  0  0  0  0  0  0
  146.9738  132.0883  153.7103 C   0  0  0  0  0  0  0  0  0  0  0  0
  147.8730  132.6936  152.6175 C   0  0  2  0  0  0  0  0  0  0  0  0
  148.5729  133.8726  153.1182 N   0  0  0  0  0  0  0  0  0  0  0  0
  149.3399  133.9010  154.2168 C   0  0  0  0  0  0  0  0  0  0  0  0
  149.5252  132.9302  154.9507 O   0  0  0  0  0  0  0  0  0  0  0  0
  149.8942  135.1074  154.4063 N   0  0  0  0  0  0  0  0  0  0  0  0
  150.8407  135.4451  155.4673 C   0  0  0  0  0  0  0  0  0  0  0  0
  150.2803  136.5105  156.4296 C   0  0  0  0  0  0  0  0  0  0  0  0
  150.3714  137.9283  155.8911 C   0  0  0  0  0  0  0  0  0  0  0  0
  151.2809  138.8505  156.4482 C   0  0  0  0  0  0  0  0  0  0  0  0
  151.3480  140.1455  155.8967 C   0  0  0  0  0  0  0  0  0  0  0  0
  150.5806  140.5517  154.8623 N   0  0  0  0  0  0  0  0  0  0  0  0
  149.7068  139.6654  154.3386 C   0  0  0  0  0  0  0  0  0  0  0  0
  149.5637  138.3461  154.8127 C   0  0  0  0  0  0  0  0  0  0  0  0
  147.0405  133.0687  151.3770 C   0  0  0  0  0  0  0  0  0  0  0  0
  144.8245  132.9509  149.7378 H   0  0  0  0  0  0  0  0  0  0  0  0
  145.1082  131.2888  149.2054 H   0  0  0  0  0  0  0  0  0  0  0  0
  146.2907  132.5412  148.8384 H   0  0  0  0  0  0  0  0  0  0  0  0
  144.6204  132.0426  152.1513 H   0  0  0  0  0  0  0  0  0  0  0  0
  144.8792  130.4445  151.4784 H   0  0  0  0  0  0  0  0  0  0  0  0
  145.4984  130.5151  153.9018 H   0  0  0  0  0  0  0  0  0  0  0  0
  146.8620  130.0897  152.8959 H   0  0  0  0  0  0  0  0  0  0  0  0
  146.2836  132.8442  154.0875 H   0  0  0  0  0  0  0  0  0  0  0  0
  147.5733  131.7604  154.5604 H   0  0  0  0  0  0  0  0  0  0  0  0
  148.6076  131.9452  152.3121 H   0  0  0  0  0  0  0  0  0  0  0  0
  148.4816  134.7228  152.5811 H   0  0  0  0  0  0  0  0  0  0  0  0
  149.6736  135.8404  153.7481 H   0  0  0  0  0  0  0  0  0  0  0  0
  151.0675  134.5354  156.0233 H   0  0  0  0  0  0  0  0  0  0  0  0
  151.7884  135.7846  155.0458 H   0  0  0  0  0  0  0  0  0  0  0  0
  149.2389  136.2826  156.6608 H   0  0  0  0  0  0  0  0  0  0  0  0
  150.8162  136.4643  157.3782 H   0  0  0  0  0  0  0  0  0  0  0  0
  151.9216  138.5702  157.2713 H   0  0  0  0  0  0  0  0  0  0  0  0
  152.0384  140.8738  156.2958 H   0  0  0  0  0  0  0  0  0  0  0  0
  149.1056  140.0168  153.5130 H   0  0  0  0  0  0  0  0  0  0  0  0
  148.8548  137.6732  154.3534 H   0  0  0  0  0  0  0  0  0  0  0  0
  147.7009  133.4463  150.5948 H   0  0  0  0  0  0  0  0  0  0  0  0
  146.3393  133.8705  151.6155 H   0  0  0  0  0  0  0  0  0  0  0  0
  146.9806  131.1855  150.6511 H   0  0  0  0  0  0  0  0  0  0  0  0
  1  2  1  0  0  0  0
  1 20  1  0  0  0  0
  1 21  1  0  0  0  0
  1 22  1  0  0  0  0
  2 19  1  0  0  0  0
  2  3  1  0  0  0  0
  2 42  1  0  0  0  0
  3  4  1  0  0  0  0
  3 23  1  0  0  0  0
  3 24  1  0  0  0  0
  4  5  1  0  0  0  0
  4 25  1  0  0  0  0
  4 26  1  0  0  0  0
  5  6  1  0  0  0  0
  5 27  1  0  0  0  0
  5 28  1  0  0  0  0
  6  7  1  0  0  0  0
  6 19  1  0  0  0  0
  6 29  1  0  0  0  0
  7  8  1  0  0  0  0
  7 30  1  0  0  0  0
  8  9  2  0  0  0  0
  8 10  1  0  0  0  0
 10 11  1  0  0  0  0
 10 31  1  0  0  0  0
 11 12  1  0  0  0  0
 11 32  1  0  0  0  0
 11 33  1  0  0  0  0
 12 13  1  0  0  0  0
 12 34  1  0  0  0  0
 12 35  1  0  0  0  0
 13 18  1  0  0  0  0
 13 14  2  0  0  0  0
 14 15  1  0  0  0  0
 14 36  1  0  0  0  0
 15 16  2  0  0  0  0
 15 37  1  0  0  0  0
 16 17  1  0  0  0  0
 17 18  2  0  0  0  0
 17 38  1  0  0  0  0
 18 39  1  0  0  0  0
 19 40  1  0  0  0  0
 19 41  1  0  0  0  0
M  CHG  1   2   1
M  END
> <s_m_source_file>
AV-unprocessed.smi

> <i_m_source_file_index>
2931

> <i_lp_mmshare_version>
43012

> <i_f3d_flags>
0

> <s_epik_input>
W0NIM11OMVtDSDJdW0NIMl1bQ0gyXVtDQEhdKFtDSDJdMSlbTkhdQyg9TylbTkhdW0NIMl1bQ0gyXWMyW2NIXVtjSF1uW2NIXVtjSF0y

> <s_epik_cmdline>
J2VwaWtfcHl0aG9uJywgJy1waCcsICc3LjAnLCAnLXRuJywgJzgnLCAnLW1hJywgJzIwMCcsICctbWV0YWxfYmluZGluZycsICctaW1hZScsICc8aW5maWxlLm1hZT4nLCAnLW9tYWUnLCAnPG91dGZpbGUubWFlPic=

> <r_epik_Ionization_Penalty>
0.0573876

> <r_epik_Ionization_Penalty_Charging>
0.00229982

> <r_epik_Ionization_Penalty_Neutral>
0.0550878

> <r_epik_State_Penalty>
0.0473925

> <r_epik_Charging_Adjusted_Penalty>
0.0496923

> <i_epik_Tot_Q>
1

> <i_epik_Tot_abs_Q>
1

> <r_epik_Metal_State_Penalty>
0.0433388

> <b_epik_Metal_Only>
0

> <s_lp_Force_Field>
OPLS_2005

> <r_lp_Energy>
13.2125

> <b_lp_Chiralities_Consistent>
1

> <s_lp_Variant>
AV-unprocessed.smi:2931-4

> <Gold.Version>
5.8.1

> <Gold.Id.Protein>
6NUR|6NUR_protein|mol2

> <Gold.PLP.Fitness>
43.7028

> <Gold.PLP.PLP>
-29.9831

> <Gold.PLP.part.hbond>
-4.0980

> <Gold.PLP.part.metal>
0.0000

> <Gold.PLP.part.buried>
-0.5076

> <Gold.PLP.part.nonpolar>
-24.3058

> <Gold.PLP.part.repulsive>
0.2140

> <Gold.PLP.ligand.clash>
0.0000

> <Gold.PLP.ligand.torsion>
0.2098

> <Gold.PLP.Chemscore.Hbond>
3.7102

> <Gold.PLP.Chemscore.CHOScore>
0.9948

> <Gold.PLP.Chemscore.Metal>
0.0000

> <Gold.Chemscore.Hbonds>
donor molecule, donor type, donor heavy atom, donor atom, acceptor molecule, acceptor atom, score
      L1  H     2    42       P1 10747  0.84
      L1  H     7    30       P1  7948  0.90
      L1  H    10    31       P1  7948  0.84
      P1  H  7989  7998       L1    16  0.99
      L1  C    17    38       P1  7957  0.99

> <Gold.PLP.Chemscore.Internal.Correction>
0.0242

> <Gold.Rescore>
     Score         DG    S(hbond)    S(metal)    S(lipo)     H(rot)  DE(clash)    DE(int)     intcor
     14.87     -16.54       1.96        0.00      72.63       1.56       0.40       1.27       ----

> <Gold.Chemscore.Fitness>
14.8704

> <Gold.Chemscore.DG>
-16.5416

> <Gold.Chemscore.ZeroCoef>
-5.4800

> <Gold.Chemscore.Hbond>
1.9629

> <Gold.Chemscore.Metal>
0.0000

> <Gold.Chemscore.Lipo>
72.6251

> <Gold.Chemscore.Internal_Hbond>
0.0000

> <Gold.Chemscore.DEClash>
0.4035

> <Gold.Chemscore.DEInternal>
1.2677

> <Gold.Chemscore.Rot>
1.5592

> <Gold.Chemscore.Internal.Correction>
   9.000000E+99

> <Gold.Chemscore.Hbonds>
donor molecule, donor type, donor heavy atom, donor atom, acceptor molecule, acceptor atom, score
      L1  H     2    42       P1 10747  0.79
      L1  H     7    30       P1  7948  0.18
      L1  H    10    31       P1  7948  0.18
      P1  H  7989  7998       L1    16  0.21

> <Gold.Chemscore.Hbond.Weighted>
-6.5559

> <Gold.Chemscore.Metal.Weighted>
-0.0000

> <Gold.Chemscore.Lipo.Weighted>
-8.4971

> <Gold.Chemscore.Internal_Hbond.Weighted>
0.0000

> <Gold.Chemscore.DEClash.Weighted>
0.4035

> <Gold.Chemscore.DEInternal.Weighted>
1.2677

> <Gold.Chemscore.Rot.Weighted>
3.9915

> <Gold.Chemscore.Internal.Correction.Weighted>
   9.000000E+99

> <Gold.Protein.RotatedTorsions>
[ 6907 6896 6895 6894 ] final  -83.78 input  -60.11 | X-H torsion
[ 7974 7965 7964 7962 ] final   45.32 input  175.53 | X-H torsion
[ 8008 7997 7996 7995 ] final  -10.69 input   59.86 | X-H torsion
[ 10167 10162 10161 10158 ] final   -3.82 input  -65.29 | X-H torsion
[ 10718 10713 10712 10709 ] final  -21.81 input   66.30 | X-H torsion
[ 10763 10752 10751 10750 ] final  171.60 input  -60.55 | X-H torsion
[ 11005 11000 10999 10996 ] final  127.80 input  -57.11 | X-H torsion

> <Gold.Protein.ActiveResidues>
 VAL166  LYS551  ARG553  GLY616  TRP617  ASP618  TYR619  PRO620  LYS621  CYS622 
 ASP623  PHE694  ASN695  SER759  ASP760  ASP761  ALA762  ILE779  LEU786  VAL792 
 PHE793  MET794  SER795  GLU796  ALA797  LYS798  CYS799  TRP800  GLU811  SER814 

> <Gold.Protein.RotatedAtoms>
  150.6882  134.3460  159.4888 H   0  0  0  0  0  0  0  0  0  0  0  0  # atno 6907 bound_to 6896
  152.1307  134.9134  160.0568 H   0  0  0  0  0  0  0  0  0  0  0  0  # atno 6908 bound_to 6896
  152.0305  133.3900  159.4332 H   0  0  0  0  0  0  0  0  0  0  0  0  # atno 6909 bound_to 6896
  146.0490  139.4977  142.9730 H   0  0  0  0  0  0  0  0  0  0  0  0  # atno 7974 bound_to 7965
  154.5532  140.2322  155.8452 H   0  0  0  0  0  0  0  0  0  0  0  0  # atno 8008 bound_to 7997
  156.1965  140.3063  155.9399 H   0  0  0  0  0  0  0  0  0  0  0  0  # atno 8009 bound_to 7997
  155.3030  140.0432  157.3021 H   0  0  0  0  0  0  0  0  0  0  0  0  # atno 8010 bound_to 7997
  140.6904  143.6496  150.8362 H   0  0  0  0  0  0  0  0  0  0  0  0  # atno 10167 bound_to 10162
  156.5131  130.4614  149.6637 H   0  0  0  0  0  0  0  0  0  0  0  0  # atno 10718 bound_to 10713
  154.4142  135.2757  155.2017 H   0  0  0  0  0  0  0  0  0  0  0  0  # atno 10763 bound_to 10752
  154.3990  135.6049  153.5890 H   0  0  0  0  0  0  0  0  0  0  0  0  # atno 10764 bound_to 10752
  152.9832  135.5922  154.4428 H   0  0  0  0  0  0  0  0  0  0  0  0  # atno 10765 bound_to 10752
  139.9527  134.9619  156.8909 H   0  0  0  0  0  0  0  0  0  0  0  0  # atno 11005 bound_to 11000
  145.6756  141.0205  143.1634 LP  0  0  0  0  0  0  0  0  0  0  0  0  # atno 17320 bound_to 7965
  144.7113  139.8362  143.7413 LP  0  0  0  0  0  0  0  0  0  0  0  0  # atno 17321 bound_to 7965
  140.0208  143.5545  152.2801 LP  0  0  0  0  0  0  0  0  0  0  0  0  # atno 17342 bound_to 10162
  139.6302  144.7643  151.2552 LP  0  0  0  0  0  0  0  0  0  0  0  0  # atno 17343 bound_to 10162
  156.3221  130.7286  151.2200 LP  0  0  0  0  0  0  0  0  0  0  0  0  # atno 17370 bound_to 10713
  157.7448  131.0453  150.4834 LP  0  0  0  0  0  0  0  0  0  0  0  0  # atno 17371 bound_to 10713
  140.5682  134.0469  155.7421 LP  0  0  0  0  0  0  0  0  0  0  0  0  # atno 17394 bound_to 11000
  141.1193  133.9488  157.2762 LP  0  0  0  0  0  0  0  0  0  0  0  0  # atno 17395 bound_to 11000

$$$$
