AV-unprocessed.smi:1830|AV-procd|sdf|7448|dock7
  -GOLD-   22720 9133D 1   1.00000     0.00000
 Structure written by MMmdl.
 54 57  0  0  0  0  0  0  0  0  3 V2000
  149.6171  133.4927  155.4509 O   0  0  0  0  0  0  0  0  0  0  0  0
  149.1978  134.2575  154.5831 C   0  0  0  0  0  0  0  0  0  0  0  0
  149.5019  135.5606  154.5421 N   0  0  0  0  0  0  0  0  0  0  0  0
  150.3553  136.2343  155.5141 C   0  0  0  0  0  0  0  0  0  0  0  0
  150.4460  137.7473  155.2512 C   0  0  2  0  0  0  0  0  0  0  0  0
  151.0076  138.5484  156.4404 C   0  0  0  0  0  0  0  0  0  0  0  0
  151.0621  140.0006  156.1357 N   0  3  2  0  0  0  0  0  0  0  0  0
  151.3086  140.8182  157.3439 C   0  0  0  0  0  0  0  0  0  0  0  0
  149.9326  141.3068  157.8330 C   0  0  0  0  0  0  0  0  0  0  0  0
  148.9256  140.8426  156.7739 C   0  0  0  0  0  0  0  0  0  0  0  0
  149.8008  140.5198  155.5626 C   0  0  2  0  0  0  0  0  0  0  0  0
  149.1765  139.5847  154.5066 C   0  0  0  0  0  0  0  0  0  0  0  0
  149.1438  138.2389  154.9611 O   0  0  0  0  0  0  0  0  0  0  0  0
  148.4021  133.9100  153.5579 N   0  0  0  0  0  0  0  0  0  0  0  0
  147.8895  132.6214  153.2306 C   0  0  0  0  0  0  0  0  0  0  0  0
  148.5691  131.4174  153.5500 C   0  0  0  0  0  0  0  0  0  0  0  0
  147.9939  130.1776  153.2070 C   0  0  0  0  0  0  0  0  0  0  0  0
  146.7450  130.1573  152.5597 C   0  0  0  0  0  0  0  0  0  0  0  0
  146.1154  131.3189  152.2853 N   0  3  0  0  0  0  0  0  0  0  0  0
  146.6252  132.5368  152.5932 C   0  0  0  0  0  0  0  0  0  0  0  0
  145.8825  133.6861  152.2713 N   0  0  0  0  0  0  0  0  0  0  0  0
  145.6649  133.9192  150.8533 C   0  0  0  0  0  0  0  0  0  0  0  0
  144.5472  134.9622  150.7813 C   0  0  0  0  0  0  0  0  0  0  0  0
  143.8119  134.8446  152.1221 C   0  0  0  0  0  0  0  0  0  0  0  0
  144.5739  133.7671  152.8985 C   0  0  0  0  0  0  0  0  0  0  0  0
  149.1307  136.1214  153.7891 H   0  0  0  0  0  0  0  0  0  0  0  0
  149.9635  136.0620  156.5179 H   0  0  0  0  0  0  0  0  0  0  0  0
  151.3524  135.7926  155.4830 H   0  0  0  0  0  0  0  0  0  0  0  0
  151.0872  137.8937  154.3799 H   0  0  0  0  0  0  0  0  0  0  0  0
  150.3858  138.3883  157.3226 H   0  0  0  0  0  0  0  0  0  0  0  0
  152.0092  138.1991  156.6937 H   0  0  0  0  0  0  0  0  0  0  0  0
  151.8587  140.2744  158.1136 H   0  0  0  0  0  0  0  0  0  0  0  0
  151.9190  141.6752  157.0566 H   0  0  0  0  0  0  0  0  0  0  0  0
  149.6840  140.8950  158.8117 H   0  0  0  0  0  0  0  0  0  0  0  0
  149.9286  142.3939  157.9233 H   0  0  0  0  0  0  0  0  0  0  0  0
  148.4120  139.9443  157.1196 H   0  0  0  0  0  0  0  0  0  0  0  0
  148.1678  141.5956  156.5550 H   0  0  0  0  0  0  0  0  0  0  0  0
  150.0389  141.4667  155.0746 H   0  0  0  0  0  0  0  0  0  0  0  0
  148.1630  139.9075  154.2676 H   0  0  0  0  0  0  0  0  0  0  0  0
  149.7444  139.6356  153.5762 H   0  0  0  0  0  0  0  0  0  0  0  0
  148.2094  134.6353  152.8825 H   0  0  0  0  0  0  0  0  0  0  0  0
  149.5169  131.4175  154.0654 H   0  0  0  0  0  0  0  0  0  0  0  0
  148.5032  129.2544  153.4423 H   0  0  0  0  0  0  0  0  0  0  0  0
  146.2308  129.2548  152.2624 H   0  0  0  0  0  0  0  0  0  0  0  0
  146.5756  134.2730  150.3687 H   0  0  0  0  0  0  0  0  0  0  0  0
  145.3523  133.0009  150.3543 H   0  0  0  0  0  0  0  0  0  0  0  0
  144.9693  135.9626  150.6768 H   0  0  0  0  0  0  0  0  0  0  0  0
  143.8892  134.7892  149.9291 H   0  0  0  0  0  0  0  0  0  0  0  0
  143.8506  135.7968  152.6526 H   0  0  0  0  0  0  0  0  0  0  0  0
  142.7623  134.5775  151.9964 H   0  0  0  0  0  0  0  0  0  0  0  0
  144.0531  132.8116  152.8222 H   0  0  0  0  0  0  0  0  0  0  0  0
  144.6608  134.0197  153.9558 H   0  0  0  0  0  0  0  0  0  0  0  0
  151.8089  140.1438  155.4704 H   0  0  0  0  0  0  0  0  0  0  0  0
  145.2072  131.2769  151.8227 H   0  0  0  0  0  0  0  0  0  0  0  0
  1  2  2  0  0  0  0
  2  3  1  0  0  0  0
  2 14  1  0  0  0  0
  3  4  1  0  0  0  0
  3 26  1  0  0  0  0
  4  5  1  0  0  0  0
  4 27  1  0  0  0  0
  4 28  1  0  0  0  0
  5 13  1  0  0  0  0
  5  6  1  0  0  0  0
  5 29  1  0  0  0  0
  6  7  1  0  0  0  0
  6 30  1  0  0  0  0
  6 31  1  0  0  0  0
  7 11  1  0  0  0  0
  7  8  1  0  0  0  0
  7 53  1  0  0  0  0
  8  9  1  0  0  0  0
  8 32  1  0  0  0  0
  8 33  1  0  0  0  0
  9 10  1  0  0  0  0
  9 34  1  0  0  0  0
  9 35  1  0  0  0  0
 10 11  1  0  0  0  0
 10 36  1  0  0  0  0
 10 37  1  0  0  0  0
 11 12  1  0  0  0  0
 11 38  1  0  0  0  0
 12 13  1  0  0  0  0
 12 39  1  0  0  0  0
 12 40  1  0  0  0  0
 14 15  1  0  0  0  0
 14 41  1  0  0  0  0
 15 20  1  0  0  0  0
 15 16  2  0  0  0  0
 16 17  1  0  0  0  0
 16 42  1  0  0  0  0
 17 18  2  0  0  0  0
 17 43  1  0  0  0  0
 18 19  1  0  0  0  0
 18 44  1  0  0  0  0
 19 20  2  0  0  0  0
 19 54  1  0  0  0  0
 20 21  1  0  0  0  0
 21 25  1  0  0  0  0
 21 22  1  0  0  0  0
 22 23  1  0  0  0  0
 22 45  1  0  0  0  0
 22 46  1  0  0  0  0
 23 24  1  0  0  0  0
 23 47  1  0  0  0  0
 23 48  1  0  0  0  0
 24 25  1  0  0  0  0
 24 49  1  0  0  0  0
 24 50  1  0  0  0  0
 25 51  1  0  0  0  0
 25 52  1  0  0  0  0
M  CHG  1   7   1
M  CHG  1  19   1
M  END
> <s_m_source_file>
AV-unprocessed.smi

> <i_m_source_file_index>
1830

> <i_lp_mmshare_version>
43012

> <i_f3d_flags>
0

> <s_epik_input>
W0NIMl0xW0NIMl1bQ0gyXVtDQEhdKE4xMilbQ0gyXU9bQ0BASF0oW0NIMl0yKVtDSDJdW05IXUMoPU8pW05IXWMzW2NIXVtjSF1bY0hdbmMzTjRbQ0gyXVtDSDJdW0NIMl1bQ0gyXTQ=

> <s_epik_cmdline>
J2VwaWtfcHl0aG9uJywgJy1waCcsICc3LjAnLCAnLXRuJywgJzgnLCAnLW1hJywgJzIwMCcsICctbWV0YWxfYmluZGluZycsICctaW1hZScsICc8aW5maWxlLm1hZT4nLCAnLW9tYWUnLCAnPG91dGZpbGUubWFlPic=

> <r_lp_tautomer_probability>
0.999994

> <r_epik_Ionization_Penalty>
1.29113

> <r_epik_Ionization_Penalty_Charging>
1.29111

> <r_epik_Ionization_Penalty_Neutral>
1.88144e-05

> <r_epik_State_Penalty>
1.32676

> <r_epik_Charging_Adjusted_Penalty>
2.61787

> <i_epik_Tot_Q>
2

> <i_epik_Tot_abs_Q>
2

> <r_epik_Metal_State_Penalty>
1.40425

> <b_epik_Metal_Only>
0

> <s_lp_Force_Field>
OPLS_2005

> <r_lp_Energy>
77.5794

> <b_lp_Chiralities_Consistent>
1

> <s_lp_Variant>
AV-unprocessed.smi:1830-17

> <Gold.Version>
5.8.1

> <Gold.Id.Protein>
6NUR|6NUR_protein|mol2

> <Gold.PLP.Fitness>
43.3583

> <Gold.PLP.PLP>
-38.0236

> <Gold.PLP.part.hbond>
-2.2184

> <Gold.PLP.part.metal>
0.0000

> <Gold.PLP.part.buried>
-3.7253

> <Gold.PLP.part.nonpolar>
-30.9850

> <Gold.PLP.part.repulsive>
0.4979

> <Gold.PLP.ligand.clash>
0.0000

> <Gold.PLP.ligand.torsion>
0.3368

> <Gold.PLP.Chemscore.Hbond>
1.9920

> <Gold.PLP.Chemscore.CHOScore>
0.0000

> <Gold.PLP.Chemscore.Metal>
0.0000

> <Gold.Chemscore.Hbonds>
donor molecule, donor type, donor heavy atom, donor atom, acceptor molecule, acceptor atom, score
      L1  H     3    26       P1  7948  0.85
      L1  H    14    41       P1  7948  0.91

> <Gold.PLP.Chemscore.Internal.Correction>
0.0322

> <Gold.Rescore>
     Score         DG    S(hbond)    S(metal)    S(lipo)     H(rot)  DE(clash)    DE(int)     intcor
     15.10     -16.55       1.38        0.00      86.46       1.43       0.08       1.38       ----

> <Gold.Chemscore.Fitness>
15.0951

> <Gold.Chemscore.DG>
-16.5463

> <Gold.Chemscore.ZeroCoef>
-5.4800

> <Gold.Chemscore.Hbond>
1.3788

> <Gold.Chemscore.Metal>
0.0000

> <Gold.Chemscore.Lipo>
86.4624

> <Gold.Chemscore.Internal_Hbond>
0.0000

> <Gold.Chemscore.DEClash>
0.0752

> <Gold.Chemscore.DEInternal>
1.3761

> <Gold.Chemscore.Rot>
1.4278

> <Gold.Chemscore.Internal.Correction>
   9.000000E+99

> <Gold.Chemscore.Hbonds>
donor molecule, donor type, donor heavy atom, donor atom, acceptor molecule, acceptor atom, score
      L1  H     3    26       P1  7948  0.80
      L1  H    14    41       P1  7948  0.52

> <Gold.Chemscore.Hbond.Weighted>
-4.6053

> <Gold.Chemscore.Metal.Weighted>
-0.0000

> <Gold.Chemscore.Lipo.Weighted>
-10.1161

> <Gold.Chemscore.Internal_Hbond.Weighted>
0.0000

> <Gold.Chemscore.DEClash.Weighted>
0.0752

> <Gold.Chemscore.DEInternal.Weighted>
1.3761

> <Gold.Chemscore.Rot.Weighted>
3.6551

> <Gold.Chemscore.Internal.Correction.Weighted>
   9.000000E+99

> <Gold.Protein.RotatedTorsions>
[ 6907 6896 6895 6894 ] final -168.98 input  -60.11 | X-H torsion
[ 7974 7965 7964 7962 ] final -140.03 input  175.53 | X-H torsion
[ 8008 7997 7996 7995 ] final  -38.88 input   59.86 | X-H torsion
[ 10167 10162 10161 10158 ] final  -75.47 input  -65.29 | X-H torsion
[ 10718 10713 10712 10709 ] final -124.95 input   66.30 | X-H torsion
[ 10763 10752 10751 10750 ] final  -55.95 input  -60.55 | X-H torsion
[ 11005 11000 10999 10996 ] final -166.85 input  -57.11 | X-H torsion

> <Gold.Protein.ActiveResidues>
 VAL166  LYS551  ARG553  GLY616  TRP617  ASP618  TYR619  PRO620  LYS621  CYS622 
 ASP623  PHE694  ASN695  SER759  ASP760  ASP761  ALA762  ILE779  LEU786  VAL792 
 PHE793  MET794  SER795  GLU796  ALA797  LYS798  CYS799  TRP800  GLU811  SER814 

> <Gold.Protein.RotatedAtoms>
  151.4843  133.3539  159.2842 H   0  0  0  0  0  0  0  0  0  0  0  0  # atno 6907 bound_to 6896
  150.8876  134.8278  159.7281 H   0  0  0  0  0  0  0  0  0  0  0  0  # atno 6908 bound_to 6896
  152.4803  134.4749  159.9699 H   0  0  0  0  0  0  0  0  0  0  0  0  # atno 6909 bound_to 6896
  144.8629  140.6248  143.5316 H   0  0  0  0  0  0  0  0  0  0  0  0  # atno 7974 bound_to 7965
  154.4030  140.1566  156.2773 H   0  0  0  0  0  0  0  0  0  0  0  0  # atno 8008 bound_to 7997
  155.8901  140.3439  155.5928 H   0  0  0  0  0  0  0  0  0  0  0  0  # atno 8009 bound_to 7997
  155.7568  140.0812  157.2165 H   0  0  0  0  0  0  0  0  0  0  0  0  # atno 8010 bound_to 7997
  140.4940  143.2374  151.7861 H   0  0  0  0  0  0  0  0  0  0  0  0  # atno 10167 bound_to 10162
  156.1633  130.6617  151.0079 H   0  0  0  0  0  0  0  0  0  0  0  0  # atno 10718 bound_to 10713
  154.1989  135.6414  153.5081 H   0  0  0  0  0  0  0  0  0  0  0  0  # atno 10763 bound_to 10752
  153.0016  135.5446  154.6336 H   0  0  0  0  0  0  0  0  0  0  0  0  # atno 10764 bound_to 10752
  154.5744  135.2919  155.0769 H   0  0  0  0  0  0  0  0  0  0  0  0  # atno 10765 bound_to 10752
  140.5598  134.5344  157.5141 H   0  0  0  0  0  0  0  0  0  0  0  0  # atno 11005 bound_to 11000
  145.4277  139.1554  143.4039 LP  0  0  0  0  0  0  0  0  0  0  0  0  # atno 17320 bound_to 7965
  146.2874  140.4391  142.8752 LP  0  0  0  0  0  0  0  0  0  0  0  0  # atno 17321 bound_to 7965
  139.4857  144.4611  151.9539 LP  0  0  0  0  0  0  0  0  0  0  0  0  # atno 17342 bound_to 10162
  140.3699  144.2869  150.5921 LP  0  0  0  0  0  0  0  0  0  0  0  0  # atno 17343 bound_to 10162
  157.6749  131.0853  150.7521 LP  0  0  0  0  0  0  0  0  0  0  0  0  # atno 17370 bound_to 10713
  156.7582  130.4790  149.5442 LP  0  0  0  0  0  0  0  0  0  0  0  0  # atno 17371 bound_to 10713
  139.9413  134.7782  156.0671 LP  0  0  0  0  0  0  0  0  0  0  0  0  # atno 17394 bound_to 11000
  141.1121  133.6640  156.3004 LP  0  0  0  0  0  0  0  0  0  0  0  0  # atno 17395 bound_to 11000

$$$$
