AV-unprocessed.smi:2256|AV-procd|sdf|9126|dock10
  -GOLD-   2272012333D 1   1.00000     0.00000
 Structure written by MMmdl.
 42 44  0  0  0  0  0  0  0  0  1 V2000
  143.6959  144.9369  154.8324 C   0  0  0  0  0  0  0  0  0  0  0  0
  144.6480  143.7547  154.7964 C   0  0  0  0  0  0  0  0  0  0  0  0
  145.6184  143.7915  153.7907 N   0  0  0  0  0  0  0  0  0  0  0  0
  146.4664  142.8220  153.6770 C   0  0  0  0  0  0  0  0  0  0  0  0
  146.4445  141.7175  154.5440 N   0  0  0  0  0  0  0  0  0  0  0  0
  147.4602  140.6790  154.3037 C   0  0  0  0  0  0  0  0  0  0  0  0
  148.8966  141.2005  154.5343 C   0  0  2  0  0  0  0  0  0  0  0  0
  149.8088  140.5273  153.6897 O   0  0  0  0  0  0  0  0  0  0  0  0
  149.3767  141.0194  155.9844 C   0  0  0  0  0  0  0  0  0  0  0  0
  150.4103  141.9533  156.2721 O   0  0  0  0  0  0  0  0  0  0  0  0
  151.2093  141.7351  157.3742 C   0  0  0  0  0  0  0  0  0  0  0  0
  151.5189  140.4466  157.8833 C   0  0  0  0  0  0  0  0  0  0  0  0
  152.3431  140.2976  159.0150 C   0  0  0  0  0  0  0  0  0  0  0  0
  152.8701  141.4319  159.6549 C   0  0  0  0  0  0  0  0  0  0  0  0
  152.5646  142.7072  159.1513 C   0  0  0  0  0  0  0  0  0  0  0  0
  152.9265  143.9768  159.5568 N   0  0  0  0  0  0  0  0  0  0  0  0
  152.3666  144.9328  158.7279 C   0  0  0  0  0  0  0  0  0  0  0  0
  151.6256  144.3031  157.7621 C   0  0  0  0  0  0  0  0  0  0  0  0
  151.7334  142.8900  158.0071 C   0  0  0  0  0  0  0  0  0  0  0  0
  145.5417  141.6096  155.5615 C   0  0  0  0  0  0  0  0  0  0  0  0
  145.5445  140.6452  156.3290 O   0  0  0  0  0  0  0  0  0  0  0  0
  144.5783  142.7167  155.6739 C   0  0  0  0  0  0  0  0  0  0  0  0
  143.5432  142.6214  156.7879 C   0  0  0  0  0  0  0  0  0  0  0  0
  153.5152  144.2053  160.3448 H   0  0  0  0  0  0  0  0  0  0  0  0
  142.6698  144.6042  154.6731 H   0  0  0  0  0  0  0  0  0  0  0  0
  143.9358  145.6639  154.0558 H   0  0  0  0  0  0  0  0  0  0  0  0
  143.7532  145.4460  155.7947 H   0  0  0  0  0  0  0  0  0  0  0  0
  147.2448  142.8043  152.9122 H   0  0  0  0  0  0  0  0  0  0  0  0
  147.2664  139.8471  154.9835 H   0  0  0  0  0  0  0  0  0  0  0  0
  147.3695  140.2365  153.3093 H   0  0  0  0  0  0  0  0  0  0  0  0
  148.9581  142.2629  154.2960 H   0  0  0  0  0  0  0  0  0  0  0  0
  149.4162  140.4339  152.8354 H   0  0  0  0  0  0  0  0  0  0  0  0
  148.5423  141.1275  156.6797 H   0  0  0  0  0  0  0  0  0  0  0  0
  149.7718  140.0083  156.0951 H   0  0  0  0  0  0  0  0  0  0  0  0
  151.1347  139.5503  157.4211 H   0  0  0  0  0  0  0  0  0  0  0  0
  152.5701  139.3109  159.3912 H   0  0  0  0  0  0  0  0  0  0  0  0
  153.5028  141.3236  160.5234 H   0  0  0  0  0  0  0  0  0  0  0  0
  152.5414  145.9857  158.8936 H   0  0  0  0  0  0  0  0  0  0  0  0
  151.0637  144.7668  156.9649 H   0  0  0  0  0  0  0  0  0  0  0  0
  144.0383  142.5606  157.7576 H   0  0  0  0  0  0  0  0  0  0  0  0
  142.9370  141.7238  156.6607 H   0  0  0  0  0  0  0  0  0  0  0  0
  142.8650  143.4724  156.8187 H   0  0  0  0  0  0  0  0  0  0  0  0
  1  2  1  0  0  0  0
  1 25  1  0  0  0  0
  1 26  1  0  0  0  0
  1 27  1  0  0  0  0
  2 22  2  0  0  0  0
  2  3  1  0  0  0  0
  3  4  2  0  0  0  0
  4  5  1  0  0  0  0
  4 28  1  0  0  0  0
  5  6  1  0  0  0  0
  5 20  1  0  0  0  0
  6  7  1  0  0  0  0
  6 29  1  0  0  0  0
  6 30  1  0  0  0  0
  7  8  1  0  0  0  0
  7  9  1  0  0  0  0
  7 31  1  0  0  0  0
  8 32  1  0  0  0  0
  9 10  1  0  0  0  0
  9 33  1  0  0  0  0
  9 34  1  0  0  0  0
 10 11  1  0  0  0  0
 11 19  1  0  0  0  0
 11 12  2  0  0  0  0
 12 13  1  0  0  0  0
 12 35  1  0  0  0  0
 13 14  2  0  0  0  0
 13 36  1  0  0  0  0
 14 15  1  0  0  0  0
 14 37  1  0  0  0  0
 15 19  2  0  0  0  0
 15 16  1  0  0  0  0
 16 24  1  0  0  0  0
 16 17  1  0  0  0  0
 17 18  2  0  0  0  0
 17 38  1  0  0  0  0
 18 19  1  0  0  0  0
 18 39  1  0  0  0  0
 20 21  2  0  0  0  0
 20 22  1  0  0  0  0
 22 23  1  0  0  0  0
 23 40  1  0  0  0  0
 23 41  1  0  0  0  0
 23 42  1  0  0  0  0
M  END
> <s_m_source_file>
AV-unprocessed.smi

> <i_m_source_file_index>
2256

> <i_lp_mmshare_version>
43012

> <i_f3d_flags>
0

> <s_epik_input>
W0NIM11jMW5bY0hdbihjKD1PKWMxW0NIM10pW0NIMl1bQ0BIXShbT0hdKVtDSDJdT2MoW2NIXVtjSF1bY0hdMiljKGMyMylbY0hdW2NIXVtuSF0z

> <s_epik_cmdline>
J2VwaWtfcHl0aG9uJywgJy1waCcsICc3LjAnLCAnLXRuJywgJzgnLCAnLW1hJywgJzIwMCcsICctbWV0YWxfYmluZGluZycsICctaW1hZScsICc8aW5maWxlLm1hZT4nLCAnLW9tYWUnLCAnPG91dGZpbGUubWFlPic=

> <r_lp_tautomer_probability>
1

> <r_epik_Ionization_Penalty>
4.18314e-05

> <r_epik_Ionization_Penalty_Charging>
1.04093e-07

> <r_epik_Ionization_Penalty_Neutral>
4.17273e-05

> <r_epik_State_Penalty>
-0

> <r_epik_Charging_Adjusted_Penalty>
1.04093e-07

> <i_epik_Tot_Q>
0

> <i_epik_Tot_abs_Q>
0

> <r_epik_Metal_State_Penalty>
-0

> <b_epik_Metal_Only>
0

> <s_lp_Force_Field>
OPLS_2005

> <r_lp_Energy>
26.398

> <b_lp_Chiralities_Consistent>
1

> <s_lp_Variant>
AV-unprocessed.smi:2256-1

> <Gold.Version>
5.8.1

> <Gold.Id.Protein>
6NUR|6NUR_protein|mol2

> <Gold.PLP.Fitness>
49.8342

> <Gold.PLP.PLP>
-47.0274

> <Gold.PLP.part.hbond>
-2.5624

> <Gold.PLP.part.metal>
0.0000

> <Gold.PLP.part.buried>
-8.7447

> <Gold.PLP.part.nonpolar>
-37.5578

> <Gold.PLP.part.repulsive>
0.3789

> <Gold.PLP.ligand.clash>
0.0000

> <Gold.PLP.ligand.torsion>
1.0737

> <Gold.PLP.Chemscore.Hbond>
1.6240

> <Gold.PLP.Chemscore.CHOScore>
0.0000

> <Gold.PLP.Chemscore.Metal>
0.0000

> <Gold.Chemscore.Hbonds>
donor molecule, donor type, donor heavy atom, donor atom, acceptor molecule, acceptor atom, score
      L1  H     8    32       P1  7957  0.96
      P1  H  7989  7998       L1     8  0.54

> <Gold.PLP.Chemscore.Internal.Correction>
0.0821

> <Gold.Rescore>
     Score         DG    S(hbond)    S(metal)    S(lipo)     H(rot)  DE(clash)    DE(int)     intcor
     15.37     -16.58       1.36        0.00     112.42       2.58       0.08       1.12       ----

> <Gold.Chemscore.Fitness>
15.3722

> <Gold.Chemscore.DG>
-16.5782

> <Gold.Chemscore.ZeroCoef>
-5.4800

> <Gold.Chemscore.Hbond>
1.3624

> <Gold.Chemscore.Metal>
0.0000

> <Gold.Chemscore.Lipo>
112.4245

> <Gold.Chemscore.Internal_Hbond>
0.0000

> <Gold.Chemscore.DEClash>
0.0816

> <Gold.Chemscore.DEInternal>
1.1244

> <Gold.Chemscore.Rot>
2.5804

> <Gold.Chemscore.Internal.Correction>
   9.000000E+99

> <Gold.Chemscore.Hbonds>
donor molecule, donor type, donor heavy atom, donor atom, acceptor molecule, acceptor atom, score
      L1  H     8    32       P1  7957  0.92
      P1  H  7989  7998       L1     8  0.35

> <Gold.Chemscore.Hbond.Weighted>
-4.5505

> <Gold.Chemscore.Metal.Weighted>
-0.0000

> <Gold.Chemscore.Lipo.Weighted>
-13.1537

> <Gold.Chemscore.Internal_Hbond.Weighted>
0.0000

> <Gold.Chemscore.DEClash.Weighted>
0.0816

> <Gold.Chemscore.DEInternal.Weighted>
1.1244

> <Gold.Chemscore.Rot.Weighted>
6.6059

> <Gold.Chemscore.Internal.Correction.Weighted>
   9.000000E+99

> <Gold.Protein.RotatedTorsions>
[ 6907 6896 6895 6894 ] final  136.90 input  -60.11 | X-H torsion
[ 7974 7965 7964 7962 ] final  154.43 input  175.53 | X-H torsion
[ 8008 7997 7996 7995 ] final  -36.57 input   59.86 | X-H torsion
[ 10167 10162 10161 10158 ] final -140.33 input  -65.29 | X-H torsion
[ 10718 10713 10712 10709 ] final  -81.09 input   66.30 | X-H torsion
[ 10763 10752 10751 10750 ] final  -26.63 input  -60.55 | X-H torsion
[ 11005 11000 10999 10996 ] final   73.66 input  -57.11 | X-H torsion

> <Gold.Protein.ActiveResidues>
 VAL166  LYS551  ARG553  GLY616  TRP617  ASP618  TYR619  PRO620  LYS621  CYS622 
 ASP623  PHE694  ASN695  SER759  ASP760  ASP761  ALA762  ILE779  LEU786  VAL792 
 PHE793  MET794  SER795  GLU796  ALA797  LYS798  CYS799  TRP800  GLU811  SER814 

> <Gold.Protein.RotatedAtoms>
  152.2842  133.5499  159.5516 H   0  0  0  0  0  0  0  0  0  0  0  0  # atno 6907 bound_to 6896
  150.7208  134.0521  159.3811 H   0  0  0  0  0  0  0  0  0  0  0  0  # atno 6908 bound_to 6896
  151.8430  135.0584  160.0501 H   0  0  0  0  0  0  0  0  0  0  0  0  # atno 6909 bound_to 6896
  144.8089  139.6933  143.6150 H   0  0  0  0  0  0  0  0  0  0  0  0  # atno 7974 bound_to 7965
  154.4070  140.1627  156.2396 H   0  0  0  0  0  0  0  0  0  0  0  0  # atno 8008 bound_to 7997
  155.9212  140.3421  155.6152 H   0  0  0  0  0  0  0  0  0  0  0  0  # atno 8009 bound_to 7997
  155.7219  140.0769  157.2317 H   0  0  0  0  0  0  0  0  0  0  0  0  # atno 8010 bound_to 7997
  139.8292  143.7470  152.2666 H   0  0  0  0  0  0  0  0  0  0  0  0  # atno 10167 bound_to 10162
  156.0057  130.4593  150.3899 H   0  0  0  0  0  0  0  0  0  0  0  0  # atno 10718 bound_to 10713
  153.7190  135.6946  153.5017 H   0  0  0  0  0  0  0  0  0  0  0  0  # atno 10763 bound_to 10752
  153.2217  135.4367  155.0496 H   0  0  0  0  0  0  0  0  0  0  0  0  # atno 10764 bound_to 10752
  154.8290  135.3462  154.6724 H   0  0  0  0  0  0  0  0  0  0  0  0  # atno 10765 bound_to 10752
  139.9429  134.7366  156.1054 H   0  0  0  0  0  0  0  0  0  0  0  0  # atno 11005 bound_to 11000
  146.2385  139.5953  142.9508 LP  0  0  0  0  0  0  0  0  0  0  0  0  # atno 17320 bound_to 7965
  145.5371  141.0423  143.2351 LP  0  0  0  0  0  0  0  0  0  0  0  0  # atno 17321 bound_to 7965
  139.7672  144.7488  151.0277 LP  0  0  0  0  0  0  0  0  0  0  0  0  # atno 17342 bound_to 10162
  140.7808  143.4685  151.0179 LP  0  0  0  0  0  0  0  0  0  0  0  0  # atno 17343 bound_to 10162
  157.1975  131.0430  151.2668 LP  0  0  0  0  0  0  0  0  0  0  0  0  # atno 17370 bound_to 10713
  157.4006  130.7331  149.6764 LP  0  0  0  0  0  0  0  0  0  0  0  0  # atno 17371 bound_to 10713
  141.1069  133.6656  156.2886 LP  0  0  0  0  0  0  0  0  0  0  0  0  # atno 17394 bound_to 11000
  140.5907  134.5653  157.5499 LP  0  0  0  0  0  0  0  0  0  0  0  0  # atno 17395 bound_to 11000

$$$$
