#       Name:                AV-unprocessed.smi:2563
#       Creating user name   scv26
#       Creation time:       Fri Mar 27 14:09:48 2020


#       File generated by GOLD software.
#

@<TRIPOS>MOLECULE
AV-unprocessed.smi:2563
    39    40     1
SMALL
NO_CHARGES


@<TRIPOS>ATOM
      1 ****        -3.0403   1.8025  -1.0794 C.3            1 S1                 0.0000
      2 ****        -2.2369   0.5029  -0.9384 C.3            1 S1                 0.0000
      3 ****        -0.8193   0.7530  -0.6870 N.pl3          1 S1                 0.0000
      4 ****        -0.3582   0.8639   0.6981 C.3            1 S1                 0.0000
      5 ****        -0.0574  -0.5066   1.3327 C.3            1 S1                 0.0000
      6 ****         0.1613  -0.3918   2.8548 C.3            1 S1                 0.0000
      7 ****         0.5274  -1.7054   3.4209 N.4            1 S1                 1.0000
      8 ****         1.6991  -2.2853   2.7366 C.3            1 S1                 0.0000
      9 ****         1.4530  -2.3341   1.2197 C.3            1 S1                 0.0000
     10 ****         1.1346  -1.0282   0.7493 O.3            1 S1                 0.0000
     11 ****         0.0854   0.9103  -1.7646 C.ar           1 S1                 0.0000
     12 ****        -0.3264   0.9852  -3.1182 C.ar           1 S1                 0.0000
     13 ****         0.6495   1.1373  -4.1176 C.ar           1 S1                 0.0000
     14 ****         1.9921   1.2077  -3.7114 C.ar           1 S1                 0.0000
     15 ****         2.3756   1.1363  -2.4188 N.ar           1 S1                 0.0000
     16 ****         1.4164   0.9926  -1.4888 N.pl3          1 S1                 1.0000
     17 ****        -4.0958   1.5863  -1.2449 H              1 S1                 0.0000
     18 ****        -2.6900   2.4011  -1.9205 H              1 S1                 0.0000
     19 ****        -2.9658   2.4145  -0.1800 H              1 S1                 0.0000
     20 ****        -2.6424  -0.0695  -0.1037 H              1 S1                 0.0000
     21 ****        -2.3697  -0.1328  -1.8136 H              1 S1                 0.0000
     22 ****         0.5005   1.5296   0.7872 H              1 S1                 0.0000
     23 ****        -1.1541   1.3466   1.2662 H              1 S1                 0.0000
     24 ****        -0.8885  -1.1872   1.1388 H              1 S1                 0.0000
     25 ****         0.9546   0.3246   3.0734 H              1 S1                 0.0000
     26 ****        -0.7420  -0.0320   3.3482 H              1 S1                 0.0000
     27 ****         0.7313  -1.6040   4.4054 H              1 S1                 0.0000
     28 ****         2.5788  -1.6790   2.9565 H              1 S1                 0.0000
     29 ****         1.8897  -3.2846   3.1283 H              1 S1                 0.0000
     30 ****         2.3466  -2.6879   0.7051 H              1 S1                 0.0000
     31 ****         0.6478  -3.0285   0.9746 H              1 S1                 0.0000
     32 ****        -1.3649   0.9364  -3.4078 H              1 S1                 0.0000
     33 ****         0.3779   1.1998  -5.1611 H              1 S1                 0.0000
     34 ****         2.7803   1.3250  -4.4408 H              1 S1                 0.0000
     35 ****        -0.2550  -2.3349   3.3115 H              1 S1                 0.0000
     36 ****         1.7038   0.9367  -0.5117 H              1 S1                 0.0000
     37 ****         1.8932  -0.4152   0.9701 LP             1 S1                 0.0000
     38 ****         1.0147  -1.0663  -0.2427 LP             1 S1                 0.0000
     39 ****         3.3407   1.1886  -2.1622 LP             1 S1                 0.0000
@<TRIPOS>BOND
    1    1    2 1     
    2    1   17 1     
    3    1   18 1     
    4    1   19 1     
    5    2    3 1     
    6    2   20 1     
    7    2   21 1     
    8    3    4 1     
    9    3   11 1     
   10    4    5 1     
   11    4   22 1     
   12    4   23 1     
   13    5   10 1     
   14    5    6 1     
   15    5   24 1     
   16    6    7 1     
   17    6   25 1     
   18    6   26 1     
   19    7    8 1     
   20    7   27 1     
   21    7   35 1     
   22    8    9 1     
   23    8   28 1     
   24    8   29 1     
   25    9   10 1     
   26    9   30 1     
   27    9   31 1     
   28   11   16 ar    
   29   11   12 ar    
   30   12   13 ar    
   31   12   32 1     
   32   13   14 ar    
   33   13   33 1     
   34   14   15 ar    
   35   14   34 1     
   36   15   16 ar    
   37   16   36 1     
   38   10   37 1     
   39   10   38 1     
   40   15   39 1     
@<TRIPOS>SUBSTRUCTURE
      1 S1             1
@<TRIPOS>SET
LONE_PAIRS      STATIC     ATOMS    <user>   **** ""
3 37 38 39
DONOR_HYDROGENS      STATIC     ATOMS    <user>   **** ""
3 27 35 36
ATOM$BLUE        STATIC     ATOMS    COLORGROUP SYSTEM
3 37 38 39
ATOM$RED        STATIC     ATOMS    COLORGROUP SYSTEM
3 27 35 36
