#       Name:                AV-unprocessed.smi:1278
#       Creating user name   scv26
#       Creation time:       Fri Mar 27 04:48:07 2020


#       File generated by GOLD software.
#

@<TRIPOS>MOLECULE
AV-unprocessed.smi:1278
    42    43     1
SMALL
NO_CHARGES


@<TRIPOS>ATOM
      1 ****        -0.7499   4.3390   1.4065 C.3            1 S1                 0.0000
      2 ****        -1.1140   3.5104   0.1662 C.3            1 S1                 0.0000
      3 ****        -2.6234   3.5678  -0.1237 C.3            1 S1                 0.0000
      4 ****        -2.9627   2.7091  -1.3482 C.3            1 S1                 0.0000
      5 ****        -2.4579   1.2692  -1.1658 C.3            1 S1                 0.0000
      6 ****        -0.9975   1.2430  -0.8938 N.4            1 S1                 1.0000
      7 ****        -0.4648  -0.1416  -0.8435 C.3            1 S1                 0.0000
      8 ****         1.0446  -0.2041  -1.1482 C.3            1 S1                 0.0000
      9 ****         1.5388  -1.5763  -1.1243 N.am           1 S1                 0.0000
     10 ****         1.7767  -2.2820  -0.0090 C.2            1 S1                 0.0000
     11 ****         1.5948  -1.8338   1.1236 O.2            1 S1                 0.0000
     12 ****         2.2275  -3.5160  -0.2954 N.am           1 S1                 0.0000
     13 ****         2.5660  -4.5566   0.6094 C.2            1 S1                 0.0000
     14 ****         2.4658  -4.4603   1.9403 N.2            1 S1                 0.0000
     15 ****         2.8596  -5.6369   2.5824 C.2            1 S1                 0.0000
     16 ****         3.2590  -6.6265   1.7188 C.2            1 S1                 0.0000
     17 ****         3.1575  -6.1159   0.0548 S.3            1 S1                 0.0000
     18 ****        -0.6527   2.0458   0.3110 C.3            1 S1                 0.0000
     19 ****        -1.2370   3.9498   2.3012 H              1 S1                 0.0000
     20 ****        -1.0551   5.3790   1.2875 H              1 S1                 0.0000
     21 ****         0.3261   4.3305   1.5833 H              1 S1                 0.0000
     22 ****        -0.5893   3.9470  -0.6852 H              1 S1                 0.0000
     23 ****        -3.1833   3.2094   0.7414 H              1 S1                 0.0000
     24 ****        -2.9388   4.5978  -0.2943 H              1 S1                 0.0000
     25 ****        -4.0405   2.7074  -1.5144 H              1 S1                 0.0000
     26 ****        -2.5128   3.1461  -2.2409 H              1 S1                 0.0000
     27 ****        -2.9903   0.7823  -0.3471 H              1 S1                 0.0000
     28 ****        -2.6760   0.6994  -2.0698 H              1 S1                 0.0000
     29 ****        -0.6921  -0.5824   0.1285 H              1 S1                 0.0000
     30 ****        -0.9804  -0.7545  -1.5845 H              1 S1                 0.0000
     31 ****         1.2410   0.2098  -2.1376 H              1 S1                 0.0000
     32 ****         1.6229   0.3934  -0.4430 H              1 S1                 0.0000
     33 ****         1.7160  -2.0160  -2.0161 H              1 S1                 0.0000
     34 ****         2.3356  -3.7413  -1.2733 H              1 S1                 0.0000
     35 ****         2.8232  -5.6837   3.6607 H              1 S1                 0.0000
     36 ****         3.6052  -7.6205   1.9602 H              1 S1                 0.0000
     37 ****         0.4244   2.0298   0.4749 H              1 S1                 0.0000
     38 ****        -1.1098   1.5918   1.1920 H              1 S1                 0.0000
     39 ****        -0.5566   1.6915  -1.6840 H              1 S1                 0.0000
     40 ****         1.2538  -0.9014   1.2435 LP             1 S1                 0.0000
     41 ****         1.7881  -2.4023   1.9233 LP             1 S1                 0.0000
     42 ****         2.1466  -3.6424   2.4189 LP             1 S1                 0.0000
@<TRIPOS>BOND
    1    1    2 1     
    2    1   19 1     
    3    1   20 1     
    4    1   21 1     
    5    2   18 1     
    6    2    3 1     
    7    2   22 1     
    8    3    4 1     
    9    3   23 1     
   10    3   24 1     
   11    4    5 1     
   12    4   25 1     
   13    4   26 1     
   14    5    6 1     
   15    5   27 1     
   16    5   28 1     
   17    6    7 1     
   18    6   18 1     
   19    6   39 1     
   20    7    8 1     
   21    7   29 1     
   22    7   30 1     
   23    8    9 1     
   24    8   31 1     
   25    8   32 1     
   26    9   10 am    
   27    9   33 1     
   28   10   11 2     
   29   10   12 am    
   30   12   13 1     
   31   12   34 1     
   32   13   17 1     
   33   13   14 2     
   34   14   15 1     
   35   15   16 2     
   36   15   35 1     
   37   16   17 1     
   38   16   36 1     
   39   18   37 1     
   40   18   38 1     
   41   11   40 1     
   42   11   41 1     
   43   14   42 1     
@<TRIPOS>SUBSTRUCTURE
      1 S1             1
@<TRIPOS>SET
LONE_PAIRS      STATIC     ATOMS    <user>   **** ""
3 40 41 42
DONOR_HYDROGENS      STATIC     ATOMS    <user>   **** ""
3 39 33 34
ATOM$BLUE        STATIC     ATOMS    COLORGROUP SYSTEM
3 40 41 42
ATOM$RED        STATIC     ATOMS    COLORGROUP SYSTEM
3 39 33 34
