AV-unprocessed.smi:73|AV-procd|sdf|760|dock2
  -GOLD-   2262017 93D 1   1.00000     0.00000
 Structure written by MMmdl.
 35 36  0  0  0  0  0  0  0  0  2 V2000
  145.0311  134.4591  153.9500 C   0  0  0  0  0  0  0  0  0  0  0  0
  146.2503  134.4858  153.0154 C   0  0  0  0  0  0  0  0  0  0  0  0
  146.3979  133.3547  152.0780 N   0  0  0  0  0  0  0  0  0  0  0  0
  146.8244  132.1293  152.7809 C   0  0  0  0  0  0  0  0  0  0  0  0
  148.1080  132.2477  153.5373 C   0  0  0  0  0  0  0  0  0  0  0  0
  148.7930  133.3635  153.7987 N   0  0  0  0  0  0  0  0  0  0  0  0
  149.8953  132.9652  154.5216 N   0  0  0  0  0  0  0  0  0  0  0  0
  149.7873  131.6405  154.6489 C   0  0  0  0  0  0  0  0  0  0  0  0
  150.7241  130.7170  155.3486 C   0  0  0  0  0  0  0  0  0  0  0  0
  148.6778  131.1288  154.0566 O   0  0  0  0  0  0  0  0  0  0  0  0
  145.1365  133.1243  151.3420 C   0  0  1  0  0  0  0  0  0  0  0  0
  144.5789  134.3487  150.5748 C   0  0  0  0  0  0  0  0  0  0  0  0
  143.9751  133.8677  149.3175 N   0  3  0  0  0  0  0  0  0  0  0  0
  144.0349  132.3998  149.3114 C   0  0  0  0  0  0  0  0  0  0  0  0
  145.1959  132.0459  150.2362 C   0  0  1  0  0  0  0  0  0  0  0  0
  146.3965  132.1250  149.4872 O   0  0  0  0  0  0  0  0  0  0  0  0
  145.0867  131.0348  150.6297 H   0  0  0  0  0  0  0  0  0  0  0  0
  145.1468  135.1983  154.7428 H   0  0  0  0  0  0  0  0  0  0  0  0
  144.9150  133.4842  154.4243 H   0  0  0  0  0  0  0  0  0  0  0  0
  144.1059  134.7041  153.4308 H   0  0  0  0  0  0  0  0  0  0  0  0
  146.2658  135.4283  152.4658 H   0  0  0  0  0  0  0  0  0  0  0  0
  147.1124  134.5254  153.6789 H   0  0  0  0  0  0  0  0  0  0  0  0
  146.0392  131.7899  153.4582 H   0  0  0  0  0  0  0  0  0  0  0  0
  146.9833  131.3127  152.0803 H   0  0  0  0  0  0  0  0  0  0  0  0
  151.6272  131.2485  155.6494 H   0  0  0  0  0  0  0  0  0  0  0  0
  151.0044  129.8968  154.6874 H   0  0  0  0  0  0  0  0  0  0  0  0
  150.2467  130.3055  156.2380 H   0  0  0  0  0  0  0  0  0  0  0  0
  144.3680  132.8129  152.0520 H   0  0  0  0  0  0  0  0  0  0  0  0
  143.8416  134.8903  151.1681 H   0  0  0  0  0  0  0  0  0  0  0  0
  145.3731  135.0469  150.3075 H   0  0  0  0  0  0  0  0  0  0  0  0
  143.0234  134.1906  149.2180 H   0  0  0  0  0  0  0  0  0  0  0  0
  143.1016  132.0200  149.7293 H   0  0  0  0  0  0  0  0  0  0  0  0
  144.1386  131.9976  148.3027 H   0  0  0  0  0  0  0  0  0  0  0  0
  147.0592  131.6122  149.9258 H   0  0  0  0  0  0  0  0  0  0  0  0
  144.5341  134.2128  148.5502 H   0  0  0  0  0  0  0  0  0  0  0  0
  1  2  1  0  0  0  0
  1 18  1  0  0  0  0
  1 19  1  0  0  0  0
  1 20  1  0  0  0  0
  2  3  1  0  0  0  0
  2 21  1  0  0  0  0
  2 22  1  0  0  0  0
  3  4  1  0  0  0  0
  3 11  1  0  0  0  0
  4  5  1  0  0  0  0
  4 23  1  0  0  0  0
  4 24  1  0  0  0  0
  5 10  1  0  0  0  0
  5  6  2  0  0  0  0
  6  7  1  0  0  0  0
  7  8  2  0  0  0  0
  8  9  1  0  0  0  0
  8 10  1  0  0  0  0
  9 25  1  0  0  0  0
  9 26  1  0  0  0  0
  9 27  1  0  0  0  0
 11 15  1  0  0  0  0
 11 12  1  0  0  0  0
 11 28  1  0  0  0  0
 12 13  1  0  0  0  0
 12 29  1  0  0  0  0
 12 30  1  0  0  0  0
 13 14  1  0  0  0  0
 13 31  1  0  0  0  0
 13 35  1  0  0  0  0
 14 15  1  0  0  0  0
 14 32  1  0  0  0  0
 14 33  1  0  0  0  0
 15 17  1  0  0  0  0
 15 16  1  0  0  0  0
 16 34  1  0  0  0  0
M  CHG  1  13   1
M  END
> <s_m_source_file>
AV-unprocessed.smi

> <i_m_source_file_index>
73

> <i_lp_mmshare_version>
43012

> <i_f3d_flags>
0

> <s_epik_input>
W09IXVtDQEBIXTFbQ0gyXVtOSF1bQ0gyXVtDQEhdMU4oW0NIMl1bQ0gzXSlbQ0gyXWMybm5jKG8yKVtDSDNd

> <s_epik_cmdline>
J2VwaWtfcHl0aG9uJywgJy1waCcsICc3LjAnLCAnLXRuJywgJzgnLCAnLW1hJywgJzIwMCcsICctbWV0YWxfYmluZGluZycsICctaW1hZScsICc8aW5maWxlLm1hZT4nLCAnLW9tYWUnLCAnPG91dGZpbGUubWFlPic=

> <r_lp_tautomer_probability>
1

> <r_epik_Ionization_Penalty>
0.00160433

> <r_epik_Ionization_Penalty_Charging>
0.000122314

> <r_epik_Ionization_Penalty_Neutral>
0.00148202

> <r_epik_State_Penalty>
-0

> <r_epik_Charging_Adjusted_Penalty>
0.000122314

> <i_epik_Tot_Q>
1

> <i_epik_Tot_abs_Q>
1

> <r_epik_Metal_State_Penalty>
-0

> <b_epik_Metal_Only>
0

> <s_lp_Force_Field>
OPLS_2005

> <r_lp_Energy>
44.8836

> <b_lp_Chiralities_Consistent>
1

> <s_lp_Variant>
AV-unprocessed.smi:73-2

> <Gold.Version>
5.8.1

> <Gold.Id.Protein>
6NUR|6NUR_protein|mol2

> <Gold.PLP.Fitness>
37.8481

> <Gold.PLP.PLP>
-26.5850

> <Gold.PLP.part.hbond>
-3.3625

> <Gold.PLP.part.metal>
0.0000

> <Gold.PLP.part.buried>
-5.4821

> <Gold.PLP.part.nonpolar>
-19.3894

> <Gold.PLP.part.repulsive>
0.5463

> <Gold.PLP.ligand.clash>
0.0000

> <Gold.PLP.ligand.torsion>
0.1709

> <Gold.PLP.Chemscore.Hbond>
3.8600

> <Gold.PLP.Chemscore.CHOScore>
0.0000

> <Gold.PLP.Chemscore.Metal>
0.0000

> <Gold.Chemscore.Hbonds>
donor molecule, donor type, donor heavy atom, donor atom, acceptor molecule, acceptor atom, score
      L1  H    13    31       P1 10186  1.92
      L1  H    13    35       P1  7921  1.00
      L1  H    16    34       P1 10747  0.89

> <Gold.PLP.Chemscore.Internal.Correction>
0.0250

> <Gold.Rescore>
     Score         DG    S(hbond)    S(metal)    S(lipo)     H(rot)  DE(clash)    DE(int)     intcor
     13.92     -14.50       2.85        0.00      50.64       2.51       0.42       0.16       ----

> <Gold.Chemscore.Fitness>
13.9244

> <Gold.Chemscore.DG>
-14.4985

> <Gold.Chemscore.ZeroCoef>
-5.4800

> <Gold.Chemscore.Hbond>
2.8463

> <Gold.Chemscore.Metal>
0.0000

> <Gold.Chemscore.Lipo>
50.6419

> <Gold.Chemscore.Internal_Hbond>
0.0000

> <Gold.Chemscore.DEClash>
0.4176

> <Gold.Chemscore.DEInternal>
0.1565

> <Gold.Chemscore.Rot>
2.5051

> <Gold.Chemscore.Internal.Correction>
   9.000000E+99

> <Gold.Chemscore.Hbonds>
donor molecule, donor type, donor heavy atom, donor atom, acceptor molecule, acceptor atom, score
      L1  H    13    31       P1 10186  0.91
      L1  H    13    35       P1  7921  0.99
      L1  H    16    34       P1 10747  0.84

> <Gold.Chemscore.Hbond.Weighted>
-9.5065

> <Gold.Chemscore.Metal.Weighted>
-0.0000

> <Gold.Chemscore.Lipo.Weighted>
-5.9251

> <Gold.Chemscore.Internal_Hbond.Weighted>
0.0000

> <Gold.Chemscore.DEClash.Weighted>
0.4176

> <Gold.Chemscore.DEInternal.Weighted>
0.1565

> <Gold.Chemscore.Rot.Weighted>
6.4131

> <Gold.Chemscore.Internal.Correction.Weighted>
   9.000000E+99

> <Gold.Protein.RotatedTorsions>
[ 6907 6896 6895 6894 ] final  -39.72 input  -60.11 | X-H torsion
[ 7974 7965 7964 7962 ] final  -54.35 input  175.53 | X-H torsion
[ 8008 7997 7996 7995 ] final    4.63 input   59.86 | X-H torsion
[ 10167 10162 10161 10158 ] final   70.33 input  -65.29 | X-H torsion
[ 10718 10713 10712 10709 ] final   20.27 input   66.30 | X-H torsion
[ 10763 10752 10751 10750 ] final  -19.82 input  -60.55 | X-H torsion
[ 11005 11000 10999 10996 ] final  115.01 input  -57.11 | X-H torsion

> <Gold.Protein.ActiveResidues>
 VAL166  LYS551  ARG553  GLY616  TRP617  ASP618  TYR619  PRO620  LYS621  CYS622 
 ASP623  PHE694  ASN695  SER759  ASP760  ASP761  ALA762  ILE779  LEU786  VAL792 
 PHE793  MET794  SER795  GLU796  ALA797  LYS798  CYS799  TRP800  GLU811  SER814 

> <Gold.Protein.RotatedAtoms>
  150.9870  134.9213  159.7876 H   0  0  0  0  0  0  0  0  0  0  0  0  # atno 6907 bound_to 6896
  152.5239  134.3333  159.9201 H   0  0  0  0  0  0  0  0  0  0  0  0  # atno 6908 bound_to 6896
  151.3340  133.3948  159.2699 H   0  0  0  0  0  0  0  0  0  0  0  0  # atno 6909 bound_to 6896
  145.8866  140.8103  142.9813 H   0  0  0  0  0  0  0  0  0  0  0  0  # atno 7974 bound_to 7965
  154.7183  140.2706  155.6564 H   0  0  0  0  0  0  0  0  0  0  0  0  # atno 8008 bound_to 7997
  156.2816  140.2739  156.1772 H   0  0  0  0  0  0  0  0  0  0  0  0  # atno 8009 bound_to 7997
  155.0541  140.0371  157.2544 H   0  0  0  0  0  0  0  0  0  0  0  0  # atno 8010 bound_to 7997
  140.0581  144.5256  150.7314 H   0  0  0  0  0  0  0  0  0  0  0  0  # atno 10167 bound_to 10162
  157.1221  130.6554  149.5927 H   0  0  0  0  0  0  0  0  0  0  0  0  # atno 10718 bound_to 10713
  153.6107  135.6996  153.5348 H   0  0  0  0  0  0  0  0  0  0  0  0  # atno 10763 bound_to 10752
  153.3019  135.4126  155.1260 H   0  0  0  0  0  0  0  0  0  0  0  0  # atno 10764 bound_to 10752
  154.8564  135.3651  154.5645 H   0  0  0  0  0  0  0  0  0  0  0  0  # atno 10765 bound_to 10752
  139.8997  134.9577  156.6979 H   0  0  0  0  0  0  0  0  0  0  0  0  # atno 11005 bound_to 11000
  144.6729  140.1465  143.7433 LP  0  0  0  0  0  0  0  0  0  0  0  0  # atno 17320 bound_to 7965
  145.8959  139.2402  143.1522 LP  0  0  0  0  0  0  0  0  0  0  0  0  # atno 17321 bound_to 7965
  140.7185  143.2566  151.4356 LP  0  0  0  0  0  0  0  0  0  0  0  0  # atno 17342 bound_to 10162
  139.5911  144.1497  152.2089 LP  0  0  0  0  0  0  0  0  0  0  0  0  # atno 17343 bound_to 10162
  155.9826  130.4841  150.6890 LP  0  0  0  0  0  0  0  0  0  0  0  0  # atno 17370 bound_to 10713
  157.4467  131.0868  151.0888 LP  0  0  0  0  0  0  0  0  0  0  0  0  # atno 17371 bound_to 10713
  140.7173  133.9171  155.8124 LP  0  0  0  0  0  0  0  0  0  0  0  0  # atno 17394 bound_to 11000
  141.0254  134.0831  157.4074 LP  0  0  0  0  0  0  0  0  0  0  0  0  # atno 17395 bound_to 11000

$$$$
