AV-unprocessed.smi:3223|AV-procd|sdf|12308|dock8
  -GOLD-   2272018153D 1   1.00000     0.00000
 Structure written by MMmdl.
 43 43  0  0  0  0  0  0  0  0  2 V2000
  153.7042  143.3125  163.3986 C   0  0  0  0  0  0  0  0  0  0  0  0
  153.4508  142.9983  161.9525 C   0  0  0  0  0  0  0  0  0  0  0  0
  154.1246  142.0476  161.1341 C   0  0  0  0  0  0  0  0  0  0  0  0
  153.6564  142.0113  159.8969 N   0  0  0  0  0  0  0  0  0  0  0  0
  152.6715  142.9344  159.8825 N   0  0  0  0  0  0  0  0  0  0  0  0
  151.9132  143.1619  158.6662 C   0  0  0  0  0  0  0  0  0  0  0  0
  150.3946  142.9688  158.8615 C   0  0  1  0  0  0  0  0  0  0  0  0
  149.7540  144.2443  159.4248 C   0  0  0  0  0  0  0  0  0  0  0  0
  149.7311  142.6099  157.5871 N   0  3  0  0  0  0  0  0  0  0  0  0
  148.6697  141.5879  157.6994 C   0  0  0  0  0  0  0  0  0  0  0  0
  147.3000  142.2448  157.9338 C   0  0  0  0  0  0  0  0  0  0  0  0
  147.0836  142.6411  159.3964 C   0  0  0  0  0  0  0  0  0  0  0  0
  147.1939  141.8000  160.2885 O   0  0  0  0  0  0  0  0  0  0  0  0
  146.7685  143.9257  159.6262 N   0  0  0  0  0  0  0  0  0  0  0  0
  146.5209  144.5163  160.9386 C   0  0  0  0  0  0  0  0  0  0  0  0
  145.8931  145.9106  160.7877 C   0  0  0  0  0  0  0  0  0  0  0  0
  147.8339  144.5688  161.7308 C   0  0  0  0  0  0  0  0  0  0  0  0
  152.5270  143.5468  161.1089 C   0  0  0  0  0  0  0  0  0  0  0  0
  154.7399  143.1190  163.6791 H   0  0  0  0  0  0  0  0  0  0  0  0
  153.0757  142.7112  164.0555 H   0  0  0  0  0  0  0  0  0  0  0  0
  153.5006  144.3588  163.6273 H   0  0  0  0  0  0  0  0  0  0  0  0
  154.9348  141.3857  161.4024 H   0  0  0  0  0  0  0  0  0  0  0  0
  152.1193  144.1802  158.3335 H   0  0  0  0  0  0  0  0  0  0  0  0
  152.2883  142.5003  157.8832 H   0  0  0  0  0  0  0  0  0  0  0  0
  150.2287  142.1745  159.5916 H   0  0  0  0  0  0  0  0  0  0  0  0
  150.1993  144.5177  160.3819 H   0  0  0  0  0  0  0  0  0  0  0  0
  148.6846  144.1074  159.5892 H   0  0  0  0  0  0  0  0  0  0  0  0
  149.8817  145.0879  158.7455 H   0  0  0  0  0  0  0  0  0  0  0  0
  149.3101  143.4456  157.2074 H   0  0  0  0  0  0  0  0  0  0  0  0
  148.6506  140.9836  156.7921 H   0  0  0  0  0  0  0  0  0  0  0  0
  148.9086  140.9166  158.5255 H   0  0  0  0  0  0  0  0  0  0  0  0
  147.1973  143.1234  157.2945 H   0  0  0  0  0  0  0  0  0  0  0  0
  146.5035  141.5558  157.6501 H   0  0  0  0  0  0  0  0  0  0  0  0
  146.6944  144.5445  158.8316 H   0  0  0  0  0  0  0  0  0  0  0  0
  145.8269  143.8814  161.4920 H   0  0  0  0  0  0  0  0  0  0  0  0
  145.6926  146.3568  161.7621 H   0  0  0  0  0  0  0  0  0  0  0  0
  144.9462  145.8628  160.2491 H   0  0  0  0  0  0  0  0  0  0  0  0
  146.5529  146.5866  160.2427 H   0  0  0  0  0  0  0  0  0  0  0  0
  147.6723  144.9778  162.7286 H   0  0  0  0  0  0  0  0  0  0  0  0
  148.5758  145.1932  161.2318 H   0  0  0  0  0  0  0  0  0  0  0  0
  148.2613  143.5725  161.8500 H   0  0  0  0  0  0  0  0  0  0  0  0
  151.7839  144.3121  161.2795 H   0  0  0  0  0  0  0  0  0  0  0  0
  150.4359  142.2837  156.9407 H   0  0  0  0  0  0  0  0  0  0  0  0
  1  2  1  0  0  0  0
  1 19  1  0  0  0  0
  1 20  1  0  0  0  0
  1 21  1  0  0  0  0
  2 18  2  0  0  0  0
  2  3  1  0  0  0  0
  3  4  2  0  0  0  0
  3 22  1  0  0  0  0
  4  5  1  0  0  0  0
  5  6  1  0  0  0  0
  5 18  1  0  0  0  0
  6  7  1  0  0  0  0
  6 23  1  0  0  0  0
  6 24  1  0  0  0  0
  7  8  1  0  0  0  0
  7  9  1  0  0  0  0
  7 25  1  0  0  0  0
  8 26  1  0  0  0  0
  8 27  1  0  0  0  0
  8 28  1  0  0  0  0
  9 10  1  0  0  0  0
  9 29  1  0  0  0  0
  9 43  1  0  0  0  0
 10 11  1  0  0  0  0
 10 30  1  0  0  0  0
 10 31  1  0  0  0  0
 11 12  1  0  0  0  0
 11 32  1  0  0  0  0
 11 33  1  0  0  0  0
 12 13  2  0  0  0  0
 12 14  1  0  0  0  0
 14 15  1  0  0  0  0
 14 34  1  0  0  0  0
 15 16  1  0  0  0  0
 15 17  1  0  0  0  0
 15 35  1  0  0  0  0
 16 36  1  0  0  0  0
 16 37  1  0  0  0  0
 16 38  1  0  0  0  0
 17 39  1  0  0  0  0
 17 40  1  0  0  0  0
 17 41  1  0  0  0  0
 18 42  1  0  0  0  0
M  CHG  1   9   1
M  END
> <s_m_source_file>
AV-unprocessed.smi

> <i_m_source_file_index>
3223

> <i_lp_mmshare_version>
43012

> <i_f3d_flags>
0

> <s_epik_input>
W0NIM11jMVtjSF1ubihbY0hdMSlbQ0gyXVtDQEhdKFtDSDNdKVtOSF1bQ0gyXVtDSDJdQyg9TylbTkhdW0NIXShbQ0gzXSlbQ0gzXQ==

> <s_epik_cmdline>
J2VwaWtfcHl0aG9uJywgJy1waCcsICc3LjAnLCAnLXRuJywgJzgnLCAnLW1hJywgJzIwMCcsICctbWV0YWxfYmluZGluZycsICctaW1hZScsICc8aW5maWxlLm1hZT4nLCAnLW9tYWUnLCAnPG91dGZpbGUubWFlPic=

> <r_lp_tautomer_probability>
1

> <r_epik_Ionization_Penalty>
0.0057861

> <r_epik_Ionization_Penalty_Charging>
0.00577767

> <r_epik_Ionization_Penalty_Neutral>
8.4224e-06

> <r_epik_State_Penalty>
0.00424195

> <r_epik_Charging_Adjusted_Penalty>
0.0100196

> <i_epik_Tot_Q>
1

> <i_epik_Tot_abs_Q>
1

> <r_epik_Metal_State_Penalty>
-0

> <b_epik_Metal_Only>
0

> <s_lp_Force_Field>
OPLS_2005

> <r_lp_Energy>
5.87618

> <b_lp_Chiralities_Consistent>
1

> <s_lp_Variant>
AV-unprocessed.smi:3223-2

> <Gold.Version>
5.8.1

> <Gold.Id.Protein>
6NUR|6NUR_protein|mol2

> <Gold.PLP.Fitness>
53.1918

> <Gold.PLP.PLP>
-41.5236

> <Gold.PLP.part.hbond>
-3.8493

> <Gold.PLP.part.metal>
0.0000

> <Gold.PLP.part.buried>
-5.2883

> <Gold.PLP.part.nonpolar>
-32.3448

> <Gold.PLP.part.repulsive>
0.1271

> <Gold.PLP.ligand.clash>
0.0000

> <Gold.PLP.ligand.torsion>
1.2396

> <Gold.PLP.Chemscore.Hbond>
4.6574

> <Gold.PLP.Chemscore.CHOScore>
0.0000

> <Gold.PLP.Chemscore.Metal>
0.0000

> <Gold.Chemscore.Hbonds>
donor molecule, donor type, donor heavy atom, donor atom, acceptor molecule, acceptor atom, score
      L1  H     9    29       P1  8028  1.95
      L1  H    14    34       P1  8029  0.09
      P1  H  6933  6944       L1    13  0.27

> <Gold.PLP.Chemscore.Internal.Correction>
0.1750

> <Gold.Rescore>
     Score         DG    S(hbond)    S(metal)    S(lipo)     H(rot)  DE(clash)    DE(int)     intcor
     18.62     -19.95       2.89        0.00      89.02       2.19       0.06       1.28       ----

> <Gold.Chemscore.Fitness>
18.6163

> <Gold.Chemscore.DG>
-19.9530

> <Gold.Chemscore.ZeroCoef>
-5.4800

> <Gold.Chemscore.Hbond>
2.8897

> <Gold.Chemscore.Metal>
0.0000

> <Gold.Chemscore.Lipo>
89.0183

> <Gold.Chemscore.Internal_Hbond>
0.0000

> <Gold.Chemscore.DEClash>
0.0610

> <Gold.Chemscore.DEInternal>
1.2757

> <Gold.Chemscore.Rot>
2.1850

> <Gold.Chemscore.Internal.Correction>
   9.000000E+99

> <Gold.Chemscore.Hbonds>
donor molecule, donor type, donor heavy atom, donor atom, acceptor molecule, acceptor atom, score
      L1  H     9    29       P1  8028  0.70
      L1  H    14    34       P1  8029  0.11
      P1  H  6933  6944       L1    13  0.19
      P1  H  6934  6946       L1    13  0.01

> <Gold.Chemscore.Hbond.Weighted>
-9.6515

> <Gold.Chemscore.Metal.Weighted>
-0.0000

> <Gold.Chemscore.Lipo.Weighted>
-10.4151

> <Gold.Chemscore.Internal_Hbond.Weighted>
0.0000

> <Gold.Chemscore.DEClash.Weighted>
0.0610

> <Gold.Chemscore.DEInternal.Weighted>
1.2757

> <Gold.Chemscore.Rot.Weighted>
5.5936

> <Gold.Chemscore.Internal.Correction.Weighted>
   9.000000E+99

> <Gold.Protein.RotatedTorsions>
[ 6907 6896 6895 6894 ] final  -31.30 input  -60.11 | X-H torsion
[ 7974 7965 7964 7962 ] final  146.20 input  175.53 | X-H torsion
[ 8008 7997 7996 7995 ] final  -53.19 input   59.86 | X-H torsion
[ 10167 10162 10161 10158 ] final  -40.26 input  -65.29 | X-H torsion
[ 10718 10713 10712 10709 ] final  104.73 input   66.30 | X-H torsion
[ 10763 10752 10751 10750 ] final  116.81 input  -60.55 | X-H torsion
[ 11005 11000 10999 10996 ] final   48.93 input  -57.11 | X-H torsion

> <Gold.Protein.ActiveResidues>
 VAL166  LYS551  ARG553  GLY616  TRP617  ASP618  TYR619  PRO620  LYS621  CYS622 
 ASP623  PHE694  ASN695  SER759  ASP760  ASP761  ALA762  ILE779  LEU786  VAL792 
 PHE793  MET794  SER795  GLU796  ALA797  LYS798  CYS799  TRP800  GLU811  SER814 

> <Gold.Protein.RotatedAtoms>
  151.0939  134.9932  159.8415 H   0  0  0  0  0  0  0  0  0  0  0  0  # atno 6907 bound_to 6896
  152.5431  134.2032  159.8730 H   0  0  0  0  0  0  0  0  0  0  0  0  # atno 6908 bound_to 6896
  151.2070  133.4533  159.2631 H   0  0  0  0  0  0  0  0  0  0  0  0  # atno 6909 bound_to 6896
  144.8690  139.5876  143.5895 H   0  0  0  0  0  0  0  0  0  0  0  0  # atno 7974 bound_to 7965
  154.4126  140.1206  156.5113 H   0  0  0  0  0  0  0  0  0  0  0  0  # atno 8008 bound_to 7997
  155.6796  140.3496  155.4830 H   0  0  0  0  0  0  0  0  0  0  0  0  # atno 8009 bound_to 7997
  155.9563  140.1114  157.0924 H   0  0  0  0  0  0  0  0  0  0  0  0  # atno 8010 bound_to 7997
  140.7040  143.3164  151.2898 H   0  0  0  0  0  0  0  0  0  0  0  0  # atno 10167 bound_to 10162
  157.6730  131.0811  150.5750 H   0  0  0  0  0  0  0  0  0  0  0  0  # atno 10718 bound_to 10713
  153.5428  135.3555  155.2726 H   0  0  0  0  0  0  0  0  0  0  0  0  # atno 10763 bound_to 10752
  154.8715  135.4095  154.3024 H   0  0  0  0  0  0  0  0  0  0  0  0  # atno 10764 bound_to 10752
  153.3735  135.7065  153.6688 H   0  0  0  0  0  0  0  0  0  0  0  0  # atno 10765 bound_to 10752
  140.1147  134.4908  155.8647 H   0  0  0  0  0  0  0  0  0  0  0  0  # atno 11005 bound_to 11000
  146.2917  139.7158  142.9156 LP  0  0  0  0  0  0  0  0  0  0  0  0  # atno 17320 bound_to 7965
  145.4166  141.0402  143.2987 LP  0  0  0  0  0  0  0  0  0  0  0  0  # atno 17321 bound_to 7965
  139.6604  144.0199  152.2688 LP  0  0  0  0  0  0  0  0  0  0  0  0  # atno 17342 bound_to 10162
  139.9765  144.6458  150.7940 LP  0  0  0  0  0  0  0  0  0  0  0  0  # atno 17343 bound_to 10162
  156.6051  130.4365  149.5881 LP  0  0  0  0  0  0  0  0  0  0  0  0  # atno 17370 bound_to 10713
  156.2475  130.6887  151.1613 LP  0  0  0  0  0  0  0  0  0  0  0  0  # atno 17371 bound_to 10713
  141.2138  133.6739  156.6774 LP  0  0  0  0  0  0  0  0  0  0  0  0  # atno 17394 bound_to 11000
  140.3044  134.8138  157.4124 LP  0  0  0  0  0  0  0  0  0  0  0  0  # atno 17395 bound_to 11000

$$$$
