AV-unprocessed.smi:137|AV-procd|sdf|1177|dock4
  -GOLD-   2262018323D 1   1.00000     0.00000
 Structure written by MMmdl.
 51 54  0  0  0  0  0  0  0  0  1 V2000
  151.3828  145.3629  159.1112 C   0  0  0  0  0  0  0  0  0  0  0  0
  152.0423  144.0114  159.4334 C   0  0  2  0  0  0  0  0  0  0  0  0
  151.2865  142.8827  158.6984 C   0  0  0  0  0  0  0  0  0  0  0  0
  152.1224  141.7535  158.2823 N   0  0  0  0  0  0  0  0  0  0  0  0
  151.7259  141.0345  157.1993 C   0  0  0  0  0  0  0  0  0  0  0  0
  152.5204  140.0290  156.7446 N   0  0  0  0  0  0  0  0  0  0  0  0
  152.1577  139.3089  155.6793 C   0  0  0  0  0  0  0  0  0  0  0  0
  151.0603  139.4230  154.9295 N   0  0  0  0  0  0  0  0  0  0  0  0
  150.2550  140.4272  155.3802 C   0  0  0  0  0  0  0  0  0  0  0  0
  150.5062  141.2700  156.5005 C   0  0  0  0  0  0  0  0  0  0  0  0
  149.4463  142.1535  156.6713 N   0  0  0  0  0  0  0  0  0  0  0  0
  148.6201  141.8530  155.7069 C   0  0  0  0  0  0  0  0  0  0  0  0
  149.0407  140.8482  154.8651 N   0  0  0  0  0  0  0  0  0  0  0  0
  148.3132  140.2962  153.7591 C   0  0  0  0  0  0  0  0  0  0  0  0
  146.7976  140.0871  153.8337 C   0  0  0  0  0  0  0  0  0  0  0  0
  146.9238  138.7797  153.0197 C   0  0  0  0  0  0  0  0  0  0  0  0
  146.1243  137.5989  153.5919 C   0  0  0  0  0  0  0  0  0  0  0  0
  146.4685  136.3839  152.9571 O   0  0  0  0  0  0  0  0  0  0  0  0
  146.5831  138.8731  151.5158 C   0  0  0  0  0  0  0  0  0  0  0  0
  146.9435  137.7168  150.7872 O   0  0  0  0  0  0  0  0  0  0  0  0
  148.4190  138.8092  153.4063 C   0  0  0  0  0  0  0  0  0  0  0  0
  153.1378  141.1474  159.1447 C   0  0  0  0  0  0  0  0  0  0  0  0
  152.7433  141.0807  160.6259 C   0  0  0  0  0  0  0  0  0  0  0  0
  153.3762  142.6079  161.4653 S   0  0  2  0  0  0  0  0  0  0  0  0
  153.2244  142.3816  162.9704 O   0  0  0  0  0  0  0  0  0  0  0  0
  152.0524  143.8071  160.9631 C   0  0  0  0  0  0  0  0  0  0  0  0
  150.3462  145.3891  159.4496 H   0  0  0  0  0  0  0  0  0  0  0  0
  151.3884  145.5597  158.0387 H   0  0  0  0  0  0  0  0  0  0  0  0
  151.9113  146.1864  159.5925 H   0  0  0  0  0  0  0  0  0  0  0  0
  153.0669  144.0713  159.0630 H   0  0  0  0  0  0  0  0  0  0  0  0
  150.4492  142.5219  159.2969 H   0  0  0  0  0  0  0  0  0  0  0  0
  150.8445  143.3080  157.7959 H   0  0  0  0  0  0  0  0  0  0  0  0
  152.8466  138.5311  155.3844 H   0  0  0  0  0  0  0  0  0  0  0  0
  147.6761  142.3635  155.5817 H   0  0  0  0  0  0  0  0  0  0  0  0
  148.5728  140.9135  152.8983 H   0  0  0  0  0  0  0  0  0  0  0  0
  146.4550  139.9217  154.8565 H   0  0  0  0  0  0  0  0  0  0  0  0
  146.2133  140.8729  153.3538 H   0  0  0  0  0  0  0  0  0  0  0  0
  146.3157  137.4802  154.6589 H   0  0  0  0  0  0  0  0  0  0  0  0
  145.0509  137.7611  153.4882 H   0  0  0  0  0  0  0  0  0  0  0  0
  147.3821  136.4185  152.7174 H   0  0  0  0  0  0  0  0  0  0  0  0
  145.5144  139.0295  151.3666 H   0  0  0  0  0  0  0  0  0  0  0  0
  147.0893  139.7234  151.0579 H   0  0  0  0  0  0  0  0  0  0  0  0
  147.2625  137.0666  151.3944 H   0  0  0  0  0  0  0  0  0  0  0  0
  149.1065  138.5896  152.5890 H   0  0  0  0  0  0  0  0  0  0  0  0
  148.6391  138.1891  154.2769 H   0  0  0  0  0  0  0  0  0  0  0  0
  153.3167  140.1208  158.8236 H   0  0  0  0  0  0  0  0  0  0  0  0
  154.0865  141.6690  159.0142 H   0  0  0  0  0  0  0  0  0  0  0  0
  151.6742  140.9372  160.7858 H   0  0  0  0  0  0  0  0  0  0  0  0
  153.2530  140.2344  161.0868 H   0  0  0  0  0  0  0  0  0  0  0  0
  152.2795  144.7467  161.4677 H   0  0  0  0  0  0  0  0  0  0  0  0
  151.0820  143.4767  161.3345 H   0  0  0  0  0  0  0  0  0  0  0  0
  1  2  1  0  0  0  0
  1 27  1  0  0  0  0
  1 28  1  0  0  0  0
  1 29  1  0  0  0  0
  2 26  1  0  0  0  0
  2  3  1  0  0  0  0
  2 30  1  0  0  0  0
  3  4  1  0  0  0  0
  3 31  1  0  0  0  0
  3 32  1  0  0  0  0
  4  5  1  0  0  0  0
  4 22  1  0  0  0  0
  5 10  1  0  0  0  0
  5  6  2  0  0  0  0
  6  7  1  0  0  0  0
  7  8  2  0  0  0  0
  7 33  1  0  0  0  0
  8  9  1  0  0  0  0
  9 13  1  0  0  0  0
  9 10  2  0  0  0  0
 10 11  1  0  0  0  0
 11 12  2  0  0  0  0
 12 13  1  0  0  0  0
 12 34  1  0  0  0  0
 13 14  1  0  0  0  0
 14 21  1  0  0  0  0
 14 15  1  0  0  0  0
 14 35  1  0  0  0  0
 15 16  1  0  0  0  0
 15 36  1  0  0  0  0
 15 37  1  0  0  0  0
 16 17  1  0  0  0  0
 16 19  1  0  0  0  0
 16 21  1  0  0  0  0
 17 18  1  0  0  0  0
 17 38  1  0  0  0  0
 17 39  1  0  0  0  0
 18 40  1  0  0  0  0
 19 20  1  0  0  0  0
 19 41  1  0  0  0  0
 19 42  1  0  0  0  0
 20 43  1  0  0  0  0
 21 44  1  0  0  0  0
 21 45  1  0  0  0  0
 22 23  1  0  0  0  0
 22 46  1  0  0  0  0
 22 47  1  0  0  0  0
 23 24  1  0  0  0  0
 23 48  1  0  0  0  0
 23 49  1  0  0  0  0
 24 25  2  0  0  0  0
 24 26  1  0  0  0  0
 26 50  1  0  0  0  0
 26 51  1  0  0  0  0
M  END
> <s_m_source_file>
AV-unprocessed.smi

> <i_m_source_file_index>
137

> <i_lp_mmshare_version>
43012

> <i_f3d_flags>
0

> <s_epik_input>
Tz1bU0BAXShbQ0gyXTEpW0NIMl1bQ0gyXU4oW0NIMl1bQ0BIXTFbQ0gzXSljKG5bY0hdbjIpYyhjMjMpbltjSF1uM1tDSF0oW0NIMl00KVtDSDJdQzQoW0NIMl1bT0hdKVtDSDJdW09IXQ==

> <s_epik_cmdline>
J2VwaWtfcHl0aG9uJywgJy1waCcsICc3LjAnLCAnLXRuJywgJzgnLCAnLW1hJywgJzIwMCcsICctbWV0YWxfYmluZGluZycsICctaW1hZScsICc8aW5maWxlLm1hZT4nLCAnLW9tYWUnLCAnPG91dGZpbGUubWFlPic=

> <r_lp_tautomer_probability>
1

> <r_epik_Ionization_Penalty>
0.000811024

> <r_epik_Ionization_Penalty_Charging>
0

> <r_epik_Ionization_Penalty_Neutral>
0.000811024

> <r_epik_State_Penalty>
0.000429598

> <r_epik_Charging_Adjusted_Penalty>
0.000429598

> <i_epik_Tot_Q>
0

> <i_epik_Tot_abs_Q>
0

> <r_epik_Metal_State_Penalty>
-0

> <b_epik_Metal_Only>
0

> <s_lp_Force_Field>
OPLS_2005

> <r_lp_Energy>
45.689

> <b_lp_Chiralities_Consistent>
1

> <s_lp_Variant>
AV-unprocessed.smi:137-3

> <Gold.Version>
5.8.1

> <Gold.Id.Protein>
6NUR|6NUR_protein|mol2

> <Gold.PLP.Fitness>
56.0664

> <Gold.PLP.PLP>
-45.1350

> <Gold.PLP.part.hbond>
-4.8311

> <Gold.PLP.part.metal>
0.0000

> <Gold.PLP.part.buried>
1.1706

> <Gold.PLP.part.nonpolar>
-43.5487

> <Gold.PLP.part.repulsive>
1.9945

> <Gold.PLP.ligand.clash>
0.0000

> <Gold.PLP.ligand.torsion>
0.8289

> <Gold.PLP.Chemscore.Hbond>
3.9109

> <Gold.PLP.Chemscore.CHOScore>
0.1214

> <Gold.PLP.Chemscore.Metal>
0.0000

> <Gold.Chemscore.Hbonds>
donor molecule, donor type, donor heavy atom, donor atom, acceptor molecule, acceptor atom, score
      L1  H    18    40       P1  7948  1.00
      L1  H    20    43       P1  7948  0.74
      P1  H  7954  7966       L1    20  0.98
      P1  H  7989  7998       L1     8  0.16
      P1  H  7997  8009       L1     6  0.95
      L1  C    12    34       P1  8028  0.18

> <Gold.PLP.Chemscore.Internal.Correction>
0.4923

> <Gold.Rescore>
     Score         DG    S(hbond)    S(metal)    S(lipo)     H(rot)  DE(clash)    DE(int)     intcor
     16.04     -19.66       2.75        0.00     105.59       2.87       0.74       2.88       ----

> <Gold.Chemscore.Fitness>
16.0417

> <Gold.Chemscore.DG>
-19.6578

> <Gold.Chemscore.ZeroCoef>
-5.4800

> <Gold.Chemscore.Hbond>
2.7477

> <Gold.Chemscore.Metal>
0.0000

> <Gold.Chemscore.Lipo>
105.5888

> <Gold.Chemscore.Internal_Hbond>
0.0000

> <Gold.Chemscore.DEClash>
0.7373

> <Gold.Chemscore.DEInternal>
2.8788

> <Gold.Chemscore.Rot>
2.8725

> <Gold.Chemscore.Internal.Correction>
   9.000000E+99

> <Gold.Chemscore.Hbonds>
donor molecule, donor type, donor heavy atom, donor atom, acceptor molecule, acceptor atom, score
      L1  H    18    40       P1  7948  1.00
      L1  H    20    43       P1  7948  0.74
      P1  H  7954  7966       L1    20  0.22
      P1  H  7997  8009       L1     6  0.21

> <Gold.Chemscore.Hbond.Weighted>
-9.1774

> <Gold.Chemscore.Metal.Weighted>
-0.0000

> <Gold.Chemscore.Lipo.Weighted>
-12.3539

> <Gold.Chemscore.Internal_Hbond.Weighted>
0.0000

> <Gold.Chemscore.DEClash.Weighted>
0.7373

> <Gold.Chemscore.DEInternal.Weighted>
2.8788

> <Gold.Chemscore.Rot.Weighted>
7.3535

> <Gold.Chemscore.Internal.Correction.Weighted>
   9.000000E+99

> <Gold.Protein.RotatedTorsions>
[ 6907 6896 6895 6894 ] final   -8.92 input  -60.11 | X-H torsion
[ 7974 7965 7964 7962 ] final -159.15 input  175.53 | X-H torsion
[ 8008 7997 7996 7995 ] final -167.81 input   59.86 | X-H torsion
[ 10167 10162 10161 10158 ] final  144.43 input  -65.29 | X-H torsion
[ 10718 10713 10712 10709 ] final   10.04 input   66.30 | X-H torsion
[ 10763 10752 10751 10750 ] final -128.95 input  -60.55 | X-H torsion
[ 11005 11000 10999 10996 ] final -166.53 input  -57.11 | X-H torsion

> <Gold.Protein.ActiveResidues>
 VAL166  LYS551  ARG553  GLY616  TRP617  ASP618  TYR619  PRO620  LYS621  CYS622 
 ASP623  PHE694  ASN695  SER759  ASP760  ASP761  ALA762  ILE779  LEU786  VAL792 
 PHE793  MET794  SER795  GLU796  ALA797  LYS798  CYS799  TRP800  GLU811  SER814 

> <Gold.Protein.RotatedAtoms>
  151.4260  135.1004  159.9627 H   0  0  0  0  0  0  0  0  0  0  0  0  # atno 6907 bound_to 6896
  152.4972  133.8662  159.7285 H   0  0  0  0  0  0  0  0  0  0  0  0  # atno 6908 bound_to 6896
  150.9189  133.6847  159.2864 H   0  0  0  0  0  0  0  0  0  0  0  0  # atno 6909 bound_to 6896
  144.7477  140.3726  143.6072 H   0  0  0  0  0  0  0  0  0  0  0  0  # atno 7974 bound_to 7965
  155.8829  140.1012  157.1473 H   0  0  0  0  0  0  0  0  0  0  0  0  # atno 8008 bound_to 7997
  154.4007  140.1325  156.4282 H   0  0  0  0  0  0  0  0  0  0  0  0  # atno 8009 bound_to 7997
  155.7622  140.3463  155.5206 H   0  0  0  0  0  0  0  0  0  0  0  0  # atno 8010 bound_to 7997
  139.4947  144.5972  151.6557 H   0  0  0  0  0  0  0  0  0  0  0  0  # atno 10167 bound_to 10162
  156.9751  130.5984  149.5672 H   0  0  0  0  0  0  0  0  0  0  0  0  # atno 10718 bound_to 10713
  154.8757  135.3911  154.3840 H   0  0  0  0  0  0  0  0  0  0  0  0  # atno 10763 bound_to 10752
  153.4583  135.7029  153.6071 H   0  0  0  0  0  0  0  0  0  0  0  0  # atno 10764 bound_to 10752
  153.4580  135.3818  155.2291 H   0  0  0  0  0  0  0  0  0  0  0  0  # atno 10765 bound_to 10752
  140.5635  134.5310  157.5148 H   0  0  0  0  0  0  0  0  0  0  0  0  # atno 11005 bound_to 11000
  145.7061  139.1673  143.2565 LP  0  0  0  0  0  0  0  0  0  0  0  0  # atno 17320 bound_to 7965
  146.1380  140.7096  142.9380 LP  0  0  0  0  0  0  0  0  0  0  0  0  # atno 17321 bound_to 7965
  140.5613  144.0263  150.6171 LP  0  0  0  0  0  0  0  0  0  0  0  0  # atno 17342 bound_to 10162
  140.3350  143.3054  152.0648 LP  0  0  0  0  0  0  0  0  0  0  0  0  # atno 17343 bound_to 10162
  156.0267  130.5360  150.8425 LP  0  0  0  0  0  0  0  0  0  0  0  0  # atno 17370 bound_to 10713
  157.5565  131.0945  150.9621 LP  0  0  0  0  0  0  0  0  0  0  0  0  # atno 17371 bound_to 10713
  139.9396  134.7811  156.0712 LP  0  0  0  0  0  0  0  0  0  0  0  0  # atno 17394 bound_to 11000
  141.1100  133.6646  156.2956 LP  0  0  0  0  0  0  0  0  0  0  0  0  # atno 17395 bound_to 11000

$$$$
