AV-unprocessed.smi:1049|AV-procd|sdf|4609|dock10
  -GOLD-   22720 3103D 1   1.00000     0.00000
 Structure written by MMmdl.
 40 41  0  0  0  0  0  0  0  0  1 V2000
  153.1419  142.4827  162.7082 C   0  0  0  0  0  0  0  0  0  0  0  0
  152.5201  142.8938  161.3664 C   0  0  1  0  0  0  0  0  0  0  0  0
  152.1961  144.4035  161.3305 C   0  0  0  0  0  0  0  0  0  0  0  0
  151.6862  144.8515  159.9477 C   0  0  0  0  0  0  0  0  0  0  0  0
  152.6330  144.3733  158.8325 C   0  0  0  0  0  0  0  0  0  0  0  0
  152.7699  142.9093  158.9254 N   0  0  0  0  0  0  0  0  0  0  0  0
  152.1849  141.9965  158.1087 C   0  0  0  0  0  0  0  0  0  0  0  0
  152.5501  140.8221  158.0348 O   0  0  0  0  0  0  0  0  0  0  0  0
  151.1736  142.4755  157.3654 N   0  0  0  0  0  0  0  0  0  0  0  0
  150.3360  141.6852  156.4692 C   0  0  0  0  0  0  0  0  0  0  0  0
  148.8549  142.1137  156.5055 C   0  0  0  0  0  0  0  0  0  0  0  0
  148.1139  141.8579  155.2267 C   0  0  0  0  0  0  0  0  0  0  0  0
  148.6262  141.1921  154.1954 N   0  0  0  0  0  0  0  0  0  0  0  0
  147.6127  141.1748  153.2445 C   0  0  0  0  0  0  0  0  0  0  0  0
  146.5142  141.8353  153.7386 C   0  0  0  0  0  0  0  0  0  0  0  0
  146.8429  142.2541  155.0227 N   0  0  0  0  0  0  0  0  0  0  0  0
  145.9922  143.0085  155.9269 C   0  0  0  0  0  0  0  0  0  0  0  0
  145.5140  144.0850  155.3039 F   0  0  0  0  0  0  0  0  0  0  0  0
  144.9826  142.2515  156.3577 F   0  0  0  0  0  0  0  0  0  0  0  0
  153.4299  142.5170  160.1776 C   0  0  0  0  0  0  0  0  0  0  0  0
  154.0881  142.9966  162.8814 H   0  0  0  0  0  0  0  0  0  0  0  0
  153.3350  141.4100  162.7379 H   0  0  0  0  0  0  0  0  0  0  0  0
  152.4758  142.7211  163.5379 H   0  0  0  0  0  0  0  0  0  0  0  0
  151.5825  142.3461  161.2574 H   0  0  0  0  0  0  0  0  0  0  0  0
  151.4597  144.6512  162.0958 H   0  0  0  0  0  0  0  0  0  0  0  0
  153.0955  144.9705  161.5743 H   0  0  0  0  0  0  0  0  0  0  0  0
  150.6880  144.4468  159.7772 H   0  0  0  0  0  0  0  0  0  0  0  0
  151.5886  145.9369  159.9200 H   0  0  0  0  0  0  0  0  0  0  0  0
  152.2727  144.7263  157.8662 H   0  0  0  0  0  0  0  0  0  0  0  0
  153.6149  144.8321  158.9574 H   0  0  0  0  0  0  0  0  0  0  0  0
  150.9360  143.4511  157.4697 H   0  0  0  0  0  0  0  0  0  0  0  0
  150.7293  141.8173  155.4614 H   0  0  0  0  0  0  0  0  0  0  0  0
  150.4313  140.6230  156.6987 H   0  0  0  0  0  0  0  0  0  0  0  0
  148.3424  141.6136  157.3276 H   0  0  0  0  0  0  0  0  0  0  0  0
  148.7914  143.1802  156.7250 H   0  0  0  0  0  0  0  0  0  0  0  0
  147.7533  140.6979  152.2856 H   0  0  0  0  0  0  0  0  0  0  0  0
  145.5492  142.0322  153.2951 H   0  0  0  0  0  0  0  0  0  0  0  0
  146.5546  143.3357  156.8012 H   0  0  0  0  0  0  0  0  0  0  0  0
  154.3889  143.0315  160.2572 H   0  0  0  0  0  0  0  0  0  0  0  0
  153.6668  141.4523  160.2060 H   0  0  0  0  0  0  0  0  0  0  0  0
  1  2  1  0  0  0  0
  1 21  1  0  0  0  0
  1 22  1  0  0  0  0
  1 23  1  0  0  0  0
  2 20  1  0  0  0  0
  2  3  1  0  0  0  0
  2 24  1  0  0  0  0
  3  4  1  0  0  0  0
  3 25  1  0  0  0  0
  3 26  1  0  0  0  0
  4  5  1  0  0  0  0
  4 27  1  0  0  0  0
  4 28  1  0  0  0  0
  5  6  1  0  0  0  0
  5 29  1  0  0  0  0
  5 30  1  0  0  0  0
  6  7  1  0  0  0  0
  6 20  1  0  0  0  0
  7  8  2  0  0  0  0
  7  9  1  0  0  0  0
  9 10  1  0  0  0  0
  9 31  1  0  0  0  0
 10 11  1  0  0  0  0
 10 32  1  0  0  0  0
 10 33  1  0  0  0  0
 11 12  1  0  0  0  0
 11 34  1  0  0  0  0
 11 35  1  0  0  0  0
 12 16  1  0  0  0  0
 12 13  2  0  0  0  0
 13 14  1  0  0  0  0
 14 15  2  0  0  0  0
 14 36  1  0  0  0  0
 15 16  1  0  0  0  0
 15 37  1  0  0  0  0
 16 17  1  0  0  0  0
 17 18  1  0  0  0  0
 17 19  1  0  0  0  0
 17 38  1  0  0  0  0
 20 39  1  0  0  0  0
 20 40  1  0  0  0  0
M  END
> <s_m_source_file>
AV-unprocessed.smi

> <i_m_source_file_index>
1049

> <i_lp_mmshare_version>
43012

> <i_f3d_flags>
0

> <s_epik_input>
W0NIM11bQ0BASF0xW0NIMl1bQ0gyXVtDSDJdTihbQ0gyXTEpQyg9TylbTkhdW0NIMl1bQ0gyXWMybltjSF1bY0hdbjJbQ0hdKEYpRg==

> <s_epik_cmdline>
J2VwaWtfcHl0aG9uJywgJy1waCcsICc3LjAnLCAnLXRuJywgJzgnLCAnLW1hJywgJzIwMCcsICctbWV0YWxfYmluZGluZycsICctaW1hZScsICc8aW5maWxlLm1hZT4nLCAnLW9tYWUnLCAnPG91dGZpbGUubWFlPic=

> <r_lp_tautomer_probability>
1

> <r_epik_Ionization_Penalty>
0.101141

> <r_epik_Ionization_Penalty_Charging>
0.101077

> <r_epik_Ionization_Penalty_Neutral>
6.38597e-05

> <r_epik_State_Penalty>
0.091079

> <r_epik_Charging_Adjusted_Penalty>
0.192156

> <i_epik_Tot_Q>
0

> <i_epik_Tot_abs_Q>
0

> <r_epik_Metal_State_Penalty>
0.0777008

> <b_epik_Metal_Only>
0

> <s_lp_Force_Field>
OPLS_2005

> <r_lp_Energy>
32.9855

> <b_lp_Chiralities_Consistent>
1

> <s_lp_Variant>
AV-unprocessed.smi:1049-2

> <Gold.Version>
5.8.1

> <Gold.Id.Protein>
6NUR|6NUR_protein|mol2

> <Gold.PLP.Fitness>
49.2658

> <Gold.PLP.PLP>
-43.9641

> <Gold.PLP.part.hbond>
-0.7327

> <Gold.PLP.part.metal>
0.0000

> <Gold.PLP.part.buried>
-3.5848

> <Gold.PLP.part.nonpolar>
-39.3206

> <Gold.PLP.part.repulsive>
0.1704

> <Gold.PLP.ligand.clash>
0.0000

> <Gold.PLP.ligand.torsion>
0.7045

> <Gold.PLP.Chemscore.Hbond>
0.2223

> <Gold.PLP.Chemscore.CHOScore>
1.9991

> <Gold.PLP.Chemscore.Metal>
0.0000

> <Gold.Chemscore.Hbonds>
donor molecule, donor type, donor heavy atom, donor atom, acceptor molecule, acceptor atom, score
      P1  H  7997  8008       L1     8  0.04
      L1  C    14    36       P1  7957  1.00
      L1  C    15    37       P1 10175  0.24

> <Gold.PLP.Chemscore.Internal.Correction>
0.0465

> <Gold.Rescore>
     Score         DG    S(hbond)    S(metal)    S(lipo)     H(rot)  DE(clash)    DE(int)     intcor
     12.19     -13.29       0.00        0.00     100.91       1.56       0.16       0.94       ----

> <Gold.Chemscore.Fitness>
12.1864

> <Gold.Chemscore.DG>
-13.2866

> <Gold.Chemscore.ZeroCoef>
-5.4800

> <Gold.Chemscore.Hbond>
0.0002

> <Gold.Chemscore.Metal>
0.0000

> <Gold.Chemscore.Lipo>
100.9093

> <Gold.Chemscore.Internal_Hbond>
0.0000

> <Gold.Chemscore.DEClash>
0.1592

> <Gold.Chemscore.DEInternal>
0.9409

> <Gold.Chemscore.Rot>
1.5626

> <Gold.Chemscore.Internal.Correction>
   9.000000E+99

> <Gold.Chemscore.Hbonds>
donor molecule, donor type, donor heavy atom, donor atom, acceptor molecule, acceptor atom, score
      P1  H  7997  8008       L1     8  0.06

> <Gold.Chemscore.Hbond.Weighted>
-0.0005

> <Gold.Chemscore.Metal.Weighted>
-0.0000

> <Gold.Chemscore.Lipo.Weighted>
-11.8064

> <Gold.Chemscore.Internal_Hbond.Weighted>
0.0000

> <Gold.Chemscore.DEClash.Weighted>
0.1592

> <Gold.Chemscore.DEInternal.Weighted>
0.9409

> <Gold.Chemscore.Rot.Weighted>
4.0004

> <Gold.Chemscore.Internal.Correction.Weighted>
   9.000000E+99

> <Gold.Protein.RotatedTorsions>
[ 6907 6896 6895 6894 ] final  154.69 input  -60.11 | X-H torsion
[ 7974 7965 7964 7962 ] final  -10.31 input  175.53 | X-H torsion
[ 8008 7997 7996 7995 ] final  -88.34 input   59.86 | X-H torsion
[ 10167 10162 10161 10158 ] final  129.92 input  -65.29 | X-H torsion
[ 10718 10713 10712 10709 ] final  -69.22 input   66.30 | X-H torsion
[ 10763 10752 10751 10750 ] final   80.50 input  -60.55 | X-H torsion
[ 11005 11000 10999 10996 ] final -176.60 input  -57.11 | X-H torsion

> <Gold.Protein.ActiveResidues>
 VAL166  LYS551  ARG553  GLY616  TRP617  ASP618  TYR619  PRO620  LYS621  CYS622 
 ASP623  PHE694  ASN695  SER759  ASP760  ASP761  ALA762  ILE779  LEU786  VAL792 
 PHE793  MET794  SER795  GLU796  ALA797  LYS798  CYS799  TRP800  GLU811  SER814 

> <Gold.Protein.RotatedAtoms>
  152.0548  133.4035  159.4392 H   0  0  0  0  0  0  0  0  0  0  0  0  # atno 6907 bound_to 6896
  150.6868  134.3267  159.4819 H   0  0  0  0  0  0  0  0  0  0  0  0  # atno 6908 bound_to 6896
  152.1081  134.9293  160.0618 H   0  0  0  0  0  0  0  0  0  0  0  0  # atno 6909 bound_to 6896
  146.2225  140.2745  142.8358 H   0  0  0  0  0  0  0  0  0  0  0  0  # atno 7974 bound_to 7965
  154.6737  140.0555  157.0192 H   0  0  0  0  0  0  0  0  0  0  0  0  # atno 8008 bound_to 7997
  155.1052  140.3233  155.4517 H   0  0  0  0  0  0  0  0  0  0  0  0  # atno 8009 bound_to 7997
  156.2667  140.2024  156.6177 H   0  0  0  0  0  0  0  0  0  0  0  0  # atno 8010 bound_to 7997
  139.5455  144.6769  151.4488 H   0  0  0  0  0  0  0  0  0  0  0  0  # atno 10167 bound_to 10162
  156.0466  130.4309  150.2116 H   0  0  0  0  0  0  0  0  0  0  0  0  # atno 10718 bound_to 10713
  153.1039  135.4800  154.8915 H   0  0  0  0  0  0  0  0  0  0  0  0  # atno 10763 bound_to 10752
  154.7408  135.3082  154.8733 H   0  0  0  0  0  0  0  0  0  0  0  0  # atno 10764 bound_to 10752
  153.9342  135.6841  153.4798 H   0  0  0  0  0  0  0  0  0  0  0  0  # atno 10765 bound_to 10752
  140.4503  134.6349  157.4798 H   0  0  0  0  0  0  0  0  0  0  0  0  # atno 11005 bound_to 11000
  144.9243  140.7904  143.5729 LP  0  0  0  0  0  0  0  0  0  0  0  0  # atno 17320 bound_to 7965
  145.2684  139.1964  143.4855 LP  0  0  0  0  0  0  0  0  0  0  0  0  # atno 17321 bound_to 7965
  140.6701  143.8313  150.6989 LP  0  0  0  0  0  0  0  0  0  0  0  0  # atno 17342 bound_to 10162
  140.1734  143.4175  152.1984 LP  0  0  0  0  0  0  0  0  0  0  0  0  # atno 17343 bound_to 10162
  157.0205  130.9978  151.3341 LP  0  0  0  0  0  0  0  0  0  0  0  0  # atno 17370 bound_to 10713
  157.5347  130.8081  149.7958 LP  0  0  0  0  0  0  0  0  0  0  0  0  # atno 17371 bound_to 10713
  140.0011  134.6835  155.9529 LP  0  0  0  0  0  0  0  0  0  0  0  0  # atno 17394 bound_to 11000
  141.1667  133.6537  156.4505 LP  0  0  0  0  0  0  0  0  0  0  0  0  # atno 17395 bound_to 11000

$$$$
