AV-unprocessed.smi:1641|AV-procd|sdf|6563|dock2
  -GOLD-   22720 7243D 1   1.00000     0.00000
 Structure written by MMmdl.
 40 41  0  0  0  0  0  0  0  0  2 V2000
  145.9200  134.7092  162.7586 C   0  0  0  0  0  0  0  0  0  0  0  0
  146.7464  135.4941  161.7984 C   0  0  0  0  0  0  0  0  0  0  0  0
  147.1980  136.7227  162.0632 N   0  0  0  0  0  0  0  0  0  0  0  0
  147.9441  137.2425  161.0151 N   0  0  0  0  0  0  0  0  0  0  0  0
  148.0555  136.3978  159.9799 C   0  0  0  0  0  0  0  0  0  0  0  0
  148.7369  136.7083  158.8645 N   0  5  0  0  0  0  0  0  0  0  0  0
  149.9273  137.3440  158.9563 C   0  0  0  0  0  0  0  0  0  0  0  0
  150.7944  137.1502  159.8118 O   0  0  0  0  0  0  0  0  0  0  0  0
  150.1287  138.2560  157.9943 N   0  0  0  0  0  0  0  0  0  0  0  0
  151.3226  139.0780  157.8330 C   0  0  0  0  0  0  0  0  0  0  0  0
  150.9596  140.5660  157.6681 C   0  0  0  0  0  0  0  0  0  0  0  0
  151.2235  141.3995  158.8396 N   0  0  0  0  0  0  0  0  0  0  0  0
  152.4336  140.9631  159.5263 C   0  0  0  0  0  0  0  0  0  0  0  0
  152.7306  141.8179  160.7728 C   0  0  1  0  0  0  0  0  0  0  0  0
  154.0403  141.4115  161.4559 C   0  0  0  0  0  0  0  0  0  0  0  0
  152.8320  143.1849  160.3835 O   0  0  0  0  0  0  0  0  0  0  0  0
  151.6564  143.6764  159.7453 C   0  0  1  0  0  0  0  0  0  0  0  0
  151.8837  145.1487  159.3873 C   0  0  0  0  0  0  0  0  0  0  0  0
  151.3547  142.8149  158.5037 C   0  0  0  0  0  0  0  0  0  0  0  0
  147.2072  134.8712  160.2237 S   0  0  0  0  0  0  0  0  0  0  0  0
  146.5393  133.9648  163.2591 H   0  0  0  0  0  0  0  0  0  0  0  0
  145.1159  134.1983  162.2289 H   0  0  0  0  0  0  0  0  0  0  0  0
  145.4802  135.3641  163.5114 H   0  0  0  0  0  0  0  0  0  0  0  0
  149.3919  138.3836  157.3159 H   0  0  0  0  0  0  0  0  0  0  0  0
  151.9402  138.9249  158.7172 H   0  0  0  0  0  0  0  0  0  0  0  0
  151.9054  138.7279  156.9794 H   0  0  0  0  0  0  0  0  0  0  0  0
  151.5338  140.9587  156.8279 H   0  0  0  0  0  0  0  0  0  0  0  0
  149.9114  140.6564  157.3796 H   0  0  0  0  0  0  0  0  0  0  0  0
  152.3310  139.9186  159.8234 H   0  0  0  0  0  0  0  0  0  0  0  0
  153.2825  141.0098  158.8421 H   0  0  0  0  0  0  0  0  0  0  0  0
  151.9146  141.7137  161.4901 H   0  0  0  0  0  0  0  0  0  0  0  0
  154.0062  140.3712  161.7805 H   0  0  0  0  0  0  0  0  0  0  0  0
  154.2282  142.0277  162.3354 H   0  0  0  0  0  0  0  0  0  0  0  0
  154.8894  141.5252  160.7814 H   0  0  0  0  0  0  0  0  0  0  0  0
  150.8217  143.6111  160.4454 H   0  0  0  0  0  0  0  0  0  0  0  0
  151.0019  145.5770  158.9102 H   0  0  0  0  0  0  0  0  0  0  0  0
  152.7247  145.2627  158.7026 H   0  0  0  0  0  0  0  0  0  0  0  0
  152.0981  145.7372  160.2797 H   0  0  0  0  0  0  0  0  0  0  0  0
  152.1494  142.9464  157.7676 H   0  0  0  0  0  0  0  0  0  0  0  0
  150.4375  143.1793  158.0424 H   0  0  0  0  0  0  0  0  0  0  0  0
  1  2  1  0  0  0  0
  1 21  1  0  0  0  0
  1 22  1  0  0  0  0
  1 23  1  0  0  0  0
  2 20  1  0  0  0  0
  2  3  2  0  0  0  0
  3  4  1  0  0  0  0
  4  5  2  0  0  0  0
  5  6  1  0  0  0  0
  5 20  1  0  0  0  0
  6  7  1  0  0  0  0
  7  8  2  0  0  0  0
  7  9  1  0  0  0  0
  9 10  1  0  0  0  0
  9 24  1  0  0  0  0
 10 11  1  0  0  0  0
 10 25  1  0  0  0  0
 10 26  1  0  0  0  0
 11 12  1  0  0  0  0
 11 27  1  0  0  0  0
 11 28  1  0  0  0  0
 12 19  1  0  0  0  0
 12 13  1  0  0  0  0
 13 14  1  0  0  0  0
 13 29  1  0  0  0  0
 13 30  1  0  0  0  0
 14 15  1  0  0  0  0
 14 16  1  0  0  0  0
 14 31  1  0  0  0  0
 15 32  1  0  0  0  0
 15 33  1  0  0  0  0
 15 34  1  0  0  0  0
 16 17  1  0  0  0  0
 17 18  1  0  0  0  0
 17 19  1  0  0  0  0
 17 35  1  0  0  0  0
 18 36  1  0  0  0  0
 18 37  1  0  0  0  0
 18 38  1  0  0  0  0
 19 39  1  0  0  0  0
 19 40  1  0  0  0  0
M  CHG  1   6  -1
M  END
> <s_m_source_file>
AV-unprocessed.smi

> <i_m_source_file_index>
1641

> <i_lp_mmshare_version>
43012

> <i_f3d_flags>
0

> <s_epik_input>
W0NIM11jMW5uYyhzMSlbTkhdQyg9TylbTkhdW0NIMl1bQ0gyXU4yW0NIMl1bQ0BASF0oW0NIM10pT1tDQEBIXShbQ0gzXSlbQ0gyXTI=

> <s_epik_cmdline>
J2VwaWtfcHl0aG9uJywgJy1waCcsICc3LjAnLCAnLXRuJywgJzgnLCAnLW1hJywgJzIwMCcsICctbWV0YWxfYmluZGluZycsICctaW1hZScsICc8aW5maWxlLm1hZT4nLCAnLW9tYWUnLCAnPG91dGZpbGUubWFlPic=

> <r_lp_tautomer_probability>
1

> <r_epik_Ionization_Penalty>
3.81681

> <r_epik_Ionization_Penalty_Charging>
3.36369

> <r_epik_Ionization_Penalty_Neutral>
0.45313

> <r_epik_State_Penalty>
3.571

> <r_epik_Charging_Adjusted_Penalty>
6.93469

> <i_epik_Tot_Q>
-1

> <i_epik_Tot_abs_Q>
1

> <r_epik_Metal_State_Penalty>
0.710322

> <b_epik_Metal_Only>
1

> <s_lp_Force_Field>
OPLS_2005

> <r_lp_Energy>
16.5126

> <b_lp_Chiralities_Consistent>
1

> <s_lp_Variant>
AV-unprocessed.smi:1641-8

> <Gold.Version>
5.8.1

> <Gold.Id.Protein>
6NUR|6NUR_protein|mol2

> <Gold.PLP.Fitness>
43.2415

> <Gold.PLP.PLP>
-37.6999

> <Gold.PLP.part.hbond>
-3.1957

> <Gold.PLP.part.metal>
0.0000

> <Gold.PLP.part.buried>
-5.9311

> <Gold.PLP.part.nonpolar>
-29.8661

> <Gold.PLP.part.repulsive>
0.0909

> <Gold.PLP.ligand.clash>
0.0000

> <Gold.PLP.ligand.torsion>
1.2232

> <Gold.PLP.Chemscore.Hbond>
2.6488

> <Gold.PLP.Chemscore.CHOScore>
0.0000

> <Gold.PLP.Chemscore.Metal>
0.0000

> <Gold.Chemscore.Hbonds>
donor molecule, donor type, donor heavy atom, donor atom, acceptor molecule, acceptor atom, score
      P1  H  6896  6908       L1     8  0.91
      P1  H  6931  6943       L1     4  0.91
      P1  H  6934  6947       L1     4  0.75

> <Gold.PLP.Chemscore.Internal.Correction>
0.0415

> <Gold.Rescore>
     Score         DG    S(hbond)    S(metal)    S(lipo)     H(rot)  DE(clash)    DE(int)     intcor
     15.28     -17.68       1.80        0.00      87.13       1.57       0.04       2.36       ----

> <Gold.Chemscore.Fitness>
15.2778

> <Gold.Chemscore.DG>
-17.6799

> <Gold.Chemscore.ZeroCoef>
-5.4800

> <Gold.Chemscore.Hbond>
1.8027

> <Gold.Chemscore.Metal>
0.0000

> <Gold.Chemscore.Lipo>
87.1334

> <Gold.Chemscore.Internal_Hbond>
0.0000

> <Gold.Chemscore.DEClash>
0.0402

> <Gold.Chemscore.DEInternal>
2.3618

> <Gold.Chemscore.Rot>
1.5686

> <Gold.Chemscore.Internal.Correction>
   9.000000E+99

> <Gold.Chemscore.Hbonds>
donor molecule, donor type, donor heavy atom, donor atom, acceptor molecule, acceptor atom, score
      P1  H  6896  6908       L1     8  0.68
      P1  H  6931  6943       L1     4  0.23
      P1  H  6934  6947       L1     4  0.19

> <Gold.Chemscore.Hbond.Weighted>
-6.0210

> <Gold.Chemscore.Metal.Weighted>
-0.0000

> <Gold.Chemscore.Lipo.Weighted>
-10.1946

> <Gold.Chemscore.Internal_Hbond.Weighted>
0.0000

> <Gold.Chemscore.DEClash.Weighted>
0.0402

> <Gold.Chemscore.DEInternal.Weighted>
2.3618

> <Gold.Chemscore.Rot.Weighted>
4.0157

> <Gold.Chemscore.Internal.Correction.Weighted>
   9.000000E+99

> <Gold.Protein.RotatedTorsions>
[ 6907 6896 6895 6894 ] final -136.00 input  -60.11 | X-H torsion
[ 7974 7965 7964 7962 ] final   63.55 input  175.53 | X-H torsion
[ 8008 7997 7996 7995 ] final -155.17 input   59.86 | X-H torsion
[ 10167 10162 10161 10158 ] final  -84.51 input  -65.29 | X-H torsion
[ 10718 10713 10712 10709 ] final    6.90 input   66.30 | X-H torsion
[ 10763 10752 10751 10750 ] final   52.51 input  -60.55 | X-H torsion
[ 11005 11000 10999 10996 ] final  167.06 input  -57.11 | X-H torsion

> <Gold.Protein.ActiveResidues>
 VAL166  LYS551  ARG553  GLY616  TRP617  ASP618  TYR619  PRO620  LYS621  CYS622 
 ASP623  PHE694  ASN695  SER759  ASP760  ASP761  ALA762  ILE779  LEU786  VAL792 
 PHE793  MET794  SER795  GLU796  ALA797  LYS798  CYS799  TRP800  GLU811  SER814 

> <Gold.Protein.RotatedAtoms>
  151.0047  133.6022  159.2690 H   0  0  0  0  0  0  0  0  0  0  0  0  # atno 6907 bound_to 6896
  151.3195  135.0814  159.9310 H   0  0  0  0  0  0  0  0  0  0  0  0  # atno 6908 bound_to 6896
  152.5283  133.9697  159.7810 H   0  0  0  0  0  0  0  0  0  0  0  0  # atno 6909 bound_to 6896
  145.8605  139.3312  143.0822 H   0  0  0  0  0  0  0  0  0  0  0  0  # atno 7974 bound_to 7965
  155.6976  140.0763  157.2423 H   0  0  0  0  0  0  0  0  0  0  0  0  # atno 8008 bound_to 7997
  154.4078  140.1653  156.2208 H   0  0  0  0  0  0  0  0  0  0  0  0  # atno 8009 bound_to 7997
  155.9396  140.3385  155.6319 H   0  0  0  0  0  0  0  0  0  0  0  0  # atno 8010 bound_to 7997
  140.4126  143.2616  151.8997 H   0  0  0  0  0  0  0  0  0  0  0  0  # atno 10167 bound_to 10162
  156.9290  130.5819  149.5649 H   0  0  0  0  0  0  0  0  0  0  0  0  # atno 10718 bound_to 10713
  152.9789  135.5810  154.4591 H   0  0  0  0  0  0  0  0  0  0  0  0  # atno 10763 bound_to 10752
  154.4169  135.2771  155.2002 H   0  0  0  0  0  0  0  0  0  0  0  0  # atno 10764 bound_to 10752
  154.3768  135.6155  153.5823 H   0  0  0  0  0  0  0  0  0  0  0  0  # atno 10765 bound_to 10752
  140.2728  134.7813  157.3690 H   0  0  0  0  0  0  0  0  0  0  0  0  # atno 11005 bound_to 11000
  145.9254  140.9086  143.0384 LP  0  0  0  0  0  0  0  0  0  0  0  0  # atno 17320 bound_to 7965
  144.6727  140.1345  143.7441 LP  0  0  0  0  0  0  0  0  0  0  0  0  # atno 17321 bound_to 7965
  139.4782  144.5521  151.8370 LP  0  0  0  0  0  0  0  0  0  0  0  0  # atno 17342 bound_to 10162
  140.4621  144.1707  150.5907 LP  0  0  0  0  0  0  0  0  0  0  0  0  # atno 17343 bound_to 10162
  156.0456  130.5533  150.8872 LP  0  0  0  0  0  0  0  0  0  0  0  0  # atno 17370 bound_to 10713
  157.5859  131.0945  150.9197 LP  0  0  0  0  0  0  0  0  0  0  0  0  # atno 17371 bound_to 10713
  140.1357  134.5038  155.8071 LP  0  0  0  0  0  0  0  0  0  0  0  0  # atno 17394 bound_to 11000
  141.2175  133.6806  156.7119 LP  0  0  0  0  0  0  0  0  0  0  0  0  # atno 17395 bound_to 11000

$$$$
