AV-unprocessed.smi:837|AV-procd|sdf|3900|dock9
  -GOLD-   22720 1363D 1   1.00000     0.00000
 Structure written by MMmdl.
 48 50  0  0  0  0  0  0  0  0  2 V2000
  150.3432  142.1980  157.5104 C   0  0  0  0  0  0  0  0  0  0  0  0
  151.1402  141.3819  158.5517 C   0  0  2  0  0  0  0  0  0  0  0  0
  152.2598  142.2391  159.1808 C   0  0  0  0  0  0  0  0  0  0  0  0
  152.9913  141.4878  160.3032 C   0  0  0  0  0  0  0  0  0  0  0  0
  153.5613  140.1553  159.7996 C   0  0  0  0  0  0  0  0  0  0  0  0
  152.4633  139.2803  159.1695 C   0  0  0  0  0  0  0  0  0  0  0  0
  151.6916  140.0109  158.0397 C   0  0  2  0  0  0  0  0  0  0  0  0
  152.5456  140.1738  156.8733 N   0  5  0  0  0  0  0  0  0  0  0  0
  152.0136  139.4828  155.8389 C   0  0  0  0  0  0  0  0  0  0  0  0
  152.4658  139.4052  154.6970 O   0  0  0  0  0  0  0  0  0  0  0  0
  150.8777  138.8593  156.2059 N   0  0  0  0  0  0  0  0  0  0  0  0
  150.0409  138.0488  155.3113 C   0  0  0  0  0  0  0  0  0  0  0  0
  148.8882  138.8485  154.6899 C   0  0  0  0  0  0  0  0  0  0  0  0
  148.5355  139.9247  155.1743 O   0  0  0  0  0  0  0  0  0  0  0  0
  148.2900  138.2914  153.6264 N   0  0  0  0  0  0  0  0  0  0  0  0
  147.1680  138.8730  152.8966 C   0  0  0  0  0  0  0  0  0  0  0  0
  145.8546  138.1019  153.1251 C   0  0  0  0  0  0  0  0  0  0  0  0
  145.9177  136.6582  152.6576 C   0  0  0  0  0  0  0  0  0  0  0  0
  146.2578  135.6197  153.5492 C   0  0  0  0  0  0  0  0  0  0  0  0
  146.3092  134.2989  153.0634 C   0  0  0  0  0  0  0  0  0  0  0  0
  146.0183  134.0727  151.7032 C   0  0  0  0  0  0  0  0  0  0  0  0
  145.6923  135.0593  150.8405 N   0  0  0  0  0  0  0  0  0  0  0  0
  145.6433  136.3226  151.3148 C   0  0  0  0  0  0  0  0  0  0  0  0
  150.5945  139.1101  157.4890 C   0  0  0  0  0  0  0  0  0  0  0  0
  149.6264  138.7088  158.1368 O   0  0  0  0  0  0  0  0  0  0  0  0
  150.9631  142.4772  156.6582 H   0  0  0  0  0  0  0  0  0  0  0  0
  149.9601  143.1187  157.9505 H   0  0  0  0  0  0  0  0  0  0  0  0
  149.4840  141.6456  157.1302 H   0  0  0  0  0  0  0  0  0  0  0  0
  150.4383  141.1591  159.3573 H   0  0  0  0  0  0  0  0  0  0  0  0
  152.9752  142.5372  158.4131 H   0  0  0  0  0  0  0  0  0  0  0  0
  151.8408  143.1625  159.5813 H   0  0  0  0  0  0  0  0  0  0  0  0
  153.7947  142.1078  160.7016 H   0  0  0  0  0  0  0  0  0  0  0  0
  152.3033  141.3033  161.1291 H   0  0  0  0  0  0  0  0  0  0  0  0
  154.3466  140.3462  159.0674 H   0  0  0  0  0  0  0  0  0  0  0  0
  154.0340  139.6195  160.6228 H   0  0  0  0  0  0  0  0  0  0  0  0
  152.9041  138.3529  158.7992 H   0  0  0  0  0  0  0  0  0  0  0  0
  151.7655  138.9856  159.9551 H   0  0  0  0  0  0  0  0  0  0  0  0
  150.6607  137.6160  154.5240 H   0  0  0  0  0  0  0  0  0  0  0  0
  149.6160  137.2012  155.8511 H   0  0  0  0  0  0  0  0  0  0  0  0
  148.6384  137.4024  153.2983 H   0  0  0  0  0  0  0  0  0  0  0  0
  147.0437  139.9227  153.1668 H   0  0  0  0  0  0  0  0  0  0  0  0
  147.4210  138.8582  151.8362 H   0  0  0  0  0  0  0  0  0  0  0  0
  145.5930  138.1234  154.1840 H   0  0  0  0  0  0  0  0  0  0  0  0
  145.0395  138.6043  152.6034 H   0  0  0  0  0  0  0  0  0  0  0  0
  146.4794  135.8300  154.5854 H   0  0  0  0  0  0  0  0  0  0  0  0
  146.5668  133.4787  153.7170 H   0  0  0  0  0  0  0  0  0  0  0  0
  146.0500  133.0726  151.2970 H   0  0  0  0  0  0  0  0  0  0  0  0
  145.3820  137.0893  150.6003 H   0  0  0  0  0  0  0  0  0  0  0  0
  1  2  1  0  0  0  0
  1 26  1  0  0  0  0
  1 27  1  0  0  0  0
  1 28  1  0  0  0  0
  2  7  1  0  0  0  0
  2  3  1  0  0  0  0
  2 29  1  0  0  0  0
  3  4  1  0  0  0  0
  3 30  1  0  0  0  0
  3 31  1  0  0  0  0
  4  5  1  0  0  0  0
  4 32  1  0  0  0  0
  4 33  1  0  0  0  0
  5  6  1  0  0  0  0
  5 34  1  0  0  0  0
  5 35  1  0  0  0  0
  6  7  1  0  0  0  0
  6 36  1  0  0  0  0
  6 37  1  0  0  0  0
  7 24  1  0  0  0  0
  7  8  1  0  0  0  0
  8  9  1  0  0  0  0
  9 10  2  0  0  0  0
  9 11  1  0  0  0  0
 11 12  1  0  0  0  0
 11 24  1  0  0  0  0
 12 13  1  0  0  0  0
 12 38  1  0  0  0  0
 12 39  1  0  0  0  0
 13 14  2  0  0  0  0
 13 15  1  0  0  0  0
 15 16  1  0  0  0  0
 15 40  1  0  0  0  0
 16 17  1  0  0  0  0
 16 41  1  0  0  0  0
 16 42  1  0  0  0  0
 17 18  1  0  0  0  0
 17 43  1  0  0  0  0
 17 44  1  0  0  0  0
 18 23  1  0  0  0  0
 18 19  2  0  0  0  0
 19 20  1  0  0  0  0
 19 45  1  0  0  0  0
 20 21  2  0  0  0  0
 20 46  1  0  0  0  0
 21 22  1  0  0  0  0
 21 47  1  0  0  0  0
 22 23  2  0  0  0  0
 23 48  1  0  0  0  0
 24 25  2  0  0  0  0
M  CHG  1   8  -1
M  END
> <s_m_source_file>
AV-unprocessed.smi

> <i_m_source_file_index>
837

> <i_lp_mmshare_version>
43012

> <i_f3d_flags>
0

> <s_epik_input>
W0NIMl0xW0NIMl1bQ0gyXVtDSDJdW0NAQEhdKFtDSDNdKVtDQEBdMTJbTkhdQyg9TylOKEMyPU8pW0NIMl1DKD1PKVtOSF1bQ0gyXVtDSDJdYzNbY0hdW2NIXVtjSF1uW2NIXTM=

> <s_epik_cmdline>
J2VwaWtfcHl0aG9uJywgJy1waCcsICc3LjAnLCAnLXRuJywgJzgnLCAnLW1hJywgJzIwMCcsICctbWV0YWxfYmluZGluZycsICctaW1hZScsICc8aW5maWxlLm1hZT4nLCAnLW9tYWUnLCAnPG91dGZpbGUubWFlPic=

> <r_lp_tautomer_probability>
1

> <r_epik_Ionization_Penalty>
6.03002

> <r_epik_Ionization_Penalty_Charging>
6.01728

> <r_epik_Ionization_Penalty_Neutral>
0.0127382

> <r_epik_State_Penalty>
6.02713

> <r_epik_Charging_Adjusted_Penalty>
12.0444

> <i_epik_Tot_Q>
-1

> <i_epik_Tot_abs_Q>
1

> <r_epik_Metal_State_Penalty>
1.99078

> <b_epik_Metal_Only>
1

> <s_lp_Force_Field>
OPLS_2005

> <r_lp_Energy>
20.4671

> <b_lp_Chiralities_Consistent>
1

> <s_lp_Variant>
AV-unprocessed.smi:837-9

> <Gold.Version>
5.8.1

> <Gold.Id.Protein>
6NUR|6NUR_protein|mol2

> <Gold.PLP.Fitness>
48.3185

> <Gold.PLP.PLP>
-36.2058

> <Gold.PLP.part.hbond>
-3.0000

> <Gold.PLP.part.metal>
0.0000

> <Gold.PLP.part.buried>
-3.2923

> <Gold.PLP.part.nonpolar>
-29.3605

> <Gold.PLP.part.repulsive>
0.3210

> <Gold.PLP.ligand.clash>
0.0000

> <Gold.PLP.ligand.torsion>
0.9744

> <Gold.PLP.Chemscore.Hbond>
3.6800

> <Gold.PLP.Chemscore.CHOScore>
1.0000

> <Gold.PLP.Chemscore.Metal>
0.0000

> <Gold.Chemscore.Hbonds>
donor molecule, donor type, donor heavy atom, donor atom, acceptor molecule, acceptor atom, score
      L1  H    15    40       P1  7948  0.98
      P1  H  7989  7998       L1    10  0.66
      P1  H  7997  8009       L1     8  2.00
      L1  C    23    48       P1 10171  1.00

> <Gold.PLP.Chemscore.Internal.Correction>
0.0215

> <Gold.Rescore>
     Score         DG    S(hbond)    S(metal)    S(lipo)     H(rot)  DE(clash)    DE(int)     intcor
     17.44     -18.53       2.36        0.00      83.62       1.81       0.10       0.98       ----

> <Gold.Chemscore.Fitness>
17.4447

> <Gold.Chemscore.DG>
-18.5258

> <Gold.Chemscore.ZeroCoef>
-5.4800

> <Gold.Chemscore.Hbond>
2.3634

> <Gold.Chemscore.Metal>
0.0000

> <Gold.Chemscore.Lipo>
83.6176

> <Gold.Chemscore.Internal_Hbond>
0.0000

> <Gold.Chemscore.DEClash>
0.1022

> <Gold.Chemscore.DEInternal>
0.9790

> <Gold.Chemscore.Rot>
1.8090

> <Gold.Chemscore.Internal.Correction>
   9.000000E+99

> <Gold.Chemscore.Hbonds>
donor molecule, donor type, donor heavy atom, donor atom, acceptor molecule, acceptor atom, score
      L1  H    15    40       P1  7948  0.93
      P1  H  7989  7998       L1    10  0.47
      P1  H  7997  8009       L1     8  0.39

> <Gold.Chemscore.Hbond.Weighted>
-7.8936

> <Gold.Chemscore.Metal.Weighted>
-0.0000

> <Gold.Chemscore.Lipo.Weighted>
-9.7833

> <Gold.Chemscore.Internal_Hbond.Weighted>
0.0000

> <Gold.Chemscore.DEClash.Weighted>
0.1022

> <Gold.Chemscore.DEInternal.Weighted>
0.9790

> <Gold.Chemscore.Rot.Weighted>
4.6310

> <Gold.Chemscore.Internal.Correction.Weighted>
   9.000000E+99

> <Gold.Protein.RotatedTorsions>
[ 6907 6896 6895 6894 ] final  -34.93 input  -60.11 | X-H torsion
[ 7974 7965 7964 7962 ] final  -61.16 input  175.53 | X-H torsion
[ 8008 7997 7996 7995 ] final -172.98 input   59.86 | X-H torsion
[ 10167 10162 10161 10158 ] final  -23.51 input  -65.29 | X-H torsion
[ 10718 10713 10712 10709 ] final -157.56 input   66.30 | X-H torsion
[ 10763 10752 10751 10750 ] final -122.19 input  -60.55 | X-H torsion
[ 11005 11000 10999 10996 ] final   72.48 input  -57.11 | X-H torsion

> <Gold.Protein.ActiveResidues>
 VAL166  LYS551  ARG553  GLY616  TRP617  ASP618  TYR619  PRO620  LYS621  CYS622 
 ASP623  PHE694  ASN695  SER759  ASP760  ASP761  ALA762  ILE779  LEU786  VAL792 
 PHE793  MET794  SER795  GLU796  ALA797  LYS798  CYS799  TRP800  GLU811  SER814 

> <Gold.Protein.RotatedAtoms>
  151.0463  134.9642  159.8187 H   0  0  0  0  0  0  0  0  0  0  0  0  # atno 6907 bound_to 6896
  152.5373  134.2594  159.8939 H   0  0  0  0  0  0  0  0  0  0  0  0  # atno 6908 bound_to 6896
  151.2608  133.4260  159.2650 H   0  0  0  0  0  0  0  0  0  0  0  0  # atno 6909 bound_to 6896
  145.8068  140.8622  143.0202 H   0  0  0  0  0  0  0  0  0  0  0  0  # atno 7974 bound_to 7965
  155.9515  140.1127  157.0972 H   0  0  0  0  0  0  0  0  0  0  0  0  # atno 8008 bound_to 7997
  154.4111  140.1199  156.5125 H   0  0  0  0  0  0  0  0  0  0  0  0  # atno 8009 bound_to 7997
  155.6836  140.3473  155.4867 H   0  0  0  0  0  0  0  0  0  0  0  0  # atno 8010 bound_to 7997
  140.7288  143.4436  151.0620 H   0  0  0  0  0  0  0  0  0  0  0  0  # atno 10167 bound_to 10162
  156.5420  130.8567  151.2752 H   0  0  0  0  0  0  0  0  0  0  0  0  # atno 10718 bound_to 10713
  154.8684  135.4141  154.2742 H   0  0  0  0  0  0  0  0  0  0  0  0  # atno 10763 bound_to 10752
  153.3646  135.7005  153.6690 H   0  0  0  0  0  0  0  0  0  0  0  0  # atno 10764 bound_to 10752
  153.5577  135.3616  155.2758 H   0  0  0  0  0  0  0  0  0  0  0  0  # atno 10765 bound_to 10752
  139.9488  134.7263  156.0912 H   0  0  0  0  0  0  0  0  0  0  0  0  # atno 11005 bound_to 11000
  144.6762  140.0339  143.7482 LP  0  0  0  0  0  0  0  0  0  0  0  0  # atno 17320 bound_to 7965
  145.9819  139.2948  143.1037 LP  0  0  0  0  0  0  0  0  0  0  0  0  # atno 17321 bound_to 7965
  139.8106  143.7956  152.3171 LP  0  0  0  0  0  0  0  0  0  0  0  0  # atno 17342 bound_to 10162
  139.8005  144.7376  150.9832 LP  0  0  0  0  0  0  0  0  0  0  0  0  # atno 17343 bound_to 10162
  157.7403  130.9849  150.2372 LP  0  0  0  0  0  0  0  0  0  0  0  0  # atno 17370 bound_to 10713
  156.2963  130.3752  149.7793 LP  0  0  0  0  0  0  0  0  0  0  0  0  # atno 17371 bound_to 10713
  141.1146  133.6632  156.3063 LP  0  0  0  0  0  0  0  0  0  0  0  0  # atno 17394 bound_to 11000
  140.5768  134.5785  157.5470 LP  0  0  0  0  0  0  0  0  0  0  0  0  # atno 17395 bound_to 11000

$$$$
