#       Name:                AV-unprocessed.smi:1413
#       Creating user name   scv26
#       Creation time:       Fri Mar 27 05:38:49 2020


#       File generated by GOLD software.
#

@<TRIPOS>MOLECULE
AV-unprocessed.smi:1413
    61    63     1
SMALL
NO_CHARGES


@<TRIPOS>ATOM
      1 ****        -6.5753   0.2923   1.5691 C.3            1 S1                 0.0000
      2 ****        -6.0900  -1.1549   1.3723 C.3            1 S1                 0.0000
      3 ****        -4.5550  -1.2988   1.4018 C.3            1 S1                 0.0000
      4 ****        -3.9667  -0.7988   0.1666 N.3            1 S1                 0.0000
      5 ****        -2.5659  -0.7854   0.1859 C.ar           1 S1                 0.0000
      6 ****        -1.8131  -1.9817   0.1961 C.ar           1 S1                 0.0000
      7 ****        -0.4084  -1.8948   0.2194 C.ar           1 S1                 0.0000
      8 ****         0.2025  -0.6251   0.2424 C.ar           1 S1                 0.0000
      9 ****         1.6224  -0.5677   0.2507 N.am           1 S1                 0.0000
     10 ****         2.4163   0.4418   0.6472 C.2            1 S1                 0.0000
     11 ****         2.0250   1.5181   1.0975 O.2            1 S1                 0.0000
     12 ****         3.7101   0.1184   0.5082 N.am           1 S1                 0.0000
     13 ****         4.8481   0.9732   0.8400 C.3            1 S1                 0.0000
     14 ****         5.6657   0.2978   1.9524 C.3            1 S1                 0.0000
     15 ****         5.6796   1.2330  -0.4316 C.3            1 S1                 0.0000
     16 ****         6.8754   2.1658  -0.2301 C.3            1 S1                 0.0000
     17 ****         7.0772   2.7148  -1.6232 C.3            1 S1                 0.0000
     18 ****         5.6386   2.8812  -2.1006 C.3            1 S1                 0.0000
     19 ****         4.8835   1.8793  -1.4245 O.3            1 S1                 0.0000
     20 ****        -0.6414   0.5121   0.2173 C.ar           1 S1                 0.0000
     21 ****        -1.9892   0.4355   0.1935 N.ar           1 S1                 0.0000
     22 ****        -4.5325  -1.4312  -1.0160 C.3            1 S1                 0.0000
     23 ****        -6.0591  -1.2367  -1.0358 C.3            1 S1                 0.0000
     24 ****        -6.7143  -1.9785  -2.2056 C.3            1 S1                 0.0000
     25 ****        -6.6170  -1.7414   0.1784 O.3            1 S1                 0.0000
     26 ****        -6.2679   0.6726   2.5435 H              1 S1                 0.0000
     27 ****        -7.6630   0.3471   1.5221 H              1 S1                 0.0000
     28 ****        -6.1728   0.9703   0.8168 H              1 S1                 0.0000
     29 ****        -6.4932  -1.7371   2.2012 H              1 S1                 0.0000
     30 ****        -4.1388  -0.7661   2.2582 H              1 S1                 0.0000
     31 ****        -4.2921  -2.3507   1.5225 H              1 S1                 0.0000
     32 ****        -2.2967  -2.9474   0.1884 H              1 S1                 0.0000
     33 ****         0.1891  -2.7946   0.2256 H              1 S1                 0.0000
     34 ****         2.0914  -1.4189  -0.0221 H              1 S1                 0.0000
     35 ****         3.9288  -0.7914   0.1301 H              1 S1                 0.0000
     36 ****         4.5000   1.9355   1.2196 H              1 S1                 0.0000
     37 ****         6.4987   0.9245   2.2712 H              1 S1                 0.0000
     38 ****         6.0751  -0.6575   1.6220 H              1 S1                 0.0000
     39 ****         5.0484   0.1088   2.8313 H              1 S1                 0.0000
     40 ****         6.0307   0.2900  -0.8545 H              1 S1                 0.0000
     41 ****         6.6219   2.9762   0.4552 H              1 S1                 0.0000
     42 ****         7.7565   1.6526   0.1560 H              1 S1                 0.0000
     43 ****         7.6438   3.6461  -1.6414 H              1 S1                 0.0000
     44 ****         7.5979   1.9833  -2.2425 H              1 S1                 0.0000
     45 ****         5.2515   3.8587  -1.8108 H              1 S1                 0.0000
     46 ****         5.5465   2.7873  -3.1829 H              1 S1                 0.0000
     47 ****        -0.2485   1.5164   0.1944 H              1 S1                 0.0000
     48 ****        -4.0862  -0.9994  -1.9128 H              1 S1                 0.0000
     49 ****        -4.2935  -2.4956  -1.0156 H              1 S1                 0.0000
     50 ****        -6.2925  -0.1763  -1.1346 H              1 S1                 0.0000
     51 ****        -6.3266  -1.6242  -3.1611 H              1 S1                 0.0000
     52 ****        -7.7939  -1.8259  -2.2078 H              1 S1                 0.0000
     53 ****        -6.5290  -3.0514  -2.1456 H              1 S1                 0.0000
     54 ****        -4.2267   0.1648   0.1048 LP             1 S1                 0.0000
     55 ****         1.0451   1.6941   1.1916 LP             1 S1                 0.0000
     56 ****         2.6869   2.2166   1.3694 LP             1 S1                 0.0000
     57 ****         4.0923   2.3048  -0.9852 LP             1 S1                 0.0000
     58 ****         4.5708   1.1998  -2.0882 LP             1 S1                 0.0000
     59 ****        -2.5481   1.2647   0.1818 LP             1 S1                 0.0000
     60 ****        -7.6030  -1.5757   0.1599 LP             1 S1                 0.0000
     61 ****        -6.4451  -2.7259   0.2138 LP             1 S1                 0.0000
@<TRIPOS>BOND
    1    1    2 1     
    2    1   26 1     
    3    1   27 1     
    4    1   28 1     
    5    2   25 1     
    6    2    3 1     
    7    2   29 1     
    8    3    4 1     
    9    3   30 1     
   10    3   31 1     
   11    4    5 1     
   12    4   22 1     
   13    5   21 ar    
   14    5    6 ar    
   15    6    7 ar    
   16    6   32 1     
   17    7    8 ar    
   18    7   33 1     
   19    8    9 1     
   20    8   20 ar    
   21    9   10 am    
   22    9   34 1     
   23   10   11 2     
   24   10   12 am    
   25   12   13 1     
   26   12   35 1     
   27   13   14 1     
   28   13   15 1     
   29   13   36 1     
   30   14   37 1     
   31   14   38 1     
   32   14   39 1     
   33   15   19 1     
   34   15   16 1     
   35   15   40 1     
   36   16   17 1     
   37   16   41 1     
   38   16   42 1     
   39   17   18 1     
   40   17   43 1     
   41   17   44 1     
   42   18   19 1     
   43   18   45 1     
   44   18   46 1     
   45   20   21 ar    
   46   20   47 1     
   47   22   23 1     
   48   22   48 1     
   49   22   49 1     
   50   23   24 1     
   51   23   25 1     
   52   23   50 1     
   53   24   51 1     
   54   24   52 1     
   55   24   53 1     
   56    4   54 1     
   57   11   55 1     
   58   11   56 1     
   59   19   57 1     
   60   19   58 1     
   61   21   59 1     
   62   25   60 1     
   63   25   61 1     
@<TRIPOS>SUBSTRUCTURE
      1 S1             1
@<TRIPOS>SET
LONE_PAIRS      STATIC     ATOMS    <user>   **** ""
8 54 55 56 57 58 59 60 61
DONOR_HYDROGENS      STATIC     ATOMS    <user>   **** ""
2 34 35
ATOM$BLUE        STATIC     ATOMS    COLORGROUP SYSTEM
8 54 55 56 57 58 59 60 61
ATOM$RED        STATIC     ATOMS    COLORGROUP SYSTEM
2 34 35
