AV-unprocessed.smi:2913|AV-procd|sdf|11185|dock2
  -GOLD-   2272016 73D 1   1.00000     0.00000
 Structure written by MMmdl.
 41 42  0  0  0  0  0  0  0  0  1 V2000
  145.6234  135.7716  151.1952 C   0  0  0  0  0  0  0  0  0  0  0  0
  145.5479  134.2599  151.3334 C   0  0  0  0  0  0  0  0  0  0  0  0
  144.5798  133.5744  150.6853 C   0  0  0  0  0  0  0  0  0  0  0  0
  144.4484  132.1189  150.7682 C   0  0  0  0  0  0  0  0  0  0  0  0
  143.5600  131.5041  150.1773 O   0  0  0  0  0  0  0  0  0  0  0  0
  145.3760  131.4894  151.5404 N   0  0  0  0  0  0  0  0  0  0  0  0
  145.3397  130.0308  151.6767 C   0  0  0  0  0  0  0  0  0  0  0  0
  146.3867  132.1897  152.2206 C   0  0  0  0  0  0  0  0  0  0  0  0
  146.5070  133.5345  152.1571 C   0  0  0  0  0  0  0  0  0  0  0  0
  147.5064  134.2748  152.8116 N   0  0  0  0  0  0  0  0  0  0  0  0
  148.0035  134.1379  154.0551 C   0  0  0  0  0  0  0  0  0  0  0  0
  147.6289  133.3225  154.8971 O   0  0  0  0  0  0  0  0  0  0  0  0
  148.9710  135.0391  154.2776 N   0  0  0  0  0  0  0  0  0  0  0  0
  149.7122  135.2162  155.5249 C   0  0  1  0  0  0  0  0  0  0  0  0
  150.8152  134.1512  155.6082 C   0  0  0  0  0  0  0  0  0  0  0  0
  150.2830  136.6459  155.5958 C   0  0  1  0  0  0  0  0  0  0  0  0
  150.9849  136.9933  156.9119 C   0  0  0  0  0  0  0  0  0  0  0  0
  152.0053  138.0508  156.5159 C   0  0  0  0  0  0  0  0  0  0  0  0
  151.9991  138.0240  154.9858 C   0  0  0  0  0  0  0  0  0  0  0  0
  151.3223  136.8233  154.6461 O   0  0  0  0  0  0  0  0  0  0  0  0
  144.8299  136.1595  150.5556 H   0  0  0  0  0  0  0  0  0  0  0  0
  146.5786  136.0643  150.7589 H   0  0  0  0  0  0  0  0  0  0  0  0
  145.5292  136.2472  152.1717 H   0  0  0  0  0  0  0  0  0  0  0  0
  143.8685  134.1122  150.0753 H   0  0  0  0  0  0  0  0  0  0  0  0
  146.1231  129.6459  152.3301 H   0  0  0  0  0  0  0  0  0  0  0  0
  145.4652  129.5535  150.7038 H   0  0  0  0  0  0  0  0  0  0  0  0
  144.3843  129.7082  152.0928 H   0  0  0  0  0  0  0  0  0  0  0  0
  147.0485  131.5473  152.7785 H   0  0  0  0  0  0  0  0  0  0  0  0
  147.8938  135.0280  152.2625 H   0  0  0  0  0  0  0  0  0  0  0  0
  149.2075  135.6686  153.5248 H   0  0  0  0  0  0  0  0  0  0  0  0
  149.0501  135.0751  156.3810 H   0  0  0  0  0  0  0  0  0  0  0  0
  151.3756  134.2377  156.5396 H   0  0  0  0  0  0  0  0  0  0  0  0
  151.5230  134.2455  154.7840 H   0  0  0  0  0  0  0  0  0  0  0  0
  150.3928  133.1464  155.5726 H   0  0  0  0  0  0  0  0  0  0  0  0
  149.4975  137.3776  155.3954 H   0  0  0  0  0  0  0  0  0  0  0  0
  150.2897  137.3426  157.6758 H   0  0  0  0  0  0  0  0  0  0  0  0
  151.5031  136.1186  157.3074 H   0  0  0  0  0  0  0  0  0  0  0  0
  151.7341  139.0385  156.8896 H   0  0  0  0  0  0  0  0  0  0  0  0
  152.9892  137.7995  156.9132 H   0  0  0  0  0  0  0  0  0  0  0  0
  151.4412  138.8739  154.5897 H   0  0  0  0  0  0  0  0  0  0  0  0
  153.0025  138.0475  154.5604 H   0  0  0  0  0  0  0  0  0  0  0  0
  1  2  1  0  0  0  0
  1 21  1  0  0  0  0
  1 22  1  0  0  0  0
  1 23  1  0  0  0  0
  2  9  1  0  0  0  0
  2  3  2  0  0  0  0
  3  4  1  0  0  0  0
  3 24  1  0  0  0  0
  4  5  2  0  0  0  0
  4  6  1  0  0  0  0
  6  7  1  0  0  0  0
  6  8  1  0  0  0  0
  7 25  1  0  0  0  0
  7 26  1  0  0  0  0
  7 27  1  0  0  0  0
  8  9  2  0  0  0  0
  8 28  1  0  0  0  0
  9 10  1  0  0  0  0
 10 11  1  0  0  0  0
 10 29  1  0  0  0  0
 11 12  2  0  0  0  0
 11 13  1  0  0  0  0
 13 14  1  0  0  0  0
 13 30  1  0  0  0  0
 14 15  1  0  0  0  0
 14 16  1  0  0  0  0
 14 31  1  0  0  0  0
 15 32  1  0  0  0  0
 15 33  1  0  0  0  0
 15 34  1  0  0  0  0
 16 20  1  0  0  0  0
 16 17  1  0  0  0  0
 16 35  1  0  0  0  0
 17 18  1  0  0  0  0
 17 36  1  0  0  0  0
 17 37  1  0  0  0  0
 18 19  1  0  0  0  0
 18 38  1  0  0  0  0
 18 39  1  0  0  0  0
 19 20  1  0  0  0  0
 19 40  1  0  0  0  0
 19 41  1  0  0  0  0
M  END
> <s_m_source_file>
AV-unprocessed.smi

> <i_m_source_file_index>
2913

> <i_lp_mmshare_version>
43012

> <i_f3d_flags>
0

> <s_epik_input>
W0NIM11jMVtjSF1jKD1PKW4oW0NIM10pW2NIXWMxW05IXUMoPU8pW05IXVtDQEhdKFtDSDNdKVtDQEBIXTJbQ0gyXVtDSDJdW0NIMl1PMg==

> <s_epik_cmdline>
J2VwaWtfcHl0aG9uJywgJy1waCcsICc3LjAnLCAnLXRuJywgJzgnLCAnLW1hJywgJzIwMCcsICctbWV0YWxfYmluZGluZycsICctaW1hZScsICc8aW5maWxlLm1hZT4nLCAnLW9tYWUnLCAnPG91dGZpbGUubWFlPic=

> <r_lp_tautomer_probability>
1

> <r_epik_Ionization_Penalty>
2.72039e-05

> <r_epik_Ionization_Penalty_Charging>
8.03976e-06

> <r_epik_Ionization_Penalty_Neutral>
1.91642e-05

> <r_epik_State_Penalty>
-0

> <r_epik_Charging_Adjusted_Penalty>
8.03976e-06

> <i_epik_Tot_Q>
0

> <i_epik_Tot_abs_Q>
0

> <r_epik_Metal_State_Penalty>
-0

> <b_epik_Metal_Only>
0

> <s_lp_Force_Field>
OPLS_2005

> <r_lp_Energy>
32.2594

> <b_lp_Chiralities_Consistent>
1

> <s_lp_Variant>
AV-unprocessed.smi:2913-4

> <Gold.Version>
5.8.1

> <Gold.Id.Protein>
6NUR|6NUR_protein|mol2

> <Gold.PLP.Fitness>
42.2133

> <Gold.PLP.PLP>
-32.0117

> <Gold.PLP.part.hbond>
-4.0000

> <Gold.PLP.part.metal>
0.0000

> <Gold.PLP.part.buried>
-6.3348

> <Gold.PLP.part.nonpolar>
-23.5890

> <Gold.PLP.part.repulsive>
0.9491

> <Gold.PLP.ligand.clash>
0.0000

> <Gold.PLP.ligand.torsion>
0.6801

> <Gold.PLP.Chemscore.Hbond>
3.8460

> <Gold.PLP.Chemscore.CHOScore>
0.0000

> <Gold.PLP.Chemscore.Metal>
0.0000

> <Gold.Chemscore.Hbonds>
donor molecule, donor type, donor heavy atom, donor atom, acceptor molecule, acceptor atom, score
      L1  H    10    29       P1  7948  1.00
      L1  H    13    30       P1  7948  1.00
      P1  H 10752 10764       L1    20  0.95
      P1  H 10785 10796       L1     5  0.90

> <Gold.PLP.Chemscore.Internal.Correction>
0.0238

> <Gold.Rescore>
     Score         DG    S(hbond)    S(metal)    S(lipo)     H(rot)  DE(clash)    DE(int)     intcor
     19.19     -20.19       3.07        0.00      64.66       1.21       0.01       0.99       ----

> <Gold.Chemscore.Fitness>
19.1890

> <Gold.Chemscore.DG>
-20.1859

> <Gold.Chemscore.ZeroCoef>
-5.4800

> <Gold.Chemscore.Hbond>
3.0653

> <Gold.Chemscore.Metal>
0.0000

> <Gold.Chemscore.Lipo>
64.6636

> <Gold.Chemscore.Internal_Hbond>
0.0000

> <Gold.Chemscore.DEClash>
0.0078

> <Gold.Chemscore.DEInternal>
0.9891

> <Gold.Chemscore.Rot>
1.2101

> <Gold.Chemscore.Internal.Correction>
   9.000000E+99

> <Gold.Chemscore.Hbonds>
donor molecule, donor type, donor heavy atom, donor atom, acceptor molecule, acceptor atom, score
      L1  H    10    29       P1  7948  0.84
      L1  H    13    30       P1  7948  0.57
      P1  H 10752 10764       L1    20  0.21
      P1  H 10785 10796       L1     5  0.85

> <Gold.Chemscore.Hbond.Weighted>
-10.2382

> <Gold.Chemscore.Metal.Weighted>
-0.0000

> <Gold.Chemscore.Lipo.Weighted>
-7.5656

> <Gold.Chemscore.Internal_Hbond.Weighted>
0.0000

> <Gold.Chemscore.DEClash.Weighted>
0.0078

> <Gold.Chemscore.DEInternal.Weighted>
0.9891

> <Gold.Chemscore.Rot.Weighted>
3.0979

> <Gold.Chemscore.Internal.Correction.Weighted>
   9.000000E+99

> <Gold.Protein.RotatedTorsions>
[ 6907 6896 6895 6894 ] final   31.57 input  -60.11 | X-H torsion
[ 7974 7965 7964 7962 ] final  -66.93 input  175.53 | X-H torsion
[ 8008 7997 7996 7995 ] final -160.46 input   59.86 | X-H torsion
[ 10167 10162 10161 10158 ] final -174.81 input  -65.29 | X-H torsion
[ 10718 10713 10712 10709 ] final   95.93 input   66.30 | X-H torsion
[ 10763 10752 10751 10750 ] final  -70.37 input  -60.55 | X-H torsion
[ 11005 11000 10999 10996 ] final  146.14 input  -57.11 | X-H torsion

> <Gold.Protein.ActiveResidues>
 VAL166  LYS551  ARG553  GLY616  TRP617  ASP618  TYR619  PRO620  LYS621  CYS622 
 ASP623  PHE694  ASN695  SER759  ASP760  ASP761  ALA762  ILE779  LEU786  VAL792 
 PHE793  MET794  SER795  GLU796  ALA797  LYS798  CYS799  TRP800  GLU811  SER814 

> <Gold.Protein.RotatedAtoms>
  152.0622  134.9587  160.0574 H   0  0  0  0  0  0  0  0  0  0  0  0  # atno 6907 bound_to 6896
  152.0946  133.4213  159.4567 H   0  0  0  0  0  0  0  0  0  0  0  0  # atno 6908 bound_to 6896
  150.6837  134.2751  159.4647 H   0  0  0  0  0  0  0  0  0  0  0  0  # atno 6909 bound_to 6896
  145.7356  140.8977  143.0557 H   0  0  0  0  0  0  0  0  0  0  0  0  # atno 7974 bound_to 7965
  155.7777  140.0861  157.2075 H   0  0  0  0  0  0  0  0  0  0  0  0  # atno 8008 bound_to 7997
  154.3992  140.1513  156.3073 H   0  0  0  0  0  0  0  0  0  0  0  0  # atno 8009 bound_to 7997
  155.8684  140.3427  155.5807 H   0  0  0  0  0  0  0  0  0  0  0  0  # atno 8010 bound_to 7997
  139.5614  144.1861  152.1244 H   0  0  0  0  0  0  0  0  0  0  0  0  # atno 10167 bound_to 10162
  157.6933  131.0561  150.4413 H   0  0  0  0  0  0  0  0  0  0  0  0  # atno 10718 bound_to 10713
  154.4167  135.5996  153.5985 H   0  0  0  0  0  0  0  0  0  0  0  0  # atno 10763 bound_to 10752
  152.9792  135.5942  154.4004 H   0  0  0  0  0  0  0  0  0  0  0  0  # atno 10764 bound_to 10752
  154.3824  135.2841  155.2182 H   0  0  0  0  0  0  0  0  0  0  0  0  # atno 10765 bound_to 10752
  140.0769  134.9119  157.1438 H   0  0  0  0  0  0  0  0  0  0  0  0  # atno 11005 bound_to 11000
  144.6882  139.9390  143.7474 LP  0  0  0  0  0  0  0  0  0  0  0  0  # atno 17320 bound_to 7965
  146.0496  139.3499  143.0647 LP  0  0  0  0  0  0  0  0  0  0  0  0  # atno 17321 bound_to 7965
  140.1375  144.5232  150.6764 LP  0  0  0  0  0  0  0  0  0  0  0  0  # atno 17342 bound_to 10162
  140.6894  143.2367  151.5173 LP  0  0  0  0  0  0  0  0  0  0  0  0  # atno 17343 bound_to 10162
  156.4772  130.4065  149.6483 LP  0  0  0  0  0  0  0  0  0  0  0  0  # atno 17370 bound_to 10713
  156.3542  130.7448  151.2411 LP  0  0  0  0  0  0  0  0  0  0  0  0  # atno 17371 bound_to 10713
  140.3544  134.2563  155.7194 LP  0  0  0  0  0  0  0  0  0  0  0  0  # atno 17394 bound_to 11000
  141.2033  133.7916  157.0348 LP  0  0  0  0  0  0  0  0  0  0  0  0  # atno 17395 bound_to 11000

$$$$
