AV-unprocessed.smi:1451|AV-procd|sdf|5902|dock9
  -GOLD-   22720 5593D 1   1.00000     0.00000
 Structure written by MMmdl.
 47 48  0  0  0  0  0  0  0  0  2 V2000
  145.6781  133.3719  153.1909 C   0  0  0  0  0  0  0  0  0  0  0  0
  146.2078  134.6872  152.6023 C   0  0  1  0  0  0  0  0  0  0  0  0
  145.4507  135.0740  151.3209 C   0  0  0  0  0  0  0  0  0  0  0  0
  145.9813  136.4038  150.7710 C   0  0  0  0  0  0  0  0  0  0  0  0
  145.9204  137.5054  151.8409 C   0  0  0  0  0  0  0  0  0  0  0  0
  146.6650  137.1064  153.0633 N   0  3  1  0  0  0  0  0  0  0  0  0
  146.7390  138.2064  154.0583 C   0  0  0  0  0  0  0  0  0  0  0  0
  146.8888  139.5870  153.3978 C   0  0  0  0  0  0  0  0  0  0  0  0
  148.2023  140.1492  153.6838 N   0  0  0  0  0  0  0  0  0  0  0  0
  148.4722  140.9720  154.7075 C   0  0  0  0  0  0  0  0  0  0  0  0
  147.6271  141.3175  155.5338 O   0  0  0  0  0  0  0  0  0  0  0  0
  149.9232  141.4606  154.8205 C   0  0  0  0  0  0  0  0  0  0  0  0
  150.4765  141.3037  156.1760 N   0  0  0  0  0  0  0  0  0  0  0  0
  150.8647  142.4762  156.8536 C   0  0  0  0  0  0  0  0  0  0  0  0
  151.4021  142.4650  158.0886 C   0  0  0  0  0  0  0  0  0  0  0  0
  151.7626  143.7513  158.8154 C   0  0  0  0  0  0  0  0  0  0  0  0
  150.6703  144.4498  159.1264 F   0  0  0  0  0  0  0  0  0  0  0  0
  152.4095  143.4677  159.9449 F   0  0  0  0  0  0  0  0  0  0  0  0
  152.5531  144.5216  158.0667 F   0  0  0  0  0  0  0  0  0  0  0  0
  151.5380  141.1677  158.7214 C   0  0  0  0  0  0  0  0  0  0  0  0
  151.1651  140.0373  158.0902 C   0  0  0  0  0  0  0  0  0  0  0  0
  150.6040  140.0641  156.7379 C   0  0  0  0  0  0  0  0  0  0  0  0
  150.2696  139.0371  156.1461 O   0  0  0  0  0  0  0  0  0  0  0  0
  146.1386  135.8348  153.6301 C   0  0  0  0  0  0  0  0  0  0  0  0
  144.6268  133.4555  153.4679 H   0  0  0  0  0  0  0  0  0  0  0  0
  146.2361  133.0875  154.0835 H   0  0  0  0  0  0  0  0  0  0  0  0
  145.7691  132.5560  152.4731 H   0  0  0  0  0  0  0  0  0  0  0  0
  147.2560  134.5307  152.3426 H   0  0  0  0  0  0  0  0  0  0  0  0
  145.5558  134.2928  150.5674 H   0  0  0  0  0  0  0  0  0  0  0  0
  144.3838  135.1637  151.5306 H   0  0  0  0  0  0  0  0  0  0  0  0
  147.0109  136.2769  150.4333 H   0  0  0  0  0  0  0  0  0  0  0  0
  145.4033  136.7016  149.8957 H   0  0  0  0  0  0  0  0  0  0  0  0
  146.3452  138.4224  151.4307 H   0  0  0  0  0  0  0  0  0  0  0  0
  144.8830  137.7238  152.1001 H   0  0  0  0  0  0  0  0  0  0  0  0
  145.8237  138.2164  154.6522 H   0  0  0  0  0  0  0  0  0  0  0  0
  147.5564  138.0177  154.7562 H   0  0  0  0  0  0  0  0  0  0  0  0
  146.7546  139.5125  152.3185 H   0  0  0  0  0  0  0  0  0  0  0  0
  146.1245  140.2703  153.7706 H   0  0  0  0  0  0  0  0  0  0  0  0
  148.9567  139.9041  153.0591 H   0  0  0  0  0  0  0  0  0  0  0  0
  150.5227  140.9122  154.0927 H   0  0  0  0  0  0  0  0  0  0  0  0
  149.9864  142.5058  154.5112 H   0  0  0  0  0  0  0  0  0  0  0  0
  150.7012  143.3904  156.3013 H   0  0  0  0  0  0  0  0  0  0  0  0
  151.9517  141.0994  159.7166 H   0  0  0  0  0  0  0  0  0  0  0  0
  151.2843  139.0877  158.5910 H   0  0  0  0  0  0  0  0  0  0  0  0
  145.1092  135.9837  153.9612 H   0  0  0  0  0  0  0  0  0  0  0  0
  146.7120  135.5507  154.5115 H   0  0  0  0  0  0  0  0  0  0  0  0
  147.6136  136.9266  152.7663 H   0  0  0  0  0  0  0  0  0  0  0  0
  1  2  1  0  0  0  0
  1 25  1  0  0  0  0
  1 26  1  0  0  0  0
  1 27  1  0  0  0  0
  2 24  1  0  0  0  0
  2  3  1  0  0  0  0
  2 28  1  0  0  0  0
  3  4  1  0  0  0  0
  3 29  1  0  0  0  0
  3 30  1  0  0  0  0
  4  5  1  0  0  0  0
  4 31  1  0  0  0  0
  4 32  1  0  0  0  0
  5  6  1  0  0  0  0
  5 33  1  0  0  0  0
  5 34  1  0  0  0  0
  6  7  1  0  0  0  0
  6 24  1  0  0  0  0
  6 47  1  0  0  0  0
  7  8  1  0  0  0  0
  7 35  1  0  0  0  0
  7 36  1  0  0  0  0
  8  9  1  0  0  0  0
  8 37  1  0  0  0  0
  8 38  1  0  0  0  0
  9 10  1  0  0  0  0
  9 39  1  0  0  0  0
 10 11  2  0  0  0  0
 10 12  1  0  0  0  0
 12 13  1  0  0  0  0
 12 40  1  0  0  0  0
 12 41  1  0  0  0  0
 13 22  1  0  0  0  0
 13 14  1  0  0  0  0
 14 15  2  0  0  0  0
 14 42  1  0  0  0  0
 15 16  1  0  0  0  0
 15 20  1  0  0  0  0
 16 17  1  0  0  0  0
 16 18  1  0  0  0  0
 16 19  1  0  0  0  0
 20 21  2  0  0  0  0
 20 43  1  0  0  0  0
 21 22  1  0  0  0  0
 21 44  1  0  0  0  0
 22 23  2  0  0  0  0
 24 45  1  0  0  0  0
 24 46  1  0  0  0  0
M  CHG  1   6   1
M  END
> <s_m_source_file>
AV-unprocessed.smi

> <i_m_source_file_index>
1451

> <i_lp_mmshare_version>
43012

> <i_f3d_flags>
0

> <s_epik_input>
W0NIM11bQ0BASF0xW0NIMl1bQ0gyXVtDSDJdTihbQ0gyXTEpW0NIMl1bQ0gyXVtOSF1DKD1PKVtDSDJdbjJbY0hdYyhDKEYpKEYpRilbY0hdW2NIXWMyPU8=

> <s_epik_cmdline>
J2VwaWtfcHl0aG9uJywgJy1waCcsICc3LjAnLCAnLXRuJywgJzgnLCAnLW1hJywgJzIwMCcsICctbWV0YWxfYmluZGluZycsICctaW1hZScsICc8aW5maWxlLm1hZT4nLCAnLW9tYWUnLCAnPG91dGZpbGUubWFlPic=

> <r_lp_tautomer_probability>
1

> <r_epik_Ionization_Penalty>
0.00192452

> <r_epik_Ionization_Penalty_Charging>
0.00192444

> <r_epik_Ionization_Penalty_Neutral>
8.16761e-08

> <r_epik_State_Penalty>
0.00131115

> <r_epik_Charging_Adjusted_Penalty>
0.00323559

> <i_epik_Tot_Q>
1

> <i_epik_Tot_abs_Q>
1

> <r_epik_Metal_State_Penalty>
-0

> <b_epik_Metal_Only>
0

> <s_lp_Force_Field>
OPLS_2005

> <r_lp_Energy>
29.222

> <b_lp_Chiralities_Consistent>
1

> <s_lp_Variant>
AV-unprocessed.smi:1451-4

> <Gold.Version>
5.8.1

> <Gold.Id.Protein>
6NUR|6NUR_protein|mol2

> <Gold.PLP.Fitness>
53.3963

> <Gold.PLP.PLP>
-43.7477

> <Gold.PLP.part.hbond>
-2.0000

> <Gold.PLP.part.metal>
0.0000

> <Gold.PLP.part.buried>
-0.3512

> <Gold.PLP.part.nonpolar>
-41.8040

> <Gold.PLP.part.repulsive>
0.1820

> <Gold.PLP.ligand.clash>
0.1073

> <Gold.PLP.ligand.torsion>
1.0914

> <Gold.PLP.Chemscore.Hbond>
2.9600

> <Gold.PLP.Chemscore.CHOScore>
1.0000

> <Gold.PLP.Chemscore.Metal>
0.0000

> <Gold.Chemscore.Hbonds>
donor molecule, donor type, donor heavy atom, donor atom, acceptor molecule, acceptor atom, score
      L1  H     6    47       P1  7948  2.00
      L1  H     9    39       P1  7957  0.88
      L1  C    14    42       P1  8028  1.00

> <Gold.PLP.Chemscore.Internal.Correction>
0.0586

> <Gold.Rescore>
     Score         DG    S(hbond)    S(metal)    S(lipo)     H(rot)  DE(clash)    DE(int)     intcor
     14.33     -16.74       1.96        0.00      85.65       2.08       1.26       1.14       ----

> <Gold.Chemscore.Fitness>
14.3324

> <Gold.Chemscore.DG>
-16.7359

> <Gold.Chemscore.ZeroCoef>
-5.4800

> <Gold.Chemscore.Hbond>
1.9610

> <Gold.Chemscore.Metal>
0.0000

> <Gold.Chemscore.Lipo>
85.6497

> <Gold.Chemscore.Internal_Hbond>
0.0000

> <Gold.Chemscore.DEClash>
1.2633

> <Gold.Chemscore.DEInternal>
1.1402

> <Gold.Chemscore.Rot>
2.0762

> <Gold.Chemscore.Internal.Correction>
   9.000000E+99

> <Gold.Chemscore.Hbonds>
donor molecule, donor type, donor heavy atom, donor atom, acceptor molecule, acceptor atom, score
      L1  H     6    47       P1  7948  0.99
      L1  H     9    39       P1  7957  0.82

> <Gold.Chemscore.Hbond.Weighted>
-6.5499

> <Gold.Chemscore.Metal.Weighted>
-0.0000

> <Gold.Chemscore.Lipo.Weighted>
-10.0210

> <Gold.Chemscore.Internal_Hbond.Weighted>
0.0000

> <Gold.Chemscore.DEClash.Weighted>
1.2633

> <Gold.Chemscore.DEInternal.Weighted>
1.1402

> <Gold.Chemscore.Rot.Weighted>
5.3150

> <Gold.Chemscore.Internal.Correction.Weighted>
   9.000000E+99

> <Gold.Protein.RotatedTorsions>
[ 6907 6896 6895 6894 ] final   -4.03 input  -60.11 | X-H torsion
[ 7974 7965 7964 7962 ] final -171.90 input  175.53 | X-H torsion
[ 8008 7997 7996 7995 ] final  -94.06 input   59.86 | X-H torsion
[ 10167 10162 10161 10158 ] final -105.76 input  -65.29 | X-H torsion
[ 10718 10713 10712 10709 ] final  125.84 input   66.30 | X-H torsion
[ 10763 10752 10751 10750 ] final   46.08 input  -60.55 | X-H torsion
[ 11005 11000 10999 10996 ] final   93.07 input  -57.11 | X-H torsion

> <Gold.Protein.ActiveResidues>
 VAL166  LYS551  ARG553  GLY616  TRP617  ASP618  TYR619  PRO620  LYS621  CYS622 
 ASP623  PHE694  ASN695  SER759  ASP760  ASP761  ALA762  ILE779  LEU786  VAL792 
 PHE793  MET794  SER795  GLU796  ALA797  LYS798  CYS799  TRP800  GLU811  SER814 

> <Gold.Protein.RotatedAtoms>
  151.5043  135.1063  159.9836 H   0  0  0  0  0  0  0  0  0  0  0  0  # atno 6907 bound_to 6896
  152.4688  133.7980  159.6948 H   0  0  0  0  0  0  0  0  0  0  0  0  # atno 6908 bound_to 6896
  150.8686  133.7474  159.2994 H   0  0  0  0  0  0  0  0  0  0  0  0  # atno 6909 bound_to 6896
  144.7152  140.1853  143.6354 H   0  0  0  0  0  0  0  0  0  0  0  0  # atno 7974 bound_to 7965
  154.7436  140.0493  157.0832 H   0  0  0  0  0  0  0  0  0  0  0  0  # atno 8008 bound_to 7997
  155.0147  140.3140  155.4797 H   0  0  0  0  0  0  0  0  0  0  0  0  # atno 8009 bound_to 7997
  156.2870  140.2178  156.5263 H   0  0  0  0  0  0  0  0  0  0  0  0  # atno 8010 bound_to 7997
  140.1950  143.3862  152.1176 H   0  0  0  0  0  0  0  0  0  0  0  0  # atno 10167 bound_to 10162
  157.5469  131.1095  150.8766 H   0  0  0  0  0  0  0  0  0  0  0  0  # atno 10718 bound_to 10713
  152.9815  135.6019  154.3542 H   0  0  0  0  0  0  0  0  0  0  0  0  # atno 10763 bound_to 10752
  154.3229  135.2769  155.2512 H   0  0  0  0  0  0  0  0  0  0  0  0  # atno 10764 bound_to 10752
  154.4671  135.5951  153.6351 H   0  0  0  0  0  0  0  0  0  0  0  0  # atno 10765 bound_to 10752
  139.8815  134.8769  156.3664 H   0  0  0  0  0  0  0  0  0  0  0  0  # atno 11005 bound_to 11000
  145.8819  139.2327  143.1600 LP  0  0  0  0  0  0  0  0  0  0  0  0  # atno 17320 bound_to 7965
  145.9987  140.8539  143.0030 LP  0  0  0  0  0  0  0  0  0  0  0  0  # atno 17321 bound_to 7965
  139.5240  144.7078  151.5299 LP  0  0  0  0  0  0  0  0  0  0  0  0  # atno 17342 bound_to 10162
  140.6430  143.8852  150.6709 LP  0  0  0  0  0  0  0  0  0  0  0  0  # atno 17343 bound_to 10162
  156.9302  130.5347  149.5279 LP  0  0  0  0  0  0  0  0  0  0  0  0  # atno 17370 bound_to 10713
  156.0543  130.5608  150.9059 LP  0  0  0  0  0  0  0  0  0  0  0  0  # atno 17371 bound_to 10713
  140.9494  133.7461  156.0252 LP  0  0  0  0  0  0  0  0  0  0  0  0  # atno 17394 bound_to 11000
  140.8124  134.3384  157.5407 LP  0  0  0  0  0  0  0  0  0  0  0  0  # atno 17395 bound_to 11000

$$$$
