AV-unprocessed.smi:527|AV-procd|sdf|2820|dock10
  -GOLD-   2262023303D 1   1.00000     0.00000
 Structure written by MMmdl.
 42 43  0  0  0  0  0  0  0  0  1 V2000
  150.7286  140.8340  155.6534 C   0  0  0  0  0  0  0  0  0  0  0  0
  149.2754  140.5504  155.2295 C   0  0  1  0  0  0  0  0  0  0  0  0
  148.8169  141.6214  154.2193 C   0  0  0  0  0  0  0  0  0  0  0  0
  147.3629  141.4103  153.7844 C   0  0  0  0  0  0  0  0  0  0  0  0
  147.1776  140.0143  153.1832 C   0  0  0  0  0  0  0  0  0  0  0  0
  147.6105  138.9152  154.1731 C   0  0  1  0  0  0  0  0  0  0  0  0
  147.4542  137.6055  153.5411 N   0  0  0  0  0  0  0  0  0  0  0  0
  146.4443  136.7508  153.7613 C   0  0  0  0  0  0  0  0  0  0  0  0
  145.4742  137.0179  154.4738 O   0  0  0  0  0  0  0  0  0  0  0  0
  146.6446  135.5895  153.1085 N   0  0  0  0  0  0  0  0  0  0  0  0
  145.8148  134.5281  153.0437 C   0  0  0  0  0  0  0  0  0  0  0  0
  144.7076  134.4648  153.5846 O   0  0  0  0  0  0  0  0  0  0  0  0
  146.3511  133.3450  152.2263 C   0  0  0  0  0  0  0  0  0  0  0  0
  145.3781  132.8127  151.2874 N   0  0  0  0  0  0  0  0  0  0  0  0
  144.0309  133.1408  151.1981 C   0  0  0  0  0  0  0  0  0  0  0  0
  143.5125  132.3945  150.1639 C   0  0  0  0  0  0  0  0  0  0  0  0
  144.5151  131.6040  149.6072 N   0  0  0  0  0  0  0  0  0  0  0  0
  145.5908  131.9072  150.3221 C   0  0  0  0  0  0  0  0  0  0  0  0
  149.0719  139.1173  154.6590 C   0  0  2  0  0  0  0  0  0  0  0  0
  149.4714  138.0277  155.6787 C   0  0  0  0  0  0  0  0  0  0  0  0
  151.4231  140.6681  154.8294 H   0  0  0  0  0  0  0  0  0  0  0  0
  151.0402  140.2073  156.4882 H   0  0  0  0  0  0  0  0  0  0  0  0
  150.8453  141.8680  155.9792 H   0  0  0  0  0  0  0  0  0  0  0  0
  148.6511  140.6505  156.1186 H   0  0  0  0  0  0  0  0  0  0  0  0
  148.9190  142.6153  154.6565 H   0  0  0  0  0  0  0  0  0  0  0  0
  149.4651  141.6040  153.3420 H   0  0  0  0  0  0  0  0  0  0  0  0
  146.6985  141.5359  154.6403 H   0  0  0  0  0  0  0  0  0  0  0  0
  147.0778  142.1693  153.0555 H   0  0  0  0  0  0  0  0  0  0  0  0
  146.1327  139.8788  152.9013 H   0  0  0  0  0  0  0  0  0  0  0  0
  147.7585  139.9346  152.2631 H   0  0  0  0  0  0  0  0  0  0  0  0
  146.9594  138.9645  155.0486 H   0  0  0  0  0  0  0  0  0  0  0  0
  148.1809  137.3265  152.8985 H   0  0  0  0  0  0  0  0  0  0  0  0
  147.5196  135.5005  152.6136 H   0  0  0  0  0  0  0  0  0  0  0  0
  147.2377  133.6556  151.6716 H   0  0  0  0  0  0  0  0  0  0  0  0
  146.6565  132.5459  152.9028 H   0  0  0  0  0  0  0  0  0  0  0  0
  143.5667  133.8608  151.8561 H   0  0  0  0  0  0  0  0  0  0  0  0
  142.5036  132.3670  149.7796 H   0  0  0  0  0  0  0  0  0  0  0  0
  146.5569  131.4602  150.1386 H   0  0  0  0  0  0  0  0  0  0  0  0
  149.7271  139.0103  153.7927 H   0  0  0  0  0  0  0  0  0  0  0  0
  148.8836  138.1095  156.5933 H   0  0  0  0  0  0  0  0  0  0  0  0
  150.5240  138.0918  155.9507 H   0  0  0  0  0  0  0  0  0  0  0  0
  149.3229  137.0239  155.2817 H   0  0  0  0  0  0  0  0  0  0  0  0
  1  2  1  0  0  0  0
  1 21  1  0  0  0  0
  1 22  1  0  0  0  0
  1 23  1  0  0  0  0
  2 19  1  0  0  0  0
  2  3  1  0  0  0  0
  2 24  1  0  0  0  0
  3  4  1  0  0  0  0
  3 25  1  0  0  0  0
  3 26  1  0  0  0  0
  4  5  1  0  0  0  0
  4 27  1  0  0  0  0
  4 28  1  0  0  0  0
  5  6  1  0  0  0  0
  5 29  1  0  0  0  0
  5 30  1  0  0  0  0
  6  7  1  0  0  0  0
  6 19  1  0  0  0  0
  6 31  1  0  0  0  0
  7  8  1  0  0  0  0
  7 32  1  0  0  0  0
  8  9  2  0  0  0  0
  8 10  1  0  0  0  0
 10 11  1  0  0  0  0
 10 33  1  0  0  0  0
 11 12  2  0  0  0  0
 11 13  1  0  0  0  0
 13 14  1  0  0  0  0
 13 34  1  0  0  0  0
 13 35  1  0  0  0  0
 14 18  1  0  0  0  0
 14 15  1  0  0  0  0
 15 16  2  0  0  0  0
 15 36  1  0  0  0  0
 16 17  1  0  0  0  0
 16 37  1  0  0  0  0
 17 18  2  0  0  0  0
 18 38  1  0  0  0  0
 19 20  1  0  0  0  0
 19 39  1  0  0  0  0
 20 40  1  0  0  0  0
 20 41  1  0  0  0  0
 20 42  1  0  0  0  0
M  END
> <s_m_source_file>
AV-unprocessed.smi

> <i_m_source_file_index>
527

> <i_lp_mmshare_version>
43012

> <i_f3d_flags>
0

> <s_epik_input>
W0NIM11bQ0BASF0xW0NIMl1bQ0gyXVtDSDJdW0NASF0oW0NASF0xW0NIM10pW05IXUMoPU8pW05IXUMoPU8pW0NIMl1uMltjSF1bY0hdbltjSF0y

> <s_epik_cmdline>
J2VwaWtfcHl0aG9uJywgJy1waCcsICc3LjAnLCAnLXRuJywgJzgnLCAnLW1hJywgJzIwMCcsICctbWV0YWxfYmluZGluZycsICctaW1hZScsICc8aW5maWxlLm1hZT4nLCAnLW9tYWUnLCAnPG91dGZpbGUubWFlPic=

> <r_lp_tautomer_probability>
1

> <r_epik_Ionization_Penalty>
0.172132

> <r_epik_Ionization_Penalty_Charging>
0.172105

> <r_epik_Ionization_Penalty_Neutral>
2.71747e-05

> <r_epik_State_Penalty>
0.161503

> <r_epik_Charging_Adjusted_Penalty>
0.333607

> <i_epik_Tot_Q>
0

> <i_epik_Tot_abs_Q>
0

> <r_epik_Metal_State_Penalty>
0.124763

> <b_epik_Metal_Only>
0

> <s_lp_Force_Field>
OPLS_2005

> <r_lp_Energy>
15.9673

> <b_lp_Chiralities_Consistent>
1

> <s_lp_Variant>
AV-unprocessed.smi:527-6

> <Gold.Version>
5.8.1

> <Gold.Id.Protein>
6NUR|6NUR_protein|mol2

> <Gold.PLP.Fitness>
46.2399

> <Gold.PLP.PLP>
-31.8230

> <Gold.PLP.part.hbond>
-3.0000

> <Gold.PLP.part.metal>
0.0000

> <Gold.PLP.part.buried>
-0.9961

> <Gold.PLP.part.nonpolar>
-27.8503

> <Gold.PLP.part.repulsive>
0.2999

> <Gold.PLP.ligand.clash>
0.0000

> <Gold.PLP.ligand.torsion>
0.4469

> <Gold.PLP.Chemscore.Hbond>
2.3631

> <Gold.PLP.Chemscore.CHOScore>
2.7333

> <Gold.PLP.Chemscore.Metal>
0.0000

> <Gold.Chemscore.Hbonds>
donor molecule, donor type, donor heavy atom, donor atom, acceptor molecule, acceptor atom, score
      L1  H     7    32       P1  7948  1.00
      L1  H    10    33       P1  7948  1.00
      P1  H 10785 10796       L1    17  0.28
      L1  C    16    37       P1 10186  0.87
      L1  C    16    37       P1 10952  0.75
      L1  C    18    38       P1 10747  1.00

> <Gold.PLP.Chemscore.Internal.Correction>
0.0216

> <Gold.Rescore>
     Score         DG    S(hbond)    S(metal)    S(lipo)     H(rot)  DE(clash)    DE(int)     intcor
     14.76     -17.87       2.61        0.00      67.75       1.66       0.21       2.90       ----

> <Gold.Chemscore.Fitness>
14.7646

> <Gold.Chemscore.DG>
-17.8743

> <Gold.Chemscore.ZeroCoef>
-5.4800

> <Gold.Chemscore.Hbond>
2.6120

> <Gold.Chemscore.Metal>
0.0000

> <Gold.Chemscore.Lipo>
67.7534

> <Gold.Chemscore.Internal_Hbond>
0.0000

> <Gold.Chemscore.DEClash>
0.2112

> <Gold.Chemscore.DEInternal>
2.8985

> <Gold.Chemscore.Rot>
1.6629

> <Gold.Chemscore.Internal.Correction>
   9.000000E+99

> <Gold.Chemscore.Hbonds>
donor molecule, donor type, donor heavy atom, donor atom, acceptor molecule, acceptor atom, score
      L1  H     7    32       P1  7948  0.98
      L1  H    10    33       P1  7948  0.96
      P1  H 10785 10796       L1    17  0.05

> <Gold.Chemscore.Hbond.Weighted>
-8.7240

> <Gold.Chemscore.Metal.Weighted>
-0.0000

> <Gold.Chemscore.Lipo.Weighted>
-7.9271

> <Gold.Chemscore.Internal_Hbond.Weighted>
0.0000

> <Gold.Chemscore.DEClash.Weighted>
0.2112

> <Gold.Chemscore.DEInternal.Weighted>
2.8985

> <Gold.Chemscore.Rot.Weighted>
4.2569

> <Gold.Chemscore.Internal.Correction.Weighted>
   9.000000E+99

> <Gold.Protein.RotatedTorsions>
[ 6907 6896 6895 6894 ] final  -43.83 input  -60.11 | X-H torsion
[ 7974 7965 7964 7962 ] final -157.31 input  175.53 | X-H torsion
[ 8008 7997 7996 7995 ] final  156.54 input   59.86 | X-H torsion
[ 10167 10162 10161 10158 ] final   38.26 input  -65.29 | X-H torsion
[ 10718 10713 10712 10709 ] final  -49.86 input   66.30 | X-H torsion
[ 10763 10752 10751 10750 ] final  -22.07 input  -60.55 | X-H torsion
[ 11005 11000 10999 10996 ] final  124.87 input  -57.11 | X-H torsion

> <Gold.Protein.ActiveResidues>
 VAL166  LYS551  ARG553  GLY616  TRP617  ASP618  TYR619  PRO620  LYS621  CYS622 
 ASP623  PHE694  ASN695  SER759  ASP760  ASP761  ALA762  ILE779  LEU786  VAL792 
 PHE793  MET794  SER795  GLU796  ALA797  LYS798  CYS799  TRP800  GLU811  SER814 

> <Gold.Protein.RotatedAtoms>
  150.9396  134.8806  159.7603 H   0  0  0  0  0  0  0  0  0  0  0  0  # atno 6907 bound_to 6896
  152.5074  134.3962  159.9410 H   0  0  0  0  0  0  0  0  0  0  0  0  # atno 6908 bound_to 6896
  151.3983  133.3726  159.2764 H   0  0  0  0  0  0  0  0  0  0  0  0  # atno 6909 bound_to 6896
  144.7554  140.3986  143.6016 H   0  0  0  0  0  0  0  0  0  0  0  0  # atno 7974 bound_to 7965
  156.2416  140.1909  156.6972 H   0  0  0  0  0  0  0  0  0  0  0  0  # atno 8008 bound_to 7997
  154.6208  140.0609  156.9639 H   0  0  0  0  0  0  0  0  0  0  0  0  # atno 8009 bound_to 7997
  155.1864  140.3281  155.4368 H   0  0  0  0  0  0  0  0  0  0  0  0  # atno 8010 bound_to 7997
  140.3953  144.1797  150.6132 H   0  0  0  0  0  0  0  0  0  0  0  0  # atno 10167 bound_to 10162
  156.1854  130.4151  149.9447 H   0  0  0  0  0  0  0  0  0  0  0  0  # atno 10718 bound_to 10713
  153.6461  135.6983  153.5224 H   0  0  0  0  0  0  0  0  0  0  0  0  # atno 10763 bound_to 10752
  153.2743  135.4205  155.1017 H   0  0  0  0  0  0  0  0  0  0  0  0  # atno 10764 bound_to 10752
  154.8488  135.3586  154.6006 H   0  0  0  0  0  0  0  0  0  0  0  0  # atno 10765 bound_to 10752
  139.9379  134.9638  156.8474 H   0  0  0  0  0  0  0  0  0  0  0  0  # atno 11005 bound_to 11000
  145.6799  139.1616  143.2707 LP  0  0  0  0  0  0  0  0  0  0  0  0  # atno 17320 bound_to 7965
  146.1557  140.6862  142.9301 LP  0  0  0  0  0  0  0  0  0  0  0  0  # atno 17321 bound_to 7965
  140.4797  143.2383  151.8973 LP  0  0  0  0  0  0  0  0  0  0  0  0  # atno 17342 bound_to 10162
  139.4787  144.5283  151.8704 LP  0  0  0  0  0  0  0  0  0  0  0  0  # atno 17343 bound_to 10162
  156.7204  130.9004  151.3617 LP  0  0  0  0  0  0  0  0  0  0  0  0  # atno 17370 bound_to 10713
  157.6895  130.9219  150.0476 LP  0  0  0  0  0  0  0  0  0  0  0  0  # atno 17371 bound_to 10713
  140.6027  134.0156  155.7544 LP  0  0  0  0  0  0  0  0  0  0  0  0  # atno 17394 bound_to 11000
  141.1001  133.9781  157.3093 LP  0  0  0  0  0  0  0  0  0  0  0  0  # atno 17395 bound_to 11000

$$$$
