#       Name:                AV-unprocessed.smi:671
#       Creating user name   scv26
#       Creation time:       Fri Mar 27 00:23:17 2020


#       File generated by GOLD software.
#

@<TRIPOS>MOLECULE
AV-unprocessed.smi:671
    52    53     1
SMALL
NO_CHARGES


@<TRIPOS>ATOM
      1 ****         4.5909  -4.3161  -3.5363 C.3            1 S1                 0.0000
      2 ****         4.6460  -3.0915  -4.4053 C.2            1 S1                 0.0000
      3 ****         5.2018  -3.1728  -5.6024 N.2            1 S1                 0.0000
      4 ****         5.1055  -1.9286  -6.1121 N.pl3          1 S1                 0.0000
      5 ****         5.6294  -1.6620  -7.4377 C.3            1 S1                 0.0000
      6 ****         4.4838  -1.0595  -5.2365 C.2            1 S1                 0.0000
      7 ****         4.2560   0.3797  -5.5703 C.3            1 S1                 0.0000
      8 ****         4.1707  -1.7788  -4.1141 C.2            1 S1                 0.0000
      9 ****         3.4900  -1.3177  -2.8510 C.3            1 S1                 0.0000
     10 ****         1.9873  -1.6769  -2.8276 C.3            1 S1                 0.0000
     11 ****         1.1781  -0.8930  -3.8727 C.3            1 S1                 0.0000
     12 ****         1.4176  -1.4214  -1.5021 N.am           1 S1                 0.0000
     13 ****         1.4725  -2.2042  -0.4085 C.2            1 S1                 0.0000
     14 ****         2.0352  -3.2972  -0.4201 O.2            1 S1                 0.0000
     15 ****         0.8521  -1.7001   0.6712 N.am           1 S1                 0.0000
     16 ****         0.7550  -2.3449   1.9769 C.3            1 S1                 0.0000
     17 ****        -0.5527  -1.9291   2.6760 C.3            1 S1                 0.0000
     18 ****        -0.1435  -0.9997   3.8179 C.3            1 S1                 0.0000
     19 ****         1.2319  -1.5118   4.2310 C.3            1 S1                 0.0000
     20 ****         1.9046  -1.8962   2.9086 C.3            1 S1                 0.0000
     21 ****         3.0143  -2.9442   3.0729 C.3            1 S1                 0.0000
     22 ****         3.6398  -4.3844  -3.0095 H              1 S1                 0.0000
     23 ****         5.3829  -4.2966  -2.7881 H              1 S1                 0.0000
     24 ****         4.7071  -5.2301  -4.1194 H              1 S1                 0.0000
     25 ****         4.8037  -1.5092  -8.1330 H              1 S1                 0.0000
     26 ****         6.2371  -2.4981  -7.7863 H              1 S1                 0.0000
     27 ****         6.2489  -0.7650  -7.4160 H              1 S1                 0.0000
     28 ****         3.5639   0.8445  -4.8689 H              1 S1                 0.0000
     29 ****         3.8339   0.4871  -6.5697 H              1 S1                 0.0000
     30 ****         5.1927   0.9361  -5.5359 H              1 S1                 0.0000
     31 ****         3.9884  -1.7666  -1.9917 H              1 S1                 0.0000
     32 ****         3.6076  -0.2427  -2.7120 H              1 S1                 0.0000
     33 ****         1.8672  -2.7368  -3.0572 H              1 S1                 0.0000
     34 ****         1.5203  -1.1083  -4.8850 H              1 S1                 0.0000
     35 ****         1.2614   0.1828  -3.7151 H              1 S1                 0.0000
     36 ****         0.1206  -1.1551  -3.8268 H              1 S1                 0.0000
     37 ****         0.8766  -0.5730  -1.4167 H              1 S1                 0.0000
     38 ****         0.4132  -0.7957   0.5807 H              1 S1                 0.0000
     39 ****         0.7497  -3.4303   1.8581 H              1 S1                 0.0000
     40 ****        -1.2758  -1.4627   2.0055 H              1 S1                 0.0000
     41 ****        -1.0326  -2.8157   3.0926 H              1 S1                 0.0000
     42 ****        -0.0604   0.0241   3.4511 H              1 S1                 0.0000
     43 ****        -0.8593  -1.0041   4.6404 H              1 S1                 0.0000
     44 ****         1.8027  -0.7711   4.7918 H              1 S1                 0.0000
     45 ****         1.1151  -2.3917   4.8655 H              1 S1                 0.0000
     46 ****         2.3541  -0.9870   2.5043 H              1 S1                 0.0000
     47 ****         2.6237  -3.8759   3.4835 H              1 S1                 0.0000
     48 ****         3.7950  -2.5846   3.7436 H              1 S1                 0.0000
     49 ****         3.4807  -3.1722   2.1142 H              1 S1                 0.0000
     50 ****         5.6048  -3.9796  -6.0344 LP             1 S1                 0.0000
     51 ****         2.4689  -3.6274  -1.2585 LP             1 S1                 0.0000
     52 ****         2.0592  -3.8561   0.4088 LP             1 S1                 0.0000
@<TRIPOS>BOND
    1    1    2 1     
    2    1   22 1     
    3    1   23 1     
    4    1   24 1     
    5    2    8 1     
    6    2    3 2     
    7    3    4 1     
    8    4    5 1     
    9    4    6 1     
   10    5   25 1     
   11    5   26 1     
   12    5   27 1     
   13    6    7 1     
   14    6    8 2     
   15    7   28 1     
   16    7   29 1     
   17    7   30 1     
   18    8    9 1     
   19    9   10 1     
   20    9   31 1     
   21    9   32 1     
   22   10   11 1     
   23   10   12 1     
   24   10   33 1     
   25   11   34 1     
   26   11   35 1     
   27   11   36 1     
   28   12   13 am    
   29   12   37 1     
   30   13   14 2     
   31   13   15 am    
   32   15   16 1     
   33   15   38 1     
   34   16   20 1     
   35   16   17 1     
   36   16   39 1     
   37   17   18 1     
   38   17   40 1     
   39   17   41 1     
   40   18   19 1     
   41   18   42 1     
   42   18   43 1     
   43   19   20 1     
   44   19   44 1     
   45   19   45 1     
   46   20   21 1     
   47   20   46 1     
   48   21   47 1     
   49   21   48 1     
   50   21   49 1     
   51    3   50 1     
   52   14   51 1     
   53   14   52 1     
@<TRIPOS>SUBSTRUCTURE
      1 S1             1
@<TRIPOS>SET
LONE_PAIRS      STATIC     ATOMS    <user>   **** ""
3 50 51 52
DONOR_HYDROGENS      STATIC     ATOMS    <user>   **** ""
2 37 38
ATOM$BLUE        STATIC     ATOMS    COLORGROUP SYSTEM
3 50 51 52
ATOM$RED        STATIC     ATOMS    COLORGROUP SYSTEM
2 37 38
