#       Name:                AV-unprocessed.smi:1381
#       Creating user name   scv26
#       Creation time:       Fri Mar 27 05:21:46 2020


#       File generated by GOLD software.
#

@<TRIPOS>MOLECULE
AV-unprocessed.smi:1381
    50    51     1
SMALL
NO_CHARGES


@<TRIPOS>ATOM
      1 ****        -3.0362   3.6473  -6.1192 C.3            1 S1                 0.0000
      2 ****        -3.1025   3.3076  -4.6697 C.2            1 S1                 0.0000
      3 ****        -2.5832   2.2828  -3.9301 C.2            1 S1                 0.0000
      4 ****        -3.0378   2.5786  -2.6118 C.2            1 S1                 0.0000
      5 ****        -2.7778   1.8191  -1.4417 N.am           1 S1                 0.0000
      6 ****        -2.0424   0.7016  -1.3168 C.2            1 S1                 0.0000
      7 ****        -1.4499   0.1297  -2.2316 O.2            1 S1                 0.0000
      8 ****        -2.0227   0.2714  -0.0467 N.am           1 S1                 0.0000
      9 ****        -1.3196  -0.9174   0.4221 C.3            1 S1                 0.0000
     10 ****         0.1883  -0.6525   0.5961 C.3            1 S1                 0.0000
     11 ****         0.9280  -1.8657   1.0353 N.4            1 S1                 1.0000
     12 ****         2.3738  -1.8318   0.7051 C.3            1 S1                 0.0000
     13 ****         3.1509  -0.9265   1.6829 C.3            1 S1                 0.0000
     14 ****         4.6589  -0.9462   1.4109 C.3            1 S1                 0.0000
     15 ****         2.9346  -1.3910   3.0114 O.3            1 S1                 0.0000
     16 ****         1.5664  -1.3369   3.4015 C.3            1 S1                 0.0000
     17 ****         1.4692  -1.7889   4.8628 C.3            1 S1                 0.0000
     18 ****         0.7332  -2.2348   2.4611 C.3            1 S1                 0.0000
     19 ****        -3.7656   3.6787  -2.5594 N.2            1 S1                 0.0000
     20 ****        -3.8121   4.1535  -3.8754 O.3            1 S1                 0.0000
     21 ****        -2.2687   3.0589  -6.6223 H              1 S1                 0.0000
     22 ****        -2.7992   4.7020  -6.2600 H              1 S1                 0.0000
     23 ****        -3.9906   3.4463  -6.6060 H              1 S1                 0.0000
     24 ****        -1.9802   1.4638  -4.2915 H              1 S1                 0.0000
     25 ****        -3.2014   2.1749  -0.5975 H              1 S1                 0.0000
     26 ****        -2.5374   0.7994   0.6431 H              1 S1                 0.0000
     27 ****        -1.7749  -1.2075   1.3681 H              1 S1                 0.0000
     28 ****        -1.4854  -1.7453  -0.2693 H              1 S1                 0.0000
     29 ****         0.5905  -0.3287  -0.3646 H              1 S1                 0.0000
     30 ****         0.3542   0.1740   1.2869 H              1 S1                 0.0000
     31 ****         2.7605  -2.8501   0.7665 H              1 S1                 0.0000
     32 ****         2.5234  -1.5123  -0.3271 H              1 S1                 0.0000
     33 ****         2.8010   0.1037   1.5994 H              1 S1                 0.0000
     34 ****         4.8811  -0.5895   0.4048 H              1 S1                 0.0000
     35 ****         5.0653  -1.9535   1.5068 H              1 S1                 0.0000
     36 ****         5.1898  -0.3050   2.1147 H              1 S1                 0.0000
     37 ****         1.2192  -0.3045   3.3440 H              1 S1                 0.0000
     38 ****         0.4379  -1.7591   5.2154 H              1 S1                 0.0000
     39 ****         2.0597  -1.1410   5.5112 H              1 S1                 0.0000
     40 ****         1.8364  -2.8082   4.9874 H              1 S1                 0.0000
     41 ****        -0.3208  -2.2061   2.7345 H              1 S1                 0.0000
     42 ****         1.0473  -3.2725   2.5835 H              1 S1                 0.0000
     43 ****         0.5407  -2.6200   0.4860 H              1 S1                 0.0000
     44 ****        -1.4941   0.4952  -3.1614 LP             1 S1                 0.0000
     45 ****        -0.9244  -0.7003  -2.0451 LP             1 S1                 0.0000
     46 ****         3.4679  -0.8234   3.6386 LP             1 S1                 0.0000
     47 ****         3.2466  -2.3391   3.0726 LP             1 S1                 0.0000
     48 ****        -4.1926   4.0859  -1.7520 LP             1 S1                 0.0000
     49 ****        -4.7618   4.1901  -4.1866 LP             1 S1                 0.0000
     50 ****        -3.4123   5.0692  -3.9171 LP             1 S1                 0.0000
@<TRIPOS>BOND
    1    1    2 1     
    2    1   21 1     
    3    1   22 1     
    4    1   23 1     
    5    2   20 1     
    6    2    3 2     
    7    3    4 1     
    8    3   24 1     
    9    4    5 1     
   10    4   19 2     
   11    5    6 am    
   12    5   25 1     
   13    6    7 2     
   14    6    8 am    
   15    8    9 1     
   16    8   26 1     
   17    9   10 1     
   18    9   27 1     
   19    9   28 1     
   20   10   11 1     
   21   10   29 1     
   22   10   30 1     
   23   11   18 1     
   24   11   12 1     
   25   11   43 1     
   26   12   13 1     
   27   12   31 1     
   28   12   32 1     
   29   13   14 1     
   30   13   15 1     
   31   13   33 1     
   32   14   34 1     
   33   14   35 1     
   34   14   36 1     
   35   15   16 1     
   36   16   17 1     
   37   16   18 1     
   38   16   37 1     
   39   17   38 1     
   40   17   39 1     
   41   17   40 1     
   42   18   41 1     
   43   18   42 1     
   44   19   20 1     
   45    7   44 1     
   46    7   45 1     
   47   15   46 1     
   48   15   47 1     
   49   19   48 1     
   50   20   49 1     
   51   20   50 1     
@<TRIPOS>SUBSTRUCTURE
      1 S1             1
@<TRIPOS>SET
LONE_PAIRS      STATIC     ATOMS    <user>   **** ""
7 44 45 46 47 48 49 50
DONOR_HYDROGENS      STATIC     ATOMS    <user>   **** ""
3 25 26 43
ATOM$BLUE        STATIC     ATOMS    COLORGROUP SYSTEM
7 44 45 46 47 48 49 50
ATOM$RED        STATIC     ATOMS    COLORGROUP SYSTEM
3 25 26 43
