#       Name:                AV-unprocessed.smi:786
#       Creating user name   scv26
#       Creation time:       Fri Mar 27 01:15:04 2020


#       File generated by GOLD software.
#

@<TRIPOS>MOLECULE
AV-unprocessed.smi:786
    42    43     1
SMALL
NO_CHARGES


@<TRIPOS>ATOM
      1 ****        -2.9482  -2.8559   1.0218 O.2            1 S1                 0.0000
      2 ****        -2.0526  -2.2516   0.0209 S.o2           1 S1                 0.0000
      3 ****        -2.4454  -2.4007  -1.3879 O.2            1 S1                 0.0000
      4 ****        -2.0558  -0.4256   0.3724 C.3            1 S1                 0.0000
      5 ****        -1.3283   0.4189  -0.6977 C.3            1 S1                 0.0000
      6 ****        -0.8182   1.7408  -0.0999 C.3            1 S1                 0.0000
      7 ****        -0.1432   2.6096  -1.1738 C.3            1 S1                 0.0000
      8 ****        -1.0499   2.8557  -2.2421 O.3            1 S1                 0.0000
      9 ****        -1.4557   1.6625  -2.9035 C.3            1 S1                 0.0000
     10 ****        -2.2039   0.7443  -1.9231 C.3            1 S1                 0.0000
     11 ****        -0.4888  -2.6506   0.2283 N.pl3          1 S1                -1.0000
     12 ****         0.0886  -2.8038   1.5574 C.3            1 S1                 0.0000
     13 ****         1.6190  -2.5871   1.5203 C.3            1 S1                 0.0000
     14 ****         2.0704  -1.1662   1.1874 C.ar           1 S1                 0.0000
     15 ****         2.2176  -0.1982   2.2075 C.ar           1 S1                 0.0000
     16 ****         2.6514   1.0943   1.8549 C.ar           1 S1                 0.0000
     17 ****         2.9287   1.3714   0.5028 C.ar           1 S1                 0.0000
     18 ****         2.7581   0.3391  -0.4405 C.ar           1 S1                 0.0000
     19 ****         2.3416  -0.9022  -0.1137 N.ar           1 S1                 0.0000
     20 ****        -3.0945  -0.1072   0.4598 H              1 S1                 0.0000
     21 ****        -1.6104  -0.2761   1.3553 H              1 S1                 0.0000
     22 ****        -0.4542  -0.1371  -1.0388 H              1 S1                 0.0000
     23 ****        -1.6499   2.2924   0.3406 H              1 S1                 0.0000
     24 ****        -0.1148   1.5411   0.7085 H              1 S1                 0.0000
     25 ****         0.1643   3.5632  -0.7446 H              1 S1                 0.0000
     26 ****         0.7579   2.1290  -1.5564 H              1 S1                 0.0000
     27 ****        -2.1052   1.9270  -3.7380 H              1 S1                 0.0000
     28 ****        -0.5873   1.1540  -3.3253 H              1 S1                 0.0000
     29 ****        -2.5050  -0.1618  -2.4450 H              1 S1                 0.0000
     30 ****        -3.1232   1.2352  -1.6013 H              1 S1                 0.0000
     31 ****        -0.3430  -2.1099   2.2793 H              1 S1                 0.0000
     32 ****        -0.1132  -3.7992   1.9537 H              1 S1                 0.0000
     33 ****         2.0337  -2.8487   2.4943 H              1 S1                 0.0000
     34 ****         2.0736  -3.2831   0.8133 H              1 S1                 0.0000
     35 ****         1.9979  -0.4408   3.2370 H              1 S1                 0.0000
     36 ****         2.7686   1.8593   2.6079 H              1 S1                 0.0000
     37 ****         3.2608   2.3516   0.1949 H              1 S1                 0.0000
     38 ****         2.9583   0.5161  -1.4867 H              1 S1                 0.0000
     39 ****        -0.6051   3.4551  -2.9076 LP             1 S1                 0.0000
     40 ****        -1.8616   3.3098  -1.8747 LP             1 S1                 0.0000
     41 ****         0.0894  -2.7940  -0.5749 LP             1 S1                 0.0000
     42 ****         2.2359  -1.6087  -0.8134 LP             1 S1                 0.0000
@<TRIPOS>BOND
    1    1    2 2     
    2    2    3 2     
    3    2    4 1     
    4    2   11 1     
    5    4    5 1     
    6    4   20 1     
    7    4   21 1     
    8    5   10 1     
    9    5    6 1     
   10    5   22 1     
   11    6    7 1     
   12    6   23 1     
   13    6   24 1     
   14    7    8 1     
   15    7   25 1     
   16    7   26 1     
   17    8    9 1     
   18    9   10 1     
   19    9   27 1     
   20    9   28 1     
   21   10   29 1     
   22   10   30 1     
   23   11   12 1     
   24   12   13 1     
   25   12   31 1     
   26   12   32 1     
   27   13   14 1     
   28   13   33 1     
   29   13   34 1     
   30   14   19 ar    
   31   14   15 ar    
   32   15   16 ar    
   33   15   35 1     
   34   16   17 ar    
   35   16   36 1     
   36   17   18 ar    
   37   17   37 1     
   38   18   19 ar    
   39   18   38 1     
   40    8   39 1     
   41    8   40 1     
   42   11   41 1     
   43   19   42 1     
@<TRIPOS>SUBSTRUCTURE
      1 S1             1
@<TRIPOS>SET
LONE_PAIRS      STATIC     ATOMS    <user>   **** ""
6 1 3 39 40 41 42
ATOM$BLUE        STATIC     ATOMS    COLORGROUP SYSTEM
6 1 3 39 40 41 42
