AV-unprocessed.smi:3025|AV-procd|sdf|11512|dock4
  -GOLD-   2272016453D 1   1.00000     0.00000
 Structure written by MMmdl.
 41 42  0  0  0  0  0  0  0  0  3 V2000
  143.8640  134.0029  151.4661 C   0  0  0  0  0  0  0  0  0  0  0  0
  144.2031  135.2493  152.2910 C   0  0  0  0  0  0  0  0  0  0  0  0
  145.2828  136.1186  151.6247 C   0  0  0  0  0  0  0  0  0  0  0  0
  145.6559  137.3858  152.4217 C   0  0  2  0  0  0  0  0  0  0  0  0
  146.5046  138.3779  151.5975 C   0  0  0  0  0  0  0  0  0  0  0  0
  146.8883  139.6211  152.4185 C   0  0  0  0  0  0  0  0  0  0  0  0
  147.6233  139.2574  153.7260 C   0  0  2  0  0  0  0  0  0  0  0  0
  148.9811  138.7175  153.4806 N   0  3  0  0  0  0  0  0  0  0  0  0
  149.8455  138.6046  154.6728 C   0  0  0  0  0  0  0  0  0  0  0  0
  151.2832  138.2576  154.2730 C   0  0  0  0  0  0  0  0  0  0  0  0
  152.2191  138.3151  155.4580 C   0  0  0  0  0  0  0  0  0  0  0  0
  152.5200  139.4220  156.1659 N   0  5  0  0  0  0  0  0  0  0  0  0
  153.3322  139.1167  157.1588 N   0  0  0  0  0  0  0  0  0  0  0  0
  153.5085  137.7951  157.0437 C   0  0  0  0  0  0  0  0  0  0  0  0
  152.8312  137.2741  156.0146 N   0  0  0  0  0  0  0  0  0  0  0  0
  146.7875  138.2541  154.5424 C   0  0  0  0  0  0  0  0  0  0  0  0
  146.3980  137.0124  153.7208 C   0  0  0  0  0  0  0  0  0  0  0  0
  143.0943  133.4089  151.9590 H   0  0  0  0  0  0  0  0  0  0  0  0
  144.7398  133.3672  151.3335 H   0  0  0  0  0  0  0  0  0  0  0  0
  143.4925  134.2737  150.4774 H   0  0  0  0  0  0  0  0  0  0  0  0
  143.2916  135.8275  152.4393 H   0  0  0  0  0  0  0  0  0  0  0  0
  144.5395  134.9408  153.2815 H   0  0  0  0  0  0  0  0  0  0  0  0
  146.1782  135.5086  151.4969 H   0  0  0  0  0  0  0  0  0  0  0  0
  144.9629  136.3958  150.6193 H   0  0  0  0  0  0  0  0  0  0  0  0
  144.7290  137.8868  152.7057 H   0  0  0  0  0  0  0  0  0  0  0  0
  147.4066  137.8835  151.2348 H   0  0  0  0  0  0  0  0  0  0  0  0
  145.9574  138.7021  150.7128 H   0  0  0  0  0  0  0  0  0  0  0  0
  147.4794  140.3040  151.8093 H   0  0  0  0  0  0  0  0  0  0  0  0
  145.9779  140.1676  152.6684 H   0  0  0  0  0  0  0  0  0  0  0  0
  147.7371  140.1601  154.3281 H   0  0  0  0  0  0  0  0  0  0  0  0
  148.8765  137.7874  153.1013 H   0  0  0  0  0  0  0  0  0  0  0  0
  149.8403  139.5430  155.2269 H   0  0  0  0  0  0  0  0  0  0  0  0
  149.4508  137.8338  155.3360 H   0  0  0  0  0  0  0  0  0  0  0  0
  151.3272  137.2577  153.8393 H   0  0  0  0  0  0  0  0  0  0  0  0
  151.6425  138.9499  153.5107 H   0  0  0  0  0  0  0  0  0  0  0  0
  154.1272  137.2114  157.7140 H   0  0  0  0  0  0  0  0  0  0  0  0
  147.3281  137.9539  155.4409 H   0  0  0  0  0  0  0  0  0  0  0  0
  145.8781  138.7470  154.8891 H   0  0  0  0  0  0  0  0  0  0  0  0
  145.7713  136.3618  154.3319 H   0  0  0  0  0  0  0  0  0  0  0  0
  147.2920  136.4352  153.4815 H   0  0  0  0  0  0  0  0  0  0  0  0
  149.4421  139.2941  152.7914 H   0  0  0  0  0  0  0  0  0  0  0  0
  1  2  1  0  0  0  0
  1 18  1  0  0  0  0
  1 19  1  0  0  0  0
  1 20  1  0  0  0  0
  2  3  1  0  0  0  0
  2 21  1  0  0  0  0
  2 22  1  0  0  0  0
  3  4  1  0  0  0  0
  3 23  1  0  0  0  0
  3 24  1  0  0  0  0
  4 17  1  0  0  0  0
  4  5  1  0  0  0  0
  4 25  1  0  0  0  0
  5  6  1  0  0  0  0
  5 26  1  0  0  0  0
  5 27  1  0  0  0  0
  6  7  1  0  0  0  0
  6 28  1  0  0  0  0
  6 29  1  0  0  0  0
  7  8  1  0  0  0  0
  7 16  1  0  0  0  0
  7 30  1  0  0  0  0
  8  9  1  0  0  0  0
  8 31  1  0  0  0  0
  8 41  1  0  0  0  0
  9 10  1  0  0  0  0
  9 32  1  0  0  0  0
  9 33  1  0  0  0  0
 10 34  1  0  0  0  0
 10 35  1  0  0  0  0
 10 11  1  0  0  0  0
 11 15  2  0  0  0  0
 11 12  1  0  0  0  0
 12 13  1  0  0  0  0
 13 14  2  0  0  0  0
 14 15  1  0  0  0  0
 14 36  1  0  0  0  0
 16 17  1  0  0  0  0
 16 37  1  0  0  0  0
 16 38  1  0  0  0  0
 17 39  1  0  0  0  0
 17 40  1  0  0  0  0
M  CHG  1   8   1
M  CHG  1  12  -1
M  END
> <s_m_source_file>
AV-unprocessed.smi

> <i_m_source_file_index>
3025

> <i_lp_mmshare_version>
43012

> <i_f3d_flags>
0

> <s_epik_input>
W0NIM11bQ0gyXVtDSDJdW0NAQEhdMVtDSDJdW0NIMl1bQ0BIXShbQ0gyXVtDSDJdMSlbTkhdW0NIMl1bQ0gyXWMybm5bY0hdW25IXTI=

> <s_epik_cmdline>
J2VwaWtfcHl0aG9uJywgJy1waCcsICc3LjAnLCAnLXRuJywgJzgnLCAnLW1hJywgJzIwMCcsICctbWV0YWxfYmluZGluZycsICctaW1hZScsICc8aW5maWxlLm1hZT4nLCAnLW9tYWUnLCAnPG91dGZpbGUubWFlPic=

> <r_lp_tautomer_probability>
0.948284

> <r_epik_Ionization_Penalty>
6.65342

> <r_epik_Ionization_Penalty_Charging>
6.65342

> <r_epik_Ionization_Penalty_Neutral>
1.40767e-13

> <r_epik_State_Penalty>
2.88894

> <r_epik_Charging_Adjusted_Penalty>
9.54236

> <i_epik_Tot_Q>
0

> <i_epik_Tot_abs_Q>
2

> <r_epik_Metal_State_Penalty>
0.664188

> <b_epik_Metal_Only>
1

> <s_lp_Force_Field>
OPLS_2005

> <r_lp_Energy>
9.37779

> <b_lp_Chiralities_Consistent>
1

> <s_lp_Variant>
AV-unprocessed.smi:3025-8

> <Gold.Version>
5.8.1

> <Gold.Id.Protein>
6NUR|6NUR_protein|mol2

> <Gold.PLP.Fitness>
43.6079

> <Gold.PLP.PLP>
-29.9065

> <Gold.PLP.part.hbond>
-4.9368

> <Gold.PLP.part.metal>
0.0000

> <Gold.PLP.part.buried>
-2.4221

> <Gold.PLP.part.nonpolar>
-24.3527

> <Gold.PLP.part.repulsive>
0.0670

> <Gold.PLP.ligand.clash>
0.0000

> <Gold.PLP.ligand.torsion>
0.1855

> <Gold.PLP.Chemscore.Hbond>
4.6720

> <Gold.PLP.Chemscore.CHOScore>
0.0000

> <Gold.PLP.Chemscore.Metal>
0.0000

> <Gold.Chemscore.Hbonds>
donor molecule, donor type, donor heavy atom, donor atom, acceptor molecule, acceptor atom, score
      L1  H     8    31       P1  7948  2.00
      L1  H     8    41       P1  7957  1.00
      P1  H  7997  8008       L1    13  1.00
      P1  H 10752 10765       L1    15  0.64

> <Gold.PLP.Chemscore.Internal.Correction>
0.0562

> <Gold.Rescore>
     Score         DG    S(hbond)    S(metal)    S(lipo)     H(rot)  DE(clash)    DE(int)     intcor
     17.33     -17.65       3.39        0.00      62.05       2.50       0.13       0.19       ----

> <Gold.Chemscore.Fitness>
17.3340

> <Gold.Chemscore.DG>
-17.6526

> <Gold.Chemscore.ZeroCoef>
-5.4800

> <Gold.Chemscore.Hbond>
3.3885

> <Gold.Chemscore.Metal>
0.0000

> <Gold.Chemscore.Lipo>
62.0509

> <Gold.Chemscore.Internal_Hbond>
0.0000

> <Gold.Chemscore.DEClash>
0.1326

> <Gold.Chemscore.DEInternal>
0.1860

> <Gold.Chemscore.Rot>
2.5019

> <Gold.Chemscore.Internal.Correction>
   9.000000E+99

> <Gold.Chemscore.Hbonds>
donor molecule, donor type, donor heavy atom, donor atom, acceptor molecule, acceptor atom, score
      L1  H     8    31       P1  7948  0.98
      L1  H     8    41       P1  7957  0.97
      P1  H  7997  8008       L1    13  0.52
      P1  H 10752 10765       L1    15  0.61

> <Gold.Chemscore.Hbond.Weighted>
-11.3176

> <Gold.Chemscore.Metal.Weighted>
-0.0000

> <Gold.Chemscore.Lipo.Weighted>
-7.2600

> <Gold.Chemscore.Internal_Hbond.Weighted>
0.0000

> <Gold.Chemscore.DEClash.Weighted>
0.1326

> <Gold.Chemscore.DEInternal.Weighted>
0.1860

> <Gold.Chemscore.Rot.Weighted>
6.4049

> <Gold.Chemscore.Internal.Correction.Weighted>
   9.000000E+99

> <Gold.Protein.RotatedTorsions>
[ 6907 6896 6895 6894 ] final   72.95 input  -60.11 | X-H torsion
[ 7974 7965 7964 7962 ] final -136.23 input  175.53 | X-H torsion
[ 8008 7997 7996 7995 ] final  -86.74 input   59.86 | X-H torsion
[ 10167 10162 10161 10158 ] final  -78.89 input  -65.29 | X-H torsion
[ 10718 10713 10712 10709 ] final   40.49 input   66.30 | X-H torsion
[ 10763 10752 10751 10750 ] final -144.15 input  -60.55 | X-H torsion
[ 11005 11000 10999 10996 ] final -143.62 input  -57.11 | X-H torsion

> <Gold.Protein.ActiveResidues>
 VAL166  LYS551  ARG553  GLY616  TRP617  ASP618  TYR619  PRO620  LYS621  CYS622 
 ASP623  PHE694  ASN695  SER759  ASP760  ASP761  ALA762  ILE779  LEU786  VAL792 
 PHE793  MET794  SER795  GLU796  ALA797  LYS798  CYS799  TRP800  GLU811  SER814 

> <Gold.Protein.RotatedAtoms>
  152.4896  134.4494  159.9569 H   0  0  0  0  0  0  0  0  0  0  0  0  # atno 6907 bound_to 6896
  151.4484  133.3618  159.2799 H   0  0  0  0  0  0  0  0  0  0  0  0  # atno 6908 bound_to 6896
  150.9039  134.8477  159.7439 H   0  0  0  0  0  0  0  0  0  0  0  0  # atno 6909 bound_to 6896
  144.8945  140.6688  143.5124 H   0  0  0  0  0  0  0  0  0  0  0  0  # atno 7974 bound_to 7965
  154.6553  140.0574  157.0002 H   0  0  0  0  0  0  0  0  0  0  0  0  # atno 8008 bound_to 7997
  155.1309  140.3256  155.4456 H   0  0  0  0  0  0  0  0  0  0  0  0  # atno 8009 bound_to 7997
  156.2594  140.1981  156.6428 H   0  0  0  0  0  0  0  0  0  0  0  0  # atno 8010 bound_to 7997
  140.4642  143.2445  151.8302 H   0  0  0  0  0  0  0  0  0  0  0  0  # atno 10167 bound_to 10162
  157.3827  130.7763  149.7206 H   0  0  0  0  0  0  0  0  0  0  0  0  # atno 10718 bound_to 10713
  154.8440  135.3448  154.6300 H   0  0  0  0  0  0  0  0  0  0  0  0  # atno 10763 bound_to 10752
  153.6910  135.6975  153.5094 H   0  0  0  0  0  0  0  0  0  0  0  0  # atno 10764 bound_to 10752
  153.2595  135.4327  155.0835 H   0  0  0  0  0  0  0  0  0  0  0  0  # atno 10765 bound_to 10752
  140.8107  134.2748  157.4942 H   0  0  0  0  0  0  0  0  0  0  0  0  # atno 11005 bound_to 11000
  145.3724  139.1655  143.4325 LP  0  0  0  0  0  0  0  0  0  0  0  0  # atno 17320 bound_to 7965
  146.3073  140.3797  142.8682 LP  0  0  0  0  0  0  0  0  0  0  0  0  # atno 17321 bound_to 7965
  139.4810  144.4970  151.9110 LP  0  0  0  0  0  0  0  0  0  0  0  0  # atno 17342 bound_to 10162
  140.4056  144.2436  150.5891 LP  0  0  0  0  0  0  0  0  0  0  0  0  # atno 17343 bound_to 10162
  155.9779  130.4057  150.3679 LP  0  0  0  0  0  0  0  0  0  0  0  0  # atno 17370 bound_to 10713
  157.1785  131.0386  151.2760 LP  0  0  0  0  0  0  0  0  0  0  0  0  # atno 17371 bound_to 10713
  139.8714  134.9481  156.3987 LP  0  0  0  0  0  0  0  0  0  0  0  0  # atno 17394 bound_to 11000
  140.9201  133.7651  155.9896 LP  0  0  0  0  0  0  0  0  0  0  0  0  # atno 17395 bound_to 11000

$$$$
