AV-unprocessed.smi:2784|AV-procd|sdf|10731|dock5
  -GOLD-   2272015173D 1   1.00000     0.00000
 Structure written by MMmdl.
 32 33  0  0  0  0  0  0  0  0  2 V2000
  146.4997  132.7649  153.4338 C   0  0  0  0  0  0  0  0  0  0  0  0
  145.7655  133.4853  152.4568 O   0  0  0  0  0  0  0  0  0  0  0  0
  146.1488  133.1948  151.1147 C   0  0  1  0  0  0  0  0  0  0  0  0
  145.8190  131.7312  150.7992 C   0  0  0  0  0  0  0  0  0  0  0  0
  144.3342  131.7501  150.4484 C   0  0  0  0  0  0  0  0  0  0  0  0
  144.1327  133.0628  149.6882 C   0  0  0  0  0  0  0  0  0  0  0  0
  145.2724  134.0028  150.1287 C   0  0  1  0  0  0  0  0  0  0  0  0
  144.7439  135.2350  150.7109 N   0  0  0  0  0  0  0  0  0  0  0  0
  143.8279  135.2867  151.6885 C   0  0  0  0  0  0  0  0  0  0  0  0
  143.3426  134.2893  152.2234 O   0  0  0  0  0  0  0  0  0  0  0  0
  143.5072  136.5518  151.9980 N   0  0  0  0  0  0  0  0  0  0  0  0
  142.5880  136.9491  152.9960 C   0  0  0  0  0  0  0  0  0  0  0  0
  142.2625  138.2162  153.2481 N   0  3  0  0  0  0  0  0  0  0  0  0
  141.3523  138.2409  154.2757 C   0  0  0  0  0  0  0  0  0  0  0  0
  141.1499  136.9278  154.6272 C   0  0  0  0  0  0  0  0  0  0  0  0
  141.9196  136.1035  153.8310 O   0  0  0  0  0  0  0  0  0  0  0  0
  146.1500  133.0426  154.4279 H   0  0  0  0  0  0  0  0  0  0  0  0
  147.5633  132.9994  153.3769 H   0  0  0  0  0  0  0  0  0  0  0  0
  146.3736  131.6880  153.3246 H   0  0  0  0  0  0  0  0  0  0  0  0
  147.2054  133.4217  150.9600 H   0  0  0  0  0  0  0  0  0  0  0  0
  146.3918  131.4097  149.9283 H   0  0  0  0  0  0  0  0  0  0  0  0
  146.0480  131.0419  151.6119 H   0  0  0  0  0  0  0  0  0  0  0  0
  144.0290  130.8791  149.8677 H   0  0  0  0  0  0  0  0  0  0  0  0
  143.7432  131.7613  151.3651 H   0  0  0  0  0  0  0  0  0  0  0  0
  144.2061  132.8814  148.6151 H   0  0  0  0  0  0  0  0  0  0  0  0
  143.1401  133.4755  149.8740 H   0  0  0  0  0  0  0  0  0  0  0  0
  145.8637  134.2479  149.2440 H   0  0  0  0  0  0  0  0  0  0  0  0
  145.0847  136.1016  150.3213 H   0  0  0  0  0  0  0  0  0  0  0  0
  142.6047  139.0485  152.7845 H   0  0  0  0  0  0  0  0  0  0  0  0
  140.9481  139.1715  154.6480 H   0  0  0  0  0  0  0  0  0  0  0  0
  140.5355  136.4399  155.3700 H   0  0  0  0  0  0  0  0  0  0  0  0
  143.9615  137.2902  151.4814 H   0  0  0  0  0  0  0  0  0  0  0  0
  1  2  1  0  0  0  0
  1 17  1  0  0  0  0
  1 18  1  0  0  0  0
  1 19  1  0  0  0  0
  2  3  1  0  0  0  0
  3  7  1  0  0  0  0
  3  4  1  0  0  0  0
  3 20  1  0  0  0  0
  4  5  1  0  0  0  0
  4 21  1  0  0  0  0
  4 22  1  0  0  0  0
  5  6  1  0  0  0  0
  5 23  1  0  0  0  0
  5 24  1  0  0  0  0
  6  7  1  0  0  0  0
  6 25  1  0  0  0  0
  6 26  1  0  0  0  0
  7  8  1  0  0  0  0
  7 27  1  0  0  0  0
  8 28  1  0  0  0  0
  8  9  1  0  0  0  0
  9 11  1  0  0  0  0
  9 10  2  0  0  0  0
 11 12  1  0  0  0  0
 11 32  1  0  0  0  0
 12 16  1  0  0  0  0
 12 13  2  0  0  0  0
 13 29  1  0  0  0  0
 13 14  1  0  0  0  0
 14 30  1  0  0  0  0
 14 15  2  0  0  0  0
 15 31  1  0  0  0  0
 15 16  1  0  0  0  0
M  CHG  1  13   1
M  END
> <s_m_source_file>
AV-unprocessed.smi

> <i_m_source_file_index>
2784

> <i_lp_mmshare_version>
43012

> <i_f3d_flags>
0

> <s_epik_input>
W0NIM11PW0NAQEhdMVtDSDJdW0NIMl1bQ0gyXVtDQEhdMVtOSF1DKD1PKVtOSF1jMm5bY0hdW2NIXW8y

> <s_epik_cmdline>
J2VwaWtfcHl0aG9uJywgJy1waCcsICc3LjAnLCAnLXRuJywgJzgnLCAnLW1hJywgJzIwMCcsICctbWV0YWxfYmluZGluZycsICctaW1hZScsICc8aW5maWxlLm1hZT4nLCAnLW9tYWUnLCAnPG91dGZpbGUubWFlPic=

> <r_epik_Ionization_Penalty>
6.73843

> <r_epik_Ionization_Penalty_Charging>
6.66704

> <r_epik_Ionization_Penalty_Neutral>
0.0713889

> <r_epik_State_Penalty>
1.94951

> <r_epik_Charging_Adjusted_Penalty>
8.61656

> <i_epik_Tot_Q>
1

> <i_epik_Tot_abs_Q>
1

> <r_epik_Metal_State_Penalty>
1.97013

> <b_epik_Metal_Only>
0

> <s_lp_Force_Field>
OPLS_2005

> <r_lp_Energy>
28.3285

> <b_lp_Chiralities_Consistent>
1

> <s_lp_Variant>
AV-unprocessed.smi:2784-6

> <Gold.Version>
5.8.1

> <Gold.Id.Protein>
6NUR|6NUR_protein|mol2

> <Gold.PLP.Fitness>
33.7728

> <Gold.PLP.PLP>
-22.3675

> <Gold.PLP.part.hbond>
-2.0000

> <Gold.PLP.part.metal>
0.0000

> <Gold.PLP.part.buried>
-2.5949

> <Gold.PLP.part.nonpolar>
-18.2213

> <Gold.PLP.part.repulsive>
0.4399

> <Gold.PLP.ligand.clash>
0.0000

> <Gold.PLP.ligand.torsion>
0.0777

> <Gold.PLP.Chemscore.Hbond>
2.9913

> <Gold.PLP.Chemscore.CHOScore>
0.8587

> <Gold.PLP.Chemscore.Metal>
0.0000

> <Gold.Chemscore.Hbonds>
donor molecule, donor type, donor heavy atom, donor atom, acceptor molecule, acceptor atom, score
      L1  H    11    32       P1 10171  0.73
      L1  H    13    29       P1 10175  2.00
      L1  C    15    31       P1 11000  0.75

> <Gold.PLP.Chemscore.Internal.Correction>
0.0109

> <Gold.Rescore>
     Score         DG    S(hbond)    S(metal)    S(lipo)     H(rot)  DE(clash)    DE(int)     intcor
      8.56     -14.65       1.90        0.00      53.32       1.34       0.35       5.74       ----

> <Gold.Chemscore.Fitness>
8.5564

> <Gold.Chemscore.DG>
-14.6458

> <Gold.Chemscore.ZeroCoef>
-5.4800

> <Gold.Chemscore.Hbond>
1.8997

> <Gold.Chemscore.Metal>
0.0000

> <Gold.Chemscore.Lipo>
53.3213

> <Gold.Chemscore.Internal_Hbond>
0.0000

> <Gold.Chemscore.DEClash>
0.3460

> <Gold.Chemscore.DEInternal>
5.7434

> <Gold.Chemscore.Rot>
1.3351

> <Gold.Chemscore.Internal.Correction>
   9.000000E+99

> <Gold.Chemscore.Hbonds>
donor molecule, donor type, donor heavy atom, donor atom, acceptor molecule, acceptor atom, score
      L1  H    11    32       P1 10171  0.70
      L1  H    13    29       P1 10175  0.99

> <Gold.Chemscore.Hbond.Weighted>
-6.3449

> <Gold.Chemscore.Metal.Weighted>
-0.0000

> <Gold.Chemscore.Lipo.Weighted>
-6.2386

> <Gold.Chemscore.Internal_Hbond.Weighted>
0.0000

> <Gold.Chemscore.DEClash.Weighted>
0.3460

> <Gold.Chemscore.DEInternal.Weighted>
5.7434

> <Gold.Chemscore.Rot.Weighted>
3.4177

> <Gold.Chemscore.Internal.Correction.Weighted>
   9.000000E+99

> <Gold.Protein.RotatedTorsions>
[ 6907 6896 6895 6894 ] final  152.74 input  -60.11 | X-H torsion
[ 7974 7965 7964 7962 ] final  -52.64 input  175.53 | X-H torsion
[ 8008 7997 7996 7995 ] final  148.64 input   59.86 | X-H torsion
[ 10167 10162 10161 10158 ] final -138.69 input  -65.29 | X-H torsion
[ 10718 10713 10712 10709 ] final   59.24 input   66.30 | X-H torsion
[ 10763 10752 10751 10750 ] final -146.55 input  -60.55 | X-H torsion
[ 11005 11000 10999 10996 ] final  -73.87 input  -57.11 | X-H torsion

> <Gold.Protein.ActiveResidues>
 VAL166  LYS551  ARG553  GLY616  TRP617  ASP618  TYR619  PRO620  LYS621  CYS622 
 ASP623  PHE694  ASN695  SER759  ASP760  ASP761  ALA762  ILE779  LEU786  VAL792 
 PHE793  MET794  SER795  GLU796  ALA797  LYS798  CYS799  TRP800  GLU811  SER814 

> <Gold.Protein.RotatedAtoms>
  152.0826  133.4160  159.4507 H   0  0  0  0  0  0  0  0  0  0  0  0  # atno 6907 bound_to 6896
  150.6862  134.2965  159.4697 H   0  0  0  0  0  0  0  0  0  0  0  0  # atno 6908 bound_to 6896
  152.0808  134.9472  160.0624 H   0  0  0  0  0  0  0  0  0  0  0  0  # atno 6909 bound_to 6896
  145.9057  140.7957  142.9720 H   0  0  0  0  0  0  0  0  0  0  0  0  # atno 7974 bound_to 7965
  156.2784  140.2123  156.5731 H   0  0  0  0  0  0  0  0  0  0  0  0  # atno 8008 bound_to 7997
  154.7119  140.0511  157.0581 H   0  0  0  0  0  0  0  0  0  0  0  0  # atno 8009 bound_to 7997
  155.0594  140.3165  155.4669 H   0  0  0  0  0  0  0  0  0  0  0  0  # atno 8010 bound_to 7997
  139.8453  143.7268  152.2661 H   0  0  0  0  0  0  0  0  0  0  0  0  # atno 10167 bound_to 10162
  157.5660  130.8871  149.9188 H   0  0  0  0  0  0  0  0  0  0  0  0  # atno 10718 bound_to 10713
  154.8330  135.3383  154.6679 H   0  0  0  0  0  0  0  0  0  0  0  0  # atno 10763 bound_to 10752
  153.7297  135.6953  153.4997 H   0  0  0  0  0  0  0  0  0  0  0  0  # atno 10764 bound_to 10752
  153.2321  135.4413  155.0559 H   0  0  0  0  0  0  0  0  0  0  0  0  # atno 10765 bound_to 10752
  141.1628  133.6892  156.7278 H   0  0  0  0  0  0  0  0  0  0  0  0  # atno 11005 bound_to 11000
  144.6739  140.1747  143.7411 LP  0  0  0  0  0  0  0  0  0  0  0  0  # atno 17320 bound_to 7965
  145.8734  139.2284  143.1647 LP  0  0  0  0  0  0  0  0  0  0  0  0  # atno 17321 bound_to 7965
  139.7518  144.7532  151.0495 LP  0  0  0  0  0  0  0  0  0  0  0  0  # atno 17342 bound_to 10162
  140.7793  143.4851  150.9966 LP  0  0  0  0  0  0  0  0  0  0  0  0  # atno 17343 bound_to 10162
  156.0708  130.3685  150.0780 LP  0  0  0  0  0  0  0  0  0  0  0  0  # atno 17370 bound_to 10713
  156.8938  130.9597  151.3585 LP  0  0  0  0  0  0  0  0  0  0  0  0  # atno 17371 bound_to 10713
  140.2767  134.8349  157.3897 LP  0  0  0  0  0  0  0  0  0  0  0  0  # atno 17394 bound_to 11000
  140.1471  134.4898  155.7988 LP  0  0  0  0  0  0  0  0  0  0  0  0  # atno 17395 bound_to 11000

$$$$
