#       Name:                AV-unprocessed.smi:198
#       Creating user name   scv26
#       Creation time:       Thu Mar 26 19:43:09 2020


#       File generated by GOLD software.
#

@<TRIPOS>MOLECULE
AV-unprocessed.smi:198
    67    71     1
SMALL
NO_CHARGES


@<TRIPOS>ATOM
      1 ****        -2.5034   2.5994  -3.6093 C.3            1 S1                 0.0000
      2 ****        -3.6084   1.6813  -3.2475 N.4            1 S1                 1.0000
      3 ****        -3.1802   0.2714  -3.0662 C.3            1 S1                 0.0000
      4 ****        -2.4301   0.0654  -1.7394 C.3            1 S1                 0.0000
      5 ****        -3.2796   0.5458  -0.5414 C.3            1 S1                 0.0000
      6 ****        -3.7439   2.0064  -0.7519 C.3            1 S1                 0.0000
      7 ****        -4.6711   2.4308   0.4035 C.3            1 S1                 0.0000
      8 ****        -3.9864   2.2254   1.7636 C.3            1 S1                 0.0000
      9 ****        -3.4562   0.7848   1.9138 C.3            1 S1                 0.0000
     10 ****        -2.6402   0.3723   0.7707 N.3            1 S1                 0.0000
     11 ****        -1.3115   0.6196   0.8722 C.ar           1 S1                 0.0000
     12 ****        -0.8645   1.8827   1.0936 N.ar           1 S1                 0.0000
     13 ****         0.4475   2.1242   1.1747 C.ar           1 S1                 0.0000
     14 ****         1.4632   1.2657   1.0576 N.ar           1 S1                 0.0000
     15 ****         1.0161  -0.0034   0.8333 C.ar           1 S1                 0.0000
     16 ****        -0.3430  -0.4100   0.7322 C.ar           1 S1                 0.0000
     17 ****        -0.4153  -1.7776   0.5044 N.2            1 S1                 0.0000
     18 ****         0.8327  -2.1591   0.4690 C.2            1 S1                 0.0000
     19 ****         1.7604  -1.1552   0.6496 N.pl3          1 S1                 0.0000
     20 ****         3.1909  -1.2675   0.6661 C.3            1 S1                 0.0000
     21 ****         3.9285  -2.5499   0.2697 C.3            1 S1                 0.0000
     22 ****         5.0403  -2.2075   1.2893 C.3            1 S1                 0.0000
     23 ****         5.5782  -3.3793   2.1291 C.3            1 S1                 0.0000
     24 ****         6.1856  -4.3713   1.3267 O.3            1 S1                 0.0000
     25 ****         6.2284  -1.3754   0.7619 C.3            1 S1                 0.0000
     26 ****         6.8963  -2.0213  -0.3022 O.3            1 S1                 0.0000
     27 ****         3.9477  -1.3669   1.9903 C.3            1 S1                 0.0000
     28 ****        -4.4443   2.1659  -2.1191 C.3            1 S1                 0.0000
     29 ****        -1.7735   2.6989  -2.8060 H              1 S1                 0.0000
     30 ****        -2.8922   3.5923  -3.8370 H              1 S1                 0.0000
     31 ****        -1.9824   2.2385  -4.4966 H              1 S1                 0.0000
     32 ****        -4.0672  -0.3632  -3.0851 H              1 S1                 0.0000
     33 ****        -2.5610  -0.0420  -3.9076 H              1 S1                 0.0000
     34 ****        -2.1874  -0.9910  -1.6230 H              1 S1                 0.0000
     35 ****        -1.4793   0.5975  -1.7813 H              1 S1                 0.0000
     36 ****        -4.1714  -0.0826  -0.5179 H              1 S1                 0.0000
     37 ****        -2.8701   2.6587  -0.7362 H              1 S1                 0.0000
     38 ****        -4.9623   3.4755   0.2903 H              1 S1                 0.0000
     39 ****        -5.5919   1.8467   0.3723 H              1 S1                 0.0000
     40 ****        -3.1717   2.9412   1.8706 H              1 S1                 0.0000
     41 ****        -4.6864   2.4459   2.5698 H              1 S1                 0.0000
     42 ****        -2.8871   0.6876   2.8397 H              1 S1                 0.0000
     43 ****        -4.2948   0.0928   1.9965 H              1 S1                 0.0000
     44 ****         0.7231   3.1527   1.3560 H              1 S1                 0.0000
     45 ****         1.1017  -3.1921   0.3057 H              1 S1                 0.0000
     46 ****         3.5625  -0.4289   0.0740 H              1 S1                 0.0000
     47 ****         3.3936  -3.4619   0.5384 H              1 S1                 0.0000
     48 ****         4.2486  -2.5807  -0.7721 H              1 S1                 0.0000
     49 ****         6.2980  -3.0361   2.8728 H              1 S1                 0.0000
     50 ****         4.7712  -3.8589   2.6836 H              1 S1                 0.0000
     51 ****         6.4722  -5.0770   1.8865 H              1 S1                 0.0000
     52 ****         5.9001  -0.4015   0.3988 H              1 S1                 0.0000
     53 ****         6.9492  -1.1730   1.5546 H              1 S1                 0.0000
     54 ****         7.1576  -2.8817  -0.0101 H              1 S1                 0.0000
     55 ****         4.2851  -0.4095   2.3890 H              1 S1                 0.0000
     56 ****         3.3889  -1.9257   2.7434 H              1 S1                 0.0000
     57 ****        -4.7225   3.2070  -2.2880 H              1 S1                 0.0000
     58 ****        -5.3752   1.5971  -2.1215 H              1 S1                 0.0000
     59 ****        -4.2154   1.6791  -4.0548 H              1 S1                 0.0000
     60 ****        -2.6194  -0.6255   0.8339 LP             1 S1                 0.0000
     61 ****        -1.5177   2.6329   1.1961 LP             1 S1                 0.0000
     62 ****         2.4279   1.5203   1.1256 LP             1 S1                 0.0000
     63 ****        -1.2343  -2.3405   0.3931 LP             1 S1                 0.0000
     64 ****         6.9714  -3.9818   0.8462 LP             1 S1                 0.0000
     65 ****         5.5251  -4.7168   0.6601 LP             1 S1                 0.0000
     66 ****         7.7042  -1.4935  -0.5644 LP             1 S1                 0.0000
     67 ****         6.2822  -2.1028  -1.0871 LP             1 S1                 0.0000
@<TRIPOS>BOND
    1    1    2 1     
    2    1   29 1     
    3    1   30 1     
    4    1   31 1     
    5    2   28 1     
    6    2    3 1     
    7    2   59 1     
    8    3    4 1     
    9    3   32 1     
   10    3   33 1     
   11    4    5 1     
   12    4   34 1     
   13    4   35 1     
   14    5   10 1     
   15    5    6 1     
   16    5   36 1     
   17    6    7 1     
   18    6   28 1     
   19    6   37 1     
   20    7    8 1     
   21    7   38 1     
   22    7   39 1     
   23    8    9 1     
   24    8   40 1     
   25    8   41 1     
   26    9   10 1     
   27    9   42 1     
   28    9   43 1     
   29   10   11 1     
   30   11   16 ar    
   31   11   12 ar    
   32   12   13 ar    
   33   13   14 ar    
   34   13   44 1     
   35   14   15 ar    
   36   15   19 1     
   37   15   16 ar    
   38   16   17 1     
   39   17   18 2     
   40   18   19 1     
   41   18   45 1     
   42   19   20 1     
   43   20   27 1     
   44   20   21 1     
   45   20   46 1     
   46   21   22 1     
   47   21   47 1     
   48   21   48 1     
   49   22   23 1     
   50   22   25 1     
   51   22   27 1     
   52   23   24 1     
   53   23   49 1     
   54   23   50 1     
   55   24   51 1     
   56   25   26 1     
   57   25   52 1     
   58   25   53 1     
   59   26   54 1     
   60   27   55 1     
   61   27   56 1     
   62   28   57 1     
   63   28   58 1     
   64   10   60 1     
   65   12   61 1     
   66   14   62 1     
   67   17   63 1     
   68   24   64 1     
   69   24   65 1     
   70   26   66 1     
   71   26   67 1     
@<TRIPOS>SUBSTRUCTURE
      1 S1             1
@<TRIPOS>SET
LONE_PAIRS      STATIC     ATOMS    <user>   **** ""
8 60 61 62 63 64 65 66 67
DONOR_HYDROGENS      STATIC     ATOMS    <user>   **** ""
3 59 51 54
ATOM$BLUE        STATIC     ATOMS    COLORGROUP SYSTEM
8 60 61 62 63 64 65 66 67
ATOM$RED        STATIC     ATOMS    COLORGROUP SYSTEM
3 59 51 54
