AV-unprocessed.smi:1965|AV-procd|sdf|7938|dock5
  -GOLD-   2272010103D 1   1.00000     0.00000
 Structure written by MMmdl.
 37 39  0  0  0  0  0  0  0  0  2 V2000
  145.4026  138.3408  153.2731 O   0  0  0  0  0  0  0  0  0  0  0  0
  146.3017  137.7353  152.6922 C   0  0  0  0  0  0  0  0  0  0  0  0
  147.5873  138.1370  152.7800 N   0  0  0  0  0  0  0  0  0  0  0  0
  148.1837  139.2284  153.4758 C   0  0  0  0  0  0  0  0  0  0  0  0
  149.3617  139.1848  154.1118 N   0  0  0  0  0  0  0  0  0  0  0  0
  149.7000  140.4150  154.6810 C   0  0  0  0  0  0  0  0  0  0  0  0
  148.7665  141.3962  154.4604 C   0  0  0  0  0  0  0  0  0  0  0  0
  147.4190  140.8107  153.5224 S   0  0  0  0  0  0  0  0  0  0  0  0
  146.0721  136.6465  151.9403 N   0  0  0  0  0  0  0  0  0  0  0  0
  144.7577  136.0731  151.6706 C   0  0  2  0  0  0  0  0  0  0  0  0
  144.0350  135.6060  152.9272 C   0  0  0  0  0  0  0  0  0  0  0  0
  142.9777  134.6422  152.3790 C   0  0  0  0  0  0  0  0  0  0  0  0
  143.5083  134.1026  151.1026 N   0  3  2  0  0  0  0  0  0  0  0  0
  143.5714  132.6171  151.0538 C   0  0  0  0  0  0  0  0  0  0  0  0
  144.4758  132.1420  149.9068 C   0  0  0  0  0  0  0  0  0  0  0  0
  145.9258  132.6279  150.0923 C   0  0  0  0  0  0  0  0  0  0  0  0
  146.0170  133.8877  150.9744 C   0  0  0  0  0  0  0  0  0  0  0  0
  144.7844  134.8081  150.7918 C   0  0  2  0  0  0  0  0  0  0  0  0
  148.2490  137.5250  152.3246 H   0  0  0  0  0  0  0  0  0  0  0  0
  150.6281  140.5045  155.2260 H   0  0  0  0  0  0  0  0  0  0  0  0
  148.7908  142.4246  154.7890 H   0  0  0  0  0  0  0  0  0  0  0  0
  146.8663  136.2039  151.4996 H   0  0  0  0  0  0  0  0  0  0  0  0
  144.1305  136.8255  151.1876 H   0  0  0  0  0  0  0  0  0  0  0  0
  144.7220  135.0674  153.5818 H   0  0  0  0  0  0  0  0  0  0  0  0
  143.6009  136.4274  153.4984 H   0  0  0  0  0  0  0  0  0  0  0  0
  142.7286  133.8664  153.1042 H   0  0  0  0  0  0  0  0  0  0  0  0
  142.0581  135.1841  152.1557 H   0  0  0  0  0  0  0  0  0  0  0  0
  143.9551  132.2249  151.9975 H   0  0  0  0  0  0  0  0  0  0  0  0
  142.5615  132.2229  150.9356 H   0  0  0  0  0  0  0  0  0  0  0  0
  144.4549  131.0545  149.8278 H   0  0  0  0  0  0  0  0  0  0  0  0
  144.0809  132.5234  148.9638 H   0  0  0  0  0  0  0  0  0  0  0  0
  146.5324  131.8395  150.5393 H   0  0  0  0  0  0  0  0  0  0  0  0
  146.3614  132.8256  149.1121 H   0  0  0  0  0  0  0  0  0  0  0  0
  146.0929  133.5908  152.0215 H   0  0  0  0  0  0  0  0  0  0  0  0
  146.9427  134.4148  150.7425 H   0  0  0  0  0  0  0  0  0  0  0  0
  144.7543  135.1105  149.7438 H   0  0  0  0  0  0  0  0  0  0  0  0
  142.8577  134.3869  150.3841 H   0  0  0  0  0  0  0  0  0  0  0  0
  1  2  2  0  0  0  0
  2  3  1  0  0  0  0
  2  9  1  0  0  0  0
  3  4  1  0  0  0  0
  3 19  1  0  0  0  0
  4  8  1  0  0  0  0
  4  5  2  0  0  0  0
  5  6  1  0  0  0  0
  6  7  2  0  0  0  0
  6 20  1  0  0  0  0
  7  8  1  0  0  0  0
  7 21  1  0  0  0  0
  9 10  1  0  0  0  0
  9 22  1  0  0  0  0
 10 18  1  0  0  0  0
 10 11  1  0  0  0  0
 10 23  1  0  0  0  0
 11 12  1  0  0  0  0
 11 24  1  0  0  0  0
 11 25  1  0  0  0  0
 12 13  1  0  0  0  0
 12 26  1  0  0  0  0
 12 27  1  0  0  0  0
 13 18  1  0  0  0  0
 13 14  1  0  0  0  0
 13 37  1  0  0  0  0
 14 15  1  0  0  0  0
 14 28  1  0  0  0  0
 14 29  1  0  0  0  0
 15 16  1  0  0  0  0
 15 30  1  0  0  0  0
 15 31  1  0  0  0  0
 16 17  1  0  0  0  0
 16 32  1  0  0  0  0
 16 33  1  0  0  0  0
 17 18  1  0  0  0  0
 17 34  1  0  0  0  0
 17 35  1  0  0  0  0
 18 36  1  0  0  0  0
M  CHG  1  13   1
M  END
> <s_m_source_file>
AV-unprocessed.smi

> <i_m_source_file_index>
1965

> <i_lp_mmshare_version>
43012

> <i_f3d_flags>
0

> <s_epik_input>
czFbY0hdW2NIXW5jMVtOSF1DKD1PKVtOSF1bQ0BIXShbQ0gyXVtDSDJdMilbQ0BASF0oTjIzKVtDSDJdW0NIMl1bQ0gyXVtDSDJdMw==

> <s_epik_cmdline>
J2VwaWtfcHl0aG9uJywgJy1waCcsICc3LjAnLCAnLXRuJywgJzgnLCAnLW1hJywgJzIwMCcsICctbWV0YWxfYmluZGluZycsICctaW1hZScsICc8aW5maWxlLm1hZT4nLCAnLW9tYWUnLCAnPG91dGZpbGUubWFlPic=

> <r_lp_tautomer_probability>
1

> <r_epik_Ionization_Penalty>
0.00125962

> <r_epik_Ionization_Penalty_Charging>
0.00107044

> <r_epik_Ionization_Penalty_Neutral>
0.000189176

> <r_epik_State_Penalty>
-0

> <r_epik_Charging_Adjusted_Penalty>
0.00107044

> <i_epik_Tot_Q>
1

> <i_epik_Tot_abs_Q>
1

> <r_epik_Metal_State_Penalty>
0.0179285

> <b_epik_Metal_Only>
0

> <s_lp_Force_Field>
OPLS_2005

> <r_lp_Energy>
41.6274

> <b_lp_Chiralities_Consistent>
1

> <s_lp_Variant>
AV-unprocessed.smi:1965-7

> <Gold.Version>
5.8.1

> <Gold.Id.Protein>
6NUR|6NUR_protein|mol2

> <Gold.PLP.Fitness>
47.0862

> <Gold.PLP.PLP>
-33.8412

> <Gold.PLP.part.hbond>
-3.3375

> <Gold.PLP.part.metal>
0.0000

> <Gold.PLP.part.buried>
-3.0685

> <Gold.PLP.part.nonpolar>
-30.2049

> <Gold.PLP.part.repulsive>
2.2953

> <Gold.PLP.ligand.clash>
0.0000

> <Gold.PLP.ligand.torsion>
0.3091

> <Gold.PLP.Chemscore.Hbond>
3.6201

> <Gold.PLP.Chemscore.CHOScore>
1.0000

> <Gold.PLP.Chemscore.Metal>
0.0000

> <Gold.Chemscore.Hbonds>
donor molecule, donor type, donor heavy atom, donor atom, acceptor molecule, acceptor atom, score
      L1  H     3    19       P1  7948  0.98
      L1  H     9    22       P1  7948  0.62
      L1  H    13    37       P1 10186  2.00
      L1  C     7    21       P1  8028  1.00

> <Gold.PLP.Chemscore.Internal.Correction>
0.0030

> <Gold.Rescore>
     Score         DG    S(hbond)    S(metal)    S(lipo)     H(rot)  DE(clash)    DE(int)     intcor
     18.52     -19.60       2.36        0.00      75.10       1.00       0.76       0.32       ----

> <Gold.Chemscore.Fitness>
18.5241

> <Gold.Chemscore.DG>
-19.6043

> <Gold.Chemscore.ZeroCoef>
-5.4800

> <Gold.Chemscore.Hbond>
2.3646

> <Gold.Chemscore.Metal>
0.0000

> <Gold.Chemscore.Lipo>
75.0990

> <Gold.Chemscore.Internal_Hbond>
0.0000

> <Gold.Chemscore.DEClash>
0.7624

> <Gold.Chemscore.DEInternal>
0.3179

> <Gold.Chemscore.Rot>
1.0000

> <Gold.Chemscore.Internal.Correction>
   9.000000E+99

> <Gold.Chemscore.Hbonds>
donor molecule, donor type, donor heavy atom, donor atom, acceptor molecule, acceptor atom, score
      L1  H     3    19       P1  7948  0.92
      L1  H     9    22       P1  7948  0.59
      L1  H    13    37       P1 10186  0.63

> <Gold.Chemscore.Hbond.Weighted>
-7.8977

> <Gold.Chemscore.Metal.Weighted>
-0.0000

> <Gold.Chemscore.Lipo.Weighted>
-8.7866

> <Gold.Chemscore.Internal_Hbond.Weighted>
0.0000

> <Gold.Chemscore.DEClash.Weighted>
0.7624

> <Gold.Chemscore.DEInternal.Weighted>
0.3179

> <Gold.Chemscore.Rot.Weighted>
2.5600

> <Gold.Chemscore.Internal.Correction.Weighted>
   9.000000E+99

> <Gold.Protein.RotatedTorsions>
[ 6907 6896 6895 6894 ] final  -42.25 input  -60.11 | X-H torsion
[ 7974 7965 7964 7962 ] final  -22.48 input  175.53 | X-H torsion
[ 8008 7997 7996 7995 ] final -159.66 input   59.86 | X-H torsion
[ 10167 10162 10161 10158 ] final   77.67 input  -65.29 | X-H torsion
[ 10718 10713 10712 10709 ] final  168.54 input   66.30 | X-H torsion
[ 10763 10752 10751 10750 ] final   -8.94 input  -60.55 | X-H torsion
[ 11005 11000 10999 10996 ] final -142.57 input  -57.11 | X-H torsion

> <Gold.Protein.ActiveResidues>
 VAL166  LYS551  ARG553  GLY616  TRP617  ASP618  TYR619  PRO620  LYS621  CYS622 
 ASP623  PHE694  ASN695  SER759  ASP760  ASP761  ALA762  ILE779  LEU786  VAL792 
 PHE793  MET794  SER795  GLU796  ALA797  LYS798  CYS799  TRP800  GLU811  SER814 

> <Gold.Protein.RotatedAtoms>
  150.9574  134.8966  159.7709 H   0  0  0  0  0  0  0  0  0  0  0  0  # atno 6907 bound_to 6896
  152.5143  134.3721  159.9332 H   0  0  0  0  0  0  0  0  0  0  0  0  # atno 6908 bound_to 6896
  151.3735  133.3806  159.2737 H   0  0  0  0  0  0  0  0  0  0  0  0  # atno 6909 bound_to 6896
  146.1673  140.4485  142.8547 H   0  0  0  0  0  0  0  0  0  0  0  0  # atno 7974 bound_to 7965
  155.7659  140.0845  157.2132 H   0  0  0  0  0  0  0  0  0  0  0  0  # atno 8008 bound_to 7997
  154.4000  140.1534  156.2943 H   0  0  0  0  0  0  0  0  0  0  0  0  # atno 8009 bound_to 7997
  155.8794  140.3421  155.5880 H   0  0  0  0  0  0  0  0  0  0  0  0  # atno 8010 bound_to 7997
  139.9791  144.5839  150.7917 H   0  0  0  0  0  0  0  0  0  0  0  0  # atno 10167 bound_to 10162
  157.0356  131.0272  151.2730 H   0  0  0  0  0  0  0  0  0  0  0  0  # atno 10718 bound_to 10713
  153.4477  135.7014  153.6129 H   0  0  0  0  0  0  0  0  0  0  0  0  # atno 10763 bound_to 10752
  153.4477  135.3765  155.2265 H   0  0  0  0  0  0  0  0  0  0  0  0  # atno 10764 bound_to 10752
  154.8728  135.3989  154.3884 H   0  0  0  0  0  0  0  0  0  0  0  0  # atno 10765 bound_to 10752
  140.8212  134.2629  157.4899 H   0  0  0  0  0  0  0  0  0  0  0  0  # atno 11005 bound_to 11000
  144.8111  140.6386  143.6415 LP  0  0  0  0  0  0  0  0  0  0  0  0  # atno 17320 bound_to 7965
  145.4434  139.1532  143.3958 LP  0  0  0  0  0  0  0  0  0  0  0  0  # atno 17321 bound_to 7965
  140.7495  143.2940  151.3254 LP  0  0  0  0  0  0  0  0  0  0  0  0  # atno 17342 bound_to 10162
  139.6423  144.0516  152.2564 LP  0  0  0  0  0  0  0  0  0  0  0  0  # atno 17343 bound_to 10162
  157.5144  130.7959  149.7740 LP  0  0  0  0  0  0  0  0  0  0  0  0  # atno 17370 bound_to 10713
  156.0055  130.3858  150.2447 LP  0  0  0  0  0  0  0  0  0  0  0  0  # atno 17371 bound_to 10713
  139.8708  134.9536  156.4151 LP  0  0  0  0  0  0  0  0  0  0  0  0  # atno 17394 bound_to 11000
  140.9097  133.7721  155.9776 LP  0  0  0  0  0  0  0  0  0  0  0  0  # atno 17395 bound_to 11000

$$$$
