AV-unprocessed.smi:50|AV-procd|sdf|493|dock4
  -GOLD-   2262016353D 1   1.00000     0.00000
 Structure written by MMmdl.
 43 44  0  0  0  0  0  0  0  0  1 V2000
  158.7624  135.5458  153.2221 C   0  0  0  0  0  0  0  0  0  0  0  0
  157.5911  136.5293  153.0531 C   0  0  0  0  0  0  0  0  0  0  0  0
  157.9819  137.6668  152.0889 C   0  0  0  0  0  0  0  0  0  0  0  0
  157.0309  137.0028  154.4236 C   0  0  2  0  0  0  0  0  0  0  0  0
  156.4745  135.8774  155.1763 N   0  0  0  0  0  0  0  0  0  0  0  0
  156.0618  138.1976  154.3319 C   0  0  0  0  0  0  0  0  0  0  0  0
  156.4129  139.3301  153.9997 O   0  0  0  0  0  0  0  0  0  0  0  0
  154.8012  137.8386  154.6416 O   0  0  0  0  0  0  0  0  0  0  0  0
  153.7763  138.8176  154.6647 C   0  0  0  0  0  0  0  0  0  0  0  0
  152.4275  138.1422  154.4046 C   0  0  0  0  0  0  0  0  0  0  0  0
  151.4117  139.1316  154.4210 O   0  0  0  0  0  0  0  0  0  0  0  0
  150.8104  139.2768  155.6645 C   0  0  0  0  0  0  0  0  0  0  0  0
  149.7249  140.2263  155.5167 N   0  0  0  0  0  0  0  0  0  0  0  0
  149.4996  141.3866  156.2145 C   0  0  0  0  0  0  0  0  0  0  0  0
  148.4238  142.0251  155.8462 N   0  0  0  0  0  0  0  0  0  0  0  0
  147.8886  141.2351  154.8326 C   0  0  0  0  0  0  0  0  0  0  0  0
  146.7044  141.4203  154.0426 C   0  0  0  0  0  0  0  0  0  0  0  0
  145.8905  142.3399  154.0939 O   0  0  0  0  0  0  0  0  0  0  0  0
  146.5181  140.3832  153.1196 N   0  0  0  0  0  0  0  0  0  0  0  0
  147.3782  139.2963  152.9799 C   0  0  0  0  0  0  0  0  0  0  0  0
  147.0554  138.3892  152.0486 N   0  0  0  0  0  0  0  0  0  0  0  0
  148.4686  139.1270  153.7074 N   0  0  0  0  0  0  0  0  0  0  0  0
  148.6821  140.1243  154.6213 C   0  0  0  0  0  0  0  0  0  0  0  0
  157.8899  137.3454  155.0015 H   0  0  0  0  0  0  0  0  0  0  0  0
  145.7038  140.4418  152.5259 H   0  0  0  0  0  0  0  0  0  0  0  0
  159.6329  136.0280  153.6675 H   0  0  0  0  0  0  0  0  0  0  0  0
  159.0707  135.1355  152.2601 H   0  0  0  0  0  0  0  0  0  0  0  0
  158.4832  134.7071  153.8605 H   0  0  0  0  0  0  0  0  0  0  0  0
  156.7930  135.9672  152.5656 H   0  0  0  0  0  0  0  0  0  0  0  0
  158.8556  138.2165  152.4396 H   0  0  0  0  0  0  0  0  0  0  0  0
  157.1666  138.3790  151.9602 H   0  0  0  0  0  0  0  0  0  0  0  0
  158.2254  137.2708  151.1028 H   0  0  0  0  0  0  0  0  0  0  0  0
  157.0371  135.0455  155.0695 H   0  0  0  0  0  0  0  0  0  0  0  0
  156.4447  136.0748  156.1663 H   0  0  0  0  0  0  0  0  0  0  0  0
  153.7636  139.3210  155.6325 H   0  0  0  0  0  0  0  0  0  0  0  0
  153.9721  139.5723  153.9016 H   0  0  0  0  0  0  0  0  0  0  0  0
  152.4430  137.6373  153.4373 H   0  0  0  0  0  0  0  0  0  0  0  0
  152.2338  137.3891  155.1700 H   0  0  0  0  0  0  0  0  0  0  0  0
  150.3957  138.3284  156.0112 H   0  0  0  0  0  0  0  0  0  0  0  0
  151.5211  139.6513  156.4034 H   0  0  0  0  0  0  0  0  0  0  0  0
  150.1509  141.7420  156.9998 H   0  0  0  0  0  0  0  0  0  0  0  0
  146.2225  138.5170  151.4920 H   0  0  0  0  0  0  0  0  0  0  0  0
  147.6408  137.5797  151.9014 H   0  0  0  0  0  0  0  0  0  0  0  0
  1  2  1  0  0  0  0
  1 26  1  0  0  0  0
  1 27  1  0  0  0  0
  1 28  1  0  0  0  0
  2  3  1  0  0  0  0
  2  4  1  0  0  0  0
  2 29  1  0  0  0  0
  3 30  1  0  0  0  0
  3 31  1  0  0  0  0
  3 32  1  0  0  0  0
  4 24  1  0  0  0  0
  4  5  1  0  0  0  0
  4  6  1  0  0  0  0
  5 33  1  0  0  0  0
  5 34  1  0  0  0  0
  6  7  2  0  0  0  0
  6  8  1  0  0  0  0
  8  9  1  0  0  0  0
  9 10  1  0  0  0  0
  9 35  1  0  0  0  0
  9 36  1  0  0  0  0
 10 11  1  0  0  0  0
 10 37  1  0  0  0  0
 10 38  1  0  0  0  0
 11 12  1  0  0  0  0
 12 13  1  0  0  0  0
 12 39  1  0  0  0  0
 12 40  1  0  0  0  0
 13 23  1  0  0  0  0
 13 14  1  0  0  0  0
 14 15  2  0  0  0  0
 14 41  1  0  0  0  0
 15 16  1  0  0  0  0
 16 23  2  0  0  0  0
 16 17  1  0  0  0  0
 17 18  2  0  0  0  0
 17 19  1  0  0  0  0
 19 25  1  0  0  0  0
 19 20  1  0  0  0  0
 20 21  1  0  0  0  0
 20 22  2  0  0  0  0
 21 42  1  0  0  0  0
 21 43  1  0  0  0  0
 22 23  1  0  0  0  0
M  END
> <s_m_source_file>
AV-unprocessed.smi

> <i_m_source_file_index>
50

> <i_lp_mmshare_version>
43012

> <i_f3d_flags>
0

> <s_epik_input>
W0NIM11bQ0hdKFtDSDNdKVtDQEhdKFtOSDJdKUMoPU8pT1tDSDJdW0NIMl1PW0NIMl1uKFtjSF1uMSljKGMxMiluYyhbTkgyXSlbbkhdYzI9Tw==

> <s_epik_cmdline>
J2VwaWtfcHl0aG9uJywgJy1waCcsICc3LjAnLCAnLXRuJywgJzgnLCAnLW1hJywgJzIwMCcsICctbWV0YWxfYmluZGluZycsICctaW1hZScsICc8aW5maWxlLm1hZT4nLCAnLW9tYWUnLCAnPG91dGZpbGUubWFlPic=

> <r_lp_tautomer_probability>
0.99994

> <r_epik_Ionization_Penalty>
0.704142

> <r_epik_Ionization_Penalty_Charging>
0.00148332

> <r_epik_Ionization_Penalty_Neutral>
0.702658

> <r_epik_State_Penalty>
0.725442

> <r_epik_Charging_Adjusted_Penalty>
0.726926

> <i_epik_Tot_Q>
0

> <i_epik_Tot_abs_Q>
0

> <r_epik_Metal_State_Penalty>
1.04557

> <b_epik_Metal_Only>
0

> <s_epik_Chemistry_Notes>
This compound has an ester and may undergo hydrolysis at high or low pH. This compound contains an acetal/aminal-like group ( X-CH(R)-Y where X, Y are N, S, or O) that may be acid/base labile, releasing an aldehyde.

> <s_lp_Force_Field>
OPLS_2005

> <r_lp_Energy>
11.3413

> <b_lp_Chiralities_Consistent>
1

> <s_lp_Variant>
AV-unprocessed.smi:50-3

> <Gold.Version>
5.8.1

> <Gold.Id.Protein>
6NUR|6NUR_protein|mol2

> <Gold.PLP.Fitness>
46.3684

> <Gold.PLP.PLP>
-32.6392

> <Gold.PLP.part.hbond>
-6.6194

> <Gold.PLP.part.metal>
0.0000

> <Gold.PLP.part.buried>
-0.7527

> <Gold.PLP.part.nonpolar>
-29.5441

> <Gold.PLP.part.repulsive>
4.5404

> <Gold.PLP.ligand.clash>
0.0000

> <Gold.PLP.ligand.torsion>
0.8208

> <Gold.PLP.Chemscore.Hbond>
5.0000

> <Gold.PLP.Chemscore.CHOScore>
0.0000

> <Gold.PLP.Chemscore.Metal>
0.0000

> <Gold.Chemscore.Hbonds>
donor molecule, donor type, donor heavy atom, donor atom, acceptor molecule, acceptor atom, score
      L1  H    19    25       P1 10175  0.93
      L1  H    21    43       P1  7948  1.00
      P1  H  7989  7998       L1    11  1.00
      P1  H  7997  8009       L1     7  1.00
      P1  H 10752 10764       L1     5  1.00

> <Gold.PLP.Chemscore.Internal.Correction>
0.3707

> <Gold.Rescore>
     Score         DG    S(hbond)    S(metal)    S(lipo)     H(rot)  DE(clash)    DE(int)     intcor
      6.87     -11.59       3.19        0.00      65.10       4.75       2.88       1.84       ----

> <Gold.Chemscore.Fitness>
6.8746

> <Gold.Chemscore.DG>
-11.5940

> <Gold.Chemscore.ZeroCoef>
-5.4800

> <Gold.Chemscore.Hbond>
3.1908

> <Gold.Chemscore.Metal>
0.0000

> <Gold.Chemscore.Lipo>
65.1033

> <Gold.Chemscore.Internal_Hbond>
0.0000

> <Gold.Chemscore.DEClash>
2.8758

> <Gold.Chemscore.DEInternal>
1.8437

> <Gold.Chemscore.Rot>
4.7501

> <Gold.Chemscore.Internal.Correction>
   9.000000E+99

> <Gold.Chemscore.Hbonds>
donor molecule, donor type, donor heavy atom, donor atom, acceptor molecule, acceptor atom, score
      L1  H    19    25       P1 10175  0.51
      L1  H    21    43       P1  7948  1.00
      P1  H  7989  7998       L1    11  0.82
      P1  H  7997  8009       L1     7  0.25
      P1  H 10752 10764       L1     5  0.25

> <Gold.Chemscore.Hbond.Weighted>
-10.6572

> <Gold.Chemscore.Metal.Weighted>
-0.0000

> <Gold.Chemscore.Lipo.Weighted>
-7.6171

> <Gold.Chemscore.Internal_Hbond.Weighted>
0.0000

> <Gold.Chemscore.DEClash.Weighted>
2.8758

> <Gold.Chemscore.DEInternal.Weighted>
1.8437

> <Gold.Chemscore.Rot.Weighted>
12.1603

> <Gold.Chemscore.Internal.Correction.Weighted>
   9.000000E+99

> <Gold.Protein.RotatedTorsions>
[ 6907 6896 6895 6894 ] final  -26.94 input  -60.11 | X-H torsion
[ 7974 7965 7964 7962 ] final -120.23 input  175.53 | X-H torsion
[ 8008 7997 7996 7995 ] final  -37.64 input   59.86 | X-H torsion
[ 10167 10162 10161 10158 ] final  -33.96 input  -65.29 | X-H torsion
[ 10718 10713 10712 10709 ] final -124.37 input   66.30 | X-H torsion
[ 10763 10752 10751 10750 ] final   95.71 input  -60.55 | X-H torsion
[ 11005 11000 10999 10996 ] final  134.83 input  -57.11 | X-H torsion

> <Gold.Protein.ActiveResidues>
 VAL166  LYS551  ARG553  GLY616  TRP617  ASP618  TYR619  PRO620  LYS621  CYS622 
 ASP623  PHE694  ASN695  SER759  ASP760  ASP761  ALA762  ILE779  LEU786  VAL792 
 PHE793  MET794  SER795  GLU796  ALA797  LYS798  CYS799  TRP800  GLU811  SER814 

> <Gold.Protein.RotatedAtoms>
  151.1539  135.0241  159.8680 H   0  0  0  0  0  0  0  0  0  0  0  0  # atno 6907 bound_to 6896
  152.5452  134.1356  159.8467 H   0  0  0  0  0  0  0  0  0  0  0  0  # atno 6908 bound_to 6896
  151.1445  133.4903  159.2629 H   0  0  0  0  0  0  0  0  0  0  0  0  # atno 6909 bound_to 6896
  145.0537  140.8238  143.4194 H   0  0  0  0  0  0  0  0  0  0  0  0  # atno 7974 bound_to 7965
  154.4050  140.1599  156.2570 H   0  0  0  0  0  0  0  0  0  0  0  0  # atno 8008 bound_to 7997
  155.9070  140.3429  155.6047 H   0  0  0  0  0  0  0  0  0  0  0  0  # atno 8009 bound_to 7997
  155.7381  140.0789  157.2249 H   0  0  0  0  0  0  0  0  0  0  0  0  # atno 8010 bound_to 7997
  140.7195  143.3582  151.2015 H   0  0  0  0  0  0  0  0  0  0  0  0  # atno 10167 bound_to 10162
  156.1582  130.6583  151.0011 H   0  0  0  0  0  0  0  0  0  0  0  0  # atno 10718 bound_to 10713
  153.2564  135.4244  155.0849 H   0  0  0  0  0  0  0  0  0  0  0  0  # atno 10763 bound_to 10752
  154.8402  135.3438  154.6440 H   0  0  0  0  0  0  0  0  0  0  0  0  # atno 10764 bound_to 10752
  153.6861  135.7036  153.5160 H   0  0  0  0  0  0  0  0  0  0  0  0  # atno 10765 bound_to 10752
  139.9940  134.9504  156.9922 H   0  0  0  0  0  0  0  0  0  0  0  0  # atno 11005 bound_to 11000
  145.1495  139.2523  143.5448 LP  0  0  0  0  0  0  0  0  0  0  0  0  # atno 17320 bound_to 7965
  146.3520  140.1194  142.8601 LP  0  0  0  0  0  0  0  0  0  0  0  0  # atno 17321 bound_to 7965
  139.7129  143.9348  152.2955 LP  0  0  0  0  0  0  0  0  0  0  0  0  # atno 17342 bound_to 10162
  139.9079  144.6874  150.8594 LP  0  0  0  0  0  0  0  0  0  0  0  0  # atno 17343 bound_to 10162
  157.6711  131.0861  150.7609 LP  0  0  0  0  0  0  0  0  0  0  0  0  # atno 17370 bound_to 10713
  156.7673  130.4817  149.5425 LP  0  0  0  0  0  0  0  0  0  0  0  0  # atno 17371 bound_to 10713
  140.4854  134.1247  155.7223 LP  0  0  0  0  0  0  0  0  0  0  0  0  # atno 17394 bound_to 11000
  141.1589  133.8830  157.1902 LP  0  0  0  0  0  0  0  0  0  0  0  0  # atno 17395 bound_to 11000

$$$$
