#       Name:                AV-unprocessed.smi:1750
#       Creating user name   scv26
#       Creation time:       Fri Mar 27 08:26:54 2020


#       File generated by GOLD software.
#

@<TRIPOS>MOLECULE
AV-unprocessed.smi:1750
    42    43     1
SMALL
NO_CHARGES


@<TRIPOS>ATOM
      1 ****        -6.4237  -0.2886   3.3585 C.3            1 S1                 0.0000
      2 ****        -4.8951  -0.2434   3.2596 C.3            1 S1                 0.0000
      3 ****        -4.3386  -1.2761   2.2696 C.3            1 S1                 0.0000
      4 ****        -2.8518  -1.2170   2.1555 C.2            1 S1                 0.0000
      5 ****        -2.0351  -1.9082   2.9611 N.2            1 S1                 0.0000
      6 ****        -0.6950  -1.6719   2.6847 N.2            1 S1                 0.0000
      7 ****        -0.5379  -0.7959   1.6881 C.2            1 S1                 0.0000
      8 ****         0.7820  -0.4577   1.2979 N.am           1 S1                 0.0000
      9 ****         1.1645   0.3983   0.3365 C.2            1 S1                 0.0000
     10 ****         0.4048   1.0608  -0.3698 O.2            1 S1                 0.0000
     11 ****         2.5004   0.4478   0.2354 N.am           1 S1                 0.0000
     12 ****         3.2392   1.2593  -0.7255 C.3            1 S1                 0.0000
     13 ****         3.4763   0.4977  -2.0403 C.3            1 S1                 0.0000
     14 ****         4.3429   1.2552  -3.0440 C.3            1 S1                 0.0000
     15 ****         3.9334   0.6648  -4.3846 C.3            1 S1                 0.0000
     16 ****         2.6140  -0.0547  -4.0888 C.3            1 S1                 0.0000
     17 ****         2.2685   0.3281  -2.7652 O.3            1 S1                 0.0000
     18 ****        -2.0365  -0.1784   0.9929 S.3            1 S1                 0.0000
     19 ****        -6.7888   0.4535   4.0688 H              1 S1                 0.0000
     20 ****        -6.7681  -1.2676   3.6930 H              1 S1                 0.0000
     21 ****        -6.8868  -0.0811   2.3934 H              1 S1                 0.0000
     22 ****        -4.5855   0.7575   2.9565 H              1 S1                 0.0000
     23 ****        -4.4652  -0.4144   4.2474 H              1 S1                 0.0000
     24 ****        -4.6281  -2.2827   2.5743 H              1 S1                 0.0000
     25 ****        -4.7678  -1.1147   1.2802 H              1 S1                 0.0000
     26 ****         1.5179  -0.9270   1.8048 H              1 S1                 0.0000
     27 ****         3.0470  -0.1291   0.8578 H              1 S1                 0.0000
     28 ****         2.7292   2.2063  -0.9111 H              1 S1                 0.0000
     29 ****         4.1987   1.5102  -0.2729 H              1 S1                 0.0000
     30 ****         3.9144  -0.4825  -1.8409 H              1 S1                 0.0000
     31 ****         4.0984   2.3183  -3.0254 H              1 S1                 0.0000
     32 ****         5.4094   1.1520  -2.8419 H              1 S1                 0.0000
     33 ****         3.8096   1.4470  -5.1343 H              1 S1                 0.0000
     34 ****         4.6793  -0.0398  -4.7544 H              1 S1                 0.0000
     35 ****         1.8241   0.2119  -4.7913 H              1 S1                 0.0000
     36 ****         2.7502  -1.1365  -4.1245 H              1 S1                 0.0000
     37 ****        -2.3544  -2.5250   3.6805 LP             1 S1                 0.0000
     38 ****         0.0621  -2.1056   3.1732 LP             1 S1                 0.0000
     39 ****        -0.5849   0.9836  -0.2490 LP             1 S1                 0.0000
     40 ****         0.7772   1.6762  -1.0645 LP             1 S1                 0.0000
     41 ****         1.7565   1.1869  -2.7810 LP             1 S1                 0.0000
     42 ****         1.7114  -0.3843  -2.3384 LP             1 S1                 0.0000
@<TRIPOS>BOND
    1    1    2 1     
    2    1   19 1     
    3    1   20 1     
    4    1   21 1     
    5    2    3 1     
    6    2   22 1     
    7    2   23 1     
    8    3    4 1     
    9    3   24 1     
   10    3   25 1     
   11    4   18 1     
   12    4    5 2     
   13    5    6 1     
   14    6    7 2     
   15    7    8 1     
   16    7   18 1     
   17    8    9 am    
   18    8   26 1     
   19    9   10 2     
   20    9   11 am    
   21   11   12 1     
   22   11   27 1     
   23   12   13 1     
   24   12   28 1     
   25   12   29 1     
   26   13   17 1     
   27   13   14 1     
   28   13   30 1     
   29   14   15 1     
   30   14   31 1     
   31   14   32 1     
   32   15   16 1     
   33   15   33 1     
   34   15   34 1     
   35   16   17 1     
   36   16   35 1     
   37   16   36 1     
   38    5   37 1     
   39    6   38 1     
   40   10   39 1     
   41   10   40 1     
   42   17   41 1     
   43   17   42 1     
@<TRIPOS>SUBSTRUCTURE
      1 S1             1
@<TRIPOS>SET
LONE_PAIRS      STATIC     ATOMS    <user>   **** ""
6 37 38 39 40 41 42
DONOR_HYDROGENS      STATIC     ATOMS    <user>   **** ""
2 26 27
ATOM$BLUE        STATIC     ATOMS    COLORGROUP SYSTEM
6 37 38 39 40 41 42
ATOM$RED        STATIC     ATOMS    COLORGROUP SYSTEM
2 26 27
