AV-unprocessed.smi:1410|AV-procd|sdf|5738|dock6
  -GOLD-   22720 5373D 1   1.00000     0.00000
 Structure written by MMmdl.
 40 41  0  0  0  0  0  0  0  0  4 V2000
  141.8890  142.8632  154.3912 N   0  5  0  0  0  0  0  0  0  0  0  0
  142.8101  143.0166  155.3638 C   0  0  0  0  0  0  0  0  0  0  0  0
  142.7051  142.7354  156.5554 O   0  0  0  0  0  0  0  0  0  0  0  0
  144.1158  143.6248  154.8411 C   0  0  0  0  0  0  0  0  0  0  0  0
  145.1272  142.5665  154.5884 N   0  3  2  0  0  0  0  0  0  0  0  0
  145.6842  142.0082  155.8462 C   0  0  0  0  0  0  0  0  0  0  0  0
  146.6103  140.8127  155.5618 C   0  0  0  0  0  0  0  0  0  0  0  0
  147.7425  141.1784  154.5810 C   0  0  2  0  0  0  0  0  0  0  0  0
  148.7254  142.0739  155.1911 N   0  0  0  0  0  0  0  0  0  0  0  0
  149.4375  141.8060  156.2956 C   0  0  0  0  0  0  0  0  0  0  0  0
  149.3313  140.7589  156.9333 O   0  0  0  0  0  0  0  0  0  0  0  0
  150.2483  142.8299  156.6144 N   0  0  0  0  0  0  0  0  0  0  0  0
  151.1486  142.9354  157.7097 C   0  0  0  0  0  0  0  0  0  0  0  0
  151.8868  144.1330  157.8371 C   0  0  0  0  0  0  0  0  0  0  0  0
  152.8025  144.2762  158.8994 C   0  0  0  0  0  0  0  0  0  0  0  0
  152.9746  143.2667  159.7794 N   0  3  0  0  0  0  0  0  0  0  0  0
  152.3037  142.0983  159.6904 C   0  0  0  0  0  0  0  0  0  0  0  0
  151.3747  141.8971  158.6492 C   0  0  0  0  0  0  0  0  0  0  0  0
  147.1432  141.8174  153.3162 C   0  0  0  0  0  0  0  0  0  0  0  0
  146.2014  142.9890  153.6498 C   0  0  0  0  0  0  0  0  0  0  0  0
  142.0869  142.2233  153.6129 H   0  0  0  0  0  0  0  0  0  0  0  0
  143.9351  144.2029  153.9333 H   0  0  0  0  0  0  0  0  0  0  0  0
  144.4816  144.3298  155.5899 H   0  0  0  0  0  0  0  0  0  0  0  0
  146.2227  142.7884  156.3864 H   0  0  0  0  0  0  0  0  0  0  0  0
  144.8701  141.6800  156.4938 H   0  0  0  0  0  0  0  0  0  0  0  0
  147.0176  140.4246  156.4959 H   0  0  0  0  0  0  0  0  0  0  0  0
  146.0183  140.0021  155.1347 H   0  0  0  0  0  0  0  0  0  0  0  0
  148.2605  140.2643  154.2845 H   0  0  0  0  0  0  0  0  0  0  0  0
  148.8802  142.9585  154.7297 H   0  0  0  0  0  0  0  0  0  0  0  0
  150.1645  143.6570  156.0417 H   0  0  0  0  0  0  0  0  0  0  0  0
  151.7515  144.9410  157.1327 H   0  0  0  0  0  0  0  0  0  0  0  0
  153.3991  145.1606  159.0688 H   0  0  0  0  0  0  0  0  0  0  0  0
  152.5329  141.3608  160.4457 H   0  0  0  0  0  0  0  0  0  0  0  0
  150.8649  140.9478  158.5856 H   0  0  0  0  0  0  0  0  0  0  0  0
  147.9369  142.1523  152.6472 H   0  0  0  0  0  0  0  0  0  0  0  0
  146.5835  141.0604  152.7649 H   0  0  0  0  0  0  0  0  0  0  0  0
  145.7661  143.3649  152.7235 H   0  0  0  0  0  0  0  0  0  0  0  0
  146.7644  143.8149  154.0872 H   0  0  0  0  0  0  0  0  0  0  0  0
  144.6218  141.8149  154.1400 H   0  0  0  0  0  0  0  0  0  0  0  0
  153.6432  143.3895  160.5406 H   0  0  0  0  0  0  0  0  0  0  0  0
  1  2  1  0  0  0  0
  1 21  1  0  0  0  0
  2  3  2  0  0  0  0
  2  4  1  0  0  0  0
  4  5  1  0  0  0  0
  4 22  1  0  0  0  0
  4 23  1  0  0  0  0
  5 20  1  0  0  0  0
  5  6  1  0  0  0  0
  5 39  1  0  0  0  0
  6  7  1  0  0  0  0
  6 24  1  0  0  0  0
  6 25  1  0  0  0  0
  7  8  1  0  0  0  0
  7 26  1  0  0  0  0
  7 27  1  0  0  0  0
  8  9  1  0  0  0  0
  8 19  1  0  0  0  0
  8 28  1  0  0  0  0
  9 10  1  0  0  0  0
  9 29  1  0  0  0  0
 10 11  2  0  0  0  0
 10 12  1  0  0  0  0
 12 13  1  0  0  0  0
 12 30  1  0  0  0  0
 13 18  1  0  0  0  0
 13 14  2  0  0  0  0
 14 15  1  0  0  0  0
 14 31  1  0  0  0  0
 15 16  2  0  0  0  0
 15 32  1  0  0  0  0
 16 17  1  0  0  0  0
 16 40  1  0  0  0  0
 17 18  2  0  0  0  0
 17 33  1  0  0  0  0
 18 34  1  0  0  0  0
 19 20  1  0  0  0  0
 19 35  1  0  0  0  0
 19 36  1  0  0  0  0
 20 37  1  0  0  0  0
 20 38  1  0  0  0  0
M  CHG  1   1  -1
M  CHG  1   5   1
M  CHG  1  16   1
M  END
> <s_m_source_file>
AV-unprocessed.smi

> <i_m_source_file_index>
1410

> <i_lp_mmshare_version>
43012

> <i_f3d_flags>
0

> <s_epik_input>
W05IMl1DKD1PKVtDSDJdTjFbQ0gyXVtDSDJdW0NIXShbQ0gyXVtDSDJdMSlbTkhdQyg9TylbTkhdYzJbY0hdW2NIXW5bY0hdW2NIXTI=

> <s_epik_cmdline>
J2VwaWtfcHl0aG9uJywgJy1waCcsICc3LjAnLCAnLXRuJywgJzgnLCAnLW1hJywgJzIwMCcsICctbWV0YWxfYmluZGluZycsICctaW1hZScsICc8aW5maWxlLm1hZT4nLCAnLW9tYWUnLCAnPG91dGZpbGUubWFlPic=

> <r_epik_Ionization_Penalty>
6.84067

> <r_epik_Ionization_Penalty_Charging>
6.84065

> <r_epik_Ionization_Penalty_Neutral>
1.84563e-05

> <r_epik_State_Penalty>
7.68217

> <r_epik_Charging_Adjusted_Penalty>
14.5228

> <i_epik_Tot_Q>
1

> <i_epik_Tot_abs_Q>
3

> <r_epik_Metal_State_Penalty>
3.74331

> <b_epik_Metal_Only>
1

> <s_lp_Force_Field>
OPLS_2005

> <r_lp_Energy>
20.5434

> <b_lp_Chiralities_Consistent>
1

> <s_lp_Variant>
AV-unprocessed.smi:1410-10

> <Gold.Version>
5.8.1

> <Gold.Id.Protein>
6NUR|6NUR_protein|mol2

> <Gold.PLP.Fitness>
46.6141

> <Gold.PLP.PLP>
-33.5968

> <Gold.PLP.part.hbond>
-5.0000

> <Gold.PLP.part.metal>
0.0000

> <Gold.PLP.part.buried>
-5.1497

> <Gold.PLP.part.nonpolar>
-24.0284

> <Gold.PLP.part.repulsive>
0.3686

> <Gold.PLP.ligand.clash>
0.0000

> <Gold.PLP.ligand.torsion>
0.4528

> <Gold.PLP.Chemscore.Hbond>
4.6306

> <Gold.PLP.Chemscore.CHOScore>
0.0000

> <Gold.PLP.Chemscore.Metal>
0.0000

> <Gold.Chemscore.Hbonds>
donor molecule, donor type, donor heavy atom, donor atom, acceptor molecule, acceptor atom, score
      L1  H     1    21       P1 10174  0.66
      L1  H     5    39       P1 10175  0.49
      L1  H     9    29       P1  8028  0.51
      L1  H    12    30       P1  8028  0.70

> <Gold.PLP.Chemscore.Internal.Correction>
0.0310

> <Gold.Rescore>
     Score         DG    S(hbond)    S(metal)    S(lipo)     H(rot)  DE(clash)    DE(int)     intcor
     18.53     -21.58       3.36        0.00      84.69       1.96       1.30       1.76       ----

> <Gold.Chemscore.Fitness>
18.5266

> <Gold.Chemscore.DG>
-21.5838

> <Gold.Chemscore.ZeroCoef>
-5.4800

> <Gold.Chemscore.Hbond>
3.3582

> <Gold.Chemscore.Metal>
0.0000

> <Gold.Chemscore.Lipo>
84.6852

> <Gold.Chemscore.Internal_Hbond>
0.0000

> <Gold.Chemscore.DEClash>
1.2996

> <Gold.Chemscore.DEInternal>
1.7577

> <Gold.Chemscore.Rot>
1.9612

> <Gold.Chemscore.Internal.Correction>
   9.000000E+99

> <Gold.Chemscore.Hbonds>
donor molecule, donor type, donor heavy atom, donor atom, acceptor molecule, acceptor atom, score
      L1  H     1    21       P1 10174  0.45
      L1  H     5    39       P1 10175  0.03
      L1  H     9    29       P1  8028  0.49
      L1  H    12    30       P1  8028  0.70

> <Gold.Chemscore.Hbond.Weighted>
-11.2164

> <Gold.Chemscore.Metal.Weighted>
-0.0000

> <Gold.Chemscore.Lipo.Weighted>
-9.9082

> <Gold.Chemscore.Internal_Hbond.Weighted>
0.0000

> <Gold.Chemscore.DEClash.Weighted>
1.2996

> <Gold.Chemscore.DEInternal.Weighted>
1.7577

> <Gold.Chemscore.Rot.Weighted>
5.0208

> <Gold.Chemscore.Internal.Correction.Weighted>
   9.000000E+99

> <Gold.Protein.RotatedTorsions>
[ 6907 6896 6895 6894 ] final    2.18 input  -60.11 | X-H torsion
[ 7974 7965 7964 7962 ] final  158.41 input  175.53 | X-H torsion
[ 8008 7997 7996 7995 ] final  -11.78 input   59.86 | X-H torsion
[ 10167 10162 10161 10158 ] final  -12.01 input  -65.29 | X-H torsion
[ 10718 10713 10712 10709 ] final -176.12 input   66.30 | X-H torsion
[ 10763 10752 10751 10750 ] final -119.74 input  -60.55 | X-H torsion
[ 11005 11000 10999 10996 ] final   17.25 input  -57.11 | X-H torsion

> <Gold.Protein.ActiveResidues>
 VAL166  LYS551  ARG553  GLY616  TRP617  ASP618  TYR619  PRO620  LYS621  CYS622 
 ASP623  PHE694  ASN695  SER759  ASP760  ASP761  ALA762  ILE779  LEU786  VAL792 
 PHE793  MET794  SER795  GLU796  ALA797  LYS798  CYS799  TRP800  GLU811  SER814 

> <Gold.Protein.RotatedAtoms>
  151.6046  135.1045  160.0067 H   0  0  0  0  0  0  0  0  0  0  0  0  # atno 6907 bound_to 6896
  152.4240  133.7159  159.6516 H   0  0  0  0  0  0  0  0  0  0  0  0  # atno 6908 bound_to 6896
  150.8128  133.8318  159.3196 H   0  0  0  0  0  0  0  0  0  0  0  0  # atno 6909 bound_to 6896
  144.7847  139.7474  143.6245 H   0  0  0  0  0  0  0  0  0  0  0  0  # atno 7974 bound_to 7965
  154.5435  140.2293  155.8602 H   0  0  0  0  0  0  0  0  0  0  0  0  # atno 8008 bound_to 7997
  156.1880  140.3084  155.9239 H   0  0  0  0  0  0  0  0  0  0  0  0  # atno 8009 bound_to 7997
  155.3211  140.0440  157.3030 H   0  0  0  0  0  0  0  0  0  0  0  0  # atno 8010 bound_to 7997
  140.7152  143.5578  150.9229 H   0  0  0  0  0  0  0  0  0  0  0  0  # atno 10167 bound_to 10162
  156.8099  130.9582  151.3116 H   0  0  0  0  0  0  0  0  0  0  0  0  # atno 10718 bound_to 10713
  154.8625  135.4227  154.2347 H   0  0  0  0  0  0  0  0  0  0  0  0  # atno 10763 bound_to 10752
  153.3325  135.6989  153.6941 H   0  0  0  0  0  0  0  0  0  0  0  0  # atno 10764 bound_to 10752
  153.5952  135.3547  155.2899 H   0  0  0  0  0  0  0  0  0  0  0  0  # atno 10765 bound_to 10752
  140.4380  134.1351  155.7687 H   0  0  0  0  0  0  0  0  0  0  0  0  # atno 11005 bound_to 11000
  146.2073  139.5406  142.9704 LP  0  0  0  0  0  0  0  0  0  0  0  0  # atno 17320 bound_to 7965
  145.5953  141.0363  143.2048 LP  0  0  0  0  0  0  0  0  0  0  0  0  # atno 17321 bound_to 7965
  139.9303  143.6501  152.3078 LP  0  0  0  0  0  0  0  0  0  0  0  0  # atno 17342 bound_to 10162
  139.6950  144.7642  151.1373 LP  0  0  0  0  0  0  0  0  0  0  0  0  # atno 17343 bound_to 10162
  157.6511  130.8885  149.9635 LP  0  0  0  0  0  0  0  0  0  0  0  0  # atno 17370 bound_to 10713
  156.1051  130.3653  150.0149 LP  0  0  0  0  0  0  0  0  0  0  0  0  # atno 17371 bound_to 10713
  141.1717  133.8595  157.1548 LP  0  0  0  0  0  0  0  0  0  0  0  0  # atno 17394 bound_to 11000
  140.0089  134.9997  157.0352 LP  0  0  0  0  0  0  0  0  0  0  0  0  # atno 17395 bound_to 11000

$$$$
