AV-unprocessed.smi:20|AV-procd|sdf|116|dock8
  -GOLD-   2262015283D 1   1.00000     0.00000
 Structure written by MMmdl.
 57 61  0  0  0  0  0  0  0  0  1 V2000
  145.7777  132.8763  151.6235 O   0  0  0  0  0  0  0  0  0  0  0  0
  145.7186  134.1036  151.6277 C   0  0  0  0  0  0  0  0  0  0  0  0
  145.6398  134.9408  152.8929 C   0  0  0  0  0  0  0  0  0  0  0  0
  145.2090  136.3345  152.3754 C   0  0  1  0  0  0  0  0  0  0  0  0
  143.6695  136.5243  152.4424 C   0  0  0  0  0  0  0  0  0  0  0  0
  143.1691  136.7180  153.8849 C   0  0  0  0  0  0  0  0  0  0  0  0
  143.9384  137.8421  154.5936 C   0  0  0  0  0  0  0  0  0  0  0  0
  145.3808  137.6181  154.5006 N   0  0  0  0  0  0  0  0  0  0  0  0
  146.1869  138.2950  155.3578 C   0  0  0  0  0  0  0  0  0  0  0  0
  145.9385  138.2580  156.6947 N   0  0  0  0  0  0  0  0  0  0  0  0
  146.7194  138.9292  157.5461 C   0  0  0  0  0  0  0  0  0  0  0  0
  147.7859  139.6855  157.2808 N   0  0  0  0  0  0  0  0  0  0  0  0
  148.0470  139.7199  155.9429 C   0  0  0  0  0  0  0  0  0  0  0  0
  147.3058  139.0603  154.9217 C   0  0  0  0  0  0  0  0  0  0  0  0
  147.8781  139.3192  153.6815 N   0  0  0  0  0  0  0  0  0  0  0  0
  148.8918  140.0948  153.9530 C   0  0  0  0  0  0  0  0  0  0  0  0
  149.0764  140.3740  155.2883 N   0  0  0  0  0  0  0  0  0  0  0  0
  150.1150  141.2108  155.8645 C   0  0  0  0  0  0  0  0  0  0  0  0
  150.8605  140.5689  157.0630 C   0  0  1  0  0  0  0  0  0  0  0  0
  151.6259  139.3145  156.5804 C   0  0  0  0  0  0  0  0  0  0  0  0
  152.6886  139.6524  155.7119 O   0  0  0  0  0  0  0  0  0  0  0  0
  151.7759  141.5567  157.8434 C   0  0  2  0  0  0  0  0  0  0  0  0
  152.3709  140.9927  159.1241 C   0  0  0  0  0  0  0  0  0  0  0  0
  152.7944  142.2532  159.8631 C   0  0  0  0  0  0  0  0  0  0  0  0
  151.7596  143.1851  159.5900 O   0  0  0  0  0  0  0  0  0  0  0  0
  151.0921  142.8235  158.3837 C   0  0  0  0  0  0  0  0  0  0  0  0
  145.8971  137.4890  153.1381 C   0  0  0  0  0  0  0  0  0  0  0  0
  145.6635  136.2985  150.8967 C   0  0  0  0  0  0  0  0  0  0  0  0
  145.7147  134.8904  150.5547 N   0  0  0  0  0  0  0  0  0  0  0  0
  144.9483  134.5061  153.6138 H   0  0  0  0  0  0  0  0  0  0  0  0
  146.6299  134.9689  153.3497 H   0  0  0  0  0  0  0  0  0  0  0  0
  143.3880  137.4049  151.8634 H   0  0  0  0  0  0  0  0  0  0  0  0
  143.1537  135.6815  151.9806 H   0  0  0  0  0  0  0  0  0  0  0  0
  142.1031  136.9462  153.8809 H   0  0  0  0  0  0  0  0  0  0  0  0
  143.2777  135.7921  154.4492 H   0  0  0  0  0  0  0  0  0  0  0  0
  143.6947  138.8040  154.1401 H   0  0  0  0  0  0  0  0  0  0  0  0
  143.6273  137.8884  155.6381 H   0  0  0  0  0  0  0  0  0  0  0  0
  146.4516  138.8485  158.5893 H   0  0  0  0  0  0  0  0  0  0  0  0
  149.5420  140.4816  153.1820 H   0  0  0  0  0  0  0  0  0  0  0  0
  150.8207  141.4363  155.0642 H   0  0  0  0  0  0  0  0  0  0  0  0
  149.6781  142.1652  156.1603 H   0  0  0  0  0  0  0  0  0  0  0  0
  150.1060  140.2028  157.7605 H   0  0  0  0  0  0  0  0  0  0  0  0
  152.0256  138.7493  157.4222 H   0  0  0  0  0  0  0  0  0  0  0  0
  150.9519  138.6365  156.0558 H   0  0  0  0  0  0  0  0  0  0  0  0
  152.4542  139.3932  154.8337 H   0  0  0  0  0  0  0  0  0  0  0  0
  152.6017  141.8640  157.1994 H   0  0  0  0  0  0  0  0  0  0  0  0
  151.6112  140.4607  159.6988 H   0  0  0  0  0  0  0  0  0  0  0  0
  153.2073  140.3153  158.9489 H   0  0  0  0  0  0  0  0  0  0  0  0
  152.9201  142.0934  160.9341 H   0  0  0  0  0  0  0  0  0  0  0  0
  153.7333  142.6359  159.4602 H   0  0  0  0  0  0  0  0  0  0  0  0
  151.1385  143.6471  157.6724 H   0  0  0  0  0  0  0  0  0  0  0  0
  150.0442  142.6395  158.6223 H   0  0  0  0  0  0  0  0  0  0  0  0
  146.9768  137.3431  153.1296 H   0  0  0  0  0  0  0  0  0  0  0  0
  145.7153  138.4307  152.6182 H   0  0  0  0  0  0  0  0  0  0  0  0
  144.9949  136.8428  150.2290 H   0  0  0  0  0  0  0  0  0  0  0  0
  146.6648  136.7146  150.7749 H   0  0  0  0  0  0  0  0  0  0  0  0
  145.7619  134.5577  149.6024 H   0  0  0  0  0  0  0  0  0  0  0  0
  1  2  2  0  0  0  0
  2 29  1  0  0  0  0
  2  3  1  0  0  0  0
  3  4  1  0  0  0  0
  3 30  1  0  0  0  0
  3 31  1  0  0  0  0
  4 27  1  0  0  0  0
  4  5  1  0  0  0  0
  4 28  1  0  0  0  0
  5  6  1  0  0  0  0
  5 32  1  0  0  0  0
  5 33  1  0  0  0  0
  6  7  1  0  0  0  0
  6 34  1  0  0  0  0
  6 35  1  0  0  0  0
  7  8  1  0  0  0  0
  7 36  1  0  0  0  0
  7 37  1  0  0  0  0
  8  9  1  0  0  0  0
  8 27  1  0  0  0  0
  9 14  1  0  0  0  0
  9 10  2  0  0  0  0
 10 11  1  0  0  0  0
 11 12  2  0  0  0  0
 11 38  1  0  0  0  0
 12 13  1  0  0  0  0
 13 17  1  0  0  0  0
 13 14  2  0  0  0  0
 14 15  1  0  0  0  0
 15 16  2  0  0  0  0
 16 17  1  0  0  0  0
 16 39  1  0  0  0  0
 17 18  1  0  0  0  0
 18 19  1  0  0  0  0
 18 40  1  0  0  0  0
 18 41  1  0  0  0  0
 19 20  1  0  0  0  0
 19 22  1  0  0  0  0
 19 42  1  0  0  0  0
 20 21  1  0  0  0  0
 20 43  1  0  0  0  0
 20 44  1  0  0  0  0
 21 45  1  0  0  0  0
 22 26  1  0  0  0  0
 22 23  1  0  0  0  0
 22 46  1  0  0  0  0
 23 24  1  0  0  0  0
 23 47  1  0  0  0  0
 23 48  1  0  0  0  0
 24 25  1  0  0  0  0
 24 49  1  0  0  0  0
 24 50  1  0  0  0  0
 25 26  1  0  0  0  0
 26 51  1  0  0  0  0
 26 52  1  0  0  0  0
 27 53  1  0  0  0  0
 27 54  1  0  0  0  0
 28 29  1  0  0  0  0
 28 55  1  0  0  0  0
 28 56  1  0  0  0  0
 29 57  1  0  0  0  0
M  END
> <s_m_source_file>
AV-unprocessed.smi

> <i_m_source_file_index>
20

> <i_lp_mmshare_version>
43012

> <i_f3d_flags>
0

> <s_epik_input>
W0NIMl0xW05IXUMoPU8pW0NIMl1bQ0BAXTEyW0NIMl1bQ0gyXVtDSDJdTihbQ0gyXTIpYyhuW2NIXW4zKWMoYzM0KW5bY0hdbjRbQ0gyXVtDQEhdKFtDSDJdW09IXSlbQ0BASF01W0NIMl1bQ0gyXU9bQ0gyXTU=

> <s_epik_cmdline>
J2VwaWtfcHl0aG9uJywgJy1waCcsICc3LjAnLCAnLXRuJywgJzgnLCAnLW1hJywgJzIwMCcsICctbWV0YWxfYmluZGluZycsICctaW1hZScsICc8aW5maWxlLm1hZT4nLCAnLW9tYWUnLCAnPG91dGZpbGUubWFlPic=

> <r_lp_tautomer_probability>
1

> <r_epik_Ionization_Penalty>
0.0019697

> <r_epik_Ionization_Penalty_Charging>
0

> <r_epik_Ionization_Penalty_Neutral>
0.0019697

> <r_epik_State_Penalty>
0.00113613

> <r_epik_Charging_Adjusted_Penalty>
0.00113613

> <i_epik_Tot_Q>
0

> <i_epik_Tot_abs_Q>
0

> <r_epik_Metal_State_Penalty>
-0

> <b_epik_Metal_Only>
0

> <s_lp_Force_Field>
OPLS_2005

> <r_lp_Energy>
60.744

> <b_lp_Chiralities_Consistent>
1

> <s_lp_Variant>
AV-unprocessed.smi:20-4

> <Gold.Version>
5.8.1

> <Gold.Id.Protein>
6NUR|6NUR_protein|mol2

> <Gold.PLP.Fitness>
42.0345

> <Gold.PLP.PLP>
-33.2815

> <Gold.PLP.part.hbond>
-2.0000

> <Gold.PLP.part.metal>
0.0000

> <Gold.PLP.part.buried>
-4.2151

> <Gold.PLP.part.nonpolar>
-28.2948

> <Gold.PLP.part.repulsive>
0.6383

> <Gold.PLP.ligand.clash>
0.0000

> <Gold.PLP.ligand.torsion>
0.3776

> <Gold.PLP.Chemscore.Hbond>
2.0000

> <Gold.PLP.Chemscore.CHOScore>
0.9955

> <Gold.PLP.Chemscore.Metal>
0.0000

> <Gold.Chemscore.Hbonds>
donor molecule, donor type, donor heavy atom, donor atom, acceptor molecule, acceptor atom, score
      L1  H    29    57       P1  7921  1.00
      P1  H  7997  8008       L1    21  1.00
      L1  C    16    39       P1  7957  1.00

> <Gold.PLP.Chemscore.Internal.Correction>
0.5218

> <Gold.Rescore>
     Score         DG    S(hbond)    S(metal)    S(lipo)     H(rot)  DE(clash)    DE(int)     intcor
     12.02     -14.14       1.89        0.00      80.07       2.74       0.25       1.87       ----

> <Gold.Chemscore.Fitness>
12.0183

> <Gold.Chemscore.DG>
-14.1359

> <Gold.Chemscore.ZeroCoef>
-5.4800

> <Gold.Chemscore.Hbond>
1.8880

> <Gold.Chemscore.Metal>
0.0000

> <Gold.Chemscore.Lipo>
80.0712

> <Gold.Chemscore.Internal_Hbond>
0.0000

> <Gold.Chemscore.DEClash>
0.2468

> <Gold.Chemscore.DEInternal>
1.8708

> <Gold.Chemscore.Rot>
2.7415

> <Gold.Chemscore.Internal.Correction>
   9.000000E+99

> <Gold.Chemscore.Hbonds>
donor molecule, donor type, donor heavy atom, donor atom, acceptor molecule, acceptor atom, score
      L1  H    29    57       P1  7921  0.75
      P1  H  7997  8008       L1    21  0.99

> <Gold.Chemscore.Hbond.Weighted>
-6.3058

> <Gold.Chemscore.Metal.Weighted>
-0.0000

> <Gold.Chemscore.Lipo.Weighted>
-9.3683

> <Gold.Chemscore.Internal_Hbond.Weighted>
0.0000

> <Gold.Chemscore.DEClash.Weighted>
0.2468

> <Gold.Chemscore.DEInternal.Weighted>
1.8708

> <Gold.Chemscore.Rot.Weighted>
7.0182

> <Gold.Chemscore.Internal.Correction.Weighted>
   9.000000E+99

> <Gold.Protein.RotatedTorsions>
[ 6907 6896 6895 6894 ] final  160.84 input  -60.11 | X-H torsion
[ 7974 7965 7964 7962 ] final   68.01 input  175.53 | X-H torsion
[ 8008 7997 7996 7995 ] final  -41.53 input   59.86 | X-H torsion
[ 10167 10162 10161 10158 ] final  153.95 input  -65.29 | X-H torsion
[ 10718 10713 10712 10709 ] final  -41.38 input   66.30 | X-H torsion
[ 10763 10752 10751 10750 ] final   60.20 input  -60.55 | X-H torsion
[ 11005 11000 10999 10996 ] final -165.98 input  -57.11 | X-H torsion

> <Gold.Protein.ActiveResidues>
 VAL166  LYS551  ARG553  GLY616  TRP617  ASP618  TYR619  PRO620  LYS621  CYS622 
 ASP623  PHE694  ASN695  SER759  ASP760  ASP761  ALA762  ILE779  LEU786  VAL792 
 PHE793  MET794  SER795  GLU796  ALA797  LYS798  CYS799  TRP800  GLU811  SER814 

> <Gold.Protein.RotatedAtoms>
  151.9647  133.3706  159.4048 H   0  0  0  0  0  0  0  0  0  0  0  0  # atno 6907 bound_to 6896
  150.6958  134.4204  159.5211 H   0  0  0  0  0  0  0  0  0  0  0  0  # atno 6908 bound_to 6896
  152.1898  134.8682  160.0569 H   0  0  0  0  0  0  0  0  0  0  0  0  # atno 6909 bound_to 6896
  145.8077  139.3016  143.1117 H   0  0  0  0  0  0  0  0  0  0  0  0  # atno 7974 bound_to 7965
  154.4003  140.1497  156.3206 H   0  0  0  0  0  0  0  0  0  0  0  0  # atno 8008 bound_to 7997
  155.8533  140.3457  155.5686 H   0  0  0  0  0  0  0  0  0  0  0  0  # atno 8009 bound_to 7997
  155.7960  140.0863  157.1973 H   0  0  0  0  0  0  0  0  0  0  0  0  # atno 8010 bound_to 7997
  139.4825  144.5229  151.7847 H   0  0  0  0  0  0  0  0  0  0  0  0  # atno 10167 bound_to 10162
  156.2710  130.4207  149.8438 H   0  0  0  0  0  0  0  0  0  0  0  0  # atno 10718 bound_to 10713
  152.9914  135.5544  154.5836 H   0  0  0  0  0  0  0  0  0  0  0  0  # atno 10763 bound_to 10752
  154.5212  135.2808  155.1263 H   0  0  0  0  0  0  0  0  0  0  0  0  # atno 10764 bound_to 10752
  154.2616  135.6380  153.5329 H   0  0  0  0  0  0  0  0  0  0  0  0  # atno 10765 bound_to 10752
  140.5696  134.5251  157.5159 H   0  0  0  0  0  0  0  0  0  0  0  0  # atno 11005 bound_to 11000
  145.9810  140.8682  143.0114 LP  0  0  0  0  0  0  0  0  0  0  0  0  # atno 17320 bound_to 7965
  144.6761  140.2080  143.7380 LP  0  0  0  0  0  0  0  0  0  0  0  0  # atno 17321 bound_to 7965
  140.4745  144.1539  150.5923 LP  0  0  0  0  0  0  0  0  0  0  0  0  # atno 17342 bound_to 10162
  140.4346  143.2553  151.9552 LP  0  0  0  0  0  0  0  0  0  0  0  0  # atno 17343 bound_to 10162
  156.5919  130.8510  151.3410 LP  0  0  0  0  0  0  0  0  0  0  0  0  # atno 17370 bound_to 10713
  157.7284  130.9656  150.1740 LP  0  0  0  0  0  0  0  0  0  0  0  0  # atno 17371 bound_to 10713
  139.9368  134.7860  156.0782 LP  0  0  0  0  0  0  0  0  0  0  0  0  # atno 17394 bound_to 11000
  141.1064  133.6658  156.2874 LP  0  0  0  0  0  0  0  0  0  0  0  0  # atno 17395 bound_to 11000

$$$$
