AV-unprocessed.smi:1244|AV-procd|sdf|5231|dock1
  -GOLD-   22720 4333D 1   1.00000     0.00000
 Structure written by MMmdl.
 56 58  0  0  0  0  0  0  0  0  3 V2000
  149.0328  141.8603  157.8683 C   0  0  0  0  0  0  0  0  0  0  0  0
  150.4206  142.0750  157.2377 C   0  0  2  0  0  0  0  0  0  0  0  0
  150.6085  141.3406  155.8953 C   0  0  0  0  0  0  0  0  0  0  0  0
  150.7726  139.8815  156.0990 N   0  3  1  0  0  0  0  0  0  0  0  0
  150.8884  139.1403  154.8182 C   0  0  0  0  0  0  0  0  0  0  0  0
  151.4045  137.7023  155.0176 C   0  0  0  0  0  0  0  0  0  0  0  0
  150.4948  136.7171  154.4443 N   0  0  0  0  0  0  0  0  0  0  0  0
  150.6058  135.3901  154.5989 C   0  0  0  0  0  0  0  0  0  0  0  0
  151.4800  134.8574  155.2823 O   0  0  0  0  0  0  0  0  0  0  0  0
  149.6621  134.7353  153.9017 N   0  0  0  0  0  0  0  0  0  0  0  0
  149.5045  133.3278  153.7531 C   0  0  0  0  0  0  0  0  0  0  0  0
  150.3176  132.4171  154.4757 C   0  0  0  0  0  0  0  0  0  0  0  0
  150.1556  131.0310  154.2924 C   0  0  0  0  0  0  0  0  0  0  0  0
  149.1791  130.5742  153.3912 C   0  0  0  0  0  0  0  0  0  0  0  0
  148.4078  131.4642  152.7337 N   0  3  0  0  0  0  0  0  0  0  0  0
  148.5048  132.8096  152.8785 C   0  0  0  0  0  0  0  0  0  0  0  0
  147.6184  133.6181  152.1310 N   0  0  0  0  0  0  0  0  0  0  0  0
  146.9560  133.0876  150.9450 C   0  0  0  0  0  0  0  0  0  0  0  0
  145.8508  134.0910  150.6272 C   0  0  0  0  0  0  0  0  0  0  0  0
  145.4122  134.5451  152.0163 C   0  0  0  0  0  0  0  0  0  0  0  0
  146.7070  134.5141  152.8357 C   0  0  0  0  0  0  0  0  0  0  0  0
  151.8861  139.6187  157.0419 C   0  0  0  0  0  0  0  0  0  0  0  0
  151.6425  140.3459  158.3763 C   0  0  1  0  0  0  0  0  0  0  0  0
  152.8131  140.1688  159.3497 C   0  0  0  0  0  0  0  0  0  0  0  0
  151.4798  141.7410  158.1347 O   0  0  0  0  0  0  0  0  0  0  0  0
  148.2483  142.2475  157.2175 H   0  0  0  0  0  0  0  0  0  0  0  0
  148.9546  142.3823  158.8222 H   0  0  0  0  0  0  0  0  0  0  0  0
  148.8155  140.8072  158.0442 H   0  0  0  0  0  0  0  0  0  0  0  0
  150.5153  143.1443  157.0458 H   0  0  0  0  0  0  0  0  0  0  0  0
  149.7566  141.5380  155.2429 H   0  0  0  0  0  0  0  0  0  0  0  0
  151.4921  141.7284  155.3856 H   0  0  0  0  0  0  0  0  0  0  0  0
  149.9031  139.0907  154.3526 H   0  0  0  0  0  0  0  0  0  0  0  0
  151.5288  139.6907  154.1270 H   0  0  0  0  0  0  0  0  0  0  0  0
  152.3703  137.5655  154.5327 H   0  0  0  0  0  0  0  0  0  0  0  0
  151.5582  137.4956  156.0783 H   0  0  0  0  0  0  0  0  0  0  0  0
  149.7454  137.0711  153.8672 H   0  0  0  0  0  0  0  0  0  0  0  0
  149.0709  135.3038  153.3132 H   0  0  0  0  0  0  0  0  0  0  0  0
  151.0640  132.7621  155.1750 H   0  0  0  0  0  0  0  0  0  0  0  0
  150.7733  130.3297  154.8340 H   0  0  0  0  0  0  0  0  0  0  0  0
  148.9865  129.5317  153.1825 H   0  0  0  0  0  0  0  0  0  0  0  0
  147.6536  132.9766  150.1145 H   0  0  0  0  0  0  0  0  0  0  0  0
  146.5145  132.1132  151.1580 H   0  0  0  0  0  0  0  0  0  0  0  0
  146.2601  134.9356  150.0713 H   0  0  0  0  0  0  0  0  0  0  0  0
  145.0393  133.6593  150.0411 H   0  0  0  0  0  0  0  0  0  0  0  0
  144.9361  135.5258  152.0139 H   0  0  0  0  0  0  0  0  0  0  0  0
  144.7009  133.8278  152.4276 H   0  0  0  0  0  0  0  0  0  0  0  0
  146.5198  134.1892  153.8601 H   0  0  0  0  0  0  0  0  0  0  0  0
  147.1495  135.5101  152.8688 H   0  0  0  0  0  0  0  0  0  0  0  0
  151.9811  138.5501  157.2315 H   0  0  0  0  0  0  0  0  0  0  0  0
  152.8263  139.9485  156.5967 H   0  0  0  0  0  0  0  0  0  0  0  0
  150.7466  139.9465  158.8520 H   0  0  0  0  0  0  0  0  0  0  0  0
  152.9791  139.1157  159.5781 H   0  0  0  0  0  0  0  0  0  0  0  0
  152.6191  140.6852  160.2901 H   0  0  0  0  0  0  0  0  0  0  0  0
  153.7377  140.5708  158.9342 H   0  0  0  0  0  0  0  0  0  0  0  0
  149.9239  139.5609  156.5431 H   0  0  0  0  0  0  0  0  0  0  0  0
  147.7019  131.1007  152.0932 H   0  0  0  0  0  0  0  0  0  0  0  0
  1  2  1  0  0  0  0
  1 26  1  0  0  0  0
  1 27  1  0  0  0  0
  1 28  1  0  0  0  0
  2 25  1  0  0  0  0
  2  3  1  0  0  0  0
  2 29  1  0  0  0  0
  3  4  1  0  0  0  0
  3 30  1  0  0  0  0
  3 31  1  0  0  0  0
  4  5  1  0  0  0  0
  4 22  1  0  0  0  0
  4 55  1  0  0  0  0
  5  6  1  0  0  0  0
  5 32  1  0  0  0  0
  5 33  1  0  0  0  0
  6  7  1  0  0  0  0
  6 34  1  0  0  0  0
  6 35  1  0  0  0  0
  7  8  1  0  0  0  0
  7 36  1  0  0  0  0
  8  9  2  0  0  0  0
  8 10  1  0  0  0  0
 10 11  1  0  0  0  0
 10 37  1  0  0  0  0
 11 16  1  0  0  0  0
 11 12  2  0  0  0  0
 12 13  1  0  0  0  0
 12 38  1  0  0  0  0
 13 14  2  0  0  0  0
 13 39  1  0  0  0  0
 14 15  1  0  0  0  0
 14 40  1  0  0  0  0
 15 16  2  0  0  0  0
 15 56  1  0  0  0  0
 16 17  1  0  0  0  0
 17 21  1  0  0  0  0
 17 18  1  0  0  0  0
 18 19  1  0  0  0  0
 18 41  1  0  0  0  0
 18 42  1  0  0  0  0
 19 20  1  0  0  0  0
 19 43  1  0  0  0  0
 19 44  1  0  0  0  0
 20 21  1  0  0  0  0
 20 45  1  0  0  0  0
 20 46  1  0  0  0  0
 21 47  1  0  0  0  0
 21 48  1  0  0  0  0
 22 23  1  0  0  0  0
 22 49  1  0  0  0  0
 22 50  1  0  0  0  0
 23 24  1  0  0  0  0
 23 25  1  0  0  0  0
 23 51  1  0  0  0  0
 24 52  1  0  0  0  0
 24 53  1  0  0  0  0
 24 54  1  0  0  0  0
M  CHG  1   4   1
M  CHG  1  15   1
M  END
> <s_m_source_file>
AV-unprocessed.smi

> <i_m_source_file_index>
1244

> <i_lp_mmshare_version>
43012

> <i_f3d_flags>
0

> <s_epik_input>
W0NIM11bQ0BASF0xW0NIMl1OKFtDSDJdW0NASF0oTzEpW0NIM10pW0NIMl1bQ0gyXVtOSF1DKD1PKVtOSF1jMltjSF1bY0hdW2NIXW5jMk4zW0NIMl1bQ0gyXVtDSDJdW0NIMl0z

> <s_epik_cmdline>
J2VwaWtfcHl0aG9uJywgJy1waCcsICc3LjAnLCAnLXRuJywgJzgnLCAnLW1hJywgJzIwMCcsICctbWV0YWxfYmluZGluZycsICctaW1hZScsICc8aW5maWxlLm1hZT4nLCAnLW9tYWUnLCAnPG91dGZpbGUubWFlPic=

> <r_lp_tautomer_probability>
0.999994

> <r_epik_Ionization_Penalty>
1.81601

> <r_epik_Ionization_Penalty_Charging>
1.81599

> <r_epik_Ionization_Penalty_Neutral>
2.01972e-05

> <r_epik_State_Penalty>
1.85672

> <r_epik_Charging_Adjusted_Penalty>
3.6727

> <i_epik_Tot_Q>
2

> <i_epik_Tot_abs_Q>
2

> <r_epik_Metal_State_Penalty>
1.93796

> <b_epik_Metal_Only>
0

> <s_lp_Force_Field>
OPLS_2005

> <r_lp_Energy>
54.4997

> <b_lp_Chiralities_Consistent>
1

> <s_lp_Variant>
AV-unprocessed.smi:1244-11

> <Gold.Version>
5.8.1

> <Gold.Id.Protein>
6NUR|6NUR_protein|mol2

> <Gold.PLP.Fitness>
45.6021

> <Gold.PLP.PLP>
-41.5939

> <Gold.PLP.part.hbond>
-4.1728

> <Gold.PLP.part.metal>
0.0000

> <Gold.PLP.part.buried>
-2.9797

> <Gold.PLP.part.nonpolar>
-34.8605

> <Gold.PLP.part.repulsive>
0.8295

> <Gold.PLP.ligand.clash>
0.0000

> <Gold.PLP.ligand.torsion>
0.8495

> <Gold.PLP.Chemscore.Hbond>
1.7456

> <Gold.PLP.Chemscore.CHOScore>
0.0000

> <Gold.PLP.Chemscore.Metal>
0.0000

> <Gold.Chemscore.Hbonds>
donor molecule, donor type, donor heavy atom, donor atom, acceptor molecule, acceptor atom, score
      L1  H     7    36       P1  7948  0.20
      L1  H    10    37       P1  7948  0.90
      P1  H 10752 10765       L1     9  0.72

> <Gold.PLP.Chemscore.Internal.Correction>
0.4704

> <Gold.Rescore>
     Score         DG    S(hbond)    S(metal)    S(lipo)     H(rot)  DE(clash)    DE(int)     intcor
     14.36     -16.55       1.33        0.00      92.41       1.63       0.08       2.11       ----

> <Gold.Chemscore.Fitness>
14.3605

> <Gold.Chemscore.DG>
-16.5513

> <Gold.Chemscore.ZeroCoef>
-5.4800

> <Gold.Chemscore.Hbond>
1.3263

> <Gold.Chemscore.Metal>
0.0000

> <Gold.Chemscore.Lipo>
92.4114

> <Gold.Chemscore.Internal_Hbond>
0.0000

> <Gold.Chemscore.DEClash>
0.0807

> <Gold.Chemscore.DEInternal>
2.1100

> <Gold.Chemscore.Rot>
1.6293

> <Gold.Chemscore.Internal.Correction>
   9.000000E+99

> <Gold.Chemscore.Hbonds>
donor molecule, donor type, donor heavy atom, donor atom, acceptor molecule, acceptor atom, score
      L1  H     7    36       P1  7948  0.16
      L1  H    10    37       P1  7948  0.35
      L1  H    15    56       P1 10747  0.02
      P1  H 10752 10765       L1     9  0.56

> <Gold.Chemscore.Hbond.Weighted>
-4.4300

> <Gold.Chemscore.Metal.Weighted>
-0.0000

> <Gold.Chemscore.Lipo.Weighted>
-10.8121

> <Gold.Chemscore.Internal_Hbond.Weighted>
0.0000

> <Gold.Chemscore.DEClash.Weighted>
0.0807

> <Gold.Chemscore.DEInternal.Weighted>
2.1100

> <Gold.Chemscore.Rot.Weighted>
4.1709

> <Gold.Chemscore.Internal.Correction.Weighted>
   9.000000E+99

> <Gold.Protein.RotatedTorsions>
[ 6907 6896 6895 6894 ] final  178.18 input  -60.11 | X-H torsion
[ 7974 7965 7964 7962 ] final   49.98 input  175.53 | X-H torsion
[ 8008 7997 7996 7995 ] final  -69.27 input   59.86 | X-H torsion
[ 10167 10162 10161 10158 ] final    5.64 input  -65.29 | X-H torsion
[ 10718 10713 10712 10709 ] final   41.30 input   66.30 | X-H torsion
[ 10763 10752 10751 10750 ] final -160.14 input  -60.55 | X-H torsion
[ 11005 11000 10999 10996 ] final  139.00 input  -57.11 | X-H torsion

> <Gold.Protein.ActiveResidues>
 VAL166  LYS551  ARG553  GLY616  TRP617  ASP618  TYR619  PRO620  LYS621  CYS622 
 ASP623  PHE694  ASN695  SER759  ASP760  ASP761  ALA762  ILE779  LEU786  VAL792 
 PHE793  MET794  SER795  GLU796  ALA797  LYS798  CYS799  TRP800  GLU811  SER814 

> <Gold.Protein.RotatedAtoms>
  151.6919  133.3311  159.3244 H   0  0  0  0  0  0  0  0  0  0  0  0  # atno 6907 bound_to 6896
  150.7775  134.6691  159.6391 H   0  0  0  0  0  0  0  0  0  0  0  0  # atno 6908 bound_to 6896
  152.3822  134.6576  160.0191 H   0  0  0  0  0  0  0  0  0  0  0  0  # atno 6909 bound_to 6896
  146.0056  139.4487  142.9988 H   0  0  0  0  0  0  0  0  0  0  0  0  # atno 7974 bound_to 7965
  154.4927  140.0856  156.7629 H   0  0  0  0  0  0  0  0  0  0  0  0  # atno 8008 bound_to 7997
  155.4192  140.3445  155.4252 H   0  0  0  0  0  0  0  0  0  0  0  0  # atno 8009 bound_to 7997
  156.1351  140.1513  156.8994 H   0  0  0  0  0  0  0  0  0  0  0  0  # atno 8010 bound_to 7997
  140.6471  143.7636  150.7516 H   0  0  0  0  0  0  0  0  0  0  0  0  # atno 10167 bound_to 10162
  157.3921  130.7812  149.7277 H   0  0  0  0  0  0  0  0  0  0  0  0  # atno 10718 bound_to 10713
  154.7416  135.3070  154.8719 H   0  0  0  0  0  0  0  0  0  0  0  0  # atno 10763 bound_to 10752
  153.9532  135.6761  153.4748 H   0  0  0  0  0  0  0  0  0  0  0  0  # atno 10764 bound_to 10752
  153.1014  135.4910  154.8798 H   0  0  0  0  0  0  0  0  0  0  0  0  # atno 10765 bound_to 10752
  140.0223  134.9391  157.0499 H   0  0  0  0  0  0  0  0  0  0  0  0  # atno 11005 bound_to 11000
  145.7420  141.0004  143.1296 LP  0  0  0  0  0  0  0  0  0  0  0  0  # atno 17320 bound_to 7965
  144.6934  139.9111  143.7463 LP  0  0  0  0  0  0  0  0  0  0  0  0  # atno 17321 bound_to 7965
  140.1279  143.4552  152.2273 LP  0  0  0  0  0  0  0  0  0  0  0  0  # atno 17342 bound_to 10162
  139.5682  144.7448  151.3963 LP  0  0  0  0  0  0  0  0  0  0  0  0  # atno 17343 bound_to 10162
  155.9801  130.4033  150.3549 LP  0  0  0  0  0  0  0  0  0  0  0  0  # atno 17370 bound_to 10713
  157.1667  131.0358  151.2815 LP  0  0  0  0  0  0  0  0  0  0  0  0  # atno 17371 bound_to 10713
  140.4366  134.1725  155.7171 LP  0  0  0  0  0  0  0  0  0  0  0  0  # atno 17394 bound_to 11000
  141.1781  133.8471  157.1351 LP  0  0  0  0  0  0  0  0  0  0  0  0  # atno 17395 bound_to 11000

$$$$
