AV-unprocessed.smi:1655|AV-procd|sdf|6645|dock4
  -GOLD-   22720 7343D 1   1.00000     0.00000
 Structure written by MMmdl.
 34 35  0  0  0  0  0  0  0  0  1 V2000
  151.0089  142.3445  156.3814 C   0  0  0  0  0  0  0  0  0  0  0  0
  150.7216  141.1428  155.5476 C   0  0  0  0  0  0  0  0  0  0  0  0
  149.5757  140.6533  154.9865 C   0  0  0  0  0  0  0  0  0  0  0  0
  150.0197  139.4764  154.3271 C   0  0  0  0  0  0  0  0  0  0  0  0
  149.1111  138.6590  153.6076 N   0  0  0  0  0  0  0  0  0  0  0  0
  147.7878  138.8395  153.4584 C   0  0  0  0  0  0  0  0  0  0  0  0
  147.1390  139.7683  153.9411 O   0  0  0  0  0  0  0  0  0  0  0  0
  147.2462  137.8713  152.7051 N   0  0  0  0  0  0  0  0  0  0  0  0
  145.8355  137.7786  152.3472 C   0  0  0  0  0  0  0  0  0  0  0  0
  145.6088  136.7930  151.1886 C   0  0  0  0  0  0  0  0  0  0  0  0
  144.7845  135.5667  151.6069 C   0  0  1  0  0  0  0  0  0  0  0  0
  144.4600  134.6145  150.4559 C   0  0  0  0  0  0  0  0  0  0  0  0
  144.3260  133.2570  151.1316 C   0  0  0  0  0  0  0  0  0  0  0  0
  144.8456  133.4900  152.5524 C   0  0  0  0  0  0  0  0  0  0  0  0
  145.5197  134.7381  152.4933 O   0  0  0  0  0  0  0  0  0  0  0  0
  151.3189  139.2657  154.4731 N   0  0  0  0  0  0  0  0  0  0  0  0
  151.7753  140.3325  155.2564 O   0  0  0  0  0  0  0  0  0  0  0  0
  150.2887  143.1377  156.1801 H   0  0  0  0  0  0  0  0  0  0  0  0
  152.0056  142.7340  156.1735 H   0  0  0  0  0  0  0  0  0  0  0  0
  150.9555  142.0998  157.4422 H   0  0  0  0  0  0  0  0  0  0  0  0
  148.5819  141.0722  155.0412 H   0  0  0  0  0  0  0  0  0  0  0  0
  149.5124  137.8513  153.1550 H   0  0  0  0  0  0  0  0  0  0  0  0
  147.8528  137.1466  152.3504 H   0  0  0  0  0  0  0  0  0  0  0  0
  145.2869  137.4482  153.2295 H   0  0  0  0  0  0  0  0  0  0  0  0
  145.4472  138.7663  152.0923 H   0  0  0  0  0  0  0  0  0  0  0  0
  145.0913  137.3040  150.3757 H   0  0  0  0  0  0  0  0  0  0  0  0
  146.5697  136.4691  150.7866 H   0  0  0  0  0  0  0  0  0  0  0  0
  143.8601  135.8788  152.0969 H   0  0  0  0  0  0  0  0  0  0  0  0
  143.5604  134.9090  149.9148 H   0  0  0  0  0  0  0  0  0  0  0  0
  145.2845  134.5846  149.7422 H   0  0  0  0  0  0  0  0  0  0  0  0
  143.2923  132.9103  151.1464 H   0  0  0  0  0  0  0  0  0  0  0  0
  144.9240  132.5096  150.6088 H   0  0  0  0  0  0  0  0  0  0  0  0
  144.0160  133.5649  153.2572 H   0  0  0  0  0  0  0  0  0  0  0  0
  145.5106  132.6959  152.8921 H   0  0  0  0  0  0  0  0  0  0  0  0
  1  2  1  0  0  0  0
  1 18  1  0  0  0  0
  1 19  1  0  0  0  0
  1 20  1  0  0  0  0
  2 17  1  0  0  0  0
  2  3  2  0  0  0  0
  3  4  1  0  0  0  0
  3 21  1  0  0  0  0
  4  5  1  0  0  0  0
  4 16  2  0  0  0  0
  5  6  1  0  0  0  0
  5 22  1  0  0  0  0
  6  7  2  0  0  0  0
  6  8  1  0  0  0  0
  8  9  1  0  0  0  0
  8 23  1  0  0  0  0
  9 10  1  0  0  0  0
  9 24  1  0  0  0  0
  9 25  1  0  0  0  0
 10 11  1  0  0  0  0
 10 26  1  0  0  0  0
 10 27  1  0  0  0  0
 11 15  1  0  0  0  0
 11 12  1  0  0  0  0
 11 28  1  0  0  0  0
 12 13  1  0  0  0  0
 12 29  1  0  0  0  0
 12 30  1  0  0  0  0
 13 14  1  0  0  0  0
 13 31  1  0  0  0  0
 13 32  1  0  0  0  0
 14 15  1  0  0  0  0
 14 33  1  0  0  0  0
 14 34  1  0  0  0  0
 16 17  1  0  0  0  0
M  END
> <s_m_source_file>
AV-unprocessed.smi

> <i_m_source_file_index>
1655

> <i_lp_mmshare_version>
43012

> <i_f3d_flags>
0

> <s_epik_input>
W0NIM11jMVtjSF1jKG5vMSlbTkhdQyg9TylbTkhdW0NIMl1bQ0gyXVtDQEBIXTJbQ0gyXVtDSDJdW0NIMl1PMg==

> <s_epik_cmdline>
J2VwaWtfcHl0aG9uJywgJy1waCcsICc3LjAnLCAnLXRuJywgJzgnLCAnLW1hJywgJzIwMCcsICctbWV0YWxfYmluZGluZycsICctaW1hZScsICc8aW5maWxlLm1hZT4nLCAnLW9tYWUnLCAnPG91dGZpbGUubWFlPic=

> <r_lp_tautomer_probability>
1

> <r_epik_Ionization_Penalty>
2.23964e-05

> <r_epik_Ionization_Penalty_Charging>
0

> <r_epik_Ionization_Penalty_Neutral>
2.23964e-05

> <r_epik_State_Penalty>
-0

> <r_epik_Charging_Adjusted_Penalty>
0

> <i_epik_Tot_Q>
0

> <i_epik_Tot_abs_Q>
0

> <r_epik_Metal_State_Penalty>
-0

> <b_epik_Metal_Only>
0

> <s_lp_Force_Field>
OPLS_2005

> <r_lp_Energy>
15.0992

> <b_lp_Chiralities_Consistent>
1

> <s_lp_Variant>
AV-unprocessed.smi:1655-2

> <Gold.Version>
5.8.1

> <Gold.Id.Protein>
6NUR|6NUR_protein|mol2

> <Gold.PLP.Fitness>
33.6094

> <Gold.PLP.PLP>
-29.2424

> <Gold.PLP.part.hbond>
-4.9714

> <Gold.PLP.part.metal>
0.0000

> <Gold.PLP.part.buried>
0.2357

> <Gold.PLP.part.nonpolar>
-24.9733

> <Gold.PLP.part.repulsive>
0.4833

> <Gold.PLP.ligand.clash>
0.0000

> <Gold.PLP.ligand.torsion>
0.4906

> <Gold.PLP.Chemscore.Hbond>
1.7775

> <Gold.PLP.Chemscore.CHOScore>
0.0000

> <Gold.PLP.Chemscore.Metal>
0.0000

> <Gold.Chemscore.Hbonds>
donor molecule, donor type, donor heavy atom, donor atom, acceptor molecule, acceptor atom, score
      L1  H     5    22       P1  7948  0.66
      L1  H     8    23       P1  7948  0.93

> <Gold.PLP.Chemscore.Internal.Correction>
0.0158

> <Gold.Rescore>
     Score         DG    S(hbond)    S(metal)    S(lipo)     H(rot)  DE(clash)    DE(int)     intcor
     12.18     -14.22       1.89        0.00      54.58       1.55       0.21       1.82       ----

> <Gold.Chemscore.Fitness>
12.1828

> <Gold.Chemscore.DG>
-14.2175

> <Gold.Chemscore.ZeroCoef>
-5.4800

> <Gold.Chemscore.Hbond>
1.8923

> <Gold.Chemscore.Metal>
0.0000

> <Gold.Chemscore.Lipo>
54.5805

> <Gold.Chemscore.Internal_Hbond>
0.0000

> <Gold.Chemscore.DEClash>
0.2112

> <Gold.Chemscore.DEInternal>
1.8236

> <Gold.Chemscore.Rot>
1.5503

> <Gold.Chemscore.Internal.Correction>
   9.000000E+99

> <Gold.Chemscore.Hbonds>
donor molecule, donor type, donor heavy atom, donor atom, acceptor molecule, acceptor atom, score
      L1  H     5    22       P1  7948  0.58
      L1  H     8    23       P1  7948  0.89

> <Gold.Chemscore.Hbond.Weighted>
-6.3203

> <Gold.Chemscore.Metal.Weighted>
-0.0000

> <Gold.Chemscore.Lipo.Weighted>
-6.3859

> <Gold.Chemscore.Internal_Hbond.Weighted>
0.0000

> <Gold.Chemscore.DEClash.Weighted>
0.2112

> <Gold.Chemscore.DEInternal.Weighted>
1.8236

> <Gold.Chemscore.Rot.Weighted>
3.9687

> <Gold.Chemscore.Internal.Correction.Weighted>
   9.000000E+99

> <Gold.Protein.RotatedTorsions>
[ 6907 6896 6895 6894 ] final  -90.50 input  -60.11 | X-H torsion
[ 7974 7965 7964 7962 ] final  167.07 input  175.53 | X-H torsion
[ 8008 7997 7996 7995 ] final  167.18 input   59.86 | X-H torsion
[ 10167 10162 10161 10158 ] final  112.63 input  -65.29 | X-H torsion
[ 10718 10713 10712 10709 ] final   25.92 input   66.30 | X-H torsion
[ 10763 10752 10751 10750 ] final   36.51 input  -60.55 | X-H torsion
[ 11005 11000 10999 10996 ] final   57.89 input  -57.11 | X-H torsion

> <Gold.Protein.ActiveResidues>
 VAL166  LYS551  ARG553  GLY616  TRP617  ASP618  TYR619  PRO620  LYS621  CYS622 
 ASP623  PHE694  ASN695  SER759  ASP760  ASP761  ALA762  ILE779  LEU786  VAL792 
 PHE793  MET794  SER795  GLU796  ALA797  LYS798  CYS799  TRP800  GLU811  SER814 

> <Gold.Protein.RotatedAtoms>
  150.6882  134.2423  159.4477 H   0  0  0  0  0  0  0  0  0  0  0  0  # atno 6907 bound_to 6896
  152.0366  134.9734  160.0582 H   0  0  0  0  0  0  0  0  0  0  0  0  # atno 6908 bound_to 6896
  152.1252  133.4341  159.4731 H   0  0  0  0  0  0  0  0  0  0  0  0  # atno 6909 bound_to 6896
  144.7438  139.8708  143.6388 H   0  0  0  0  0  0  0  0  0  0  0  0  # atno 7974 bound_to 7965
  156.1656  140.1624  156.8537 H   0  0  0  0  0  0  0  0  0  0  0  0  # atno 8008 bound_to 7997
  154.5204  140.0779  156.8196 H   0  0  0  0  0  0  0  0  0  0  0  0  # atno 8009 bound_to 7997
  155.3619  140.3395  155.4243 H   0  0  0  0  0  0  0  0  0  0  0  0  # atno 8010 bound_to 7997
  139.6521  144.7128  151.2028 H   0  0  0  0  0  0  0  0  0  0  0  0  # atno 10167 bound_to 10162
  157.1998  130.6885  149.6184 H   0  0  0  0  0  0  0  0  0  0  0  0  # atno 10718 bound_to 10713
  153.0074  135.6304  154.1997 H   0  0  0  0  0  0  0  0  0  0  0  0  # atno 10763 bound_to 10752
  154.1740  135.2817  155.3074 H   0  0  0  0  0  0  0  0  0  0  0  0  # atno 10764 bound_to 10752
  154.5886  135.5624  153.7316 H   0  0  0  0  0  0  0  0  0  0  0  0  # atno 10765 bound_to 10752
  140.0418  134.5862  155.9372 H   0  0  0  0  0  0  0  0  0  0  0  0  # atno 11005 bound_to 11000
  146.1281  139.4311  143.0186 LP  0  0  0  0  0  0  0  0  0  0  0  0  # atno 17320 bound_to 7965
  145.7204  141.0077  143.1406 LP  0  0  0  0  0  0  0  0  0  0  0  0  # atno 17321 bound_to 7965
  140.7542  143.6133  150.8584 LP  0  0  0  0  0  0  0  0  0  0  0  0  # atno 17342 bound_to 10162
  139.9782  143.5981  152.2951 LP  0  0  0  0  0  0  0  0  0  0  0  0  # atno 17343 bound_to 10162
  155.9702  130.4586  150.6007 LP  0  0  0  0  0  0  0  0  0  0  0  0  # atno 17370 bound_to 10713
  157.3778  131.0776  151.1503 LP  0  0  0  0  0  0  0  0  0  0  0  0  # atno 17371 bound_to 10713
  141.1887  133.6563  156.5335 LP  0  0  0  0  0  0  0  0  0  0  0  0  # atno 17394 bound_to 11000
  140.4057  134.7317  157.4806 LP  0  0  0  0  0  0  0  0  0  0  0  0  # atno 17395 bound_to 11000

$$$$
