AV-unprocessed.smi:2786|AV-procd|sdf|10754|dock5
  -GOLD-   2272015183D 1   1.00000     0.00000
 Structure written by MMmdl.
 26 27  0  0  0  0  0  0  0  0  1 V2000
  152.1567  145.3025  159.3651 C   0  0  0  0  0  0  0  0  0  0  0  0
  152.2795  144.1134  160.1858 N   0  0  0  0  0  0  0  0  0  0  0  0
  152.4364  144.0913  161.5654 C   0  0  0  0  0  0  0  0  0  0  0  0
  152.5015  142.7696  161.9335 C   0  0  0  0  0  0  0  0  0  0  0  0
  152.3859  141.9705  160.8017 N   0  0  0  0  0  0  0  0  0  0  0  0
  152.2649  142.8256  159.7881 C   0  0  0  0  0  0  0  0  0  0  0  0
  152.0907  142.4166  158.3527 C   0  0  2  0  0  0  0  0  0  0  0  0
  150.8887  143.1437  157.7113 C   0  0  0  0  0  0  0  0  0  0  0  0
  150.7231  142.7513  156.3099 N   0  0  0  0  0  0  0  0  0  0  0  0
  150.5653  141.3014  156.1869 C   0  0  0  0  0  0  0  0  0  0  0  0
  151.7653  140.5707  156.8162 C   0  0  0  0  0  0  0  0  0  0  0  0
  151.9331  140.9627  158.2170 N   0  0  0  0  0  0  0  0  0  0  0  0
  152.0855  146.1891  159.9958 H   0  0  0  0  0  0  0  0  0  0  0  0
  151.2595  145.2371  158.7489 H   0  0  0  0  0  0  0  0  0  0  0  0
  153.0312  145.3970  158.7209 H   0  0  0  0  0  0  0  0  0  0  0  0
  152.4842  144.9943  162.1564 H   0  0  0  0  0  0  0  0  0  0  0  0
  152.6188  142.3358  162.9155 H   0  0  0  0  0  0  0  0  0  0  0  0
  152.9903  142.7093  157.8107 H   0  0  0  0  0  0  0  0  0  0  0  0
  149.9788  142.9189  158.2698 H   0  0  0  0  0  0  0  0  0  0  0  0
  151.0324  144.2225  157.7753 H   0  0  0  0  0  0  0  0  0  0  0  0
  149.9053  143.2133  155.9255 H   0  0  0  0  0  0  0  0  0  0  0  0
  149.6424  140.9841  156.6743 H   0  0  0  0  0  0  0  0  0  0  0  0
  150.4732  141.0251  155.1365 H   0  0  0  0  0  0  0  0  0  0  0  0
  151.6187  139.4927  156.7482 H   0  0  0  0  0  0  0  0  0  0  0  0
  152.6723  140.7975  156.2540 H   0  0  0  0  0  0  0  0  0  0  0  0
  152.7513  140.5005  158.6002 H   0  0  0  0  0  0  0  0  0  0  0  0
  1  2  1  0  0  0  0
  1 13  1  0  0  0  0
  1 14  1  0  0  0  0
  1 15  1  0  0  0  0
  2  6  1  0  0  0  0
  2  3  1  0  0  0  0
  3  4  2  0  0  0  0
  3 16  1  0  0  0  0
  4  5  1  0  0  0  0
  4 17  1  0  0  0  0
  5  6  2  0  0  0  0
  6  7  1  0  0  0  0
  7 12  1  0  0  0  0
  7  8  1  0  0  0  0
  7 18  1  0  0  0  0
  8  9  1  0  0  0  0
  8 19  1  0  0  0  0
  8 20  1  0  0  0  0
  9 10  1  0  0  0  0
  9 21  1  0  0  0  0
 10 11  1  0  0  0  0
 10 22  1  0  0  0  0
 10 23  1  0  0  0  0
 11 12  1  0  0  0  0
 11 24  1  0  0  0  0
 11 25  1  0  0  0  0
 12 26  1  0  0  0  0
M  END
> <s_m_source_file>
AV-unprocessed.smi

> <i_m_source_file_index>
2786

> <i_lp_mmshare_version>
43012

> <i_f3d_flags>
0

> <s_epik_input>
W0NIM11uMVtjSF1bY0hdbmMxW0NAQEhdMltDSDJdW05IXVtDSDJdW0NIMl1bTkhdMg==

> <s_epik_cmdline>
J2VwaWtfcHl0aG9uJywgJy1waCcsICc3LjAnLCAnLXRuJywgJzgnLCAnLW1hJywgJzIwMCcsICctbWV0YWxfYmluZGluZycsICctaW1hZScsICc8aW5maWxlLm1hZT4nLCAnLW9tYWUnLCAnPG91dGZpbGUubWFlPic=

> <r_lp_tautomer_probability>
1

> <r_epik_Ionization_Penalty>
3.5722

> <r_epik_Ionization_Penalty_Charging>
1.66148

> <r_epik_Ionization_Penalty_Neutral>
1.91072

> <r_epik_State_Penalty>
2.63328

> <r_epik_Charging_Adjusted_Penalty>
4.29476

> <i_epik_Tot_Q>
0

> <i_epik_Tot_abs_Q>
0

> <r_epik_Metal_State_Penalty>
0.942173

> <b_epik_Metal_Only>
0

> <s_lp_Force_Field>
OPLS_2005

> <r_lp_Energy>
22.0451

> <b_lp_Chiralities_Consistent>
1

> <s_lp_Variant>
AV-unprocessed.smi:2786-7

> <Gold.Version>
5.8.1

> <Gold.Id.Protein>
6NUR|6NUR_protein|mol2

> <Gold.PLP.Fitness>
33.8132

> <Gold.PLP.PLP>
-31.0788

> <Gold.PLP.part.hbond>
-1.0000

> <Gold.PLP.part.metal>
0.0000

> <Gold.PLP.part.buried>
-4.3801

> <Gold.PLP.part.nonpolar>
-24.3113

> <Gold.PLP.part.repulsive>
0.0242

> <Gold.PLP.ligand.clash>
0.0000

> <Gold.PLP.ligand.torsion>
0.1402

> <Gold.PLP.Chemscore.Hbond>
1.0000

> <Gold.PLP.Chemscore.CHOScore>
0.0000

> <Gold.PLP.Chemscore.Metal>
0.0000

> <Gold.Chemscore.Hbonds>
donor molecule, donor type, donor heavy atom, donor atom, acceptor molecule, acceptor atom, score
      L1  H     9    21       P1  8028  1.00

> <Gold.PLP.Chemscore.Internal.Correction>
0.0150

> <Gold.Rescore>
     Score         DG    S(hbond)    S(metal)    S(lipo)     H(rot)  DE(clash)    DE(int)     intcor
     13.85     -14.02       0.97        0.00      67.22       1.00       0.16       0.01       ----

> <Gold.Chemscore.Fitness>
13.8525

> <Gold.Chemscore.DG>
-14.0218

> <Gold.Chemscore.ZeroCoef>
-5.4800

> <Gold.Chemscore.Hbond>
0.9692

> <Gold.Chemscore.Metal>
0.0000

> <Gold.Chemscore.Lipo>
67.2185

> <Gold.Chemscore.Internal_Hbond>
0.0000

> <Gold.Chemscore.DEClash>
0.1603

> <Gold.Chemscore.DEInternal>
0.0090

> <Gold.Chemscore.Rot>
1.0000

> <Gold.Chemscore.Internal.Correction>
   9.000000E+99

> <Gold.Chemscore.Hbonds>
donor molecule, donor type, donor heavy atom, donor atom, acceptor molecule, acceptor atom, score
      L1  H     9    21       P1  8028  0.95

> <Gold.Chemscore.Hbond.Weighted>
-3.2373

> <Gold.Chemscore.Metal.Weighted>
-0.0000

> <Gold.Chemscore.Lipo.Weighted>
-7.8646

> <Gold.Chemscore.Internal_Hbond.Weighted>
0.0000

> <Gold.Chemscore.DEClash.Weighted>
0.1603

> <Gold.Chemscore.DEInternal.Weighted>
0.0090

> <Gold.Chemscore.Rot.Weighted>
2.5600

> <Gold.Chemscore.Internal.Correction.Weighted>
   9.000000E+99

> <Gold.Protein.RotatedTorsions>
[ 6907 6896 6895 6894 ] final  -34.39 input  -60.11 | X-H torsion
[ 7974 7965 7964 7962 ] final  -82.71 input  175.53 | X-H torsion
[ 8008 7997 7996 7995 ] final  -66.26 input   59.86 | X-H torsion
[ 10167 10162 10161 10158 ] final -126.66 input  -65.29 | X-H torsion
[ 10718 10713 10712 10709 ] final   48.07 input   66.30 | X-H torsion
[ 10763 10752 10751 10750 ] final    9.63 input  -60.55 | X-H torsion
[ 11005 11000 10999 10996 ] final   12.06 input  -57.11 | X-H torsion

> <Gold.Protein.ActiveResidues>
 VAL166  LYS551  ARG553  GLY616  TRP617  ASP618  TYR619  PRO620  LYS621  CYS622 
 ASP623  PHE694  ASN695  SER759  ASP760  ASP761  ALA762  ILE779  LEU786  VAL792 
 PHE793  MET794  SER795  GLU796  ALA797  LYS798  CYS799  TRP800  GLU811  SER814 

> <Gold.Protein.RotatedAtoms>
  151.0532  134.9687  159.8221 H   0  0  0  0  0  0  0  0  0  0  0  0  # atno 6907 bound_to 6896
  152.5384  134.2511  159.8909 H   0  0  0  0  0  0  0  0  0  0  0  0  # atno 6908 bound_to 6896
  151.2528  133.4299  159.2646 H   0  0  0  0  0  0  0  0  0  0  0  0  # atno 6909 bound_to 6896
  145.5297  140.9522  143.1610 H   0  0  0  0  0  0  0  0  0  0  0  0  # atno 7974 bound_to 7965
  154.4723  140.0916  156.7176 H   0  0  0  0  0  0  0  0  0  0  0  0  # atno 8008 bound_to 7997
  155.4690  140.3463  155.4305 H   0  0  0  0  0  0  0  0  0  0  0  0  # atno 8009 bound_to 7997
  156.1060  140.1435  156.9392 H   0  0  0  0  0  0  0  0  0  0  0  0  # atno 8010 bound_to 7997
  139.9691  143.5866  152.2419 H   0  0  0  0  0  0  0  0  0  0  0  0  # atno 10167 bound_to 10162
  157.4650  130.8220  149.7926 H   0  0  0  0  0  0  0  0  0  0  0  0  # atno 10718 bound_to 10713
  153.2119  135.6870  153.8104 H   0  0  0  0  0  0  0  0  0  0  0  0  # atno 10763 bound_to 10752
  153.7333  135.3249  155.3291 H   0  0  0  0  0  0  0  0  0  0  0  0  # atno 10764 bound_to 10752
  154.8226  135.4641  154.0930 H   0  0  0  0  0  0  0  0  0  0  0  0  # atno 10765 bound_to 10752
  140.4962  134.0791  155.7783 H   0  0  0  0  0  0  0  0  0  0  0  0  # atno 11005 bound_to 11000
  144.7632  139.6906  143.7225 LP  0  0  0  0  0  0  0  0  0  0  0  0  # atno 17320 bound_to 7965
  146.2052  139.5372  142.9717 LP  0  0  0  0  0  0  0  0  0  0  0  0  # atno 17321 bound_to 7965
  139.6495  144.7660  151.2176 LP  0  0  0  0  0  0  0  0  0  0  0  0  # atno 17342 bound_to 10162
  140.7528  143.6184  150.8537 LP  0  0  0  0  0  0  0  0  0  0  0  0  # atno 17343 bound_to 10162
  156.0046  130.3862  150.2478 LP  0  0  0  0  0  0  0  0  0  0  0  0  # atno 17370 bound_to 10713
  157.0658  131.0103  151.3207 LP  0  0  0  0  0  0  0  0  0  0  0  0  # atno 17371 bound_to 10713
  141.1459  133.9056  157.2217 LP  0  0  0  0  0  0  0  0  0  0  0  0  # atno 17394 bound_to 11000
  139.9740  135.0120  156.9583 LP  0  0  0  0  0  0  0  0  0  0  0  0  # atno 17395 bound_to 11000

$$$$
