#       Name:                AV-unprocessed.smi:2513
#       Creating user name   scv26
#       Creation time:       Fri Mar 27 13:52:53 2020


#       File generated by GOLD software.
#

@<TRIPOS>MOLECULE
AV-unprocessed.smi:2513
    42    43     1
SMALL
NO_CHARGES


@<TRIPOS>ATOM
      1 ****        -1.9237   4.5059   0.2616 C.3            1 S1                 0.0000
      2 ****        -1.1205   3.3370   0.1894 O.3            1 S1                 0.0000
      3 ****         0.2421   3.4675   0.3750 C.ar           1 S1                 0.0000
      4 ****         0.8831   4.7061   0.6335 C.ar           1 S1                 0.0000
      5 ****         2.2775   4.7388   0.8068 C.ar           1 S1                 0.0000
      6 ****         2.9859   3.5296   0.7168 C.ar           1 S1                 0.0000
      7 ****         2.3899   2.3461   0.4729 N.ar           1 S1                 0.0000
      8 ****         1.0449   2.2992   0.3026 C.ar           1 S1                 0.0000
      9 ****         0.3415   1.0907   0.0408 N.am           1 S1                 0.0000
     10 ****         0.8336  -0.1546  -0.0805 C.2            1 S1                 0.0000
     11 ****         2.0209  -0.4656   0.0187 O.2            1 S1                 0.0000
     12 ****        -0.1438  -1.0391  -0.3263 N.am           1 S1                 0.0000
     13 ****         0.0475  -2.4744  -0.5116 C.3            1 S1                 0.0000
     14 ****        -1.1291  -3.0570  -1.3086 C.3            1 S1                 0.0000
     15 ****        -1.0047  -4.5827  -1.3872 C.3            1 S1                 0.0000
     16 ****        -0.8312  -5.1802   0.0180 C.3            1 S1                 0.0000
     17 ****         0.3005  -4.5970   0.6550 O.3            1 S1                 0.0000
     18 ****         0.1700  -3.1922   0.8491 C.3            1 S1                 0.0000
     19 ****        -2.9668   4.2357   0.0967 H              1 S1                 0.0000
     20 ****        -1.6454   5.2294  -0.5060 H              1 S1                 0.0000
     21 ****        -1.8567   4.9758   1.2437 H              1 S1                 0.0000
     22 ****         0.3341   5.6327   0.7019 H              1 S1                 0.0000
     23 ****         2.7911   5.6683   1.0034 H              1 S1                 0.0000
     24 ****         4.0584   3.5110   0.8431 H              1 S1                 0.0000
     25 ****        -0.6571   1.1910  -0.0661 H              1 S1                 0.0000
     26 ****        -1.0908  -0.6957  -0.3911 H              1 S1                 0.0000
     27 ****         0.9629  -2.6432  -1.0821 H              1 S1                 0.0000
     28 ****        -2.0720  -2.7963  -0.8252 H              1 S1                 0.0000
     29 ****        -1.1614  -2.6295  -2.3116 H              1 S1                 0.0000
     30 ****        -1.8833  -5.0081  -1.8728 H              1 S1                 0.0000
     31 ****        -0.1456  -4.8490  -2.0041 H              1 S1                 0.0000
     32 ****        -1.7253  -5.0199   0.6226 H              1 S1                 0.0000
     33 ****        -0.6815  -6.2579  -0.0489 H              1 S1                 0.0000
     34 ****         1.0485  -2.8377   1.3891 H              1 S1                 0.0000
     35 ****        -0.6951  -2.9849   1.4812 H              1 S1                 0.0000
     36 ****        -1.2591   2.9377  -0.7169 LP             1 S1                 0.0000
     37 ****        -1.4552   2.7039   0.8873 LP             1 S1                 0.0000
     38 ****         2.9346   1.5092   0.4179 LP             1 S1                 0.0000
     39 ****         2.7080   0.2369   0.2045 LP             1 S1                 0.0000
     40 ****         2.2981  -1.4206  -0.0865 LP             1 S1                 0.0000
     41 ****         1.1071  -4.7665   0.0886 LP             1 S1                 0.0000
     42 ****         0.4226  -5.0316   1.5473 LP             1 S1                 0.0000
@<TRIPOS>BOND
    1    1    2 1     
    2    1   19 1     
    3    1   20 1     
    4    1   21 1     
    5    2    3 1     
    6    3    8 ar    
    7    3    4 ar    
    8    4    5 ar    
    9    4   22 1     
   10    5    6 ar    
   11    5   23 1     
   12    6    7 ar    
   13    6   24 1     
   14    7    8 ar    
   15    8    9 1     
   16    9   10 am    
   17    9   25 1     
   18   10   11 2     
   19   10   12 am    
   20   12   13 1     
   21   12   26 1     
   22   13   18 1     
   23   13   14 1     
   24   13   27 1     
   25   14   15 1     
   26   14   28 1     
   27   14   29 1     
   28   15   16 1     
   29   15   30 1     
   30   15   31 1     
   31   16   17 1     
   32   16   32 1     
   33   16   33 1     
   34   17   18 1     
   35   18   34 1     
   36   18   35 1     
   37    2   36 1     
   38    2   37 1     
   39    7   38 1     
   40   11   39 1     
   41   11   40 1     
   42   17   41 1     
   43   17   42 1     
@<TRIPOS>SUBSTRUCTURE
      1 S1             1
@<TRIPOS>SET
LONE_PAIRS      STATIC     ATOMS    <user>   **** ""
7 36 37 38 39 40 41 42
DONOR_HYDROGENS      STATIC     ATOMS    <user>   **** ""
2 25 26
ATOM$BLUE        STATIC     ATOMS    COLORGROUP SYSTEM
7 36 37 38 39 40 41 42
ATOM$RED        STATIC     ATOMS    COLORGROUP SYSTEM
2 25 26
