AV-unprocessed.smi:668|AV-procd|sdf|3259|dock3
  -GOLD-   22720 0213D 1   1.00000     0.00000
 Structure written by MMmdl.
 38 39  0  0  0  0  0  0  0  0  1 V2000
  153.8893  136.1724  157.2772 C   0  0  0  0  0  0  0  0  0  0  0  0
  153.1622  134.9490  157.2995 O   0  0  0  0  0  0  0  0  0  0  0  0
  152.1413  134.7768  156.3873 C   0  0  0  0  0  0  0  0  0  0  0  0
  151.3583  133.6079  156.4647 C   0  0  0  0  0  0  0  0  0  0  0  0
  150.3089  133.4284  155.5435 C   0  0  0  0  0  0  0  0  0  0  0  0
  150.0715  134.4314  154.5740 C   0  0  0  0  0  0  0  0  0  0  0  0
  149.0534  134.3586  153.5861 N   0  0  0  0  0  0  0  0  0  0  0  0
  148.0920  133.4293  153.4524 C   0  0  0  0  0  0  0  0  0  0  0  0
  147.9386  132.4536  154.1870 O   0  0  0  0  0  0  0  0  0  0  0  0
  147.2900  133.7072  152.4154 N   0  0  0  0  0  0  0  0  0  0  0  0
  146.1263  132.9167  152.0215 C   0  0  2  0  0  0  0  0  0  0  0  0
  146.3883  131.4055  152.1183 C   0  0  0  0  0  0  0  0  0  0  0  0
  145.5481  130.7943  151.0017 C   0  0  0  0  0  0  0  0  0  0  0  0
  145.6451  131.8122  149.8674 C   0  0  0  0  0  0  0  0  0  0  0  0
  145.7362  133.1944  150.5457 C   0  0  1  0  0  0  0  0  0  0  0  0
  144.4253  133.9899  150.4333 C   0  0  0  0  0  0  0  0  0  0  0  0
  143.4264  133.4250  149.7501 N   0  0  0  0  0  0  0  0  0  0  0  0
  144.3130  135.0958  150.9588 O   0  0  0  0  0  0  0  0  0  0  0  0
  150.9249  135.5538  154.5676 C   0  0  0  0  0  0  0  0  0  0  0  0
  151.9303  135.7337  155.4499 N   0  0  0  0  0  0  0  0  0  0  0  0
  154.6509  136.1533  158.0567 H   0  0  0  0  0  0  0  0  0  0  0  0
  153.2379  137.0254  157.4729 H   0  0  0  0  0  0  0  0  0  0  0  0
  154.3967  136.3204  156.3227 H   0  0  0  0  0  0  0  0  0  0  0  0
  151.5600  132.8601  157.2174 H   0  0  0  0  0  0  0  0  0  0  0  0
  149.7193  132.5260  155.5909 H   0  0  0  0  0  0  0  0  0  0  0  0
  149.0022  135.1464  152.9570 H   0  0  0  0  0  0  0  0  0  0  0  0
  147.4889  134.5300  151.8657 H   0  0  0  0  0  0  0  0  0  0  0  0
  145.2932  133.1614  152.6845 H   0  0  0  0  0  0  0  0  0  0  0  0
  147.4415  131.1893  151.9311 H   0  0  0  0  0  0  0  0  0  0  0  0
  146.1380  131.0009  153.0994 H   0  0  0  0  0  0  0  0  0  0  0  0
  145.8942  129.8028  150.7086 H   0  0  0  0  0  0  0  0  0  0  0  0
  144.5113  130.7039  151.3289 H   0  0  0  0  0  0  0  0  0  0  0  0
  146.5556  131.6311  149.2942 H   0  0  0  0  0  0  0  0  0  0  0  0
  144.8098  131.7201  149.1712 H   0  0  0  0  0  0  0  0  0  0  0  0
  146.5239  133.7596  150.0430 H   0  0  0  0  0  0  0  0  0  0  0  0
  142.5464  133.9090  149.6475 H   0  0  0  0  0  0  0  0  0  0  0  0
  143.5574  132.5131  149.3365 H   0  0  0  0  0  0  0  0  0  0  0  0
  150.7927  136.3386  153.8372 H   0  0  0  0  0  0  0  0  0  0  0  0
  1  2  1  0  0  0  0
  1 21  1  0  0  0  0
  1 22  1  0  0  0  0
  1 23  1  0  0  0  0
  2  3  1  0  0  0  0
  3 20  1  0  0  0  0
  3  4  2  0  0  0  0
  4  5  1  0  0  0  0
  4 24  1  0  0  0  0
  5  6  2  0  0  0  0
  5 25  1  0  0  0  0
  6  7  1  0  0  0  0
  6 19  1  0  0  0  0
  7  8  1  0  0  0  0
  7 26  1  0  0  0  0
  8  9  2  0  0  0  0
  8 10  1  0  0  0  0
 10 11  1  0  0  0  0
 10 27  1  0  0  0  0
 11 15  1  0  0  0  0
 11 12  1  0  0  0  0
 11 28  1  0  0  0  0
 12 13  1  0  0  0  0
 12 29  1  0  0  0  0
 12 30  1  0  0  0  0
 13 14  1  0  0  0  0
 13 31  1  0  0  0  0
 13 32  1  0  0  0  0
 14 15  1  0  0  0  0
 14 33  1  0  0  0  0
 14 34  1  0  0  0  0
 15 16  1  0  0  0  0
 15 35  1  0  0  0  0
 16 17  1  0  0  0  0
 16 18  2  0  0  0  0
 17 36  1  0  0  0  0
 17 37  1  0  0  0  0
 19 20  2  0  0  0  0
 19 38  1  0  0  0  0
M  END
> <s_m_source_file>
AV-unprocessed.smi

> <i_m_source_file_index>
668

> <i_lp_mmshare_version>
43012

> <i_f3d_flags>
0

> <s_epik_input>
W0NIM11PYzFbY0hdW2NIXWMoW2NIXW4xKVtOSF1DKD1PKVtOSF1bQ0BASF0yW0NIMl1bQ0gyXVtDSDJdW0NASF0yQyg9TylbTkgyXQ==

> <s_epik_cmdline>
J2VwaWtfcHl0aG9uJywgJy1waCcsICc3LjAnLCAnLXRuJywgJzgnLCAnLW1hJywgJzIwMCcsICctbWV0YWxfYmluZGluZycsICctaW1hZScsICc8aW5maWxlLm1hZT4nLCAnLW9tYWUnLCAnPG91dGZpbGUubWFlPic=

> <r_lp_tautomer_probability>
1

> <r_epik_Ionization_Penalty>
9.0916e-05

> <r_epik_Ionization_Penalty_Charging>
0

> <r_epik_Ionization_Penalty_Neutral>
9.0916e-05

> <r_epik_State_Penalty>
-0

> <r_epik_Charging_Adjusted_Penalty>
0

> <i_epik_Tot_Q>
0

> <i_epik_Tot_abs_Q>
0

> <r_epik_Metal_State_Penalty>
-0

> <b_epik_Metal_Only>
0

> <s_lp_Force_Field>
OPLS_2005

> <r_lp_Energy>
16.4016

> <b_lp_Chiralities_Consistent>
1

> <s_lp_Variant>
AV-unprocessed.smi:668-1

> <Gold.Version>
5.8.1

> <Gold.Id.Protein>
6NUR|6NUR_protein|mol2

> <Gold.PLP.Fitness>
40.0518

> <Gold.PLP.PLP>
-28.3449

> <Gold.PLP.part.hbond>
-4.9538

> <Gold.PLP.part.metal>
0.0000

> <Gold.PLP.part.buried>
-0.7257

> <Gold.PLP.part.nonpolar>
-23.0821

> <Gold.PLP.part.repulsive>
0.4382

> <Gold.PLP.ligand.clash>
0.1660

> <Gold.PLP.ligand.torsion>
0.3069

> <Gold.PLP.Chemscore.Hbond>
3.4607

> <Gold.PLP.Chemscore.CHOScore>
0.7001

> <Gold.PLP.Chemscore.Metal>
0.0000

> <Gold.Chemscore.Hbonds>
donor molecule, donor type, donor heavy atom, donor atom, acceptor molecule, acceptor atom, score
      L1  H     7    26       P1  7948  0.79
      L1  H    10    27       P1  7948  0.47
      L1  H    17    36       P1 10186  1.00
      P1  H 10752 10763       L1    20  0.19
      L1  C    19    38       P1  7948  0.12
      L1  C    19    38       P1  7949  0.63

> <Gold.PLP.Chemscore.Internal.Correction>
0.0042

> <Gold.Rescore>
     Score         DG    S(hbond)    S(metal)    S(lipo)     H(rot)  DE(clash)    DE(int)     intcor
     12.30     -16.00       2.24        0.00      66.76       1.86       0.14       3.56       ----

> <Gold.Chemscore.Fitness>
12.3012

> <Gold.Chemscore.DG>
-16.0007

> <Gold.Chemscore.ZeroCoef>
-5.4800

> <Gold.Chemscore.Hbond>
2.2405

> <Gold.Chemscore.Metal>
0.0000

> <Gold.Chemscore.Lipo>
66.7631

> <Gold.Chemscore.Internal_Hbond>
0.0000

> <Gold.Chemscore.DEClash>
0.1435

> <Gold.Chemscore.DEInternal>
3.5560

> <Gold.Chemscore.Rot>
1.8648

> <Gold.Chemscore.Internal.Correction>
   9.000000E+99

> <Gold.Chemscore.Hbonds>
donor molecule, donor type, donor heavy atom, donor atom, acceptor molecule, acceptor atom, score
      L1  H     7    26       P1  7948  0.13
      L1  H    10    27       P1  7948  0.23
      L1  H    17    36       P1 10186  0.99
      P1  H 10752 10763       L1    20  0.01

> <Gold.Chemscore.Hbond.Weighted>
-7.4833

> <Gold.Chemscore.Metal.Weighted>
-0.0000

> <Gold.Chemscore.Lipo.Weighted>
-7.8113

> <Gold.Chemscore.Internal_Hbond.Weighted>
0.0000

> <Gold.Chemscore.DEClash.Weighted>
0.1435

> <Gold.Chemscore.DEInternal.Weighted>
3.5560

> <Gold.Chemscore.Rot.Weighted>
4.7739

> <Gold.Chemscore.Internal.Correction.Weighted>
   9.000000E+99

> <Gold.Protein.RotatedTorsions>
[ 6907 6896 6895 6894 ] final -162.42 input  -60.11 | X-H torsion
[ 7974 7965 7964 7962 ] final  -57.40 input  175.53 | X-H torsion
[ 8008 7997 7996 7995 ] final  154.51 input   59.86 | X-H torsion
[ 10167 10162 10161 10158 ] final  -27.17 input  -65.29 | X-H torsion
[ 10718 10713 10712 10709 ] final   31.09 input   66.30 | X-H torsion
[ 10763 10752 10751 10750 ] final   78.43 input  -60.55 | X-H torsion
[ 11005 11000 10999 10996 ] final   18.14 input  -57.11 | X-H torsion

> <Gold.Protein.ActiveResidues>
 VAL166  LYS551  ARG553  GLY616  TRP617  ASP618  TYR619  PRO620  LYS621  CYS622 
 ASP623  PHE694  ASN695  SER759  ASP760  ASP761  ALA762  ILE779  LEU786  VAL792 
 PHE793  MET794  SER795  GLU796  ALA797  LYS798  CYS799  TRP800  GLU811  SER814 

> <Gold.Protein.RotatedAtoms>
  151.3801  133.3824  159.2708 H   0  0  0  0  0  0  0  0  0  0  0  0  # atno 6907 bound_to 6896
  150.9584  134.8976  159.7726 H   0  0  0  0  0  0  0  0  0  0  0  0  # atno 6908 bound_to 6896
  152.5140  134.3759  159.9386 H   0  0  0  0  0  0  0  0  0  0  0  0  # atno 6909 bound_to 6896
  145.8515  140.8349  142.9983 H   0  0  0  0  0  0  0  0  0  0  0  0  # atno 7974 bound_to 7965
  156.2527  140.1965  156.6657 H   0  0  0  0  0  0  0  0  0  0  0  0  # atno 8008 bound_to 7997
  154.6431  140.0581  156.9894 H   0  0  0  0  0  0  0  0  0  0  0  0  # atno 8009 bound_to 7997
  155.1532  140.3253  155.4429 H   0  0  0  0  0  0  0  0  0  0  0  0  # atno 8010 bound_to 7997
  140.7279  143.4116  151.1097 H   0  0  0  0  0  0  0  0  0  0  0  0  # atno 10167 bound_to 10162
  157.2680  130.7194  149.6489 H   0  0  0  0  0  0  0  0  0  0  0  0  # atno 10718 bound_to 10713
  153.0873  135.4877  154.8622 H   0  0  0  0  0  0  0  0  0  0  0  0  # atno 10763 bound_to 10752
  154.7227  135.3043  154.9024 H   0  0  0  0  0  0  0  0  0  0  0  0  # atno 10764 bound_to 10752
  153.9683  135.6804  153.4799 H   0  0  0  0  0  0  0  0  0  0  0  0  # atno 10765 bound_to 10752
  140.4281  134.1448  155.7678 H   0  0  0  0  0  0  0  0  0  0  0  0  # atno 11005 bound_to 11000
  144.6729  140.0961  143.7463 LP  0  0  0  0  0  0  0  0  0  0  0  0  # atno 17320 bound_to 7965
  145.9352  139.2632  143.1301 LP  0  0  0  0  0  0  0  0  0  0  0  0  # atno 17321 bound_to 7965
  139.7750  143.8439  152.3127 LP  0  0  0  0  0  0  0  0  0  0  0  0  # atno 17342 bound_to 10162
  139.8370  144.7227  150.9378 LP  0  0  0  0  0  0  0  0  0  0  0  0  # atno 17343 bound_to 10162
  155.9663  130.4376  150.5185 LP  0  0  0  0  0  0  0  0  0  0  0  0  # atno 17370 bound_to 10713
  157.3103  131.0662  151.2006 LP  0  0  0  0  0  0  0  0  0  0  0  0  # atno 17371 bound_to 10713
  141.1757  133.8519  157.1429 LP  0  0  0  0  0  0  0  0  0  0  0  0  # atno 17394 bound_to 11000
  140.0153  134.9970  157.0481 LP  0  0  0  0  0  0  0  0  0  0  0  0  # atno 17395 bound_to 11000

$$$$
