#       Name:                AV-unprocessed.smi:17
#       Creating user name   scv26
#       Creation time:       Thu Mar 26 15:24:23 2020


#       File generated by GOLD software.
#

@<TRIPOS>MOLECULE
AV-unprocessed.smi:17
    64    66     1
SMALL
NO_CHARGES


@<TRIPOS>ATOM
      1 ****        -3.4331  -3.8814  -0.1684 C.3            1 S1                 0.0000
      2 ****        -3.4488  -2.8849  -1.3363 C.3            1 S1                 0.0000
      3 ****        -2.8160  -1.6093  -0.9893 N.pl3          1 S1                 0.0000
      4 ****        -1.4716  -1.5822  -0.7790 C.ar           1 S1                 0.0000
      5 ****        -0.6817  -2.3391  -1.5858 N.ar           1 S1                 0.0000
      6 ****         0.6452  -2.3368  -1.4358 C.ar           1 S1                 0.0000
      7 ****         1.3820  -1.6665  -0.5501 N.ar           1 S1                 0.0000
      8 ****         0.5989  -0.9190   0.2782 C.ar           1 S1                 0.0000
      9 ****        -0.8222  -0.8217   0.2391 C.ar           1 S1                 0.0000
     10 ****        -1.2582   0.0170   1.2602 N.2            1 S1                 0.0000
     11 ****        -0.1626   0.4089   1.8496 C.2            1 S1                 0.0000
     12 ****         0.9994  -0.0994   1.3187 N.pl3          1 S1                 0.0000
     13 ****         2.3508   0.1720   1.7762 C.3            1 S1                 0.0000
     14 ****         2.8393   1.5987   1.4218 C.3            1 S1                 0.0000
     15 ****         2.6554   1.9409  -0.0774 C.3            1 S1                 0.0000
     16 ****         3.4309   1.0939  -0.9003 O.3            1 S1                 0.0000
     17 ****         4.2922   1.8399   1.9032 C.3            1 S1                 0.0000
     18 ****         4.5095   1.6575   3.3950 C.3            1 S1                 0.0000
     19 ****         5.8293   2.3866   3.6140 C.3            1 S1                 0.0000
     20 ****         5.8139   3.4765   2.6999 O.3            1 S1                 0.0000
     21 ****         4.8013   3.2741   1.7179 C.3            1 S1                 0.0000
     22 ****        -3.6115  -0.3889  -0.8136 C.3            1 S1                 0.0000
     23 ****        -4.6086  -0.5377   0.3475 C.3            1 S1                 0.0000
     24 ****        -4.3149   0.0583  -2.1132 C.3            1 S1                 0.0000
     25 ****        -3.1388   0.6495  -3.4160 S.o2           1 S1                 0.0000
     26 ****        -2.7791  -0.8871  -4.3632 C.3            1 S1                 0.0000
     27 ****        -3.8740   1.5565  -4.3101 O.2            1 S1                 0.0000
     28 ****        -1.8914   1.1018  -2.7804 O.2            1 S1                 0.0000
     29 ****        -3.9369  -4.8073  -0.4455 H              1 S1                 0.0000
     30 ****        -3.9424  -3.4753   0.7057 H              1 S1                 0.0000
     31 ****        -2.4144  -4.1360   0.1255 H              1 S1                 0.0000
     32 ****        -2.9655  -3.3239  -2.2091 H              1 S1                 0.0000
     33 ****        -4.4830  -2.7099  -1.6305 H              1 S1                 0.0000
     34 ****         1.1955  -2.9601  -2.1250 H              1 S1                 0.0000
     35 ****        -0.1708   1.0863   2.6912 H              1 S1                 0.0000
     36 ****         2.3679   0.0167   2.8550 H              1 S1                 0.0000
     37 ****         3.0220  -0.5737   1.3489 H              1 S1                 0.0000
     38 ****         2.2016   2.2925   1.9715 H              1 S1                 0.0000
     39 ****         1.6101   1.8562  -0.3747 H              1 S1                 0.0000
     40 ****         2.9391   2.9740  -0.2767 H              1 S1                 0.0000
     41 ****         3.2632   1.3163  -1.8035 H              1 S1                 0.0000
     42 ****         4.9677   1.1624   1.3780 H              1 S1                 0.0000
     43 ****         3.7139   2.1437   3.9616 H              1 S1                 0.0000
     44 ****         4.5581   0.6118   3.6998 H              1 S1                 0.0000
     45 ****         5.9551   2.7260   4.6423 H              1 S1                 0.0000
     46 ****         6.6685   1.7354   3.3659 H              1 S1                 0.0000
     47 ****         5.1901   3.4490   0.7143 H              1 S1                 0.0000
     48 ****         4.0045   3.9965   1.9000 H              1 S1                 0.0000
     49 ****        -2.9535   0.4354  -0.5473 H              1 S1                 0.0000
     50 ****        -5.1276   0.4014   0.5393 H              1 S1                 0.0000
     51 ****        -4.0997  -0.8239   1.2684 H              1 S1                 0.0000
     52 ****        -5.3643  -1.2941   0.1349 H              1 S1                 0.0000
     53 ****        -4.9555  -0.7143  -2.5364 H              1 S1                 0.0000
     54 ****        -4.9628   0.9054  -1.8863 H              1 S1                 0.0000
     55 ****        -2.1669  -0.6386  -5.2297 H              1 S1                 0.0000
     56 ****        -3.7120  -1.3380  -4.7005 H              1 S1                 0.0000
     57 ****        -2.2371  -1.5943  -3.7398 H              1 S1                 0.0000
     58 ****        -1.0984  -2.9032  -2.2987 LP             1 S1                 0.0000
     59 ****         2.3799  -1.7067  -0.4998 LP             1 S1                 0.0000
     60 ****        -2.1996   0.2638   1.4903 LP             1 S1                 0.0000
     61 ****         3.1786   0.1404  -0.7354 LP             1 S1                 0.0000
     62 ****         4.4014   1.2220  -0.6962 LP             1 S1                 0.0000
     63 ****         6.7040   3.5433   2.2490 LP             1 S1                 0.0000
     64 ****         5.6280   4.3237   3.1976 LP             1 S1                 0.0000
@<TRIPOS>BOND
    1    1    2 1     
    2    1   29 1     
    3    1   30 1     
    4    1   31 1     
    5    2    3 1     
    6    2   32 1     
    7    2   33 1     
    8    3    4 1     
    9    3   22 1     
   10    4    9 ar    
   11    4    5 ar    
   12    5    6 ar    
   13    6    7 ar    
   14    6   34 1     
   15    7    8 ar    
   16    8   12 1     
   17    8    9 ar    
   18    9   10 1     
   19   10   11 2     
   20   11   12 1     
   21   11   35 1     
   22   12   13 1     
   23   13   14 1     
   24   13   36 1     
   25   13   37 1     
   26   14   15 1     
   27   14   17 1     
   28   14   38 1     
   29   15   16 1     
   30   15   39 1     
   31   15   40 1     
   32   16   41 1     
   33   17   21 1     
   34   17   18 1     
   35   17   42 1     
   36   18   19 1     
   37   18   43 1     
   38   18   44 1     
   39   19   20 1     
   40   19   45 1     
   41   19   46 1     
   42   20   21 1     
   43   21   47 1     
   44   21   48 1     
   45   22   23 1     
   46   22   24 1     
   47   22   49 1     
   48   23   50 1     
   49   23   51 1     
   50   23   52 1     
   51   24   25 1     
   52   24   53 1     
   53   24   54 1     
   54   25   26 1     
   55   25   27 2     
   56   25   28 2     
   57   26   55 1     
   58   26   56 1     
   59   26   57 1     
   60    5   58 1     
   61    7   59 1     
   62   10   60 1     
   63   16   61 1     
   64   16   62 1     
   65   20   63 1     
   66   20   64 1     
@<TRIPOS>SUBSTRUCTURE
      1 S1             1
@<TRIPOS>SET
LONE_PAIRS      STATIC     ATOMS    <user>   **** ""
9 58 59 60 61 62 63 64 27 28
DONOR_HYDROGENS      STATIC     ATOMS    <user>   **** ""
1 41
ATOM$BLUE        STATIC     ATOMS    COLORGROUP SYSTEM
9 58 59 60 61 62 63 64 27 28
ATOM$RED        STATIC     ATOMS    COLORGROUP SYSTEM
1 41
