#       Name:                AV-unprocessed.smi:2226
#       Creating user name   scv26
#       Creation time:       Fri Mar 27 12:21:17 2020


#       File generated by GOLD software.
#

@<TRIPOS>MOLECULE
AV-unprocessed.smi:2226
    45    47     1
SMALL
NO_CHARGES


@<TRIPOS>ATOM
      1 ****        -3.3878  -2.7619   0.0007 C.3            1 S1                 0.0000
      2 ****        -2.1677  -1.9202   0.0004 N.4            1 S1                 1.0000
      3 ****        -1.9816  -1.0910   1.2160 C.3            1 S1                 0.0000
      4 ****        -3.0230   0.0550   1.2810 C.3            1 S1                 0.0000
      5 ****        -3.1007   0.9064  -0.0005 C.3            1 S1                 0.0000
      6 ****        -3.0228   0.0543  -1.2816 C.3            1 S1                 0.0000
      7 ****        -1.9815  -1.0919  -1.2156 C.3            1 S1                 0.0000
      8 ****        -0.5063  -0.6338  -1.2866 C.3            1 S1                 0.0000
      9 ****         0.0144   0.0522  -0.0003 C.3            1 S1                 0.0000
     10 ****         1.4767   0.0288  -0.0003 N.am           1 S1                 0.0000
     11 ****         2.2821   1.1020   0.0002 C.2            1 S1                 0.0000
     12 ****         1.8730   2.2631   0.0008 O.2            1 S1                 0.0000
     13 ****         3.5757   0.7390  -0.0000 N.am           1 S1                 0.0000
     14 ****         4.7098   1.5897   0.0001 C.2            1 S1                 0.0000
     15 ****         4.7022   2.9234   0.0002 N.2            1 S1                 0.0000
     16 ****         6.0427   3.2805   0.0002 C.2            1 S1                 0.0000
     17 ****         6.7912   2.1316   0.0001 C.2            1 S1                 0.0000
     18 ****         5.9559   1.0468   0.0001 O.3            1 S1                 0.0000
     19 ****        -0.5064  -0.6326   1.2866 C.3            1 S1                 0.0000
     20 ****        -4.3009  -2.1676   0.0001 H              1 S1                 0.0000
     21 ****        -3.4046  -3.4052   0.8808 H              1 S1                 0.0000
     22 ****        -3.4042  -3.4063  -0.8787 H              1 S1                 0.0000
     23 ****        -2.1482  -1.7303   2.0841 H              1 S1                 0.0000
     24 ****        -4.0073  -0.3750   1.4680 H              1 S1                 0.0000
     25 ****        -2.8213   0.6976   2.1385 H              1 S1                 0.0000
     26 ****        -4.0293   1.4781  -0.0008 H              1 S1                 0.0000
     27 ****        -2.3197   1.6618  -0.0006 H              1 S1                 0.0000
     28 ****        -4.0071  -0.3758  -1.4686 H              1 S1                 0.0000
     29 ****        -2.8208   0.6964  -2.1394 H              1 S1                 0.0000
     30 ****        -2.1482  -1.7318  -2.0833 H              1 S1                 0.0000
     31 ****         0.1007  -1.5203  -1.4784 H              1 S1                 0.0000
     32 ****        -0.3532   0.0193  -2.1466 H              1 S1                 0.0000
     33 ****        -0.3211   1.0857  -0.0009 H              1 S1                 0.0000
     34 ****         1.9126  -0.8818  -0.0007 H              1 S1                 0.0000
     35 ****         3.7734  -0.2506  -0.0003 H              1 S1                 0.0000
     36 ****         6.3559   4.3141   0.0003 H              1 S1                 0.0000
     37 ****         7.8518   1.9277   0.0002 H              1 S1                 0.0000
     38 ****        -0.3536   0.0214   2.1460 H              1 S1                 0.0000
     39 ****         0.1007  -1.5188   1.4795 H              1 S1                 0.0000
     40 ****        -1.4032  -2.5802   0.0007 H              1 S1                 0.0000
     41 ****         0.8901   2.4469   0.0009 LP             1 S1                 0.0000
     42 ****         2.5237   3.0225   0.0011 LP             1 S1                 0.0000
     43 ****         3.9076   3.5305   0.0002 LP             1 S1                 0.0000
     44 ****         6.0998   0.4877  -0.8164 LP             1 S1                 0.0000
     45 ****         6.0998   0.4877   0.8166 LP             1 S1                 0.0000
@<TRIPOS>BOND
    1    1    2 1     
    2    1   20 1     
    3    1   21 1     
    4    1   22 1     
    5    2    7 1     
    6    2    3 1     
    7    2   40 1     
    8    3   19 1     
    9    3    4 1     
   10    3   23 1     
   11    4    5 1     
   12    4   24 1     
   13    4   25 1     
   14    5    6 1     
   15    5   26 1     
   16    5   27 1     
   17    6    7 1     
   18    6   28 1     
   19    6   29 1     
   20    7    8 1     
   21    7   30 1     
   22    8    9 1     
   23    8   31 1     
   24    8   32 1     
   25    9   10 1     
   26    9   19 1     
   27    9   33 1     
   28   10   11 am    
   29   10   34 1     
   30   11   12 2     
   31   11   13 am    
   32   13   14 1     
   33   13   35 1     
   34   14   18 1     
   35   14   15 2     
   36   15   16 1     
   37   16   17 2     
   38   16   36 1     
   39   17   18 1     
   40   17   37 1     
   41   19   38 1     
   42   19   39 1     
   43   12   41 1     
   44   12   42 1     
   45   15   43 1     
   46   18   44 1     
   47   18   45 1     
@<TRIPOS>SUBSTRUCTURE
      1 S1             1
@<TRIPOS>SET
LONE_PAIRS      STATIC     ATOMS    <user>   **** ""
5 41 42 43 44 45
DONOR_HYDROGENS      STATIC     ATOMS    <user>   **** ""
3 40 34 35
ATOM$BLUE        STATIC     ATOMS    COLORGROUP SYSTEM
5 41 42 43 44 45
ATOM$RED        STATIC     ATOMS    COLORGROUP SYSTEM
3 40 34 35
