AV-unprocessed.smi:72|AV-procd|sdf|718|dock5
  -GOLD-   2262017 43D 1   1.00000     0.00000
 Structure written by MMmdl.
 28 29  0  0  0  0  0  0  0  0  2 V2000
  154.1001  137.8203  155.8869 N   0  0  0  0  0  0  0  0  0  0  0  0
  152.9405  138.2432  155.6306 C   0  0  0  0  0  0  0  0  0  0  0  0
  152.0743  137.4968  154.7439 N   0  0  0  0  0  0  0  0  0  0  0  0
  150.8953  137.9815  154.5009 C   0  0  0  0  0  0  0  0  0  0  0  0
  150.4487  139.2403  155.0823 N   0  0  0  0  0  0  0  0  0  0  0  0
  149.0666  139.7932  154.7969 C   0  0  1  0  0  0  0  0  0  0  0  0
  148.7174  139.5046  153.4800 O   0  0  0  0  0  0  0  0  0  0  0  0
  147.3024  139.4490  153.3984 C   0  0  1  0  0  0  0  0  0  0  0  0
  146.8775  138.6965  152.1280 C   0  0  0  0  0  0  0  0  0  0  0  0
  145.4965  138.4068  152.1723 O   0  0  0  0  0  0  0  0  0  0  0  0
  146.9201  138.7248  154.6952 C   0  0  2  0  0  0  0  0  0  0  0  0
  145.6195  139.1049  155.0993 O   0  0  0  0  0  0  0  0  0  0  0  0
  147.9624  139.2047  155.7041 C   0  0  1  0  0  0  0  0  0  0  0  0
  148.3893  138.1312  156.5239 O   0  0  0  0  0  0  0  0  0  0  0  0
  151.3080  139.9368  155.9720 C   0  0  0  0  0  0  0  0  0  0  0  0
  150.8916  140.9737  156.4888 O   0  0  0  0  0  0  0  0  0  0  0  0
  152.5439  139.4216  156.2238 N   0  5  0  0  0  0  0  0  0  0  0  0
  149.1438  140.8788  154.8784 H   0  0  0  0  0  0  0  0  0  0  0  0
  146.9058  140.4670  153.4080 H   0  0  0  0  0  0  0  0  0  0  0  0
  146.9785  137.6437  154.5555 H   0  0  0  0  0  0  0  0  0  0  0  0
  147.5855  140.0120  156.3341 H   0  0  0  0  0  0  0  0  0  0  0  0
  154.6000  138.4293  156.5186 H   0  0  0  0  0  0  0  0  0  0  0  0
  150.1698  137.4804  153.8590 H   0  0  0  0  0  0  0  0  0  0  0  0
  147.1200  139.2661  151.2302 H   0  0  0  0  0  0  0  0  0  0  0  0
  147.4070  137.7457  152.0610 H   0  0  0  0  0  0  0  0  0  0  0  0
  145.1687  138.3701  151.2868 H   0  0  0  0  0  0  0  0  0  0  0  0
  145.0990  138.3233  155.2043 H   0  0  0  0  0  0  0  0  0  0  0  0
  148.8974  138.4860  157.2381 H   0  0  0  0  0  0  0  0  0  0  0  0
  1  2  2  0  0  0  0
  1 22  1  0  0  0  0
  2 17  1  0  0  0  0
  2  3  1  0  0  0  0
  3  4  2  0  0  0  0
  4  5  1  0  0  0  0
  4 23  1  0  0  0  0
  5  6  1  0  0  0  0
  5 15  1  0  0  0  0
  6 18  1  0  0  0  0
  6 13  1  0  0  0  0
  6  7  1  0  0  0  0
  7  8  1  0  0  0  0
  8 19  1  0  0  0  0
  8  9  1  0  0  0  0
  8 11  1  0  0  0  0
  9 10  1  0  0  0  0
  9 24  1  0  0  0  0
  9 25  1  0  0  0  0
 10 26  1  0  0  0  0
 11 20  1  0  0  0  0
 11 12  1  0  0  0  0
 11 13  1  0  0  0  0
 12 27  1  0  0  0  0
 13 21  1  0  0  0  0
 13 14  1  0  0  0  0
 14 28  1  0  0  0  0
 15 16  2  0  0  0  0
 15 17  1  0  0  0  0
M  CHG  1  17  -1
M  END
> <s_m_source_file>
AV-unprocessed.smi

> <i_m_source_file_index>
72

> <i_lp_mmshare_version>
43012

> <i_f3d_flags>
0

> <s_epik_input>
W05IMl1jMW5bY0hdbihjKD1PKW4xKVtDQEBIXTJPW0NASF0oW0NIMl1bT0hdKVtDQEBIXShbT0hdKVtDQEhdMltPSF0=

> <s_epik_cmdline>
J2VwaWtfcHl0aG9uJywgJy1waCcsICc3LjAnLCAnLXRuJywgJzgnLCAnLW1hJywgJzIwMCcsICctbWV0YWxfYmluZGluZycsICctaW1hZScsICc8aW5maWxlLm1hZT4nLCAnLW9tYWUnLCAnPG91dGZpbGUubWFlPic=

> <r_lp_tautomer_probability>
7.17554e-07

> <r_epik_Ionization_Penalty>
12.8705

> <r_epik_Ionization_Penalty_Charging>
5.64144

> <r_epik_Ionization_Penalty_Neutral>
7.22905

> <r_epik_State_Penalty>
3.30104

> <r_epik_Charging_Adjusted_Penalty>
8.94249

> <i_epik_Tot_Q>
-1

> <i_epik_Tot_abs_Q>
1

> <r_epik_Metal_State_Penalty>
0.529074

> <b_epik_Metal_Only>
1

> <s_epik_Chemistry_Notes>
This compound contains an acetal/aminal-like group ( X-CH(R)-Y where X, Y are N, S, or O) that may be acid/base labile, releasing an aldehyde.

> <s_lp_Force_Field>
OPLS_2005

> <r_lp_Energy>
37.5202

> <b_lp_Chiralities_Consistent>
1

> <s_lp_Variant>
AV-unprocessed.smi:72-56

> <Gold.Version>
5.8.1

> <Gold.Id.Protein>
6NUR|6NUR_protein|mol2

> <Gold.PLP.Fitness>
38.5119

> <Gold.PLP.PLP>
-25.6224

> <Gold.PLP.part.hbond>
-6.0000

> <Gold.PLP.part.metal>
0.0000

> <Gold.PLP.part.buried>
-4.6880

> <Gold.PLP.part.nonpolar>
-19.7740

> <Gold.PLP.part.repulsive>
4.8542

> <Gold.PLP.ligand.clash>
0.0000

> <Gold.PLP.ligand.torsion>
0.7407

> <Gold.PLP.Chemscore.Hbond>
3.6497

> <Gold.PLP.Chemscore.CHOScore>
1.0936

> <Gold.PLP.Chemscore.Metal>
0.0000

> <Gold.Chemscore.Hbonds>
donor molecule, donor type, donor heavy atom, donor atom, acceptor molecule, acceptor atom, score
      L1  H    10    26       P1 10171  1.00
      P1  H  7997  8008       L1    17  1.40
      P1  H 10752 10764       L1     3  0.62
      L1  C     4    23       P1  7948  0.80

> <Gold.PLP.Chemscore.Internal.Correction>
0.1407

> <Gold.Rescore>
     Score         DG    S(hbond)    S(metal)    S(lipo)     H(rot)  DE(clash)    DE(int)     intcor
      1.61      -4.10       1.96        0.00      20.60       4.04       1.94       0.56       ----

> <Gold.Chemscore.Fitness>
1.6051

> <Gold.Chemscore.DG>
-4.0985

> <Gold.Chemscore.ZeroCoef>
-5.4800

> <Gold.Chemscore.Hbond>
1.9614

> <Gold.Chemscore.Metal>
0.0000

> <Gold.Chemscore.Lipo>
20.6018

> <Gold.Chemscore.Internal_Hbond>
0.0000

> <Gold.Chemscore.DEClash>
1.9382

> <Gold.Chemscore.DEInternal>
0.5552

> <Gold.Chemscore.Rot>
4.0403

> <Gold.Chemscore.Internal.Correction>
   9.000000E+99

> <Gold.Chemscore.Hbonds>
donor molecule, donor type, donor heavy atom, donor atom, acceptor molecule, acceptor atom, score
      L1  H    10    26       P1 10171  0.97
      P1  H  7997  8008       L1    17  0.07
      P1  H 10752 10764       L1     3  0.45

> <Gold.Chemscore.Hbond.Weighted>
-6.5512

> <Gold.Chemscore.Metal.Weighted>
-0.0000

> <Gold.Chemscore.Lipo.Weighted>
-2.4104

> <Gold.Chemscore.Internal_Hbond.Weighted>
0.0000

> <Gold.Chemscore.DEClash.Weighted>
1.9382

> <Gold.Chemscore.DEInternal.Weighted>
0.5552

> <Gold.Chemscore.Rot.Weighted>
10.3431

> <Gold.Chemscore.Internal.Correction.Weighted>
   9.000000E+99

> <Gold.Protein.RotatedTorsions>
[ 6907 6896 6895 6894 ] final  167.57 input  -60.11 | X-H torsion
[ 7974 7965 7964 7962 ] final   92.58 input  175.53 | X-H torsion
[ 8008 7997 7996 7995 ] final  -44.00 input   59.86 | X-H torsion
[ 10167 10162 10161 10158 ] final  -45.73 input  -65.29 | X-H torsion
[ 10718 10713 10712 10709 ] final   -8.95 input   66.30 | X-H torsion
[ 10763 10752 10751 10750 ] final  -85.08 input  -60.55 | X-H torsion
[ 11005 11000 10999 10996 ] final  -15.92 input  -57.11 | X-H torsion

> <Gold.Protein.ActiveResidues>
 VAL166  LYS551  ARG553  GLY616  TRP617  ASP618  TYR619  PRO620  LYS621  CYS622 
 ASP623  PHE694  ASN695  SER759  ASP760  ASP761  ALA762  ILE779  LEU786  VAL792 
 PHE793  MET794  SER795  GLU796  ALA797  LYS798  CYS799  TRP800  GLU811  SER814 

> <Gold.Protein.RotatedAtoms>
  151.8612  133.3457  159.3704 H   0  0  0  0  0  0  0  0  0  0  0  0  # atno 6907 bound_to 6896
  150.7178  134.5204  159.5660 H   0  0  0  0  0  0  0  0  0  0  0  0  # atno 6908 bound_to 6896
  152.2718  134.7925  160.0464 H   0  0  0  0  0  0  0  0  0  0  0  0  # atno 6909 bound_to 6896
  145.4904  139.2276  143.2833 H   0  0  0  0  0  0  0  0  0  0  0  0  # atno 7974 bound_to 7965
  154.3997  140.1433  156.3612 H   0  0  0  0  0  0  0  0  0  0  0  0  # atno 8008 bound_to 7997
  155.8179  140.3470  155.5476 H   0  0  0  0  0  0  0  0  0  0  0  0  # atno 8009 bound_to 7997
  155.8318  140.0913  157.1778 H   0  0  0  0  0  0  0  0  0  0  0  0  # atno 8010 bound_to 7997
  140.6846  143.2865  151.3681 H   0  0  0  0  0  0  0  0  0  0  0  0  # atno 10167 bound_to 10162
  156.6952  130.5077  149.5932 H   0  0  0  0  0  0  0  0  0  0  0  0  # atno 10718 bound_to 10713
  154.6070  135.5498  153.7433 H   0  0  0  0  0  0  0  0  0  0  0  0  # atno 10763 bound_to 10752
  153.0178  135.6380  154.1633 H   0  0  0  0  0  0  0  0  0  0  0  0  # atno 10764 bound_to 10752
  154.1572  135.2899  155.3099 H   0  0  0  0  0  0  0  0  0  0  0  0  # atno 10765 bound_to 10752
  140.8015  133.8210  155.9475 H   0  0  0  0  0  0  0  0  0  0  0  0  # atno 11005 bound_to 11000
  146.2287  140.5697  142.8985 LP  0  0  0  0  0  0  0  0  0  0  0  0  # atno 17320 bound_to 7965
  144.7837  140.5893  143.6588 LP  0  0  0  0  0  0  0  0  0  0  0  0  # atno 17321 bound_to 7965
  139.6195  144.0936  152.2377 LP  0  0  0  0  0  0  0  0  0  0  0  0  # atno 17342 bound_to 10162
  140.0376  144.6033  150.7437 LP  0  0  0  0  0  0  0  0  0  0  0  0  # atno 17343 bound_to 10162
  156.1769  130.6473  151.0904 LP  0  0  0  0  0  0  0  0  0  0  0  0  # atno 17370 bound_to 10713
  157.6994  131.0782  150.6868 LP  0  0  0  0  0  0  0  0  0  0  0  0  # atno 17371 bound_to 10713
  140.9290  134.2046  157.4877 LP  0  0  0  0  0  0  0  0  0  0  0  0  # atno 17394 bound_to 11000
  139.8721  134.9824  156.5157 LP  0  0  0  0  0  0  0  0  0  0  0  0  # atno 17395 bound_to 11000

$$$$
