AV-unprocessed.smi:5|AV-procd|sdf|38|dock1
  -GOLD-   2262015153D 1   1.00000     0.00000
 Structure written by MMmdl.
 43 44  0  0  0  0  0  0  0  0  2 V2000
  153.8945  141.0736  161.4374 C   0  0  0  0  0  0  0  0  0  0  0  0
  153.2121  142.2546  160.7782 C   0  0  0  0  0  0  0  0  0  0  0  0
  152.7369  143.3005  161.4818 C   0  0  0  0  0  0  0  0  0  0  0  0
  152.0714  144.4986  160.8274 C   0  0  0  0  0  0  0  0  0  0  0  0
  152.2826  144.4926  159.3016 C   0  0  0  0  0  0  0  0  0  0  0  0
  152.0555  143.1350  158.7750 N   0  0  0  0  0  0  0  0  0  0  0  0
  150.9701  142.7293  158.0679 C   0  0  0  0  0  0  0  0  0  0  0  0
  149.9303  143.3848  157.9886 O   0  0  0  0  0  0  0  0  0  0  0  0
  151.1374  141.5736  157.4014 N   0  0  0  0  0  0  0  0  0  0  0  0
  150.2230  141.0381  156.3956 C   0  0  0  0  0  0  0  0  0  0  0  0
  150.4089  139.5422  156.1321 C   0  0  0  0  0  0  0  0  0  0  0  0
  149.4692  138.6036  156.3872 C   0  0  0  0  0  0  0  0  0  0  0  0
  149.6663  137.2316  156.1474 N   0  0  0  0  0  0  0  0  0  0  0  0
  148.5593  136.3097  156.4876 C   0  0  0  0  0  0  0  0  0  0  0  0
  148.9689  135.3401  157.6105 C   0  0  0  0  0  0  0  0  0  0  0  0
  148.0289  135.5736  155.2420 C   0  0  0  0  0  0  0  0  0  0  0  0
  150.8517  136.8088  155.6116 C   0  0  0  0  0  0  0  0  0  0  0  0
  151.0213  135.6102  155.3873 O   0  0  0  0  0  0  0  0  0  0  0  0
  151.8198  137.7352  155.3374 N   0  5  0  0  0  0  0  0  0  0  0  0
  151.6749  139.0723  155.5650 C   0  0  0  0  0  0  0  0  0  0  0  0
  152.5648  139.8820  155.3061 O   0  0  0  0  0  0  0  0  0  0  0  0
  153.0688  142.1817  159.2601 C   0  0  0  0  0  0  0  0  0  0  0  0
  154.8983  140.9442  161.0325 H   0  0  0  0  0  0  0  0  0  0  0  0
  153.3291  140.1597  161.2547 H   0  0  0  0  0  0  0  0  0  0  0  0
  153.9773  141.2125  162.5159 H   0  0  0  0  0  0  0  0  0  0  0  0
  152.8210  143.3195  162.5585 H   0  0  0  0  0  0  0  0  0  0  0  0
  151.0073  144.4707  161.0639 H   0  0  0  0  0  0  0  0  0  0  0  0
  152.4730  145.4163  161.2575 H   0  0  0  0  0  0  0  0  0  0  0  0
  151.6779  145.2672  158.8298 H   0  0  0  0  0  0  0  0  0  0  0  0
  153.3149  144.7693  159.0814 H   0  0  0  0  0  0  0  0  0  0  0  0
  152.0129  141.0856  157.5215 H   0  0  0  0  0  0  0  0  0  0  0  0
  149.2030  141.2066  156.7419 H   0  0  0  0  0  0  0  0  0  0  0  0
  150.3298  141.5918  155.4610 H   0  0  0  0  0  0  0  0  0  0  0  0
  148.4999  138.8432  156.7945 H   0  0  0  0  0  0  0  0  0  0  0  0
  147.7056  136.8660  156.8756 H   0  0  0  0  0  0  0  0  0  0  0  0
  148.1242  134.7227  157.9172 H   0  0  0  0  0  0  0  0  0  0  0  0
  149.3124  135.8853  158.4901 H   0  0  0  0  0  0  0  0  0  0  0  0
  149.7688  134.6674  157.3012 H   0  0  0  0  0  0  0  0  0  0  0  0
  147.1419  134.9895  155.4875 H   0  0  0  0  0  0  0  0  0  0  0  0
  148.7613  134.8847  154.8208 H   0  0  0  0  0  0  0  0  0  0  0  0
  147.7481  136.2810  154.4611 H   0  0  0  0  0  0  0  0  0  0  0  0
  154.0315  142.4032  158.7984 H   0  0  0  0  0  0  0  0  0  0  0  0
  152.8299  141.1516  158.9929 H   0  0  0  0  0  0  0  0  0  0  0  0
  1  2  1  0  0  0  0
  1 23  1  0  0  0  0
  1 24  1  0  0  0  0
  1 25  1  0  0  0  0
  2 22  1  0  0  0  0
  2  3  2  0  0  0  0
  3  4  1  0  0  0  0
  3 26  1  0  0  0  0
  4  5  1  0  0  0  0
  4 27  1  0  0  0  0
  4 28  1  0  0  0  0
  5  6  1  0  0  0  0
  5 29  1  0  0  0  0
  5 30  1  0  0  0  0
  6  7  1  0  0  0  0
  6 22  1  0  0  0  0
  7  8  2  0  0  0  0
  7  9  1  0  0  0  0
  9 10  1  0  0  0  0
  9 31  1  0  0  0  0
 10 11  1  0  0  0  0
 10 32  1  0  0  0  0
 10 33  1  0  0  0  0
 11 20  1  0  0  0  0
 11 12  2  0  0  0  0
 12 13  1  0  0  0  0
 12 34  1  0  0  0  0
 13 14  1  0  0  0  0
 13 17  1  0  0  0  0
 14 15  1  0  0  0  0
 14 16  1  0  0  0  0
 14 35  1  0  0  0  0
 15 36  1  0  0  0  0
 15 37  1  0  0  0  0
 15 38  1  0  0  0  0
 16 39  1  0  0  0  0
 16 40  1  0  0  0  0
 16 41  1  0  0  0  0
 17 18  2  0  0  0  0
 17 19  1  0  0  0  0
 19 20  1  0  0  0  0
 20 21  2  0  0  0  0
 22 42  1  0  0  0  0
 22 43  1  0  0  0  0
M  CHG  1  19  -1
M  END
> <s_m_source_file>
AV-unprocessed.smi

> <i_m_source_file_index>
5

> <i_lp_mmshare_version>
43012

> <i_f3d_flags>
0

> <s_epik_input>
W0NIM11DMT1bQ0hdW0NIMl1bQ0gyXU4oW0NIMl0xKUMoPU8pW05IXVtDSDJdYzJbY0hdbihbQ0hdKFtDSDNdKVtDSDNdKWMoPU8pW25IXWMyPU8=

> <s_epik_cmdline>
J2VwaWtfcHl0aG9uJywgJy1waCcsICc3LjAnLCAnLXRuJywgJzgnLCAnLW1hJywgJzIwMCcsICctbWV0YWxfYmluZGluZycsICctaW1hZScsICc8aW5maWxlLm1hZT4nLCAnLW9tYWUnLCAnPG91dGZpbGUubWFlPic=

> <r_lp_tautomer_probability>
0.999537

> <r_epik_Ionization_Penalty>
3.83548

> <r_epik_Ionization_Penalty_Charging>
1.96903e-07

> <r_epik_Ionization_Penalty_Neutral>
3.83548

> <r_epik_State_Penalty>
3.83512

> <r_epik_Charging_Adjusted_Penalty>
3.83512

> <i_epik_Tot_Q>
-1

> <i_epik_Tot_abs_Q>
1

> <r_epik_Metal_State_Penalty>
0.576105

> <b_epik_Metal_Only>
1

> <s_lp_Force_Field>
OPLS_2005

> <r_lp_Energy>
38.6384

> <b_lp_Chiralities_Consistent>
1

> <s_lp_Variant>
AV-unprocessed.smi:5-2

> <Gold.Version>
5.8.1

> <Gold.Id.Protein>
6NUR|6NUR_protein|mol2

> <Gold.PLP.Fitness>
46.3707

> <Gold.PLP.PLP>
-39.4732

> <Gold.PLP.part.hbond>
-3.0000

> <Gold.PLP.part.metal>
0.0000

> <Gold.PLP.part.buried>
-4.6126

> <Gold.PLP.part.nonpolar>
-32.8714

> <Gold.PLP.part.repulsive>
1.4909

> <Gold.PLP.ligand.clash>
0.0529

> <Gold.PLP.ligand.torsion>
0.3412

> <Gold.PLP.Chemscore.Hbond>
2.5123

> <Gold.PLP.Chemscore.CHOScore>
0.0000

> <Gold.PLP.Chemscore.Metal>
0.0000

> <Gold.Chemscore.Hbonds>
donor molecule, donor type, donor heavy atom, donor atom, acceptor molecule, acceptor atom, score
      P1  H  7989  7998       L1    21  0.30
      P1  H  7997  8010       L1    21  1.00
      P1  H 10752 10764       L1    18  0.76

> <Gold.PLP.Chemscore.Internal.Correction>
0.0960

> <Gold.Rescore>
     Score         DG    S(hbond)    S(metal)    S(lipo)     H(rot)  DE(clash)    DE(int)     intcor
     16.23     -18.51       1.95        0.00      87.64       1.46       0.64       1.63       ----

> <Gold.Chemscore.Fitness>
16.2323

> <Gold.Chemscore.DG>
-18.5060

> <Gold.Chemscore.ZeroCoef>
-5.4800

> <Gold.Chemscore.Hbond>
1.9460

> <Gold.Chemscore.Metal>
0.0000

> <Gold.Chemscore.Lipo>
87.6417

> <Gold.Chemscore.Internal_Hbond>
0.0000

> <Gold.Chemscore.DEClash>
0.6388

> <Gold.Chemscore.DEInternal>
1.6349

> <Gold.Chemscore.Rot>
1.4561

> <Gold.Chemscore.Internal.Correction>
   9.000000E+99

> <Gold.Chemscore.Hbonds>
donor molecule, donor type, donor heavy atom, donor atom, acceptor molecule, acceptor atom, score
      P1  H  7989  7998       L1    21  0.07
      P1  H  7997  8010       L1    21  0.97
      P1  H 10752 10764       L1    18  0.25

> <Gold.Chemscore.Hbond.Weighted>
-6.4995

> <Gold.Chemscore.Metal.Weighted>
-0.0000

> <Gold.Chemscore.Lipo.Weighted>
-10.2541

> <Gold.Chemscore.Internal_Hbond.Weighted>
0.0000

> <Gold.Chemscore.DEClash.Weighted>
0.6388

> <Gold.Chemscore.DEInternal.Weighted>
1.6349

> <Gold.Chemscore.Rot.Weighted>
3.7276

> <Gold.Chemscore.Internal.Correction.Weighted>
   9.000000E+99

> <Gold.Protein.RotatedTorsions>
[ 6907 6896 6895 6894 ] final    2.82 input  -60.11 | X-H torsion
[ 7974 7965 7964 7962 ] final  -14.58 input  175.53 | X-H torsion
[ 8008 7997 7996 7995 ] final   94.94 input   59.86 | X-H torsion
[ 10167 10162 10161 10158 ] final   53.18 input  -65.29 | X-H torsion
[ 10718 10713 10712 10709 ] final -144.12 input   66.30 | X-H torsion
[ 10763 10752 10751 10750 ] final  -69.19 input  -60.55 | X-H torsion
[ 11005 11000 10999 10996 ] final -115.84 input  -57.11 | X-H torsion

> <Gold.Protein.ActiveResidues>
 VAL166  LYS551  ARG553  GLY616  TRP617  ASP618  TYR619  PRO620  LYS621  CYS622 
 ASP623  PHE694  ASN695  SER759  ASP760  ASP761  ALA762  ILE779  LEU786  VAL792 
 PHE793  MET794  SER795  GLU796  ALA797  LYS798  CYS799  TRP800  GLU811  SER814 

> <Gold.Protein.RotatedAtoms>
  151.6150  135.1037  160.0089 H   0  0  0  0  0  0  0  0  0  0  0  0  # atno 6907 bound_to 6896
  152.4188  133.7078  159.6472 H   0  0  0  0  0  0  0  0  0  0  0  0  # atno 6908 bound_to 6896
  150.8076  133.8408  159.3219 H   0  0  0  0  0  0  0  0  0  0  0  0  # atno 6909 bound_to 6896
  146.2068  140.3368  142.8404 H   0  0  0  0  0  0  0  0  0  0  0  0  # atno 7974 bound_to 7965
  156.0635  140.3293  155.7490 H   0  0  0  0  0  0  0  0  0  0  0  0  # atno 8008 bound_to 7997
  155.5418  140.0602  157.2886 H   0  0  0  0  0  0  0  0  0  0  0  0  # atno 8009 bound_to 7997
  154.4493  140.1909  156.0586 H   0  0  0  0  0  0  0  0  0  0  0  0  # atno 8010 bound_to 7997
  140.2435  144.3557  150.6372 H   0  0  0  0  0  0  0  0  0  0  0  0  # atno 10167 bound_to 10162
  156.3663  130.7764  151.1939 H   0  0  0  0  0  0  0  0  0  0  0  0  # atno 10718 bound_to 10713
  154.3998  135.6033  153.5890 H   0  0  0  0  0  0  0  0  0  0  0  0  # atno 10763 bound_to 10752
  152.9788  135.5904  154.4198 H   0  0  0  0  0  0  0  0  0  0  0  0  # atno 10764 bound_to 10752
  154.3994  135.2843  155.2084 H   0  0  0  0  0  0  0  0  0  0  0  0  # atno 10765 bound_to 10752
  141.0461  133.9760  157.2915 H   0  0  0  0  0  0  0  0  0  0  0  0  # atno 11005 bound_to 11000
  144.8813  140.7404  143.5985 LP  0  0  0  0  0  0  0  0  0  0  0  0  # atno 17320 bound_to 7965
  145.3289  139.1765  143.4548 LP  0  0  0  0  0  0  0  0  0  0  0  0  # atno 17321 bound_to 7965
  140.6095  143.2169  151.6914 LP  0  0  0  0  0  0  0  0  0  0  0  0  # atno 17342 bound_to 10162
  139.5069  144.3664  152.0512 LP  0  0  0  0  0  0  0  0  0  0  0  0  # atno 17343 bound_to 10162
  157.7479  131.0385  150.4507 LP  0  0  0  0  0  0  0  0  0  0  0  0  # atno 17370 bound_to 10713
  156.4727  130.4056  149.6508 LP  0  0  0  0  0  0  0  0  0  0  0  0  # atno 17371 bound_to 10713
  139.9313  135.0199  156.8409 LP  0  0  0  0  0  0  0  0  0  0  0  0  # atno 17394 bound_to 11000
  140.6143  134.0053  155.7590 LP  0  0  0  0  0  0  0  0  0  0  0  0  # atno 17395 bound_to 11000

$$$$
