AV-unprocessed.smi:2087|AV-procd|sdf|8525|dock7
  -GOLD-   2272011243D 1   1.00000     0.00000
 Structure written by MMmdl.
 50 51  0  0  0  0  0  0  0  0  1 V2000
  151.0581  143.7018  158.3195 C   0  0  0  0  0  0  0  0  0  0  0  0
  151.5664  142.3983  158.9590 C   0  0  0  0  0  0  0  0  0  0  0  0
  152.4816  142.6494  160.1700 C   0  0  0  0  0  0  0  0  0  0  0  0
  152.1414  141.3849  157.9383 C   0  0  0  0  0  0  0  0  0  0  0  0
  151.1950  140.6972  157.0537 N   0  0  0  0  0  0  0  0  0  0  0  0
  151.8934  139.7365  156.2056 C   0  0  0  0  0  0  0  0  0  0  0  0
  150.9344  138.9917  155.2637 C   0  0  0  0  0  0  0  0  0  0  0  0
  150.2261  139.9385  154.4736 O   0  0  0  0  0  0  0  0  0  0  0  0
  149.4725  140.8621  155.2550 C   0  0  2  0  0  0  0  0  0  0  0  0
  148.7352  141.8284  154.3123 C   0  0  0  0  0  0  0  0  0  0  0  0
  147.8828  142.7546  155.0505 N   0  0  0  0  0  0  0  0  0  0  0  0
  146.5972  142.5420  155.3702 C   0  0  0  0  0  0  0  0  0  0  0  0
  145.9855  141.5156  155.0699 O   0  0  0  0  0  0  0  0  0  0  0  0
  145.9130  143.6574  156.1722 C   0  0  0  0  0  0  0  0  0  0  0  0
  145.6280  143.2809  157.5634 N   0  0  0  0  0  0  0  0  0  0  0  0
  146.2244  143.9802  158.5972 C   0  0  0  0  0  0  0  0  0  0  0  0
  146.0248  143.6950  159.9023 C   0  0  0  0  0  0  0  0  0  0  0  0
  145.1428  142.6058  160.3019 C   0  0  0  0  0  0  0  0  0  0  0  0
  144.9365  142.2977  161.4769 O   0  0  0  0  0  0  0  0  0  0  0  0
  144.5383  141.9129  159.2279 N   0  0  0  0  0  0  0  0  0  0  0  0
  143.6652  140.8108  159.5750 C   0  0  0  0  0  0  0  0  0  0  0  0
  144.7610  142.2069  157.8623 C   0  0  0  0  0  0  0  0  0  0  0  0
  144.2335  141.5617  156.9533 O   0  0  0  0  0  0  0  0  0  0  0  0
  150.4333  141.6088  156.2033 C   0  0  0  0  0  0  0  0  0  0  0  0
  151.8742  144.2976  157.9102 H   0  0  0  0  0  0  0  0  0  0  0  0
  150.5375  144.3189  159.0523 H   0  0  0  0  0  0  0  0  0  0  0  0
  150.3585  143.4930  157.5097 H   0  0  0  0  0  0  0  0  0  0  0  0
  150.6858  141.9089  159.3778 H   0  0  0  0  0  0  0  0  0  0  0  0
  153.3733  143.2181  159.9144 H   0  0  0  0  0  0  0  0  0  0  0  0
  152.8033  141.7102  160.6209 H   0  0  0  0  0  0  0  0  0  0  0  0
  151.9530  143.2132  160.9392 H   0  0  0  0  0  0  0  0  0  0  0  0
  152.9274  141.8585  157.3482 H   0  0  0  0  0  0  0  0  0  0  0  0
  152.6516  140.6215  158.5278 H   0  0  0  0  0  0  0  0  0  0  0  0
  152.6511  140.2500  155.6113 H   0  0  0  0  0  0  0  0  0  0  0  0
  152.4221  139.0106  156.8244 H   0  0  0  0  0  0  0  0  0  0  0  0
  151.4909  138.3241  154.6058 H   0  0  0  0  0  0  0  0  0  0  0  0
  150.2322  138.3768  155.8285 H   0  0  0  0  0  0  0  0  0  0  0  0
  148.7388  140.3127  155.8482 H   0  0  0  0  0  0  0  0  0  0  0  0
  149.4615  142.4263  153.7610 H   0  0  0  0  0  0  0  0  0  0  0  0
  148.1617  141.2769  153.5649 H   0  0  0  0  0  0  0  0  0  0  0  0
  148.3047  143.6236  155.3441 H   0  0  0  0  0  0  0  0  0  0  0  0
  146.5603  144.5351  156.1502 H   0  0  0  0  0  0  0  0  0  0  0  0
  144.9913  143.9601  155.6715 H   0  0  0  0  0  0  0  0  0  0  0  0
  146.8899  144.7951  158.3511 H   0  0  0  0  0  0  0  0  0  0  0  0
  146.5258  144.2790  160.6604 H   0  0  0  0  0  0  0  0  0  0  0  0
  143.0713  140.4971  158.7171 H   0  0  0  0  0  0  0  0  0  0  0  0
  142.9875  141.1512  160.3601 H   0  0  0  0  0  0  0  0  0  0  0  0
  144.3036  139.9976  159.9236 H   0  0  0  0  0  0  0  0  0  0  0  0
  149.8380  142.2799  156.8181 H   0  0  0  0  0  0  0  0  0  0  0  0
  151.1156  142.2301  155.6209 H   0  0  0  0  0  0  0  0  0  0  0  0
  1  2  1  0  0  0  0
  1 25  1  0  0  0  0
  1 26  1  0  0  0  0
  1 27  1  0  0  0  0
  2  3  1  0  0  0  0
  2  4  1  0  0  0  0
  2 28  1  0  0  0  0
  3 29  1  0  0  0  0
  3 30  1  0  0  0  0
  3 31  1  0  0  0  0
  4  5  1  0  0  0  0
  4 32  1  0  0  0  0
  4 33  1  0  0  0  0
  5 24  1  0  0  0  0
  5  6  1  0  0  0  0
  6  7  1  0  0  0  0
  6 34  1  0  0  0  0
  6 35  1  0  0  0  0
  7  8  1  0  0  0  0
  7 36  1  0  0  0  0
  7 37  1  0  0  0  0
  8  9  1  0  0  0  0
  9 10  1  0  0  0  0
  9 24  1  0  0  0  0
  9 38  1  0  0  0  0
 10 11  1  0  0  0  0
 10 39  1  0  0  0  0
 10 40  1  0  0  0  0
 11 12  1  0  0  0  0
 11 41  1  0  0  0  0
 12 13  2  0  0  0  0
 12 14  1  0  0  0  0
 14 15  1  0  0  0  0
 14 42  1  0  0  0  0
 14 43  1  0  0  0  0
 15 22  1  0  0  0  0
 15 16  1  0  0  0  0
 16 17  2  0  0  0  0
 16 44  1  0  0  0  0
 17 18  1  0  0  0  0
 17 45  1  0  0  0  0
 18 19  2  0  0  0  0
 18 20  1  0  0  0  0
 20 21  1  0  0  0  0
 20 22  1  0  0  0  0
 21 46  1  0  0  0  0
 21 47  1  0  0  0  0
 21 48  1  0  0  0  0
 22 23  2  0  0  0  0
 24 49  1  0  0  0  0
 24 50  1  0  0  0  0
M  END
> <s_m_source_file>
AV-unprocessed.smi

> <i_m_source_file_index>
2087

> <i_lp_mmshare_version>
43012

> <i_f3d_flags>
0

> <s_epik_input>
W0NIM11bQ0hdKFtDSDNdKVtDSDJdTjFbQ0gyXVtDSDJdT1tDQEhdKFtDSDJdMSlbQ0gyXVtOSF1DKD1PKVtDSDJdbjJbY0hdW2NIXWMoPU8pbihbQ0gzXSljMj1P

> <s_epik_cmdline>
J2VwaWtfcHl0aG9uJywgJy1waCcsICc3LjAnLCAnLXRuJywgJzgnLCAnLW1hJywgJzIwMCcsICctbWV0YWxfYmluZGluZycsICctaW1hZScsICc8aW5maWxlLm1hZT4nLCAnLW9tYWUnLCAnPG91dGZpbGUubWFlPic=

> <r_lp_tautomer_probability>
1

> <r_epik_Ionization_Penalty>
1.11669

> <r_epik_Ionization_Penalty_Charging>
1.16423e-08

> <r_epik_Ionization_Penalty_Neutral>
1.11669

> <r_epik_State_Penalty>
1.17516

> <r_epik_Charging_Adjusted_Penalty>
1.17516

> <i_epik_Tot_Q>
0

> <i_epik_Tot_abs_Q>
0

> <r_epik_Metal_State_Penalty>
1.17513

> <b_epik_Metal_Only>
0

> <s_lp_Force_Field>
OPLS_2005

> <r_lp_Energy>
38.2596

> <b_lp_Chiralities_Consistent>
1

> <s_lp_Variant>
AV-unprocessed.smi:2087-6

> <Gold.Version>
5.8.1

> <Gold.Id.Protein>
6NUR|6NUR_protein|mol2

> <Gold.PLP.Fitness>
43.0543

> <Gold.PLP.PLP>
-34.8331

> <Gold.PLP.part.hbond>
-3.6651

> <Gold.PLP.part.metal>
0.0000

> <Gold.PLP.part.buried>
-5.8429

> <Gold.PLP.part.nonpolar>
-25.5763

> <Gold.PLP.part.repulsive>
0.3786

> <Gold.PLP.ligand.clash>
0.0000

> <Gold.PLP.ligand.torsion>
0.4386

> <Gold.PLP.Chemscore.Hbond>
2.0000

> <Gold.PLP.Chemscore.CHOScore>
1.0000

> <Gold.PLP.Chemscore.Metal>
0.0000

> <Gold.Chemscore.Hbonds>
donor molecule, donor type, donor heavy atom, donor atom, acceptor molecule, acceptor atom, score
      L1  H    11    41       P1  8028  0.31
      P1  H  7989  7998       L1     8  1.00
      L1  C    16    44       P1  8029  0.53

> <Gold.PLP.Chemscore.Internal.Correction>
0.0985

> <Gold.Rescore>
     Score         DG    S(hbond)    S(metal)    S(lipo)     H(rot)  DE(clash)    DE(int)     intcor
     12.79     -15.12       1.70        0.00      81.11       2.16       0.11       2.22       ----

> <Gold.Chemscore.Fitness>
12.7893

> <Gold.Chemscore.DG>
-15.1225

> <Gold.Chemscore.ZeroCoef>
-5.4800

> <Gold.Chemscore.Hbond>
1.7042

> <Gold.Chemscore.Metal>
0.0000

> <Gold.Chemscore.Lipo>
81.1084

> <Gold.Chemscore.Internal_Hbond>
0.0000

> <Gold.Chemscore.DEClash>
0.1128

> <Gold.Chemscore.DEInternal>
2.2204

> <Gold.Chemscore.Rot>
2.1638

> <Gold.Chemscore.Internal.Correction>
   9.000000E+99

> <Gold.Chemscore.Hbonds>
donor molecule, donor type, donor heavy atom, donor atom, acceptor molecule, acceptor atom, score
      L1  H    11    41       P1  8028  0.27
      P1  H  7989  7998       L1     8  0.33

> <Gold.Chemscore.Hbond.Weighted>
-5.6921

> <Gold.Chemscore.Metal.Weighted>
-0.0000

> <Gold.Chemscore.Lipo.Weighted>
-9.4897

> <Gold.Chemscore.Internal_Hbond.Weighted>
0.0000

> <Gold.Chemscore.DEClash.Weighted>
0.1128

> <Gold.Chemscore.DEInternal.Weighted>
2.2204

> <Gold.Chemscore.Rot.Weighted>
5.5393

> <Gold.Chemscore.Internal.Correction.Weighted>
   9.000000E+99

> <Gold.Protein.RotatedTorsions>
[ 6907 6896 6895 6894 ] final  -78.92 input  -60.11 | X-H torsion
[ 7974 7965 7964 7962 ] final  159.88 input  175.53 | X-H torsion
[ 8008 7997 7996 7995 ] final -151.53 input   59.86 | X-H torsion
[ 10167 10162 10161 10158 ] final -135.81 input  -65.29 | X-H torsion
[ 10718 10713 10712 10709 ] final   -1.89 input   66.30 | X-H torsion
[ 10763 10752 10751 10750 ] final  -23.45 input  -60.55 | X-H torsion
[ 11005 11000 10999 10996 ] final  -21.49 input  -57.11 | X-H torsion

> <Gold.Protein.ActiveResidues>
 VAL166  LYS551  ARG553  GLY616  TRP617  ASP618  TYR619  PRO620  LYS621  CYS622 
 ASP623  PHE694  ASN695  SER759  ASP760  ASP761  ALA762  ILE779  LEU786  VAL792 
 PHE793  MET794  SER795  GLU796  ALA797  LYS798  CYS799  TRP800  GLU811  SER814 

> <Gold.Protein.RotatedAtoms>
  150.6961  134.4200  159.5200 H   0  0  0  0  0  0  0  0  0  0  0  0  # atno 6907 bound_to 6896
  152.1944  134.8640  160.0523 H   0  0  0  0  0  0  0  0  0  0  0  0  # atno 6908 bound_to 6896
  151.9584  133.3652  159.4063 H   0  0  0  0  0  0  0  0  0  0  0  0  # atno 6909 bound_to 6896
  144.7767  139.7678  143.6276 H   0  0  0  0  0  0  0  0  0  0  0  0  # atno 7974 bound_to 7965
  155.6408  140.0701  157.2619 H   0  0  0  0  0  0  0  0  0  0  0  0  # atno 8008 bound_to 7997
  154.4184  140.1750  156.1621 H   0  0  0  0  0  0  0  0  0  0  0  0  # atno 8009 bound_to 7997
  155.9857  140.3350  155.6708 H   0  0  0  0  0  0  0  0  0  0  0  0  # atno 8010 bound_to 7997
  139.8741  143.6920  152.2636 H   0  0  0  0  0  0  0  0  0  0  0  0  # atno 10167 bound_to 10162
  156.7990  130.5386  149.5724 H   0  0  0  0  0  0  0  0  0  0  0  0  # atno 10718 bound_to 10713
  153.6681  135.6973  153.5156 H   0  0  0  0  0  0  0  0  0  0  0  0  # atno 10763 bound_to 10752
  153.2579  135.4254  155.0864 H   0  0  0  0  0  0  0  0  0  0  0  0  # atno 10764 bound_to 10752
  154.8434  135.3547  154.6225 H   0  0  0  0  0  0  0  0  0  0  0  0  # atno 10765 bound_to 10752
  140.8566  133.7818  156.0027 H   0  0  0  0  0  0  0  0  0  0  0  0  # atno 11005 bound_to 11000
  146.1950  139.5211  142.9780 LP  0  0  0  0  0  0  0  0  0  0  0  0  # atno 17320 bound_to 7965
  145.6167  141.0330  143.1937 LP  0  0  0  0  0  0  0  0  0  0  0  0  # atno 17321 bound_to 7965
  139.7256  144.7593  151.0884 LP  0  0  0  0  0  0  0  0  0  0  0  0  # atno 17342 bound_to 10162
  140.7756  143.5152  150.9603 LP  0  0  0  0  0  0  0  0  0  0  0  0  # atno 17343 bound_to 10162
  156.1113  130.6042  151.0051 LP  0  0  0  0  0  0  0  0  0  0  0  0  # atno 17370 bound_to 10713
  157.6563  131.0889  150.7939 LP  0  0  0  0  0  0  0  0  0  0  0  0  # atno 17371 bound_to 10713
  140.8730  134.2704  157.5182 LP  0  0  0  0  0  0  0  0  0  0  0  0  # atno 17394 bound_to 11000
  139.8705  134.9577  156.4276 LP  0  0  0  0  0  0  0  0  0  0  0  0  # atno 17395 bound_to 11000

$$$$
