#       Name:                AV-unprocessed.smi:249
#       Creating user name   scv26
#       Creation time:       Thu Mar 26 21:02:11 2020


#       File generated by GOLD software.
#

@<TRIPOS>MOLECULE
AV-unprocessed.smi:249
    72    75     1
SMALL
NO_CHARGES


@<TRIPOS>ATOM
      1 ****        -4.9360   0.0453   4.7252 C.3            1 S1                 0.0000
      2 ****        -3.5107   0.1549   4.1593 C.3            1 S1                 0.0000
      3 ****        -3.4424  -0.0417   2.6822 N.4            1 S1                 1.0000
      4 ****        -4.1603   1.0423   1.9505 C.3            1 S1                 0.0000
      5 ****        -4.1629   0.8197   0.4295 C.3            1 S1                 0.0000
      6 ****        -2.7333   0.7200  -0.1269 C.3            1 S1                 0.0000
      7 ****        -2.0064   1.9970  -0.0294 N.3            1 S1                 0.0000
      8 ****        -2.5956   3.1645  -0.6768 C.3            1 S1                 0.0000
      9 ****        -0.6733   1.9542  -0.2513 C.ar           1 S1                 0.0000
     10 ****         0.1284   2.4933   0.6999 N.ar           1 S1                 0.0000
     11 ****         1.4558   2.4644   0.5476 C.ar           1 S1                 0.0000
     12 ****         2.1697   1.9516  -0.4568 N.ar           1 S1                 0.0000
     13 ****         1.3635   1.4178  -1.4188 C.ar           1 S1                 0.0000
     14 ****        -0.0587   1.3852  -1.4021 C.ar           1 S1                 0.0000
     15 ****        -0.5338   0.7726  -2.5554 N.2            1 S1                 0.0000
     16 ****         0.5471   0.4452  -3.2095 C.2            1 S1                 0.0000
     17 ****         1.7301   0.7800  -2.5906 N.pl3          1 S1                 0.0000
     18 ****         3.0698   0.5077  -3.0810 C.3            1 S1                 0.0000
     19 ****         3.4490  -0.9936  -3.0114 C.3            1 S1                 0.0000
     20 ****         4.8621  -1.2235  -3.5988 C.3            1 S1                 0.0000
     21 ****         4.8794  -0.9474  -4.9840 O.3            1 S1                 0.0000
     22 ****         3.2550  -1.5907  -1.5872 C.3            1 S1                 0.0000
     23 ****         4.2003  -1.0853  -0.4976 C.3            1 S1                 0.0000
     24 ****         4.5353  -2.3373   0.3175 C.3            1 S1                 0.0000
     25 ****         3.5771  -3.3046  -0.0853 O.3            1 S1                 0.0000
     26 ****         3.3598  -3.1141  -1.4728 C.3            1 S1                 0.0000
     27 ****        -2.0557  -0.4432   0.6302 C.3            1 S1                 0.0000
     28 ****        -2.0494  -0.2407   2.1633 C.3            1 S1                 0.0000
     29 ****        -1.3278  -1.4411   2.8111 C.3            1 S1                 0.0000
     30 ****        -4.9115   0.0339   5.8153 H              1 S1                 0.0000
     31 ****        -5.4215  -0.8747   4.3984 H              1 S1                 0.0000
     32 ****        -5.5646   0.8863   4.4343 H              1 S1                 0.0000
     33 ****        -3.0672   1.1150   4.4273 H              1 S1                 0.0000
     34 ****        -2.9295  -0.6070   4.6728 H              1 S1                 0.0000
     35 ****        -5.1981   1.0956   2.2748 H              1 S1                 0.0000
     36 ****        -3.7080   2.0058   2.1901 H              1 S1                 0.0000
     37 ****        -4.7019  -0.1020   0.2061 H              1 S1                 0.0000
     38 ****        -4.7247   1.6107  -0.0672 H              1 S1                 0.0000
     39 ****        -2.8020   0.4581  -1.1831 H              1 S1                 0.0000
     40 ****        -1.8809   3.9832  -0.7795 H              1 S1                 0.0000
     41 ****        -3.4329   3.5394  -0.0885 H              1 S1                 0.0000
     42 ****        -2.9620   2.9085  -1.6715 H              1 S1                 0.0000
     43 ****         2.0284   2.9113   1.3470 H              1 S1                 0.0000
     44 ****         0.5120  -0.0651  -4.1613 H              1 S1                 0.0000
     45 ****         3.1235   0.8709  -4.1076 H              1 S1                 0.0000
     46 ****         3.7814   1.1031  -2.5082 H              1 S1                 0.0000
     47 ****         2.7485  -1.5296  -3.6543 H              1 S1                 0.0000
     48 ****         5.6041  -0.5937  -3.1084 H              1 S1                 0.0000
     49 ****         5.1885  -2.2539  -3.4756 H              1 S1                 0.0000
     50 ****         4.6672  -0.0355  -5.1120 H              1 S1                 0.0000
     51 ****         2.2430  -1.3633  -1.2509 H              1 S1                 0.0000
     52 ****         5.1095  -0.6284  -0.8865 H              1 S1                 0.0000
     53 ****         3.7009  -0.3397   0.1213 H              1 S1                 0.0000
     54 ****         5.5340  -2.6986   0.0680 H              1 S1                 0.0000
     55 ****         4.4956  -2.1615   1.3927 H              1 S1                 0.0000
     56 ****         2.4548  -3.6214  -1.8080 H              1 S1                 0.0000
     57 ****         4.2050  -3.5280  -2.0210 H              1 S1                 0.0000
     58 ****        -2.5875  -1.3671   0.3978 H              1 S1                 0.0000
     59 ****        -1.0409  -0.6061   0.2667 H              1 S1                 0.0000
     60 ****        -1.4742   0.6578   2.3918 H              1 S1                 0.0000
     61 ****        -0.3893  -1.6542   2.2982 H              1 S1                 0.0000
     62 ****        -1.9372  -2.3445   2.7660 H              1 S1                 0.0000
     63 ****        -1.0627  -1.2577   3.8515 H              1 S1                 0.0000
     64 ****        -3.9379  -0.8992   2.4844 H              1 S1                 0.0000
     65 ****        -2.1353   2.1407   0.9518 LP             1 S1                 0.0000
     66 ****        -0.2730   2.9120   1.5144 LP             1 S1                 0.0000
     67 ****         3.1688   1.9579  -0.4987 LP             1 S1                 0.0000
     68 ****        -1.4849   0.6181  -2.8227 LP             1 S1                 0.0000
     69 ****         4.2042  -1.5192  -5.4500 LP             1 S1                 0.0000
     70 ****         5.7889  -1.1369  -5.3541 LP             1 S1                 0.0000
     71 ****         2.7231  -3.1732   0.4180 LP             1 S1                 0.0000
     72 ****         3.9260  -4.2262   0.0850 LP             1 S1                 0.0000
@<TRIPOS>BOND
    1    1    2 1     
    2    1   30 1     
    3    1   31 1     
    4    1   32 1     
    5    2    3 1     
    6    2   33 1     
    7    2   34 1     
    8    3   28 1     
    9    3    4 1     
   10    3   64 1     
   11    4    5 1     
   12    4   35 1     
   13    4   36 1     
   14    5    6 1     
   15    5   37 1     
   16    5   38 1     
   17    6    7 1     
   18    6   27 1     
   19    6   39 1     
   20    7    8 1     
   21    7    9 1     
   22    8   40 1     
   23    8   41 1     
   24    8   42 1     
   25    9   14 ar    
   26    9   10 ar    
   27   10   11 ar    
   28   11   12 ar    
   29   11   43 1     
   30   12   13 ar    
   31   13   17 1     
   32   13   14 ar    
   33   14   15 1     
   34   15   16 2     
   35   16   17 1     
   36   16   44 1     
   37   17   18 1     
   38   18   19 1     
   39   18   45 1     
   40   18   46 1     
   41   19   20 1     
   42   19   22 1     
   43   19   47 1     
   44   20   21 1     
   45   20   48 1     
   46   20   49 1     
   47   21   50 1     
   48   22   26 1     
   49   22   23 1     
   50   22   51 1     
   51   23   24 1     
   52   23   52 1     
   53   23   53 1     
   54   24   25 1     
   55   24   54 1     
   56   24   55 1     
   57   25   26 1     
   58   26   56 1     
   59   26   57 1     
   60   27   28 1     
   61   27   58 1     
   62   27   59 1     
   63   28   29 1     
   64   28   60 1     
   65   29   61 1     
   66   29   62 1     
   67   29   63 1     
   68    7   65 1     
   69   10   66 1     
   70   12   67 1     
   71   15   68 1     
   72   21   69 1     
   73   21   70 1     
   74   25   71 1     
   75   25   72 1     
@<TRIPOS>SUBSTRUCTURE
      1 S1             1
@<TRIPOS>SET
LONE_PAIRS      STATIC     ATOMS    <user>   **** ""
8 65 66 67 68 69 70 71 72
DONOR_HYDROGENS      STATIC     ATOMS    <user>   **** ""
2 64 50
ATOM$BLUE        STATIC     ATOMS    COLORGROUP SYSTEM
8 65 66 67 68 69 70 71 72
ATOM$RED        STATIC     ATOMS    COLORGROUP SYSTEM
2 64 50
