#       Name:                AV-unprocessed.smi:33
#       Creating user name   scv26
#       Creation time:       Thu Mar 26 15:49:39 2020


#       File generated by GOLD software.
#

@<TRIPOS>MOLECULE
AV-unprocessed.smi:33
    80    85     1
SMALL
NO_CHARGES


@<TRIPOS>ATOM
      1 ****        -7.5634  -1.5295  -2.1105 O.2            1 S1                 0.0000
      2 ****        -7.5027  -0.5669  -1.3426 C.2            1 S1                 0.0000
      3 ****        -6.3448  -0.0303  -0.9095 O.3            1 S1                 0.0000
      4 ****        -5.1064  -0.5742  -1.3363 C.3            1 S1                 0.0000
      5 ****        -3.9513   0.2307  -0.7177 C.3            1 S1                 0.0000
      6 ****        -2.7188  -0.2194  -1.2718 O.3            1 S1                 0.0000
      7 ****        -2.2232  -1.2836  -0.5160 C.3            1 S1                 0.0000
      8 ****        -0.7381  -1.1309  -0.3915 N.pl3          1 S1                 0.0000
      9 ****         0.2119  -2.1264  -0.4582 C.2            1 S1                 0.0000
     10 ****         1.4489  -1.7325  -0.3201 N.2            1 S1                 0.0000
     11 ****         1.3449  -0.3594  -0.1409 C.ar           1 S1                 0.0000
     12 ****         2.2875   0.6843   0.0669 C.ar           1 S1                 0.0000
     13 ****         3.6236   0.4712   0.1364 N.am           1 S1                 0.0000
     14 ****         4.1218  -0.3074   1.2802 C.2            1 S1                 0.0000
     15 ****         3.4619  -0.3513   2.3203 O.2            1 S1                 0.0000
     16 ****         5.4489  -1.0088   1.2043 C.ar           1 S1                 0.0000
     17 ****         6.3660  -0.9038   2.2730 C.ar           1 S1                 0.0000
     18 ****         7.6051  -1.5706   2.2136 C.ar           1 S1                 0.0000
     19 ****         7.9278  -2.3603   1.0936 C.ar           1 S1                 0.0000
     20 ****         7.0068  -2.4917   0.0370 C.ar           1 S1                 0.0000
     21 ****         5.7671  -1.8262   0.0961 C.ar           1 S1                 0.0000
     22 ****         4.4565   1.0505  -0.9283 C.2            1 S1                 0.0000
     23 ****         3.9664   1.2511  -2.0413 O.2            1 S1                 0.0000
     24 ****         5.9109   1.3415  -0.6856 C.ar           1 S1                 0.0000
     25 ****         6.8780   0.9548  -1.6393 C.ar           1 S1                 0.0000
     26 ****         8.2407   1.2386  -1.4245 C.ar           1 S1                 0.0000
     27 ****         8.6431   1.9277  -0.2646 C.ar           1 S1                 0.0000
     28 ****         7.6812   2.3407   0.6768 C.ar           1 S1                 0.0000
     29 ****         6.3187   2.0561   0.4634 C.ar           1 S1                 0.0000
     30 ****         1.8152   1.9509   0.2023 N.ar           1 S1                 0.0000
     31 ****         0.5009   2.1803   0.1362 C.ar           1 S1                 0.0000
     32 ****        -0.4901   1.3065  -0.0529 N.ar           1 S1                 0.0000
     33 ****        -0.0219   0.0319  -0.1875 C.ar           1 S1                 0.0000
     34 ****        -2.9525  -1.2746   0.8439 C.3            1 S1                 0.0000
     35 ****        -2.1244  -1.3377   1.9912 O.3            1 S1                 0.0000
     36 ****        -3.7732   0.0065   0.7858 C.3            1 S1                 0.0000
     37 ****        -3.0930   1.0417   1.2818 F              1 S1                 0.0000
     38 ****        -8.7039   0.1284  -0.7971 C.ar           1 S1                 0.0000
     39 ****        -9.9916  -0.2793  -1.2173 C.ar           1 S1                 0.0000
     40 ****       -11.1441   0.3603  -0.7209 C.ar           1 S1                 0.0000
     41 ****       -11.0230   1.4138   0.2037 C.ar           1 S1                 0.0000
     42 ****        -9.7478   1.8268   0.6318 C.ar           1 S1                 0.0000
     43 ****        -8.5940   1.1899   0.1349 C.ar           1 S1                 0.0000
     44 ****        -5.0418  -1.6271  -1.0593 H              1 S1                 0.0000
     45 ****        -5.0488  -0.5191  -2.4243 H              1 S1                 0.0000
     46 ****        -4.0858   1.2879  -0.9497 H              1 S1                 0.0000
     47 ****        -2.3554  -2.2229  -1.0546 H              1 S1                 0.0000
     48 ****        -0.0440  -3.1647  -0.6116 H              1 S1                 0.0000
     49 ****         6.1289  -0.3004   3.1374 H              1 S1                 0.0000
     50 ****         8.3080  -1.4766   3.0283 H              1 S1                 0.0000
     51 ****         8.8784  -2.8709   1.0480 H              1 S1                 0.0000
     52 ****         7.2499  -3.1044  -0.8185 H              1 S1                 0.0000
     53 ****         5.0656  -1.9391  -0.7182 H              1 S1                 0.0000
     54 ****         6.5806   0.4262  -2.5335 H              1 S1                 0.0000
     55 ****         8.9776   0.9286  -2.1507 H              1 S1                 0.0000
     56 ****         9.6882   2.1453  -0.1006 H              1 S1                 0.0000
     57 ****         7.9883   2.8775   1.5622 H              1 S1                 0.0000
     58 ****         5.5890   2.3830   1.1904 H              1 S1                 0.0000
     59 ****         0.1998   3.2110   0.2507 H              1 S1                 0.0000
     60 ****        -3.6255  -2.1327   0.8562 H              1 S1                 0.0000
     61 ****        -1.5400  -0.5944   1.9750 H              1 S1                 0.0000
     62 ****        -4.7126  -0.0550   1.3363 H              1 S1                 0.0000
     63 ****       -10.1096  -1.0856  -1.9270 H              1 S1                 0.0000
     64 ****       -12.1222   0.0421  -1.0505 H              1 S1                 0.0000
     65 ****       -11.9067   1.9043   0.5844 H              1 S1                 0.0000
     66 ****        -9.6535   2.6342   1.3433 H              1 S1                 0.0000
     67 ****        -7.6310   1.5316   0.4851 H              1 S1                 0.0000
     68 ****        -6.7231  -1.9551  -2.4461 LP             1 S1                 0.0000
     69 ****        -8.4530  -1.8846  -2.3977 LP             1 S1                 0.0000
     70 ****        -2.0573   0.5305  -1.2636 LP             1 S1                 0.0000
     71 ****        -2.8684  -0.5216  -2.2132 LP             1 S1                 0.0000
     72 ****         2.2787  -2.2902  -0.3389 LP             1 S1                 0.0000
     73 ****         2.5935   0.1407   2.3827 LP             1 S1                 0.0000
     74 ****         3.7949  -0.8788   3.1019 LP             1 S1                 0.0000
     75 ****         3.0090   1.0203  -2.2150 LP             1 S1                 0.0000
     76 ****         4.5261   1.6447  -2.7705 LP             1 S1                 0.0000
     77 ****         2.4497   2.7094   0.3511 LP             1 S1                 0.0000
     78 ****        -1.4579   1.5556  -0.0912 LP             1 S1                 0.0000
     79 ****        -1.5942  -2.1855   1.9798 LP             1 S1                 0.0000
     80 ****        -2.6874  -1.3077   2.8172 LP             1 S1                 0.0000
@<TRIPOS>BOND
    1    1    2 2     
    2    2    3 1     
    3    2   38 1     
    4    3    4 1     
    5    4    5 1     
    6    4   44 1     
    7    4   45 1     
    8    5   36 1     
    9    5    6 1     
   10    5   46 1     
   11    6    7 1     
   12    7    8 1     
   13    7   34 1     
   14    7   47 1     
   15    8   33 1     
   16    8    9 1     
   17    9   10 2     
   18    9   48 1     
   19   10   11 1     
   20   11   33 ar    
   21   11   12 ar    
   22   12   13 1     
   23   12   30 ar    
   24   13   14 am    
   25   13   22 am    
   26   14   15 2     
   27   14   16 1     
   28   16   21 ar    
   29   16   17 ar    
   30   17   18 ar    
   31   17   49 1     
   32   18   19 ar    
   33   18   50 1     
   34   19   20 ar    
   35   19   51 1     
   36   20   21 ar    
   37   20   52 1     
   38   21   53 1     
   39   22   23 2     
   40   22   24 1     
   41   24   29 ar    
   42   24   25 ar    
   43   25   26 ar    
   44   25   54 1     
   45   26   27 ar    
   46   26   55 1     
   47   27   28 ar    
   48   27   56 1     
   49   28   29 ar    
   50   28   57 1     
   51   29   58 1     
   52   30   31 ar    
   53   31   32 ar    
   54   31   59 1     
   55   32   33 ar    
   56   34   35 1     
   57   34   36 1     
   58   34   60 1     
   59   35   61 1     
   60   36   37 1     
   61   36   62 1     
   62   38   43 ar    
   63   38   39 ar    
   64   39   40 ar    
   65   39   63 1     
   66   40   41 ar    
   67   40   64 1     
   68   41   42 ar    
   69   41   65 1     
   70   42   43 ar    
   71   42   66 1     
   72   43   67 1     
   73    1   68 1     
   74    1   69 1     
   75    6   70 1     
   76    6   71 1     
   77   10   72 1     
   78   15   73 1     
   79   15   74 1     
   80   23   75 1     
   81   23   76 1     
   82   30   77 1     
   83   32   78 1     
   84   35   79 1     
   85   35   80 1     
@<TRIPOS>SUBSTRUCTURE
      1 S1             1
@<TRIPOS>SET
LONE_PAIRS      STATIC     ATOMS    <user>   **** ""
13 68 69 70 71 72 73 74 75 76 77 78 79 80
DONOR_HYDROGENS      STATIC     ATOMS    <user>   **** ""
1 61
ATOM$BLUE        STATIC     ATOMS    COLORGROUP SYSTEM
13 68 69 70 71 72 73 74 75 76 77 78 79 80
ATOM$RED        STATIC     ATOMS    COLORGROUP SYSTEM
1 61
