AV-unprocessed.smi:1381|AV-procd|sdf|5613|dock4
  -GOLD-   22720 5223D 1   1.00000     0.00000
 Structure written by MMmdl.
 42 43  0  0  0  0  0  0  0  0  3 V2000
  153.6809  142.6597  161.1237 C   0  0  0  0  0  0  0  0  0  0  0  0
  153.8397  141.3300  160.4697 C   0  0  0  0  0  0  0  0  0  0  0  0
  153.4090  140.8256  159.2755 C   0  0  0  0  0  0  0  0  0  0  0  0
  153.9082  139.4945  159.2860 C   0  0  0  0  0  0  0  0  0  0  0  0
  153.7551  138.5868  158.3095 N   0  5  0  0  0  0  0  0  0  0  0  0
  152.5200  138.2774  157.8541 C   0  0  0  0  0  0  0  0  0  0  0  0
  151.6369  137.6829  158.4767 O   0  0  0  0  0  0  0  0  0  0  0  0
  152.2927  138.6817  156.5961 N   0  0  0  0  0  0  0  0  0  0  0  0
  151.0559  138.4838  155.8504 C   0  0  0  0  0  0  0  0  0  0  0  0
  151.0804  139.2427  154.5105 C   0  0  0  0  0  0  0  0  0  0  0  0
  149.7564  139.8168  154.1669 N   0  3  1  0  0  0  0  0  0  0  0  0
  148.6445  138.8714  154.4248 C   0  0  0  0  0  0  0  0  0  0  0  0
  147.2908  139.4727  153.9982 C   0  0  2  0  0  0  0  0  0  0  0  0
  147.0896  139.5177  152.4727 C   0  0  0  0  0  0  0  0  0  0  0  0
  147.1042  140.7513  154.6052 O   0  0  0  0  0  0  0  0  0  0  0  0
  148.1429  141.6933  154.3485 C   0  0  1  0  0  0  0  0  0  0  0  0
  147.7867  142.9970  155.0709 C   0  0  0  0  0  0  0  0  0  0  0  0
  149.4875  141.1170  154.8268 C   0  0  0  0  0  0  0  0  0  0  0  0
  154.5948  139.2205  160.3825 N   0  0  0  0  0  0  0  0  0  0  0  0
  154.5508  140.3907  161.1496 O   0  0  0  0  0  0  0  0  0  0  0  0
  154.3648  143.3874  160.6868 H   0  0  0  0  0  0  0  0  0  0  0  0
  153.8886  142.5988  162.1922 H   0  0  0  0  0  0  0  0  0  0  0  0
  152.6642  143.0329  160.9991 H   0  0  0  0  0  0  0  0  0  0  0  0
  152.8268  141.3261  158.5165 H   0  0  0  0  0  0  0  0  0  0  0  0
  153.0418  139.1666  156.1236 H   0  0  0  0  0  0  0  0  0  0  0  0
  150.8921  137.4156  155.7054 H   0  0  0  0  0  0  0  0  0  0  0  0
  150.2302  138.8424  156.4653 H   0  0  0  0  0  0  0  0  0  0  0  0
  151.8110  140.0486  154.5942 H   0  0  0  0  0  0  0  0  0  0  0  0
  151.4234  138.6005  153.6976 H   0  0  0  0  0  0  0  0  0  0  0  0
  148.8166  137.9329  153.8960 H   0  0  0  0  0  0  0  0  0  0  0  0
  148.6217  138.6337  155.4897 H   0  0  0  0  0  0  0  0  0  0  0  0
  146.5044  138.8322  154.3985 H   0  0  0  0  0  0  0  0  0  0  0  0
  147.1041  138.5120  152.0519 H   0  0  0  0  0  0  0  0  0  0  0  0
  147.8671  140.0902  151.9678 H   0  0  0  0  0  0  0  0  0  0  0  0
  146.1275  139.9646  152.2213 H   0  0  0  0  0  0  0  0  0  0  0  0
  148.1943  141.9041  153.2799 H   0  0  0  0  0  0  0  0  0  0  0  0
  148.5468  143.7600  154.9006 H   0  0  0  0  0  0  0  0  0  0  0  0
  147.7020  142.8429  156.1469 H   0  0  0  0  0  0  0  0  0  0  0  0
  146.8349  143.3920  154.7153 H   0  0  0  0  0  0  0  0  0  0  0  0
  149.4775  140.9810  155.9097 H   0  0  0  0  0  0  0  0  0  0  0  0
  150.2822  141.8284  154.6045 H   0  0  0  0  0  0  0  0  0  0  0  0
  149.7644  139.9819  153.1706 H   0  0  0  0  0  0  0  0  0  0  0  0
  1  2  1  0  0  0  0
  1 21  1  0  0  0  0
  1 22  1  0  0  0  0
  1 23  1  0  0  0  0
  2 20  1  0  0  0  0
  2  3  2  0  0  0  0
  3  4  1  0  0  0  0
  3 24  1  0  0  0  0
  4  5  1  0  0  0  0
  4 19  2  0  0  0  0
  5  6  1  0  0  0  0
  6  7  2  0  0  0  0
  6  8  1  0  0  0  0
  8  9  1  0  0  0  0
  8 25  1  0  0  0  0
  9 10  1  0  0  0  0
  9 26  1  0  0  0  0
  9 27  1  0  0  0  0
 10 11  1  0  0  0  0
 10 28  1  0  0  0  0
 10 29  1  0  0  0  0
 11 18  1  0  0  0  0
 11 12  1  0  0  0  0
 11 42  1  0  0  0  0
 12 13  1  0  0  0  0
 12 30  1  0  0  0  0
 12 31  1  0  0  0  0
 13 14  1  0  0  0  0
 13 15  1  0  0  0  0
 13 32  1  0  0  0  0
 14 33  1  0  0  0  0
 14 34  1  0  0  0  0
 14 35  1  0  0  0  0
 15 16  1  0  0  0  0
 16 17  1  0  0  0  0
 16 18  1  0  0  0  0
 16 36  1  0  0  0  0
 17 37  1  0  0  0  0
 17 38  1  0  0  0  0
 17 39  1  0  0  0  0
 18 40  1  0  0  0  0
 18 41  1  0  0  0  0
 19 20  1  0  0  0  0
M  CHG  1   5  -1
M  CHG  1  11   1
M  END
> <s_m_source_file>
AV-unprocessed.smi

> <i_m_source_file_index>
1381

> <i_lp_mmshare_version>
43012

> <i_f3d_flags>
0

> <s_epik_input>
W0NIM11jMVtjSF1jKG5vMSlbTkhdQyg9TylbTkhdW0NIMl1bQ0gyXU4yW0NIMl1bQ0BASF0oW0NIM10pT1tDQEBIXShbQ0gzXSlbQ0gyXTI=

> <s_epik_cmdline>
J2VwaWtfcHl0aG9uJywgJy1waCcsICc3LjAnLCAnLXRuJywgJzgnLCAnLW1hJywgJzIwMCcsICctbWV0YWxfYmluZGluZycsICctaW1hZScsICc8aW5maWxlLm1hZT4nLCAnLW9tYWUnLCAnPG91dGZpbGUubWFlPic=

> <r_epik_Ionization_Penalty>
6.73511

> <r_epik_Ionization_Penalty_Charging>
6.73502

> <r_epik_Ionization_Penalty_Neutral>
9.26583e-05

> <r_epik_State_Penalty>
6.93549

> <r_epik_Charging_Adjusted_Penalty>
13.6705

> <i_epik_Tot_Q>
0

> <i_epik_Tot_abs_Q>
2

> <r_epik_Metal_State_Penalty>
2.87211

> <b_epik_Metal_Only>
1

> <s_lp_Force_Field>
OPLS_2005

> <r_lp_Energy>
5.71057

> <b_lp_Chiralities_Consistent>
1

> <s_lp_Variant>
AV-unprocessed.smi:1381-12

> <Gold.Version>
5.8.1

> <Gold.Id.Protein>
6NUR|6NUR_protein|mol2

> <Gold.PLP.Fitness>
43.0986

> <Gold.PLP.PLP>
-37.2184

> <Gold.PLP.part.hbond>
-2.0000

> <Gold.PLP.part.metal>
0.0000

> <Gold.PLP.part.buried>
-4.7575

> <Gold.PLP.part.nonpolar>
-30.6403

> <Gold.PLP.part.repulsive>
0.3809

> <Gold.PLP.ligand.clash>
0.0000

> <Gold.PLP.ligand.torsion>
1.6031

> <Gold.PLP.Chemscore.Hbond>
3.0000

> <Gold.PLP.Chemscore.CHOScore>
0.0000

> <Gold.PLP.Chemscore.Metal>
0.0000

> <Gold.Chemscore.Hbonds>
donor molecule, donor type, donor heavy atom, donor atom, acceptor molecule, acceptor atom, score
      L1  H    11    42       P1  7957  1.00
      P1  H  7997  8009       L1     5  0.58

> <Gold.PLP.Chemscore.Internal.Correction>
0.0865

> <Gold.Rescore>
     Score         DG    S(hbond)    S(metal)    S(lipo)     H(rot)  DE(clash)    DE(int)     intcor
     14.86     -17.24       1.72        0.00      86.04       1.58       0.74       1.64       ----

> <Gold.Chemscore.Fitness>
14.8604

> <Gold.Chemscore.DG>
-17.2356

> <Gold.Chemscore.ZeroCoef>
-5.4800

> <Gold.Chemscore.Hbond>
1.7161

> <Gold.Chemscore.Metal>
0.0000

> <Gold.Chemscore.Lipo>
86.0386

> <Gold.Chemscore.Internal_Hbond>
0.0000

> <Gold.Chemscore.DEClash>
0.7363

> <Gold.Chemscore.DEInternal>
1.6389

> <Gold.Chemscore.Rot>
1.5792

> <Gold.Chemscore.Internal.Correction>
   9.000000E+99

> <Gold.Chemscore.Hbonds>
donor molecule, donor type, donor heavy atom, donor atom, acceptor molecule, acceptor atom, score
      L1  H    11    42       P1  7957  0.94

> <Gold.Chemscore.Hbond.Weighted>
-5.7319

> <Gold.Chemscore.Metal.Weighted>
-0.0000

> <Gold.Chemscore.Lipo.Weighted>
-10.0665

> <Gold.Chemscore.Internal_Hbond.Weighted>
0.0000

> <Gold.Chemscore.DEClash.Weighted>
0.7363

> <Gold.Chemscore.DEInternal.Weighted>
1.6389

> <Gold.Chemscore.Rot.Weighted>
4.0428

> <Gold.Chemscore.Internal.Correction.Weighted>
   9.000000E+99

> <Gold.Protein.RotatedTorsions>
[ 6907 6896 6895 6894 ] final  -32.13 input  -60.11 | X-H torsion
[ 7974 7965 7964 7962 ] final   64.42 input  175.53 | X-H torsion
[ 8008 7997 7996 7995 ] final  155.30 input   59.86 | X-H torsion
[ 10167 10162 10161 10158 ] final  159.72 input  -65.29 | X-H torsion
[ 10718 10713 10712 10709 ] final   39.25 input   66.30 | X-H torsion
[ 10763 10752 10751 10750 ] final   87.57 input  -60.55 | X-H torsion
[ 11005 11000 10999 10996 ] final -153.86 input  -57.11 | X-H torsion

> <Gold.Protein.ActiveResidues>
 VAL166  LYS551  ARG553  GLY616  TRP617  ASP618  TYR619  PRO620  LYS621  CYS622 
 ASP623  PHE694  ASN695  SER759  ASP760  ASP761  ALA762  ILE779  LEU786  VAL792 
 PHE793  MET794  SER795  GLU796  ALA797  LYS798  CYS799  TRP800  GLU811  SER814 

> <Gold.Protein.RotatedAtoms>
  151.0828  134.9869  159.8364 H   0  0  0  0  0  0  0  0  0  0  0  0  # atno 6907 bound_to 6896
  152.5421  134.2160  159.8779 H   0  0  0  0  0  0  0  0  0  0  0  0  # atno 6908 bound_to 6896
  151.2192  133.4468  159.2633 H   0  0  0  0  0  0  0  0  0  0  0  0  # atno 6909 bound_to 6896
  145.8505  139.3251  143.0878 H   0  0  0  0  0  0  0  0  0  0  0  0  # atno 7974 bound_to 7965
  156.2485  140.1943  156.6780 H   0  0  0  0  0  0  0  0  0  0  0  0  # atno 8008 bound_to 7997
  154.6343  140.0591  156.9796 H   0  0  0  0  0  0  0  0  0  0  0  0  # atno 8009 bound_to 7997
  155.1661  140.3264  155.4404 H   0  0  0  0  0  0  0  0  0  0  0  0  # atno 8010 bound_to 7997
  139.4834  144.4703  151.8586 H   0  0  0  0  0  0  0  0  0  0  0  0  # atno 10167 bound_to 10162
  157.3683  130.7687  149.7099 H   0  0  0  0  0  0  0  0  0  0  0  0  # atno 10718 bound_to 10713
  153.1682  135.4538  154.9866 H   0  0  0  0  0  0  0  0  0  0  0  0  # atno 10763 bound_to 10752
  154.7947  135.3233  154.7698 H   0  0  0  0  0  0  0  0  0  0  0  0  # atno 10764 bound_to 10752
  153.8178  135.6949  153.4886 H   0  0  0  0  0  0  0  0  0  0  0  0  # atno 10765 bound_to 10752
  140.7036  134.3910  157.5207 H   0  0  0  0  0  0  0  0  0  0  0  0  # atno 11005 bound_to 11000
  145.9363  140.9012  143.0330 LP  0  0  0  0  0  0  0  0  0  0  0  0  # atno 17320 bound_to 7965
  144.6729  140.1488  143.7431 LP  0  0  0  0  0  0  0  0  0  0  0  0  # atno 17321 bound_to 7965
  140.4171  144.2292  150.5887 LP  0  0  0  0  0  0  0  0  0  0  0  0  # atno 17342 bound_to 10162
  140.4910  143.2347  151.8818 LP  0  0  0  0  0  0  0  0  0  0  0  0  # atno 17343 bound_to 10162
  155.9750  130.4094  150.3878 LP  0  0  0  0  0  0  0  0  0  0  0  0  # atno 17370 bound_to 10713
  157.1965  131.0428  151.2673 LP  0  0  0  0  0  0  0  0  0  0  0  0  # atno 17371 bound_to 10713
  139.8890  134.8841  156.2443 LP  0  0  0  0  0  0  0  0  0  0  0  0  # atno 17394 bound_to 11000
  141.0143  133.7077  156.1163 LP  0  0  0  0  0  0  0  0  0  0  0  0  # atno 17395 bound_to 11000

$$$$
