AV-unprocessed.smi:170|AV-procd|sdf|1408|dock1
  -GOLD-   2262019163D 1   1.00000     0.00000
 Structure written by MMmdl.
 57 61  0  0  0  0  0  0  0  0  1 V2000
  152.8873  139.9787  158.3876 O   0  0  0  0  0  0  0  0  0  0  0  0
  151.5013  140.0626  158.1133 C   0  0  2  0  0  0  0  0  0  0  0  0
  151.2593  139.7698  156.6195 C   0  0  0  0  0  0  0  0  0  0  0  0
  151.2513  138.3475  156.3273 N   0  0  0  0  0  0  0  0  0  0  0  0
  152.2795  137.4553  156.5344 C   0  0  0  0  0  0  0  0  0  0  0  0
  152.0247  136.2225  156.1884 N   0  0  0  0  0  0  0  0  0  0  0  0
  150.7221  136.2716  155.7080 C   0  0  0  0  0  0  0  0  0  0  0  0
  149.8314  135.3036  155.1730 C   0  0  0  0  0  0  0  0  0  0  0  0
  150.1785  133.9985  155.0621 N   0  0  0  0  0  0  0  0  0  0  0  0
  150.7116  133.5209  156.3339 C   0  0  0  0  0  0  0  0  0  0  0  0
  151.2720  132.1011  156.1844 C   0  0  0  0  0  0  0  0  0  0  0  0
  150.2447  131.2540  155.6905 O   0  0  0  0  0  0  0  0  0  0  0  0
  149.8063  131.6562  154.3986 C   0  0  0  0  0  0  0  0  0  0  0  0
  149.2101  133.0843  154.4388 C   0  0  2  0  0  0  0  0  0  0  0  0
  148.7927  133.5529  153.0191 C   0  0  0  0  0  0  0  0  0  0  0  0
  147.7115  132.6923  152.3670 C   0  0  0  0  0  0  0  0  0  0  0  0
  147.0489  133.1594  151.0619 C   0  0  0  0  0  0  0  0  0  0  0  0
  145.7444  132.5254  151.5531 C   0  0  0  0  0  0  0  0  0  0  0  0
  146.3012  132.6412  152.9744 C   0  0  0  0  0  0  0  0  0  0  0  0
  148.5890  135.7195  154.8073 N   0  0  0  0  0  0  0  0  0  0  0  0
  148.2483  137.0053  154.9393 C   0  0  0  0  0  0  0  0  0  0  0  0
  148.9779  138.0189  155.4116 N   0  0  0  0  0  0  0  0  0  0  0  0
  150.2199  137.6000  155.7895 C   0  0  0  0  0  0  0  0  0  0  0  0
  150.9569  141.4457  158.5260 C   0  0  2  0  0  0  0  0  0  0  0  0
  151.3543  142.6431  157.6558 C   0  0  0  0  0  0  0  0  0  0  0  0
  151.2011  143.7826  158.6380 C   0  0  0  0  0  0  0  0  0  0  0  0
  151.7107  143.1482  159.9296 C   0  0  0  0  0  0  0  0  0  0  0  0
  151.3440  141.7726  159.8583 O   0  0  0  0  0  0  0  0  0  0  0  0
  153.0506  139.1652  158.8406 H   0  0  0  0  0  0  0  0  0  0  0  0
  150.9943  139.2982  158.7036 H   0  0  0  0  0  0  0  0  0  0  0  0
  150.3023  140.1864  156.3033 H   0  0  0  0  0  0  0  0  0  0  0  0
  152.0244  140.2462  156.0051 H   0  0  0  0  0  0  0  0  0  0  0  0
  153.2294  137.7504  156.9562 H   0  0  0  0  0  0  0  0  0  0  0  0
  151.4991  134.1871  156.6893 H   0  0  0  0  0  0  0  0  0  0  0  0
  149.9198  133.5295  157.0846 H   0  0  0  0  0  0  0  0  0  0  0  0
  152.1337  132.0863  155.5149 H   0  0  0  0  0  0  0  0  0  0  0  0
  151.6092  131.7259  157.1506 H   0  0  0  0  0  0  0  0  0  0  0  0
  150.6366  131.5999  153.6924 H   0  0  0  0  0  0  0  0  0  0  0  0
  149.0594  130.9349  154.0684 H   0  0  0  0  0  0  0  0  0  0  0  0
  148.3232  133.0555  155.0735 H   0  0  0  0  0  0  0  0  0  0  0  0
  148.4352  134.5815  153.0541 H   0  0  0  0  0  0  0  0  0  0  0  0
  149.6742  133.5765  152.3773 H   0  0  0  0  0  0  0  0  0  0  0  0
  148.0642  131.6698  152.2189 H   0  0  0  0  0  0  0  0  0  0  0  0
  146.9826  134.2457  150.9812 H   0  0  0  0  0  0  0  0  0  0  0  0
  147.4602  132.7140  150.1557 H   0  0  0  0  0  0  0  0  0  0  0  0
  144.8479  133.1161  151.3626 H   0  0  0  0  0  0  0  0  0  0  0  0
  145.6273  131.4905  151.2274 H   0  0  0  0  0  0  0  0  0  0  0  0
  146.1110  131.7784  153.6134 H   0  0  0  0  0  0  0  0  0  0  0  0
  146.0174  133.5745  153.4642 H   0  0  0  0  0  0  0  0  0  0  0  0
  147.2469  137.2577  154.6230 H   0  0  0  0  0  0  0  0  0  0  0  0
  149.8671  141.3951  158.5504 H   0  0  0  0  0  0  0  0  0  0  0  0
  152.3926  142.5814  157.3292 H   0  0  0  0  0  0  0  0  0  0  0  0
  150.7255  142.7528  156.7718 H   0  0  0  0  0  0  0  0  0  0  0  0
  151.7576  144.6756  158.3523 H   0  0  0  0  0  0  0  0  0  0  0  0
  150.1488  144.0513  158.7401 H   0  0  0  0  0  0  0  0  0  0  0  0
  152.7984  143.2132  159.9790 H   0  0  0  0  0  0  0  0  0  0  0  0
  151.3019  143.6261  160.8203 H   0  0  0  0  0  0  0  0  0  0  0  0
  1  2  1  0  0  0  0
  1 29  1  0  0  0  0
  2  3  1  0  0  0  0
  2 24  1  0  0  0  0
  2 30  1  0  0  0  0
  3  4  1  0  0  0  0
  3 31  1  0  0  0  0
  3 32  1  0  0  0  0
  4 23  1  0  0  0  0
  4  5  1  0  0  0  0
  5  6  2  0  0  0  0
  5 33  1  0  0  0  0
  6  7  1  0  0  0  0
  7 23  2  0  0  0  0
  7  8  1  0  0  0  0
  8  9  1  0  0  0  0
  8 20  2  0  0  0  0
  9 14  1  0  0  0  0
  9 10  1  0  0  0  0
 10 11  1  0  0  0  0
 10 34  1  0  0  0  0
 10 35  1  0  0  0  0
 11 12  1  0  0  0  0
 11 36  1  0  0  0  0
 11 37  1  0  0  0  0
 12 13  1  0  0  0  0
 13 14  1  0  0  0  0
 13 38  1  0  0  0  0
 13 39  1  0  0  0  0
 14 15  1  0  0  0  0
 14 40  1  0  0  0  0
 15 16  1  0  0  0  0
 15 41  1  0  0  0  0
 15 42  1  0  0  0  0
 16 19  1  0  0  0  0
 16 17  1  0  0  0  0
 16 43  1  0  0  0  0
 17 18  1  0  0  0  0
 17 44  1  0  0  0  0
 17 45  1  0  0  0  0
 18 19  1  0  0  0  0
 18 46  1  0  0  0  0
 18 47  1  0  0  0  0
 19 48  1  0  0  0  0
 19 49  1  0  0  0  0
 20 21  1  0  0  0  0
 21 22  2  0  0  0  0
 21 50  1  0  0  0  0
 22 23  1  0  0  0  0
 24 28  1  0  0  0  0
 24 25  1  0  0  0  0
 24 51  1  0  0  0  0
 25 26  1  0  0  0  0
 25 52  1  0  0  0  0
 25 53  1  0  0  0  0
 26 27  1  0  0  0  0
 26 54  1  0  0  0  0
 26 55  1  0  0  0  0
 27 28  1  0  0  0  0
 27 56  1  0  0  0  0
 27 57  1  0  0  0  0
M  END
> <s_m_source_file>
AV-unprocessed.smi

> <i_m_source_file_index>
170

> <i_lp_mmshare_version>
43012

> <i_f3d_flags>
0

> <s_epik_input>
TzFbQ0gyXVtDSDJdW0NIMl1bQ0BIXTFbQ0BIXShbT0hdKVtDSDJdbihbY0hdbjIpYyhjMjMpbltjSF1uYzNONFtDSDJdW0NIMl1PW0NIMl1bQ0BIXTRbQ0gyXVtDSF01W0NIMl1bQ0gyXVtDSDJdNQ==

> <s_epik_cmdline>
J2VwaWtfcHl0aG9uJywgJy1waCcsICc3LjAnLCAnLXRuJywgJzgnLCAnLW1hJywgJzIwMCcsICctbWV0YWxfYmluZGluZycsICctaW1hZScsICc8aW5maWxlLm1hZT4nLCAnLW9tYWUnLCAnPG91dGZpbGUubWFlPic=

> <r_lp_tautomer_probability>
1

> <r_epik_Ionization_Penalty>
4.98275e-05

> <r_epik_Ionization_Penalty_Charging>
0

> <r_epik_Ionization_Penalty_Neutral>
4.98275e-05

> <r_epik_State_Penalty>
-0

> <r_epik_Charging_Adjusted_Penalty>
0

> <i_epik_Tot_Q>
0

> <i_epik_Tot_abs_Q>
0

> <r_epik_Metal_State_Penalty>
-0

> <b_epik_Metal_Only>
0

> <s_lp_Force_Field>
OPLS_2005

> <r_lp_Energy>
52.7672

> <b_lp_Chiralities_Consistent>
1

> <s_lp_Variant>
AV-unprocessed.smi:170-3

> <Gold.Version>
5.8.1

> <Gold.Id.Protein>
6NUR|6NUR_protein|mol2

> <Gold.PLP.Fitness>
45.5121

> <Gold.PLP.PLP>
-39.9537

> <Gold.PLP.part.hbond>
-2.4941

> <Gold.PLP.part.metal>
0.0000

> <Gold.PLP.part.buried>
-5.5785

> <Gold.PLP.part.nonpolar>
-32.4338

> <Gold.PLP.part.repulsive>
0.2729

> <Gold.PLP.ligand.clash>
0.0000

> <Gold.PLP.ligand.torsion>
0.4495

> <Gold.PLP.Chemscore.Hbond>
2.0000

> <Gold.PLP.Chemscore.CHOScore>
0.0000

> <Gold.PLP.Chemscore.Metal>
0.0000

> <Gold.Chemscore.Hbonds>
donor molecule, donor type, donor heavy atom, donor atom, acceptor molecule, acceptor atom, score
      P1  H  7997  8010       L1     1  0.44
      P1  H 10752 10763       L1     6  1.00

> <Gold.PLP.Chemscore.Internal.Correction>
0.4575

> <Gold.Rescore>
     Score         DG    S(hbond)    S(metal)    S(lipo)     H(rot)  DE(clash)    DE(int)     intcor
     12.16     -15.87       1.52        0.00     102.63       2.61       0.93       2.78       ----

> <Gold.Chemscore.Fitness>
12.1614

> <Gold.Chemscore.DG>
-15.8663

> <Gold.Chemscore.ZeroCoef>
-5.4800

> <Gold.Chemscore.Hbond>
1.5185

> <Gold.Chemscore.Metal>
0.0000

> <Gold.Chemscore.Lipo>
102.6288

> <Gold.Chemscore.Internal_Hbond>
0.0000

> <Gold.Chemscore.DEClash>
0.9275

> <Gold.Chemscore.DEInternal>
2.7774

> <Gold.Chemscore.Rot>
2.6144

> <Gold.Chemscore.Internal.Correction>
   9.000000E+99

> <Gold.Chemscore.Hbonds>
donor molecule, donor type, donor heavy atom, donor atom, acceptor molecule, acceptor atom, score
      P1  H  7997  8010       L1     1  0.08
      P1  H 10752 10763       L1     6  0.87

> <Gold.Chemscore.Hbond.Weighted>
-5.0717

> <Gold.Chemscore.Metal.Weighted>
-0.0000

> <Gold.Chemscore.Lipo.Weighted>
-12.0076

> <Gold.Chemscore.Internal_Hbond.Weighted>
0.0000

> <Gold.Chemscore.DEClash.Weighted>
0.9275

> <Gold.Chemscore.DEInternal.Weighted>
2.7774

> <Gold.Chemscore.Rot.Weighted>
6.6929

> <Gold.Chemscore.Internal.Correction.Weighted>
   9.000000E+99

> <Gold.Protein.RotatedTorsions>
[ 6907 6896 6895 6894 ] final  -46.75 input  -60.11 | X-H torsion
[ 7974 7965 7964 7962 ] final  -65.28 input  175.53 | X-H torsion
[ 8008 7997 7996 7995 ] final   22.09 input   59.86 | X-H torsion
[ 10167 10162 10161 10158 ] final   43.32 input  -65.29 | X-H torsion
[ 10718 10713 10712 10709 ] final   37.44 input   66.30 | X-H torsion
[ 10763 10752 10751 10750 ] final  105.69 input  -60.55 | X-H torsion
[ 11005 11000 10999 10996 ] final  116.96 input  -57.11 | X-H torsion

> <Gold.Protein.ActiveResidues>
 VAL166  LYS551  ARG553  GLY616  TRP617  ASP618  TYR619  PRO620  LYS621  CYS622 
 ASP623  PHE694  ASN695  SER759  ASP760  ASP761  ALA762  ILE779  LEU786  VAL792 
 PHE793  MET794  SER795  GLU796  ALA797  LYS798  CYS799  TRP800  GLU811  SER814 

> <Gold.Protein.RotatedAtoms>
  150.9080  134.8496  159.7405 H   0  0  0  0  0  0  0  0  0  0  0  0  # atno 6907 bound_to 6896
  152.4929  134.4402  159.9551 H   0  0  0  0  0  0  0  0  0  0  0  0  # atno 6908 bound_to 6896
  151.4447  133.3594  159.2822 H   0  0  0  0  0  0  0  0  0  0  0  0  # atno 6909 bound_to 6896
  145.7563  140.8884  143.0453 H   0  0  0  0  0  0  0  0  0  0  0  0  # atno 7974 bound_to 7965
  154.9605  140.3077  155.5033 H   0  0  0  0  0  0  0  0  0  0  0  0  # atno 8008 bound_to 7997
  156.2977  140.2302  156.4629 H   0  0  0  0  0  0  0  0  0  0  0  0  # atno 8009 bound_to 7997
  154.7969  140.0436  157.1232 H   0  0  0  0  0  0  0  0  0  0  0  0  # atno 8010 bound_to 7997
  140.3456  144.2415  150.6151 H   0  0  0  0  0  0  0  0  0  0  0  0  # atno 10167 bound_to 10162
  157.3469  130.7577  149.6951 H   0  0  0  0  0  0  0  0  0  0  0  0  # atno 10718 bound_to 10713
  153.3828  135.3901  155.1868 H   0  0  0  0  0  0  0  0  0  0  0  0  # atno 10763 bound_to 10752
  154.8710  135.3729  154.4836 H   0  0  0  0  0  0  0  0  0  0  0  0  # atno 10764 bound_to 10752
  153.5314  135.7085  153.5742 H   0  0  0  0  0  0  0  0  0  0  0  0  # atno 10765 bound_to 10752
  139.9058  134.9604  156.7278 H   0  0  0  0  0  0  0  0  0  0  0  0  # atno 11005 bound_to 11000
  144.6839  139.9661  143.7481 LP  0  0  0  0  0  0  0  0  0  0  0  0  # atno 17320 bound_to 7965
  146.0308  139.3333  143.0756 LP  0  0  0  0  0  0  0  0  0  0  0  0  # atno 17321 bound_to 7965
  140.5268  143.2252  151.8302 LP  0  0  0  0  0  0  0  0  0  0  0  0  # atno 17342 bound_to 10162
  139.4834  144.4770  151.9355 LP  0  0  0  0  0  0  0  0  0  0  0  0  # atno 17343 bound_to 10162
  155.9715  130.4151  150.4168 LP  0  0  0  0  0  0  0  0  0  0  0  0  # atno 17370 bound_to 10713
  157.2224  131.0485  151.2539 LP  0  0  0  0  0  0  0  0  0  0  0  0  # atno 17371 bound_to 10713
  140.6950  133.9357  155.7989 LP  0  0  0  0  0  0  0  0  0  0  0  0  # atno 17394 bound_to 11000
  141.0414  134.0616  157.3897 LP  0  0  0  0  0  0  0  0  0  0  0  0  # atno 17395 bound_to 11000

$$$$
