AV-unprocessed.smi:865|AV-procd|sdf|3991|dock1
  -GOLD-   22720 1473D 1   1.00000     0.00000
 Structure written by MMmdl.
 36 36  0  0  0  0  0  0  0  0  1 V2000
  142.8505  135.5427  153.1450 C   0  0  0  0  0  0  0  0  0  0  0  0
  144.2777  136.1062  153.2155 C   0  0  0  0  0  0  0  0  0  0  0  0
  144.9106  136.4464  151.8416 C   0  0  0  0  0  0  0  0  0  0  0  0
  144.9473  135.2050  150.9125 C   0  0  0  0  0  0  0  0  0  0  0  0
  145.7506  134.0196  151.4685 C   0  0  0  0  0  0  0  0  0  0  0  0
  146.3030  137.1251  151.9810 C   0  0  1  0  0  0  0  0  0  0  0  0
  146.7663  137.4979  150.6970 O   0  0  0  0  0  0  0  0  0  0  0  0
  146.2910  138.3730  152.8924 C   0  0  0  0  0  0  0  0  0  0  0  0
  147.6397  138.8703  153.1391 N   0  0  0  0  0  0  0  0  0  0  0  0
  148.0775  139.3725  154.3036 C   0  0  0  0  0  0  0  0  0  0  0  0
  147.3892  139.4344  155.3218 O   0  0  0  0  0  0  0  0  0  0  0  0
  149.5116  139.8995  154.3202 C   0  0  0  0  0  0  0  0  0  0  0  0
  150.4344  138.8566  154.7243 N   0  0  0  0  0  0  0  0  0  0  0  0
  150.2658  137.5391  154.8553 C   0  0  0  0  0  0  0  0  0  0  0  0
  151.3740  136.9435  155.2687 N   0  0  0  0  0  0  0  0  0  0  0  0
  152.2686  137.9939  155.3928 N   0  0  0  0  0  0  0  0  0  0  0  0
  151.7165  139.1316  155.0717 N   0  0  0  0  0  0  0  0  0  0  0  0
  142.5237  135.2063  154.1290 H   0  0  0  0  0  0  0  0  0  0  0  0
  142.7952  134.6888  152.4695 H   0  0  0  0  0  0  0  0  0  0  0  0
  142.1326  136.2898  152.8083 H   0  0  0  0  0  0  0  0  0  0  0  0
  144.2915  136.9820  153.8647 H   0  0  0  0  0  0  0  0  0  0  0  0
  144.8871  135.3581  153.7200 H   0  0  0  0  0  0  0  0  0  0  0  0
  144.2553  137.1781  151.3667 H   0  0  0  0  0  0  0  0  0  0  0  0
  143.9353  134.8440  150.7341 H   0  0  0  0  0  0  0  0  0  0  0  0
  145.3398  135.4821  149.9335 H   0  0  0  0  0  0  0  0  0  0  0  0
  145.6556  133.1529  150.8144 H   0  0  0  0  0  0  0  0  0  0  0  0
  145.3908  133.7277  152.4555 H   0  0  0  0  0  0  0  0  0  0  0  0
  146.8130  134.2460  151.5490 H   0  0  0  0  0  0  0  0  0  0  0  0
  147.0072  136.4075  152.4011 H   0  0  0  0  0  0  0  0  0  0  0  0
  146.0319  137.8150  150.1939 H   0  0  0  0  0  0  0  0  0  0  0  0
  145.6408  139.1578  152.5015 H   0  0  0  0  0  0  0  0  0  0  0  0
  145.8881  138.1062  153.8697 H   0  0  0  0  0  0  0  0  0  0  0  0
  148.2777  138.8630  152.3563 H   0  0  0  0  0  0  0  0  0  0  0  0
  149.7907  140.2497  153.3258 H   0  0  0  0  0  0  0  0  0  0  0  0
  149.6006  140.7492  154.9993 H   0  0  0  0  0  0  0  0  0  0  0  0
  149.3389  137.0226  154.6532 H   0  0  0  0  0  0  0  0  0  0  0  0
  1  2  1  0  0  0  0
  1 18  1  0  0  0  0
  1 19  1  0  0  0  0
  1 20  1  0  0  0  0
  2  3  1  0  0  0  0
  2 21  1  0  0  0  0
  2 22  1  0  0  0  0
  3  4  1  0  0  0  0
  3  6  1  0  0  0  0
  3 23  1  0  0  0  0
  4  5  1  0  0  0  0
  4 24  1  0  0  0  0
  4 25  1  0  0  0  0
  5 26  1  0  0  0  0
  5 27  1  0  0  0  0
  5 28  1  0  0  0  0
  6  7  1  0  0  0  0
  6  8  1  0  0  0  0
  6 29  1  0  0  0  0
  7 30  1  0  0  0  0
  8  9  1  0  0  0  0
  8 31  1  0  0  0  0
  8 32  1  0  0  0  0
  9 10  1  0  0  0  0
  9 33  1  0  0  0  0
 10 11  2  0  0  0  0
 10 12  1  0  0  0  0
 12 13  1  0  0  0  0
 12 34  1  0  0  0  0
 12 35  1  0  0  0  0
 13 17  1  0  0  0  0
 13 14  1  0  0  0  0
 14 15  2  0  0  0  0
 14 36  1  0  0  0  0
 15 16  1  0  0  0  0
 16 17  2  0  0  0  0
M  END
> <s_m_source_file>
AV-unprocessed.smi

> <i_m_source_file_index>
865

> <i_lp_mmshare_version>
43012

> <i_f3d_flags>
0

> <s_epik_input>
W0NIM11bQ0gyXVtDSF0oW0NIMl1bQ0gzXSlbQ0BIXShbT0hdKVtDSDJdW05IXUMoPU8pW0NIMl1uMVtjSF1ubm4x

> <s_epik_cmdline>
J2VwaWtfcHl0aG9uJywgJy1waCcsICc3LjAnLCAnLXRuJywgJzgnLCAnLW1hJywgJzIwMCcsICctbWV0YWxfYmluZGluZycsICctaW1hZScsICc8aW5maWxlLm1hZT4nLCAnLW9tYWUnLCAnPG91dGZpbGUubWFlPic=

> <r_lp_tautomer_probability>
1

> <r_epik_Ionization_Penalty>
9.39891e-07

> <r_epik_Ionization_Penalty_Charging>
0

> <r_epik_Ionization_Penalty_Neutral>
9.39891e-07

> <r_epik_State_Penalty>
-0

> <r_epik_Charging_Adjusted_Penalty>
0

> <i_epik_Tot_Q>
0

> <i_epik_Tot_abs_Q>
0

> <r_epik_Metal_State_Penalty>
-0

> <b_epik_Metal_Only>
0

> <s_lp_Force_Field>
OPLS_2005

> <r_lp_Energy>
13.5174

> <b_lp_Chiralities_Consistent>
1

> <s_lp_Variant>
AV-unprocessed.smi:865-2

> <Gold.Version>
5.8.1

> <Gold.Id.Protein>
6NUR|6NUR_protein|mol2

> <Gold.PLP.Fitness>
43.3984

> <Gold.PLP.PLP>
-28.4581

> <Gold.PLP.part.hbond>
-5.9093

> <Gold.PLP.part.metal>
0.0000

> <Gold.PLP.part.buried>
-1.5697

> <Gold.PLP.part.nonpolar>
-22.1727

> <Gold.PLP.part.repulsive>
0.3092

> <Gold.PLP.ligand.clash>
0.0000

> <Gold.PLP.ligand.torsion>
0.7364

> <Gold.PLP.Chemscore.Hbond>
4.5125

> <Gold.PLP.Chemscore.CHOScore>
0.8225

> <Gold.PLP.Chemscore.Metal>
0.0000

> <Gold.Chemscore.Hbonds>
donor molecule, donor type, donor heavy atom, donor atom, acceptor molecule, acceptor atom, score
      L1  H     7    30       P1 10171  0.31
      L1  H     9    33       P1  7957  0.72
      P1  H  7954  7966       L1     7  1.00
      P1  H  7989  7998       L1    17  0.09
      P1  H 10752 10763       L1    15  0.27
      L1  C    14    36       P1  7948  0.04

> <Gold.PLP.Chemscore.Internal.Correction>
0.4081

> <Gold.Rescore>
     Score         DG    S(hbond)    S(metal)    S(lipo)     H(rot)  DE(clash)    DE(int)     intcor
     10.07     -12.61       3.40        0.00      46.81       3.80       1.60       0.94       ----

> <Gold.Chemscore.Fitness>
10.0676

> <Gold.Chemscore.DG>
-12.6083

> <Gold.Chemscore.ZeroCoef>
-5.4800

> <Gold.Chemscore.Hbond>
3.4044

> <Gold.Chemscore.Metal>
0.0000

> <Gold.Chemscore.Lipo>
46.8072

> <Gold.Chemscore.Internal_Hbond>
0.0000

> <Gold.Chemscore.DEClash>
1.6034

> <Gold.Chemscore.DEInternal>
0.9374

> <Gold.Chemscore.Rot>
3.7964

> <Gold.Chemscore.Internal.Correction>
   9.000000E+99

> <Gold.Chemscore.Hbonds>
donor molecule, donor type, donor heavy atom, donor atom, acceptor molecule, acceptor atom, score
      L1  H     7    30       P1 10171  0.31
      L1  H     9    33       P1  7957  0.68
      P1  H  7954  7966       L1     7  0.69
      P1  H 10752 10763       L1    15  0.01

> <Gold.Chemscore.Hbond.Weighted>
-11.3707

> <Gold.Chemscore.Metal.Weighted>
-0.0000

> <Gold.Chemscore.Lipo.Weighted>
-5.4764

> <Gold.Chemscore.Internal_Hbond.Weighted>
0.0000

> <Gold.Chemscore.DEClash.Weighted>
1.6034

> <Gold.Chemscore.DEInternal.Weighted>
0.9374

> <Gold.Chemscore.Rot.Weighted>
9.7188

> <Gold.Chemscore.Internal.Correction.Weighted>
   9.000000E+99

> <Gold.Protein.RotatedTorsions>
[ 6907 6896 6895 6894 ] final  165.04 input  -60.11 | X-H torsion
[ 7974 7965 7964 7962 ] final  141.02 input  175.53 | X-H torsion
[ 8008 7997 7996 7995 ] final   98.84 input   59.86 | X-H torsion
[ 10167 10162 10161 10158 ] final   51.59 input  -65.29 | X-H torsion
[ 10718 10713 10712 10709 ] final -138.44 input   66.30 | X-H torsion
[ 10763 10752 10751 10750 ] final   42.52 input  -60.55 | X-H torsion
[ 11005 11000 10999 10996 ] final  100.64 input  -57.11 | X-H torsion

> <Gold.Protein.ActiveResidues>
 VAL166  LYS551  ARG553  GLY616  TRP617  ASP618  TYR619  PRO620  LYS621  CYS622 
 ASP623  PHE694  ASN695  SER759  ASP760  ASP761  ALA762  ILE779  LEU786  VAL792 
 PHE793  MET794  SER795  GLU796  ALA797  LYS798  CYS799  TRP800  GLU811  SER814 

> <Gold.Protein.RotatedAtoms>
  151.9006  133.3537  159.3829 H   0  0  0  0  0  0  0  0  0  0  0  0  # atno 6907 bound_to 6896
  150.7081  134.4832  159.5490 H   0  0  0  0  0  0  0  0  0  0  0  0  # atno 6908 bound_to 6896
  152.2420  134.8219  160.0510 H   0  0  0  0  0  0  0  0  0  0  0  0  # atno 6909 bound_to 6896
  144.9133  139.5263  143.5698 H   0  0  0  0  0  0  0  0  0  0  0  0  # atno 7974 bound_to 7965
  156.1045  140.3237  155.7987 H   0  0  0  0  0  0  0  0  0  0  0  0  # atno 8008 bound_to 7997
  155.4780  140.0551  157.2988 H   0  0  0  0  0  0  0  0  0  0  0  0  # atno 8009 bound_to 7997
  154.4718  140.2015  155.9990 H   0  0  0  0  0  0  0  0  0  0  0  0  # atno 8010 bound_to 7997
  140.2603  144.3380  150.6320 H   0  0  0  0  0  0  0  0  0  0  0  0  # atno 10167 bound_to 10162
  156.2994  130.7420  151.1467 H   0  0  0  0  0  0  0  0  0  0  0  0  # atno 10718 bound_to 10713
  152.9881  135.6129  154.2962 H   0  0  0  0  0  0  0  0  0  0  0  0  # atno 10763 bound_to 10752
  154.2685  135.2780  155.2750 H   0  0  0  0  0  0  0  0  0  0  0  0  # atno 10764 bound_to 10752
  154.5143  135.5832  153.6687 H   0  0  0  0  0  0  0  0  0  0  0  0  # atno 10765 bound_to 10752
  139.8771  134.9149  156.4787 H   0  0  0  0  0  0  0  0  0  0  0  0  # atno 11005 bound_to 11000
  146.3169  139.7957  142.8976 LP  0  0  0  0  0  0  0  0  0  0  0  0  # atno 17320 bound_to 7965
  145.3417  141.0289  143.3389 LP  0  0  0  0  0  0  0  0  0  0  0  0  # atno 17321 bound_to 7965
  140.5971  143.2167  151.7143 LP  0  0  0  0  0  0  0  0  0  0  0  0  # atno 17342 bound_to 10162
  139.5019  144.3850  152.0337 LP  0  0  0  0  0  0  0  0  0  0  0  0  # atno 17343 bound_to 10162
  157.7364  131.0563  150.5417 LP  0  0  0  0  0  0  0  0  0  0  0  0  # atno 17370 bound_to 10713
  156.5542  130.4239  149.6093 LP  0  0  0  0  0  0  0  0  0  0  0  0  # atno 17371 bound_to 10713
  140.8743  133.7965  155.9398 LP  0  0  0  0  0  0  0  0  0  0  0  0  # atno 17394 bound_to 11000
  140.8920  134.2484  157.5089 LP  0  0  0  0  0  0  0  0  0  0  0  0  # atno 17395 bound_to 11000

$$$$
