AV-unprocessed.smi:1364|AV-procd|sdf|5567|dock7
  -GOLD-   22720 5163D 1   1.00000     0.00000
 Structure written by MMmdl.
 40 41  0  0  0  0  0  0  0  0  1 V2000
  156.0885  138.4083  165.8169 C   0  0  0  0  0  0  0  0  0  0  0  0
  156.7596  139.7973  165.7904 C   0  0  0  0  0  0  0  0  0  0  0  0
  156.9412  140.2958  167.2393 C   0  0  0  0  0  0  0  0  0  0  0  0
  158.1531  139.6671  165.1298 C   0  0  0  0  0  0  0  0  0  0  0  0
  155.8302  140.7835  165.0391 C   0  0  0  0  0  0  0  0  0  0  0  0
  155.4514  141.8031  165.6169 O   0  0  0  0  0  0  0  0  0  0  0  0
  155.4601  140.4622  163.7833 N   0  0  0  0  0  0  0  0  0  0  0  0
  154.6300  141.1873  162.8865 C   0  0  0  0  0  0  0  0  0  0  0  0
  153.8789  142.3309  163.2426 C   0  0  0  0  0  0  0  0  0  0  0  0
  153.1085  142.9755  162.2559 C   0  0  0  0  0  0  0  0  0  0  0  0
  153.1095  142.4695  160.9344 C   0  0  0  0  0  0  0  0  0  0  0  0
  152.3416  143.0997  159.9306 N   0  0  0  0  0  0  0  0  0  0  0  0
  152.2889  144.5607  159.9216 C   0  0  0  0  0  0  0  0  0  0  0  0
  151.1897  145.0523  158.9647 C   0  0  0  0  0  0  0  0  0  0  0  0
  151.4016  144.5024  157.6688 O   0  0  0  0  0  0  0  0  0  0  0  0
  151.3378  143.0802  157.6811 C   0  0  0  0  0  0  0  0  0  0  0  0
  152.4396  142.5160  158.5948 C   0  0  0  0  0  0  0  0  0  0  0  0
  153.8487  141.3856  160.5930 N   0  0  0  0  0  0  0  0  0  0  0  0
  154.5850  140.7704  161.5418 C   0  0  0  0  0  0  0  0  0  0  0  0
  156.7056  137.6816  166.3464 H   0  0  0  0  0  0  0  0  0  0  0  0
  155.9272  138.0247  164.8084 H   0  0  0  0  0  0  0  0  0  0  0  0
  155.1199  138.4330  166.3184 H   0  0  0  0  0  0  0  0  0  0  0  0
  155.9906  140.3582  167.7712 H   0  0  0  0  0  0  0  0  0  0  0  0
  157.3991  141.2855  167.2659 H   0  0  0  0  0  0  0  0  0  0  0  0
  157.5845  139.6247  167.8096 H   0  0  0  0  0  0  0  0  0  0  0  0
  158.7839  138.9706  165.6832 H   0  0  0  0  0  0  0  0  0  0  0  0
  158.6802  140.6219  165.1024 H   0  0  0  0  0  0  0  0  0  0  0  0
  158.0843  139.2912  164.1080 H   0  0  0  0  0  0  0  0  0  0  0  0
  155.7634  139.5564  163.4555 H   0  0  0  0  0  0  0  0  0  0  0  0
  153.8911  142.7366  164.2421 H   0  0  0  0  0  0  0  0  0  0  0  0
  152.5448  143.8574  162.5203 H   0  0  0  0  0  0  0  0  0  0  0  0
  152.0876  144.9383  160.9249 H   0  0  0  0  0  0  0  0  0  0  0  0
  153.2577  144.9549  159.6114 H   0  0  0  0  0  0  0  0  0  0  0  0
  150.2006  144.7748  159.3326 H   0  0  0  0  0  0  0  0  0  0  0  0
  151.2100  146.1401  158.8971 H   0  0  0  0  0  0  0  0  0  0  0  0
  150.3515  142.7522  158.0137 H   0  0  0  0  0  0  0  0  0  0  0  0
  151.4695  142.7107  156.6642 H   0  0  0  0  0  0  0  0  0  0  0  0
  153.4216  142.7494  158.1815 H   0  0  0  0  0  0  0  0  0  0  0  0
  152.3568  141.4306  158.6190 H   0  0  0  0  0  0  0  0  0  0  0  0
  155.1539  139.9125  161.2146 H   0  0  0  0  0  0  0  0  0  0  0  0
  1  2  1  0  0  0  0
  1 20  1  0  0  0  0
  1 21  1  0  0  0  0
  1 22  1  0  0  0  0
  2  3  1  0  0  0  0
  2  4  1  0  0  0  0
  2  5  1  0  0  0  0
  3 23  1  0  0  0  0
  3 24  1  0  0  0  0
  3 25  1  0  0  0  0
  4 26  1  0  0  0  0
  4 27  1  0  0  0  0
  4 28  1  0  0  0  0
  5  6  2  0  0  0  0
  5  7  1  0  0  0  0
  7  8  1  0  0  0  0
  7 29  1  0  0  0  0
  8 19  1  0  0  0  0
  8  9  2  0  0  0  0
  9 10  1  0  0  0  0
  9 30  1  0  0  0  0
 10 11  2  0  0  0  0
 10 31  1  0  0  0  0
 11 12  1  0  0  0  0
 11 18  1  0  0  0  0
 12 17  1  0  0  0  0
 12 13  1  0  0  0  0
 13 14  1  0  0  0  0
 13 32  1  0  0  0  0
 13 33  1  0  0  0  0
 14 15  1  0  0  0  0
 14 34  1  0  0  0  0
 14 35  1  0  0  0  0
 15 16  1  0  0  0  0
 16 17  1  0  0  0  0
 16 36  1  0  0  0  0
 16 37  1  0  0  0  0
 17 38  1  0  0  0  0
 17 39  1  0  0  0  0
 18 19  2  0  0  0  0
 19 40  1  0  0  0  0
M  END
> <s_m_source_file>
AV-unprocessed.smi

> <i_m_source_file_index>
1364

> <i_lp_mmshare_version>
43012

> <i_f3d_flags>
0

> <s_epik_input>
W0NIM11DKFtDSDNdKShbQ0gzXSlDKD1PKVtOSF1jMVtjSF1bY0hdYyhuW2NIXTEpTjJbQ0gyXVtDSDJdT1tDSDJdW0NIMl0y

> <s_epik_cmdline>
J2VwaWtfcHl0aG9uJywgJy1waCcsICc3LjAnLCAnLXRuJywgJzgnLCAnLW1hJywgJzIwMCcsICctbWV0YWxfYmluZGluZycsICctaW1hZScsICc8aW5maWxlLm1hZT4nLCAnLW9tYWUnLCAnPG91dGZpbGUubWFlPic=

> <r_lp_tautomer_probability>
1

> <r_epik_Ionization_Penalty>
0.000770434

> <r_epik_Ionization_Penalty_Charging>
0

> <r_epik_Ionization_Penalty_Neutral>
0.000770434

> <r_epik_State_Penalty>
0.00047801

> <r_epik_Charging_Adjusted_Penalty>
0.00047801

> <i_epik_Tot_Q>
0

> <i_epik_Tot_abs_Q>
0

> <r_epik_Metal_State_Penalty>
-0

> <b_epik_Metal_Only>
0

> <s_lp_Force_Field>
OPLS_2005

> <r_lp_Energy>
28.9923

> <b_lp_Chiralities_Consistent>
1

> <s_lp_Variant>
AV-unprocessed.smi:1364-1

> <Gold.Version>
5.8.1

> <Gold.Id.Protein>
6NUR|6NUR_protein|mol2

> <Gold.PLP.Fitness>
36.3494

> <Gold.PLP.PLP>
-36.7255

> <Gold.PLP.part.hbond>
0.0000

> <Gold.PLP.part.metal>
0.0000

> <Gold.PLP.part.buried>
-4.6072

> <Gold.PLP.part.nonpolar>
-31.8118

> <Gold.PLP.part.repulsive>
0.1842

> <Gold.PLP.ligand.clash>
0.0000

> <Gold.PLP.ligand.torsion>
0.3633

> <Gold.PLP.Chemscore.Hbond>
0.0000

> <Gold.PLP.Chemscore.CHOScore>
0.0000

> <Gold.PLP.Chemscore.Metal>
0.0000

> <Gold.PLP.Chemscore.Internal.Correction>
0.3506

> <Gold.Rescore>
     Score         DG    S(hbond)    S(metal)    S(lipo)     H(rot)  DE(clash)    DE(int)     intcor
     12.62     -14.22       0.00        0.00     100.23       1.17       0.11       1.49       ----

> <Gold.Chemscore.Fitness>
12.6195

> <Gold.Chemscore.DG>
-14.2187

> <Gold.Chemscore.ZeroCoef>
-5.4800

> <Gold.Chemscore.Hbond>
0.0000

> <Gold.Chemscore.Metal>
0.0000

> <Gold.Chemscore.Lipo>
100.2346

> <Gold.Chemscore.Internal_Hbond>
0.0000

> <Gold.Chemscore.DEClash>
0.1073

> <Gold.Chemscore.DEInternal>
1.4918

> <Gold.Chemscore.Rot>
1.1675

> <Gold.Chemscore.Internal.Correction>
   9.000000E+99

> <Gold.Chemscore.Hbond.Weighted>
-0.0000

> <Gold.Chemscore.Metal.Weighted>
-0.0000

> <Gold.Chemscore.Lipo.Weighted>
-11.7275

> <Gold.Chemscore.Internal_Hbond.Weighted>
0.0000

> <Gold.Chemscore.DEClash.Weighted>
0.1073

> <Gold.Chemscore.DEInternal.Weighted>
1.4918

> <Gold.Chemscore.Rot.Weighted>
2.9888

> <Gold.Chemscore.Internal.Correction.Weighted>
   9.000000E+99

> <Gold.Protein.RotatedTorsions>
[ 6907 6896 6895 6894 ] final  -52.29 input  -60.11 | X-H torsion
[ 7974 7965 7964 7962 ] final -115.17 input  175.53 | X-H torsion
[ 8008 7997 7996 7995 ] final -132.51 input   59.86 | X-H torsion
[ 10167 10162 10161 10158 ] final  -83.00 input  -65.29 | X-H torsion
[ 10718 10713 10712 10709 ] final -117.24 input   66.30 | X-H torsion
[ 10763 10752 10751 10750 ] final -164.71 input  -60.55 | X-H torsion
[ 11005 11000 10999 10996 ] final -179.48 input  -57.11 | X-H torsion

> <Gold.Protein.ActiveResidues>
 VAL166  LYS551  ARG553  GLY616  TRP617  ASP618  TYR619  PRO620  LYS621  CYS622 
 ASP623  PHE694  ASN695  SER759  ASP760  ASP761  ALA762  ILE779  LEU786  VAL792 
 PHE793  MET794  SER795  GLU796  ALA797  LYS798  CYS799  TRP800  GLU811  SER814 

> <Gold.Protein.RotatedAtoms>
  150.8531  134.7862  159.7024 H   0  0  0  0  0  0  0  0  0  0  0  0  # atno 6907 bound_to 6896
  152.4591  134.5222  159.9796 H   0  0  0  0  0  0  0  0  0  0  0  0  # atno 6908 bound_to 6896
  151.5340  133.3406  159.2959 H   0  0  0  0  0  0  0  0  0  0  0  0  # atno 6909 bound_to 6896
  145.1116  140.8615  143.3867 H   0  0  0  0  0  0  0  0  0  0  0  0  # atno 7974 bound_to 7965
  155.3301  140.0466  157.3042 H   0  0  0  0  0  0  0  0  0  0  0  0  # atno 8008 bound_to 7997
  154.5333  140.2264  155.8732 H   0  0  0  0  0  0  0  0  0  0  0  0  # atno 8009 bound_to 7997
  156.1810  140.3074  155.9155 H   0  0  0  0  0  0  0  0  0  0  0  0  # atno 8010 bound_to 7997
  140.4267  143.2564  151.8816 H   0  0  0  0  0  0  0  0  0  0  0  0  # atno 10167 bound_to 10162
  156.1019  130.6179  150.9138 H   0  0  0  0  0  0  0  0  0  0  0  0  # atno 10718 bound_to 10713
  154.7003  135.2986  154.9351 H   0  0  0  0  0  0  0  0  0  0  0  0  # atno 10763 bound_to 10752
  154.0286  135.6673  153.4782 H   0  0  0  0  0  0  0  0  0  0  0  0  # atno 10764 bound_to 10752
  153.0676  135.5079  154.8143 H   0  0  0  0  0  0  0  0  0  0  0  0  # atno 10765 bound_to 10752
  140.4181  134.6630  157.4650 H   0  0  0  0  0  0  0  0  0  0  0  0  # atno 11005 bound_to 11000
  145.0841  139.2938  143.5768 LP  0  0  0  0  0  0  0  0  0  0  0  0  # atno 17320 bound_to 7965
  146.3526  140.0357  142.8647 LP  0  0  0  0  0  0  0  0  0  0  0  0  # atno 17321 bound_to 7965
  139.4783  144.5379  151.8571 LP  0  0  0  0  0  0  0  0  0  0  0  0  # atno 17342 bound_to 10162
  140.4473  144.1904  150.5895 LP  0  0  0  0  0  0  0  0  0  0  0  0  # atno 17343 bound_to 10162
  157.6191  131.0931  150.8656 LP  0  0  0  0  0  0  0  0  0  0  0  0  # atno 17370 bound_to 10713
  156.8782  130.5170  149.5292 LP  0  0  0  0  0  0  0  0  0  0  0  0  # atno 17371 bound_to 10713
  140.0219  134.6534  155.9227 LP  0  0  0  0  0  0  0  0  0  0  0  0  # atno 17394 bound_to 11000
  141.1795  133.6544  156.4961 LP  0  0  0  0  0  0  0  0  0  0  0  0  # atno 17395 bound_to 11000

$$$$
