AV-unprocessed.smi:421|AV-procd|sdf|2535|dock1
  -GOLD-   2262022493D 1   1.00000     0.00000
 Structure written by MMmdl.
 43 45  0  0  0  0  0  0  0  0  1 V2000
  154.5573  138.2069  161.2508 C   0  0  0  0  0  0  0  0  0  0  0  0
  153.5450  138.7175  160.3343 N   0  0  0  0  0  0  0  0  0  0  0  0
  152.6971  137.9884  159.5721 C   0  0  0  0  0  0  0  0  0  0  0  0
  152.6354  136.7597  159.5289 O   0  0  0  0  0  0  0  0  0  0  0  0
  151.9227  138.8467  158.8670 N   0  0  0  0  0  0  0  0  0  0  0  0
  150.8564  138.4887  157.9332 C   0  0  0  0  0  0  0  0  0  0  0  0
  149.5022  138.3240  158.6525 C   0  0  1  0  0  0  0  0  0  0  0  0
  148.4572  138.1928  157.7104 O   0  0  0  0  0  0  0  0  0  0  0  0
  149.4532  137.0983  159.5793 C   0  0  0  0  0  0  0  0  0  0  0  0
  148.3187  137.1721  160.4289 O   0  0  0  0  0  0  0  0  0  0  0  0
  148.0342  135.9417  161.0719 C   0  0  0  0  0  0  0  0  0  0  0  0
  146.6477  135.9483  161.6824 C   0  0  0  0  0  0  0  0  0  0  0  0
  145.8902  137.1380  161.7160 C   0  0  0  0  0  0  0  0  0  0  0  0
  144.6009  137.1393  162.2834 C   0  0  0  0  0  0  0  0  0  0  0  0
  144.0648  135.9517  162.8179 C   0  0  0  0  0  0  0  0  0  0  0  0
  144.8178  134.7620  162.7837 C   0  0  0  0  0  0  0  0  0  0  0  0
  146.1072  134.7599  162.2163 C   0  0  0  0  0  0  0  0  0  0  0  0
  152.2843  140.1629  159.1906 C   0  0  0  0  0  0  0  0  0  0  0  0
  151.7838  141.3990  158.7447 C   0  0  0  0  0  0  0  0  0  0  0  0
  152.3768  142.5672  159.2788 C   0  0  0  0  0  0  0  0  0  0  0  0
  153.4315  142.4807  160.2244 C   0  0  0  0  0  0  0  0  0  0  0  0
  153.9150  141.2238  160.6573 C   0  0  0  0  0  0  0  0  0  0  0  0
  153.3071  140.0799  160.1119 C   0  0  0  0  0  0  0  0  0  0  0  0
  154.3952  137.1550  161.4895 H   0  0  0  0  0  0  0  0  0  0  0  0
  154.5425  138.7654  162.1872 H   0  0  0  0  0  0  0  0  0  0  0  0
  155.5483  138.3070  160.8078 H   0  0  0  0  0  0  0  0  0  0  0  0
  150.7875  139.2147  157.1226 H   0  0  0  0  0  0  0  0  0  0  0  0
  151.1312  137.5452  157.4586 H   0  0  0  0  0  0  0  0  0  0  0  0
  149.2893  139.2071  159.2565 H   0  0  0  0  0  0  0  0  0  0  0  0
  148.3697  139.0122  157.2476 H   0  0  0  0  0  0  0  0  0  0  0  0
  149.3795  136.1949  158.9719 H   0  0  0  0  0  0  0  0  0  0  0  0
  150.3728  137.0179  160.1617 H   0  0  0  0  0  0  0  0  0  0  0  0
  148.1010  135.1211  160.3557 H   0  0  0  0  0  0  0  0  0  0  0  0
  148.7731  135.7476  161.8512 H   0  0  0  0  0  0  0  0  0  0  0  0
  146.2945  138.0521  161.3062 H   0  0  0  0  0  0  0  0  0  0  0  0
  144.0232  138.0516  162.3084 H   0  0  0  0  0  0  0  0  0  0  0  0
  143.0764  135.9532  163.2532 H   0  0  0  0  0  0  0  0  0  0  0  0
  144.4067  133.8509  163.1928 H   0  0  0  0  0  0  0  0  0  0  0  0
  146.6804  133.8448  162.1910 H   0  0  0  0  0  0  0  0  0  0  0  0
  150.9797  141.4607  158.0268 H   0  0  0  0  0  0  0  0  0  0  0  0
  152.0218  143.5371  158.9630 H   0  0  0  0  0  0  0  0  0  0  0  0
  153.8697  143.3853  160.6194 H   0  0  0  0  0  0  0  0  0  0  0  0
  154.7162  141.1499  161.3777 H   0  0  0  0  0  0  0  0  0  0  0  0
  1  2  1  0  0  0  0
  1 24  1  0  0  0  0
  1 25  1  0  0  0  0
  1 26  1  0  0  0  0
  2 23  1  0  0  0  0
  2  3  1  0  0  0  0
  3  4  2  0  0  0  0
  3  5  1  0  0  0  0
  5  6  1  0  0  0  0
  5 18  1  0  0  0  0
  6  7  1  0  0  0  0
  6 27  1  0  0  0  0
  6 28  1  0  0  0  0
  7  8  1  0  0  0  0
  7  9  1  0  0  0  0
  7 29  1  0  0  0  0
  8 30  1  0  0  0  0
  9 10  1  0  0  0  0
  9 31  1  0  0  0  0
  9 32  1  0  0  0  0
 10 11  1  0  0  0  0
 11 12  1  0  0  0  0
 11 33  1  0  0  0  0
 11 34  1  0  0  0  0
 12 17  1  0  0  0  0
 12 13  2  0  0  0  0
 13 14  1  0  0  0  0
 13 35  1  0  0  0  0
 14 15  2  0  0  0  0
 14 36  1  0  0  0  0
 15 16  1  0  0  0  0
 15 37  1  0  0  0  0
 16 17  2  0  0  0  0
 16 38  1  0  0  0  0
 17 39  1  0  0  0  0
 18 23  2  0  0  0  0
 18 19  1  0  0  0  0
 19 20  2  0  0  0  0
 19 40  1  0  0  0  0
 20 21  1  0  0  0  0
 20 41  1  0  0  0  0
 21 22  2  0  0  0  0
 21 42  1  0  0  0  0
 22 23  1  0  0  0  0
 22 43  1  0  0  0  0
M  END
> <s_m_source_file>
AV-unprocessed.smi

> <i_m_source_file_index>
421

> <i_lp_mmshare_version>
43012

> <i_f3d_flags>
0

> <s_epik_input>
W2NIXTFbY0hdW2NIXVtjSF1jKGMxMiluKFtDSDNdKWMoPU8pbjJbQ0gyXVtDQEhdKFtPSF0pW0NIMl1PW0NIMl1jM1tjSF1bY0hdW2NIXVtjSF1bY0hdMw==

> <s_epik_cmdline>
J2VwaWtfcHl0aG9uJywgJy1waCcsICc3LjAnLCAnLXRuJywgJzgnLCAnLW1hJywgJzIwMCcsICctbWV0YWxfYmluZGluZycsICctaW1hZScsICc8aW5maWxlLm1hZT4nLCAnLW9tYWUnLCAnPG91dGZpbGUubWFlPic=

> <r_lp_tautomer_probability>
1

> <r_epik_Ionization_Penalty>
1.0795e-06

> <r_epik_Ionization_Penalty_Charging>
2.82452e-09

> <r_epik_Ionization_Penalty_Neutral>
1.07667e-06

> <r_epik_State_Penalty>
-0

> <r_epik_Charging_Adjusted_Penalty>
2.82452e-09

> <i_epik_Tot_Q>
0

> <i_epik_Tot_abs_Q>
0

> <r_epik_Metal_State_Penalty>
-0

> <b_epik_Metal_Only>
0

> <s_lp_Force_Field>
OPLS_2005

> <r_lp_Energy>
47.6123

> <b_lp_Chiralities_Consistent>
1

> <s_lp_Variant>
AV-unprocessed.smi:421-2

> <Gold.Version>
5.8.1

> <Gold.Id.Protein>
6NUR|6NUR_protein|mol2

> <Gold.PLP.Fitness>
50.7572

> <Gold.PLP.PLP>
-45.7871

> <Gold.PLP.part.hbond>
-3.0000

> <Gold.PLP.part.metal>
0.0000

> <Gold.PLP.part.buried>
-5.5012

> <Gold.PLP.part.nonpolar>
-36.9315

> <Gold.PLP.part.repulsive>
0.0000

> <Gold.PLP.ligand.clash>
0.0000

> <Gold.PLP.ligand.torsion>
0.6509

> <Gold.PLP.Chemscore.Hbond>
2.0362

> <Gold.PLP.Chemscore.CHOScore>
0.0000

> <Gold.PLP.Chemscore.Metal>
0.0000

> <Gold.Chemscore.Hbonds>
donor molecule, donor type, donor heavy atom, donor atom, acceptor molecule, acceptor atom, score
      P1  H  6896  6908       L1     4  1.00
      P1  H  6931  6943       L1    10  0.74
      P1  H  6934  6947       L1    10  0.33

> <Gold.PLP.Chemscore.Internal.Correction>
0.1634

> <Gold.Rescore>
     Score         DG    S(hbond)    S(metal)    S(lipo)     H(rot)  DE(clash)    DE(int)     intcor
     17.44     -18.11       1.39        0.00     116.77       2.21       0.06       0.62       ----

> <Gold.Chemscore.Fitness>
17.4362

> <Gold.Chemscore.DG>
-18.1128

> <Gold.Chemscore.ZeroCoef>
-5.4800

> <Gold.Chemscore.Hbond>
1.3872

> <Gold.Chemscore.Metal>
0.0000

> <Gold.Chemscore.Lipo>
116.7680

> <Gold.Chemscore.Internal_Hbond>
0.0000

> <Gold.Chemscore.DEClash>
0.0567

> <Gold.Chemscore.DEInternal>
0.6199

> <Gold.Chemscore.Rot>
2.2119

> <Gold.Chemscore.Internal.Correction>
   9.000000E+99

> <Gold.Chemscore.Hbonds>
donor molecule, donor type, donor heavy atom, donor atom, acceptor molecule, acceptor atom, score
      P1  H  6896  6908       L1     4  0.99
      P1  H  6931  6943       L1    10  0.07
      P1  H  6934  6947       L1    10  0.33

> <Gold.Chemscore.Hbond.Weighted>
-4.6333

> <Gold.Chemscore.Metal.Weighted>
-0.0000

> <Gold.Chemscore.Lipo.Weighted>
-13.6619

> <Gold.Chemscore.Internal_Hbond.Weighted>
0.0000

> <Gold.Chemscore.DEClash.Weighted>
0.0567

> <Gold.Chemscore.DEInternal.Weighted>
0.6199

> <Gold.Chemscore.Rot.Weighted>
5.6623

> <Gold.Chemscore.Internal.Correction.Weighted>
   9.000000E+99

> <Gold.Protein.RotatedTorsions>
[ 6907 6896 6895 6894 ] final -103.90 input  -60.11 | X-H torsion
[ 7974 7965 7964 7962 ] final  133.76 input  175.53 | X-H torsion
[ 8008 7997 7996 7995 ] final   31.28 input   59.86 | X-H torsion
[ 10167 10162 10161 10158 ] final   -2.49 input  -65.29 | X-H torsion
[ 10718 10713 10712 10709 ] final  120.94 input   66.30 | X-H torsion
[ 10763 10752 10751 10750 ] final  128.99 input  -60.55 | X-H torsion
[ 11005 11000 10999 10996 ] final   73.53 input  -57.11 | X-H torsion

> <Gold.Protein.ActiveResidues>
 VAL166  LYS551  ARG553  GLY616  TRP617  ASP618  TYR619  PRO620  LYS621  CYS622 
 ASP623  PHE694  ASN695  SER759  ASP760  ASP761  ALA762  ILE779  LEU786  VAL792 
 PHE793  MET794  SER795  GLU796  ALA797  LYS798  CYS799  TRP800  GLU811  SER814 

> <Gold.Protein.RotatedAtoms>
  150.7262  134.0359  159.3748 H   0  0  0  0  0  0  0  0  0  0  0  0  # atno 6907 bound_to 6896
  151.8330  135.0613  160.0448 H   0  0  0  0  0  0  0  0  0  0  0  0  # atno 6908 bound_to 6896
  152.2919  133.5534  159.5599 H   0  0  0  0  0  0  0  0  0  0  0  0  # atno 6909 bound_to 6896
  144.9832  139.4483  143.5376 H   0  0  0  0  0  0  0  0  0  0  0  0  # atno 7974 bound_to 7965
  155.1039  140.3232  155.4540 H   0  0  0  0  0  0  0  0  0  0  0  0  # atno 8008 bound_to 7997
  156.2709  140.2056  156.6111 H   0  0  0  0  0  0  0  0  0  0  0  0  # atno 8009 bound_to 7997
  154.6808  140.0526  157.0251 H   0  0  0  0  0  0  0  0  0  0  0  0  # atno 8010 bound_to 7997
  140.6853  143.6650  150.8233 H   0  0  0  0  0  0  0  0  0  0  0  0  # atno 10167 bound_to 10162
  157.5854  131.1070  150.8105 H   0  0  0  0  0  0  0  0  0  0  0  0  # atno 10718 bound_to 10713
  153.7344  135.3233  155.3292 H   0  0  0  0  0  0  0  0  0  0  0  0  # atno 10763 bound_to 10752
  154.8315  135.4530  154.1089 H   0  0  0  0  0  0  0  0  0  0  0  0  # atno 10764 bound_to 10752
  153.2246  135.6952  153.8041 H   0  0  0  0  0  0  0  0  0  0  0  0  # atno 10765 bound_to 10752
  139.9435  134.7355  156.1038 H   0  0  0  0  0  0  0  0  0  0  0  0  # atno 11005 bound_to 11000
  146.3413  139.9118  142.8779 LP  0  0  0  0  0  0  0  0  0  0  0  0  # atno 17320 bound_to 7965
  145.2391  141.0002  143.3946 LP  0  0  0  0  0  0  0  0  0  0  0  0  # atno 17321 bound_to 7965
  140.0356  143.5398  152.2740 LP  0  0  0  0  0  0  0  0  0  0  0  0  # atno 17342 bound_to 10162
  139.6207  144.7628  151.2747 LP  0  0  0  0  0  0  0  0  0  0  0  0  # atno 17343 bound_to 10162
  156.8540  130.5090  149.5309 LP  0  0  0  0  0  0  0  0  0  0  0  0  # atno 17370 bound_to 10713
  156.0903  130.5890  150.9721 LP  0  0  0  0  0  0  0  0  0  0  0  0  # atno 17371 bound_to 10713
  141.1078  133.6654  156.2906 LP  0  0  0  0  0  0  0  0  0  0  0  0  # atno 17394 bound_to 11000
  140.5892  134.5668  157.5496 LP  0  0  0  0  0  0  0  0  0  0  0  0  # atno 17395 bound_to 11000

$$$$
