AV-unprocessed.smi:16|AV-procd|sdf|88|dock9
  -GOLD-   2262015223D 1   1.00000     0.00000
 Structure written by MMmdl.
 60 64  0  0  0  0  0  0  0  0  2 V2000
  147.2087  141.9558  154.3667 C   0  0  0  0  0  0  0  0  0  0  0  0
  148.0831  140.7951  153.8693 C   0  0  0  0  0  0  0  0  0  0  0  0
  149.1596  140.4466  154.8303 N   0  3  2  0  0  0  0  0  0  0  0  0
  149.9915  141.6201  155.2021 C   0  0  0  0  0  0  0  0  0  0  0  0
  150.9855  141.2592  156.3173 C   0  0  0  0  0  0  0  0  0  0  0  0
  151.8654  140.0572  155.9118 C   0  0  1  0  0  0  0  0  0  0  0  0
  152.7789  139.6658  156.9389 O   0  0  0  0  0  0  0  0  0  0  0  0
  152.1732  139.0625  158.0809 C   0  0  0  0  0  0  0  0  0  0  0  0
  151.3257  137.8540  157.6560 C   0  0  0  0  0  0  0  0  0  0  0  0
  150.3634  138.2469  156.6340 N   0  0  0  0  0  0  0  0  0  0  0  0
  149.4632  137.2755  156.3703 C   0  0  0  0  0  0  0  0  0  0  0  0
  148.1955  137.3669  156.8496 N   0  0  0  0  0  0  0  0  0  0  0  0
  147.3242  136.3810  156.6117 C   0  0  0  0  0  0  0  0  0  0  0  0
  147.5163  135.2393  155.9454 N   0  0  0  0  0  0  0  0  0  0  0  0
  148.7916  135.1492  155.4689 C   0  0  0  0  0  0  0  0  0  0  0  0
  149.8167  136.1212  155.6274 C   0  0  0  0  0  0  0  0  0  0  0  0
  150.9822  135.6995  155.0024 N   0  0  0  0  0  0  0  0  0  0  0  0
  150.6606  134.5416  154.4917 C   0  0  0  0  0  0  0  0  0  0  0  0
  149.3770  134.1176  154.7565 N   0  0  0  0  0  0  0  0  0  0  0  0
  148.7637  132.9051  154.3011 C   0  0  0  0  0  0  0  0  0  0  0  0
  148.8076  132.5038  152.8250 C   0  0  0  0  0  0  0  0  0  0  0  0
  147.4192  131.8402  152.9716 C   0  0  0  0  0  0  0  0  0  0  0  0
  146.4425  132.0783  151.8087 C   0  0  0  0  0  0  0  0  0  0  0  0
  146.8880  131.4364  150.6314 O   0  0  0  0  0  0  0  0  0  0  0  0
  147.4402  130.3370  153.3154 C   0  0  0  0  0  0  0  0  0  0  0  0
  148.0423  129.5792  152.2857 O   0  0  0  0  0  0  0  0  0  0  0  0
  147.2430  132.7875  154.1787 C   0  0  0  0  0  0  0  0  0  0  0  0
  151.0021  138.8566  155.4636 C   0  0  1  0  0  0  0  0  0  0  0  0
  150.0063  139.3150  154.3680 C   0  0  0  0  0  0  0  0  0  0  0  0
  152.4770  140.3694  155.0645 H   0  0  0  0  0  0  0  0  0  0  0  0
  151.6639  138.1066  155.0275 H   0  0  0  0  0  0  0  0  0  0  0  0
  146.4437  142.2014  153.6302 H   0  0  0  0  0  0  0  0  0  0  0  0
  147.8048  142.8536  154.5281 H   0  0  0  0  0  0  0  0  0  0  0  0
  146.6974  141.7204  155.2998 H   0  0  0  0  0  0  0  0  0  0  0  0
  147.4734  139.9160  153.6554 H   0  0  0  0  0  0  0  0  0  0  0  0
  148.5258  141.0993  152.9199 H   0  0  0  0  0  0  0  0  0  0  0  0
  150.5240  141.9865  154.3229 H   0  0  0  0  0  0  0  0  0  0  0  0
  149.3512  142.4326  155.5475 H   0  0  0  0  0  0  0  0  0  0  0  0
  151.6146  142.1190  156.5487 H   0  0  0  0  0  0  0  0  0  0  0  0
  150.4173  141.0419  157.2213 H   0  0  0  0  0  0  0  0  0  0  0  0
  152.9599  138.7421  158.7640 H   0  0  0  0  0  0  0  0  0  0  0  0
  151.5707  139.7872  158.6278 H   0  0  0  0  0  0  0  0  0  0  0  0
  151.9739  137.0675  157.2664 H   0  0  0  0  0  0  0  0  0  0  0  0
  150.8060  137.4427  158.5226 H   0  0  0  0  0  0  0  0  0  0  0  0
  146.3336  136.5234  157.0182 H   0  0  0  0  0  0  0  0  0  0  0  0
  151.3615  133.9549  153.9156 H   0  0  0  0  0  0  0  0  0  0  0  0
  149.1649  132.1086  154.9300 H   0  0  0  0  0  0  0  0  0  0  0  0
  148.8005  133.3690  152.1593 H   0  0  0  0  0  0  0  0  0  0  0  0
  149.6225  131.8257  152.5697 H   0  0  0  0  0  0  0  0  0  0  0  0
  145.4535  131.6857  152.0470 H   0  0  0  0  0  0  0  0  0  0  0  0
  146.3075  133.1408  151.6052 H   0  0  0  0  0  0  0  0  0  0  0  0
  147.8316  131.3896  150.6534 H   0  0  0  0  0  0  0  0  0  0  0  0
  147.9976  130.1499  154.2332 H   0  0  0  0  0  0  0  0  0  0  0  0
  146.4347  129.9537  153.4903 H   0  0  0  0  0  0  0  0  0  0  0  0
  148.5343  130.1646  151.7305 H   0  0  0  0  0  0  0  0  0  0  0  0
  146.7524  132.3410  155.0442 H   0  0  0  0  0  0  0  0  0  0  0  0
  146.7708  133.7339  153.9075 H   0  0  0  0  0  0  0  0  0  0  0  0
  149.3904  138.4802  154.0366 H   0  0  0  0  0  0  0  0  0  0  0  0
  150.5639  139.6335  153.4856 H   0  0  0  0  0  0  0  0  0  0  0  0
  148.6987  140.1469  155.6781 H   0  0  0  0  0  0  0  0  0  0  0  0
  1  2  1  0  0  0  0
  1 32  1  0  0  0  0
  1 33  1  0  0  0  0
  1 34  1  0  0  0  0
  2  3  1  0  0  0  0
  2 35  1  0  0  0  0
  2 36  1  0  0  0  0
  3 29  1  0  0  0  0
  3  4  1  0  0  0  0
  3 60  1  0  0  0  0
  4  5  1  0  0  0  0
  4 37  1  0  0  0  0
  4 38  1  0  0  0  0
  5  6  1  0  0  0  0
  5 39  1  0  0  0  0
  5 40  1  0  0  0  0
  6 30  1  0  0  0  0
  6 28  1  0  0  0  0
  6  7  1  0  0  0  0
  7  8  1  0  0  0  0
  8  9  1  0  0  0  0
  8 41  1  0  0  0  0
  8 42  1  0  0  0  0
  9 10  1  0  0  0  0
  9 43  1  0  0  0  0
  9 44  1  0  0  0  0
 10 11  1  0  0  0  0
 10 28  1  0  0  0  0
 11 16  1  0  0  0  0
 11 12  2  0  0  0  0
 12 13  1  0  0  0  0
 13 14  2  0  0  0  0
 13 45  1  0  0  0  0
 14 15  1  0  0  0  0
 15 19  1  0  0  0  0
 15 16  2  0  0  0  0
 16 17  1  0  0  0  0
 17 18  2  0  0  0  0
 18 19  1  0  0  0  0
 18 46  1  0  0  0  0
 19 20  1  0  0  0  0
 20 27  1  0  0  0  0
 20 21  1  0  0  0  0
 20 47  1  0  0  0  0
 21 22  1  0  0  0  0
 21 48  1  0  0  0  0
 21 49  1  0  0  0  0
 22 23  1  0  0  0  0
 22 25  1  0  0  0  0
 22 27  1  0  0  0  0
 23 24  1  0  0  0  0
 23 50  1  0  0  0  0
 23 51  1  0  0  0  0
 24 52  1  0  0  0  0
 25 26  1  0  0  0  0
 25 53  1  0  0  0  0
 25 54  1  0  0  0  0
 26 55  1  0  0  0  0
 27 56  1  0  0  0  0
 27 57  1  0  0  0  0
 28 31  1  0  0  0  0
 28 29  1  0  0  0  0
 29 58  1  0  0  0  0
 29 59  1  0  0  0  0
M  CHG  1   3   1
M  END
> <s_m_source_file>
AV-unprocessed.smi

> <i_m_source_file_index>
16

> <i_lp_mmshare_version>
43012

> <i_f3d_flags>
0

> <s_epik_input>
W0NIM11bQ0gyXU4oW0NIMl1bQ0gyXTEpW0NIMl1bQ0BASF0oW0NAQEhdMTIpTihbQ0gyXVtDSDJdTzIpYyhuW2NIXW4zKWMoYzM0KW5bY0hdbjRbQ0hdKFtDSDJdNSlbQ0gyXUM1KFtDSDJdW09IXSlbQ0gyXVtPSF0=

> <s_epik_cmdline>
J2VwaWtfcHl0aG9uJywgJy1waCcsICc3LjAnLCAnLXRuJywgJzgnLCAnLW1hJywgJzIwMCcsICctbWV0YWxfYmluZGluZycsICctaW1hZScsICc8aW5maWxlLm1hZT4nLCAnLW9tYWUnLCAnPG91dGZpbGUubWFlPic=

> <r_lp_tautomer_probability>
1

> <r_epik_Ionization_Penalty>
0.0135603

> <r_epik_Ionization_Penalty_Charging>
0.0131385

> <r_epik_Ionization_Penalty_Neutral>
0.000421734

> <r_epik_State_Penalty>
0.0102091

> <r_epik_Charging_Adjusted_Penalty>
0.0233476

> <i_epik_Tot_Q>
1

> <i_epik_Tot_abs_Q>
1

> <r_epik_Metal_State_Penalty>
0.0103746

> <b_epik_Metal_Only>
0

> <s_lp_Force_Field>
OPLS_2005

> <r_lp_Energy>
60.5416

> <b_lp_Chiralities_Consistent>
1

> <s_lp_Variant>
AV-unprocessed.smi:16-2

> <Gold.Version>
5.8.1

> <Gold.Id.Protein>
6NUR|6NUR_protein|mol2

> <Gold.PLP.Fitness>
48.7767

> <Gold.PLP.PLP>
-38.8015

> <Gold.PLP.part.hbond>
-3.6952

> <Gold.PLP.part.metal>
0.0000

> <Gold.PLP.part.buried>
-4.4120

> <Gold.PLP.part.nonpolar>
-31.0027

> <Gold.PLP.part.repulsive>
0.2957

> <Gold.PLP.ligand.clash>
0.0000

> <Gold.PLP.ligand.torsion>
0.7674

> <Gold.PLP.Chemscore.Hbond>
3.6077

> <Gold.PLP.Chemscore.CHOScore>
0.0000

> <Gold.PLP.Chemscore.Metal>
0.0000

> <Gold.Chemscore.Hbonds>
donor molecule, donor type, donor heavy atom, donor atom, acceptor molecule, acceptor atom, score
      L1  H    24    52       P1 10747  0.47
      L1  H    26    55       P1 10747  1.00
      P1  H  7997  8008       L1     7  1.00
      P1  H 10752 10764       L1    17  0.75

> <Gold.PLP.Chemscore.Internal.Correction>
0.6867

> <Gold.Rescore>
     Score         DG    S(hbond)    S(metal)    S(lipo)     H(rot)  DE(clash)    DE(int)     intcor
     16.38     -17.47       2.98        0.00      90.30       3.33       0.09       1.01       ----

> <Gold.Chemscore.Fitness>
16.3793

> <Gold.Chemscore.DG>
-17.4743

> <Gold.Chemscore.ZeroCoef>
-5.4800

> <Gold.Chemscore.Hbond>
2.9766

> <Gold.Chemscore.Metal>
0.0000

> <Gold.Chemscore.Lipo>
90.2969

> <Gold.Chemscore.Internal_Hbond>
0.0000

> <Gold.Chemscore.DEClash>
0.0859

> <Gold.Chemscore.DEInternal>
1.0092

> <Gold.Chemscore.Rot>
3.3251

> <Gold.Chemscore.Internal.Correction>
   9.000000E+99

> <Gold.Chemscore.Hbonds>
donor molecule, donor type, donor heavy atom, donor atom, acceptor molecule, acceptor atom, score
      L1  H    24    52       P1 10747  0.46
      L1  H    26    55       P1 10747  0.59
      P1  H  7997  8008       L1     7  0.94
      P1  H 10752 10764       L1    17  0.09

> <Gold.Chemscore.Hbond.Weighted>
-9.9418

> <Gold.Chemscore.Metal.Weighted>
-0.0000

> <Gold.Chemscore.Lipo.Weighted>
-10.5647

> <Gold.Chemscore.Internal_Hbond.Weighted>
0.0000

> <Gold.Chemscore.DEClash.Weighted>
0.0859

> <Gold.Chemscore.DEInternal.Weighted>
1.0092

> <Gold.Chemscore.Rot.Weighted>
8.5122

> <Gold.Chemscore.Internal.Correction.Weighted>
   9.000000E+99

> <Gold.Protein.RotatedTorsions>
[ 6907 6896 6895 6894 ] final -175.26 input  -60.11 | X-H torsion
[ 7974 7965 7964 7962 ] final   -7.31 input  175.53 | X-H torsion
[ 8008 7997 7996 7995 ] final  -66.63 input   59.86 | X-H torsion
[ 10167 10162 10161 10158 ] final   64.09 input  -65.29 | X-H torsion
[ 10718 10713 10712 10709 ] final   69.69 input   66.30 | X-H torsion
[ 10763 10752 10751 10750 ] final  -61.45 input  -60.55 | X-H torsion
[ 11005 11000 10999 10996 ] final   20.60 input  -57.11 | X-H torsion

> <Gold.Protein.ActiveResidues>
 VAL166  LYS551  ARG553  GLY616  TRP617  ASP618  TYR619  PRO620  LYS621  CYS622 
 ASP623  PHE694  ASN695  SER759  ASP760  ASP761  ALA762  ILE779  LEU786  VAL792 
 PHE793  MET794  SER795  GLU796  ALA797  LYS798  CYS799  TRP800  GLU811  SER814 

> <Gold.Protein.RotatedAtoms>
  151.5857  133.3372  159.3017 H   0  0  0  0  0  0  0  0  0  0  0  0  # atno 6907 bound_to 6896
  150.8288  134.7535  159.6847 H   0  0  0  0  0  0  0  0  0  0  0  0  # atno 6908 bound_to 6896
  152.4374  134.5665  159.9960 H   0  0  0  0  0  0  0  0  0  0  0  0  # atno 6909 bound_to 6896
  146.2310  140.2301  142.8340 H   0  0  0  0  0  0  0  0  0  0  0  0  # atno 7974 bound_to 7965
  154.4747  140.0909  156.7232 H   0  0  0  0  0  0  0  0  0  0  0  0  # atno 8008 bound_to 7997
  155.4629  140.3461  155.4297 H   0  0  0  0  0  0  0  0  0  0  0  0  # atno 8009 bound_to 7997
  156.1097  140.1444  156.9344 H   0  0  0  0  0  0  0  0  0  0  0  0  # atno 8010 bound_to 7997
  140.1259  144.4688  150.6893 H   0  0  0  0  0  0  0  0  0  0  0  0  # atno 10167 bound_to 10162
  157.6359  130.9438  150.0547 H   0  0  0  0  0  0  0  0  0  0  0  0  # atno 10718 bound_to 10713
  154.2848  135.6265  153.5361 H   0  0  0  0  0  0  0  0  0  0  0  0  # atno 10763 bound_to 10752
  152.9860  135.5641  154.5456 H   0  0  0  0  0  0  0  0  0  0  0  0  # atno 10764 bound_to 10752
  154.5054  135.2874  155.1362 H   0  0  0  0  0  0  0  0  0  0  0  0  # atno 10765 bound_to 10752
  140.4009  134.1720  155.7664 H   0  0  0  0  0  0  0  0  0  0  0  0  # atno 11005 bound_to 11000
  144.9564  140.8231  143.5540 LP  0  0  0  0  0  0  0  0  0  0  0  0  # atno 17320 bound_to 7965
  145.2267  139.2134  143.5064 LP  0  0  0  0  0  0  0  0  0  0  0  0  # atno 17321 bound_to 7965
  140.6845  143.2343  151.5296 LP  0  0  0  0  0  0  0  0  0  0  0  0  # atno 17342 bound_to 10162
  139.5544  144.2312  152.1587 LP  0  0  0  0  0  0  0  0  0  0  0  0  # atno 17343 bound_to 10162
  156.1598  130.3643  149.9315 LP  0  0  0  0  0  0  0  0  0  0  0  0  # atno 17370 bound_to 10713
  156.7316  130.9045  151.3626 LP  0  0  0  0  0  0  0  0  0  0  0  0  # atno 17371 bound_to 10713
  141.1857  133.8317  157.1095 LP  0  0  0  0  0  0  0  0  0  0  0  0  # atno 17394 bound_to 11000
  140.0337  134.9888  157.0830 LP  0  0  0  0  0  0  0  0  0  0  0  0  # atno 17395 bound_to 11000

$$$$
