#       Name:                AV-unprocessed.smi:33
#       Creating user name   scv26
#       Creation time:       Thu Mar 26 15:51:49 2020


#       File generated by GOLD software.
#

@<TRIPOS>MOLECULE
AV-unprocessed.smi:33
    80    85     1
SMALL
NO_CHARGES


@<TRIPOS>ATOM
      1 ****        -3.7402   2.7457  -2.2699 O.2            1 S1                 0.0000
      2 ****        -4.2789   2.8090  -1.1628 C.2            1 S1                 0.0000
      3 ****        -4.9419   1.7828  -0.5934 O.3            1 S1                 0.0000
      4 ****        -5.0320   0.5321  -1.2570 C.3            1 S1                 0.0000
      5 ****        -5.3865  -0.5560  -0.2333 C.3            1 S1                 0.0000
      6 ****        -4.2742  -0.7428   0.6455 O.3            1 S1                 0.0000
      7 ****        -3.7197  -2.0131   0.4875 C.3            1 S1                 0.0000
      8 ****        -2.2240  -1.9260   0.4927 N.pl3          1 S1                 0.0000
      9 ****        -1.3407  -2.8902   0.9252 C.2            1 S1                 0.0000
     10 ****        -0.0763  -2.5850   0.8145 N.2            1 S1                 0.0000
     11 ****        -0.0873  -1.3103   0.2641 C.ar           1 S1                 0.0000
     12 ****         0.9276  -0.3926  -0.1203 C.ar           1 S1                 0.0000
     13 ****         2.2485  -0.6648   0.0004 N.am           1 S1                 0.0000
     14 ****         2.7996  -1.7022  -0.8839 C.2            1 S1                 0.0000
     15 ****         2.2429  -1.9461  -1.9562 O.2            1 S1                 0.0000
     16 ****         4.0578  -2.4333  -0.5095 C.ar           1 S1                 0.0000
     17 ****         5.0847  -2.6079  -1.4630 C.ar           1 S1                 0.0000
     18 ****         6.2595  -3.3056  -1.1215 C.ar           1 S1                 0.0000
     19 ****         6.4065  -3.8501   0.1684 C.ar           1 S1                 0.0000
     20 ****         5.3744  -3.7048   1.1146 C.ar           1 S1                 0.0000
     21 ****         4.2002  -3.0056   0.7747 C.ar           1 S1                 0.0000
     22 ****         3.0082   0.1021   0.9988 C.2            1 S1                 0.0000
     23 ****         2.4204   0.5880   1.9670 O.2            1 S1                 0.0000
     24 ****         4.4993   0.2460   0.8788 C.ar           1 S1                 0.0000
     25 ****         5.3224   0.0290   2.0055 C.ar           1 S1                 0.0000
     26 ****         6.7195   0.1757   1.9035 C.ar           1 S1                 0.0000
     27 ****         7.3007   0.5572   0.6794 C.ar           1 S1                 0.0000
     28 ****         6.4837   0.8019  -0.4405 C.ar           1 S1                 0.0000
     29 ****         5.0867   0.6564  -0.3393 C.ar           1 S1                 0.0000
     30 ****         0.5444   0.8042  -0.6355 N.ar           1 S1                 0.0000
     31 ****        -0.7553   1.0824  -0.7690 C.ar           1 S1                 0.0000
     32 ****        -1.8065   0.3214  -0.4580 N.ar           1 S1                 0.0000
     33 ****        -1.4282  -0.8813   0.0629 C.ar           1 S1                 0.0000
     34 ****        -4.2794  -2.6079  -0.8102 C.3            1 S1                 0.0000
     35 ****        -3.4895  -2.3499  -1.9574 O.3            1 S1                 0.0000
     36 ****        -5.6282  -1.9195  -0.8923 C.3            1 S1                 0.0000
     37 ****        -6.5167  -2.6082  -0.1733 F              1 S1                 0.0000
     38 ****        -4.2589   4.0310  -0.3084 C.ar           1 S1                 0.0000
     39 ****        -3.5790   5.1846  -0.7644 C.ar           1 S1                 0.0000
     40 ****        -3.5448   6.3541   0.0197 C.ar           1 S1                 0.0000
     41 ****        -4.1900   6.3842   1.2699 C.ar           1 S1                 0.0000
     42 ****        -4.8679   5.2427   1.7358 C.ar           1 S1                 0.0000
     43 ****        -4.9025   4.0720   0.9534 C.ar           1 S1                 0.0000
     44 ****        -5.8085   0.5992  -2.0194 H              1 S1                 0.0000
     45 ****        -4.1009   0.2838  -1.7666 H              1 S1                 0.0000
     46 ****        -6.2642  -0.2458   0.3352 H              1 S1                 0.0000
     47 ****        -3.9682  -2.6149   1.3628 H              1 S1                 0.0000
     48 ****        -1.6677  -3.8396   1.3241 H              1 S1                 0.0000
     49 ****         4.9826  -2.1948  -2.4562 H              1 S1                 0.0000
     50 ****         7.0477  -3.4241  -1.8502 H              1 S1                 0.0000
     51 ****         7.3076  -4.3852   0.4297 H              1 S1                 0.0000
     52 ****         5.4819  -4.1308   2.1013 H              1 S1                 0.0000
     53 ****         3.4127  -2.9041   1.5077 H              1 S1                 0.0000
     54 ****         4.8871  -0.2651   2.9497 H              1 S1                 0.0000
     55 ****         7.3449  -0.0041   2.7654 H              1 S1                 0.0000
     56 ****         8.3720   0.6693   0.6015 H              1 S1                 0.0000
     57 ****         6.9285   1.1027  -1.3774 H              1 S1                 0.0000
     58 ****         4.4697   0.8530  -1.2042 H              1 S1                 0.0000
     59 ****        -0.9877   2.0513  -1.1860 H              1 S1                 0.0000
     60 ****        -4.3738  -3.6892  -0.7044 H              1 S1                 0.0000
     61 ****        -2.6179  -2.6807  -1.8012 H              1 S1                 0.0000
     62 ****        -6.0277  -1.8544  -1.9053 H              1 S1                 0.0000
     63 ****        -3.0758   5.1847  -1.7206 H              1 S1                 0.0000
     64 ****        -3.0227   7.2286  -0.3391 H              1 S1                 0.0000
     65 ****        -4.1641   7.2813   1.8708 H              1 S1                 0.0000
     66 ****        -5.3628   5.2641   2.6956 H              1 S1                 0.0000
     67 ****        -5.4307   3.2132   1.3413 H              1 S1                 0.0000
     68 ****        -3.7813   1.8977  -2.7981 LP             1 S1                 0.0000
     69 ****        -3.2622   3.5425  -2.6396 LP             1 S1                 0.0000
     70 ****        -4.5827  -0.6359   1.5907 LP             1 S1                 0.0000
     71 ****        -3.5778  -0.0544   0.4424 LP             1 S1                 0.0000
     72 ****         0.7160  -3.1402   1.0674 LP             1 S1                 0.0000
     73 ****         1.4219  -1.4397  -2.2198 LP             1 S1                 0.0000
     74 ****         2.6123  -2.6503  -2.5625 LP             1 S1                 0.0000
     75 ****         1.4340   0.4594   2.0692 LP             1 S1                 0.0000
     76 ****         2.9299   1.1109   2.6504 LP             1 S1                 0.0000
     77 ****         1.2324   1.4745  -0.9137 LP             1 S1                 0.0000
     78 ****        -2.7578   0.5996  -0.5909 LP             1 S1                 0.0000
     79 ****        -3.4514  -1.3650  -2.1264 LP             1 S1                 0.0000
     80 ****        -3.8875  -2.8092  -2.7515 LP             1 S1                 0.0000
@<TRIPOS>BOND
    1    1    2 2     
    2    2    3 1     
    3    2   38 1     
    4    3    4 1     
    5    4    5 1     
    6    4   44 1     
    7    4   45 1     
    8    5   36 1     
    9    5    6 1     
   10    5   46 1     
   11    6    7 1     
   12    7    8 1     
   13    7   34 1     
   14    7   47 1     
   15    8   33 1     
   16    8    9 1     
   17    9   10 2     
   18    9   48 1     
   19   10   11 1     
   20   11   33 ar    
   21   11   12 ar    
   22   12   13 1     
   23   12   30 ar    
   24   13   14 am    
   25   13   22 am    
   26   14   15 2     
   27   14   16 1     
   28   16   21 ar    
   29   16   17 ar    
   30   17   18 ar    
   31   17   49 1     
   32   18   19 ar    
   33   18   50 1     
   34   19   20 ar    
   35   19   51 1     
   36   20   21 ar    
   37   20   52 1     
   38   21   53 1     
   39   22   23 2     
   40   22   24 1     
   41   24   29 ar    
   42   24   25 ar    
   43   25   26 ar    
   44   25   54 1     
   45   26   27 ar    
   46   26   55 1     
   47   27   28 ar    
   48   27   56 1     
   49   28   29 ar    
   50   28   57 1     
   51   29   58 1     
   52   30   31 ar    
   53   31   32 ar    
   54   31   59 1     
   55   32   33 ar    
   56   34   35 1     
   57   34   36 1     
   58   34   60 1     
   59   35   61 1     
   60   36   37 1     
   61   36   62 1     
   62   38   43 ar    
   63   38   39 ar    
   64   39   40 ar    
   65   39   63 1     
   66   40   41 ar    
   67   40   64 1     
   68   41   42 ar    
   69   41   65 1     
   70   42   43 ar    
   71   42   66 1     
   72   43   67 1     
   73    1   68 1     
   74    1   69 1     
   75    6   70 1     
   76    6   71 1     
   77   10   72 1     
   78   15   73 1     
   79   15   74 1     
   80   23   75 1     
   81   23   76 1     
   82   30   77 1     
   83   32   78 1     
   84   35   79 1     
   85   35   80 1     
@<TRIPOS>SUBSTRUCTURE
      1 S1             1
@<TRIPOS>SET
LONE_PAIRS      STATIC     ATOMS    <user>   **** ""
13 68 69 70 71 72 73 74 75 76 77 78 79 80
DONOR_HYDROGENS      STATIC     ATOMS    <user>   **** ""
1 61
ATOM$BLUE        STATIC     ATOMS    COLORGROUP SYSTEM
13 68 69 70 71 72 73 74 75 76 77 78 79 80
ATOM$RED        STATIC     ATOMS    COLORGROUP SYSTEM
1 61
