AV-unprocessed.smi:1723|AV-procd|sdf|6947|dock6
  -GOLD-   22720 8153D 1   1.00000     0.00000
 Structure written by MMmdl.
 37 37  0  0  0  0  0  0  0  0  2 V2000
  145.8129  142.4658  154.4232 C   0  0  0  0  0  0  0  0  0  0  0  0
  147.2939  142.2426  154.0981 C   0  0  0  0  0  0  0  0  0  0  0  0
  147.8348  140.9292  154.6839 C   0  0  0  0  0  0  0  0  0  0  0  0
  149.3165  140.6987  154.3627 C   0  0  0  0  0  0  0  0  0  0  0  0
  149.7154  139.4365  154.8859 O   0  0  0  0  0  0  0  0  0  0  0  0
  151.0716  139.0740  154.6399 C   0  0  2  0  0  0  0  0  0  0  0  0
  151.1511  137.5406  154.6602 C   0  0  0  0  0  0  0  0  0  0  0  0
  151.9895  139.6939  155.7060 C   0  0  0  0  0  0  0  0  0  0  0  0
  153.1951  139.4481  155.6789 O   0  0  0  0  0  0  0  0  0  0  0  0
  151.3675  140.4557  156.6276 N   0  0  0  0  0  0  0  0  0  0  0  0
  151.8956  141.1585  157.7246 C   0  0  0  0  0  0  0  0  0  0  0  0
  151.5269  142.4147  158.1016 C   0  0  0  0  0  0  0  0  0  0  0  0
  152.1102  143.0863  159.2560 C   0  0  0  0  0  0  0  0  0  0  0  0
  151.6672  144.4538  159.7461 C   0  0  0  0  0  0  0  0  0  0  0  0
  150.3393  144.5232  159.8450 F   0  0  0  0  0  0  0  0  0  0  0  0
  152.1869  144.6940  160.9489 F   0  0  0  0  0  0  0  0  0  0  0  0
  152.0779  145.4137  158.9172 F   0  0  0  0  0  0  0  0  0  0  0  0
  153.0319  142.2944  159.9128 C   0  0  0  0  0  0  0  0  0  0  0  0
  153.4586  141.0506  159.6029 N   0  5  0  0  0  0  0  0  0  0  0  0
  152.9129  140.4356  158.5161 C   0  0  0  0  0  0  0  0  0  0  0  0
  153.2492  139.2982  158.1839 O   0  0  0  0  0  0  0  0  0  0  0  0
  145.4586  143.4040  153.9960 H   0  0  0  0  0  0  0  0  0  0  0  0
  145.6482  142.5076  155.5002 H   0  0  0  0  0  0  0  0  0  0  0  0
  145.1953  141.6629  154.0201 H   0  0  0  0  0  0  0  0  0  0  0  0
  147.4280  142.2433  153.0158 H   0  0  0  0  0  0  0  0  0  0  0  0
  147.8749  143.0828  154.4802 H   0  0  0  0  0  0  0  0  0  0  0  0
  147.6901  140.9161  155.7648 H   0  0  0  0  0  0  0  0  0  0  0  0
  147.2544  140.0959  154.2863 H   0  0  0  0  0  0  0  0  0  0  0  0
  149.4624  140.7058  153.2817 H   0  0  0  0  0  0  0  0  0  0  0  0
  149.9126  141.5132  154.7757 H   0  0  0  0  0  0  0  0  0  0  0  0
  151.3647  139.4192  153.6464 H   0  0  0  0  0  0  0  0  0  0  0  0
  152.1726  137.1947  154.4980 H   0  0  0  0  0  0  0  0  0  0  0  0
  150.5295  137.1116  153.8739 H   0  0  0  0  0  0  0  0  0  0  0  0
  150.8051  137.1328  155.6109 H   0  0  0  0  0  0  0  0  0  0  0  0
  150.3627  140.5164  156.5465 H   0  0  0  0  0  0  0  0  0  0  0  0
  150.7736  142.9605  157.5593 H   0  0  0  0  0  0  0  0  0  0  0  0
  153.4942  142.7230  160.8275 H   0  0  0  0  0  0  0  0  0  0  0  0
  1  2  1  0  0  0  0
  1 22  1  0  0  0  0
  1 23  1  0  0  0  0
  1 24  1  0  0  0  0
  2  3  1  0  0  0  0
  2 25  1  0  0  0  0
  2 26  1  0  0  0  0
  3  4  1  0  0  0  0
  3 27  1  0  0  0  0
  3 28  1  0  0  0  0
  4  5  1  0  0  0  0
  4 29  1  0  0  0  0
  4 30  1  0  0  0  0
  5  6  1  0  0  0  0
  6  7  1  0  0  0  0
  6  8  1  0  0  0  0
  6 31  1  0  0  0  0
  7 32  1  0  0  0  0
  7 33  1  0  0  0  0
  7 34  1  0  0  0  0
  8  9  2  0  0  0  0
  8 10  1  0  0  0  0
 10 11  1  0  0  0  0
 10 35  1  0  0  0  0
 11 20  1  0  0  0  0
 11 12  2  0  0  0  0
 12 13  1  0  0  0  0
 12 36  1  0  0  0  0
 13 14  1  0  0  0  0
 13 18  2  0  0  0  0
 14 15  1  0  0  0  0
 14 16  1  0  0  0  0
 14 17  1  0  0  0  0
 18 19  1  0  0  0  0
 18 37  1  0  0  0  0
 19 20  1  0  0  0  0
 20 21  2  0  0  0  0
M  CHG  1  19  -1
M  END
> <s_m_source_file>
AV-unprocessed.smi

> <i_m_source_file_index>
1723

> <i_lp_mmshare_version>
43012

> <i_f3d_flags>
0

> <s_epik_input>
W0NIM11bQ0gyXVtDSDJdW0NIMl1PW0NASF0oW0NIM10pQyg9TylbTkhdYzFbY0hdYyhDKEYpKEYpRilbY0hdW25IXWMxPU8=

> <s_epik_cmdline>
J2VwaWtfcHl0aG9uJywgJy1waCcsICc3LjAnLCAnLXRuJywgJzgnLCAnLW1hJywgJzIwMCcsICctbWV0YWxfYmluZGluZycsICctaW1hZScsICc8aW5maWxlLm1hZT4nLCAnLW9tYWUnLCAnPG91dGZpbGUubWFlPic=

> <r_lp_tautomer_probability>
0.999

> <r_epik_Ionization_Penalty>
2.64397

> <r_epik_Ionization_Penalty_Charging>
0.0618254

> <r_epik_Ionization_Penalty_Neutral>
2.58215

> <r_epik_State_Penalty>
2.58023

> <r_epik_Charging_Adjusted_Penalty>
2.64205

> <i_epik_Tot_Q>
-1

> <i_epik_Tot_abs_Q>
1

> <r_epik_Metal_State_Penalty>
0.429101

> <b_epik_Metal_Only>
1

> <s_lp_Force_Field>
OPLS_2005

> <r_lp_Energy>
21.4098

> <b_lp_Chiralities_Consistent>
1

> <s_lp_Variant>
AV-unprocessed.smi:1723-3

> <Gold.Version>
5.8.1

> <Gold.Id.Protein>
6NUR|6NUR_protein|mol2

> <Gold.PLP.Fitness>
50.4291

> <Gold.PLP.PLP>
-49.4358

> <Gold.PLP.part.hbond>
-1.9108

> <Gold.PLP.part.metal>
0.0000

> <Gold.PLP.part.buried>
-5.9635

> <Gold.PLP.part.nonpolar>
-41.9275

> <Gold.PLP.part.repulsive>
0.2006

> <Gold.PLP.ligand.clash>
0.1100

> <Gold.PLP.ligand.torsion>
0.8895

> <Gold.PLP.Chemscore.Hbond>
0.8964

> <Gold.PLP.Chemscore.CHOScore>
0.0000

> <Gold.PLP.Chemscore.Metal>
0.0000

> <Gold.Chemscore.Hbonds>
donor molecule, donor type, donor heavy atom, donor atom, acceptor molecule, acceptor atom, score
      P1  H  7997  8009       L1    21  0.50
      P1  H  7997  8010       L1     9  0.48

> <Gold.PLP.Chemscore.Internal.Correction>
0.1931

> <Gold.Rescore>
     Score         DG    S(hbond)    S(metal)    S(lipo)     H(rot)  DE(clash)    DE(int)     intcor
      9.46     -13.51       0.70        0.00      91.20       1.95       0.07       3.98       ----

> <Gold.Chemscore.Fitness>
9.4613

> <Gold.Chemscore.DG>
-13.5069

> <Gold.Chemscore.ZeroCoef>
-5.4800

> <Gold.Chemscore.Hbond>
0.7036

> <Gold.Chemscore.Metal>
0.0000

> <Gold.Chemscore.Lipo>
91.2038

> <Gold.Chemscore.Internal_Hbond>
0.0000

> <Gold.Chemscore.DEClash>
0.0665

> <Gold.Chemscore.DEInternal>
3.9791

> <Gold.Chemscore.Rot>
1.9507

> <Gold.Chemscore.Internal.Correction>
   9.000000E+99

> <Gold.Chemscore.Hbonds>
donor molecule, donor type, donor heavy atom, donor atom, acceptor molecule, acceptor atom, score
      P1  H  7997  8009       L1    21  0.03
      P1  H  7997  8010       L1     9  0.48

> <Gold.Chemscore.Hbond.Weighted>
-2.3500

> <Gold.Chemscore.Metal.Weighted>
-0.0000

> <Gold.Chemscore.Lipo.Weighted>
-10.6708

> <Gold.Chemscore.Internal_Hbond.Weighted>
0.0000

> <Gold.Chemscore.DEClash.Weighted>
0.0665

> <Gold.Chemscore.DEInternal.Weighted>
3.9791

> <Gold.Chemscore.Rot.Weighted>
4.9939

> <Gold.Chemscore.Internal.Correction.Weighted>
   9.000000E+99

> <Gold.Protein.RotatedTorsions>
[ 6907 6896 6895 6894 ] final  176.25 input  -60.11 | X-H torsion
[ 7974 7965 7964 7962 ] final  -35.17 input  175.53 | X-H torsion
[ 8008 7997 7996 7995 ] final  130.03 input   59.86 | X-H torsion
[ 10167 10162 10161 10158 ] final  -31.50 input  -65.29 | X-H torsion
[ 10718 10713 10712 10709 ] final  -53.61 input   66.30 | X-H torsion
[ 10763 10752 10751 10750 ] final  -86.84 input  -60.55 | X-H torsion
[ 11005 11000 10999 10996 ] final -164.32 input  -57.11 | X-H torsion

> <Gold.Protein.ActiveResidues>
 VAL166  LYS551  ARG553  GLY616  TRP617  ASP618  TYR619  PRO620  LYS621  CYS622 
 ASP623  PHE694  ASN695  SER759  ASP760  ASP761  ALA762  ILE779  LEU786  VAL792 
 PHE793  MET794  SER795  GLU796  ALA797  LYS798  CYS799  TRP800  GLU811  SER814 

> <Gold.Protein.RotatedAtoms>
  151.7232  133.3315  159.3320 H   0  0  0  0  0  0  0  0  0  0  0  0  # atno 6907 bound_to 6896
  150.7644  134.6430  159.6256 H   0  0  0  0  0  0  0  0  0  0  0  0  # atno 6908 bound_to 6896
  152.3639  134.6835  160.0250 H   0  0  0  0  0  0  0  0  0  0  0  0  # atno 6909 bound_to 6896
  146.0769  140.6127  142.8926 H   0  0  0  0  0  0  0  0  0  0  0  0  # atno 7974 bound_to 7965
  156.2947  140.2606  156.2696 H   0  0  0  0  0  0  0  0  0  0  0  0  # atno 8008 bound_to 7997
  154.9708  140.0391  157.2252 H   0  0  0  0  0  0  0  0  0  0  0  0  # atno 8009 bound_to 7997
  154.7860  140.2803  155.6032 H   0  0  0  0  0  0  0  0  0  0  0  0  # atno 8010 bound_to 7997
  140.7235  143.3766  151.1678 H   0  0  0  0  0  0  0  0  0  0  0  0  # atno 10167 bound_to 10162
  156.1521  130.4151  149.9928 H   0  0  0  0  0  0  0  0  0  0  0  0  # atno 10718 bound_to 10713
  154.6270  135.5434  153.7638 H   0  0  0  0  0  0  0  0  0  0  0  0  # atno 10763 bound_to 10752
  153.0266  135.6426  154.1357 H   0  0  0  0  0  0  0  0  0  0  0  0  # atno 10764 bound_to 10752
  154.1289  135.2915  155.3170 H   0  0  0  0  0  0  0  0  0  0  0  0  # atno 10765 bound_to 10752
  140.5882  134.5071  157.5189 H   0  0  0  0  0  0  0  0  0  0  0  0  # atno 11005 bound_to 11000
  144.7267  140.4547  143.6968 LP  0  0  0  0  0  0  0  0  0  0  0  0  # atno 17320 bound_to 7965
  145.6290  139.1534  143.2980 LP  0  0  0  0  0  0  0  0  0  0  0  0  # atno 17321 bound_to 7965
  139.7347  143.9017  152.3031 LP  0  0  0  0  0  0  0  0  0  0  0  0  # atno 17342 bound_to 10162
  139.8818  144.7013  150.8869 LP  0  0  0  0  0  0  0  0  0  0  0  0  # atno 17343 bound_to 10162
  156.7783  130.9212  151.3645 LP  0  0  0  0  0  0  0  0  0  0  0  0  # atno 17370 bound_to 10713
  157.6665  130.9012  149.9944 LP  0  0  0  0  0  0  0  0  0  0  0  0  # atno 17371 bound_to 10713
  139.9286  134.8008  156.0996 LP  0  0  0  0  0  0  0  0  0  0  0  0  # atno 17394 bound_to 11000
  141.0952  133.6698  156.2629 LP  0  0  0  0  0  0  0  0  0  0  0  0  # atno 17395 bound_to 11000

$$$$
