AV-unprocessed.smi:2857|AV-procd|sdf|10998|dock4
  -GOLD-   2272015453D 1   1.00000     0.00000
 Structure written by MMmdl.
 44 46  0  0  0  0  0  0  0  0  1 V2000
  154.2598  140.7522  161.5310 C   0  0  0  0  0  0  0  0  0  0  0  0
  153.3642  141.9098  161.1400 C   0  0  0  0  0  0  0  0  0  0  0  0
  153.1564  142.9820  162.0289 C   0  0  0  0  0  0  0  0  0  0  0  0
  152.3231  144.0517  161.6558 C   0  0  0  0  0  0  0  0  0  0  0  0
  151.6916  144.0560  160.3947 C   0  0  0  0  0  0  0  0  0  0  0  0
  150.7972  145.2190  160.0082 C   0  0  0  0  0  0  0  0  0  0  0  0
  151.8892  142.9845  159.4933 C   0  0  0  0  0  0  0  0  0  0  0  0
  151.2387  143.0488  158.2775 O   0  0  0  0  0  0  0  0  0  0  0  0
  151.4035  141.9702  157.3678 C   0  0  0  0  0  0  0  0  0  0  0  0
  150.0811  141.7308  156.6167 C   0  0  1  0  0  0  0  0  0  0  0  0
  150.1555  142.3799  155.3636 O   0  0  0  0  0  0  0  0  0  0  0  0
  149.7815  140.2425  156.3396 C   0  0  0  0  0  0  0  0  0  0  0  0
  150.9787  139.4626  156.0627 N   0  0  0  0  0  0  0  0  0  0  0  0
  151.4238  139.3547  154.7844 N   0  0  0  0  0  0  0  0  0  0  0  0
  152.5113  138.5887  154.8417 C   0  0  0  0  0  0  0  0  0  0  0  0
  152.8010  138.1732  156.1703 C   0  0  0  0  0  0  0  0  0  0  0  0
  153.8289  137.3463  156.7947 C   0  0  0  0  0  0  0  0  0  0  0  0
  153.7762  137.1660  158.0774 N   0  0  0  0  0  0  0  0  0  0  0  0
  152.7636  137.7435  158.8521 N   0  0  0  0  0  0  0  0  0  0  0  0
  152.8366  137.4400  160.2795 C   0  0  0  0  0  0  0  0  0  0  0  0
  151.7592  138.5337  158.3672 C   0  0  0  0  0  0  0  0  0  0  0  0
  150.8719  139.0255  159.0646 O   0  0  0  0  0  0  0  0  0  0  0  0
  151.8140  138.7487  156.9005 C   0  0  0  0  0  0  0  0  0  0  0  0
  152.7333  141.9115  159.8800 C   0  0  0  0  0  0  0  0  0  0  0  0
  154.7845  140.9526  162.4656 H   0  0  0  0  0  0  0  0  0  0  0  0
  155.0051  140.5704  160.7561 H   0  0  0  0  0  0  0  0  0  0  0  0
  153.6682  139.8452  161.6584 H   0  0  0  0  0  0  0  0  0  0  0  0
  153.6335  142.9892  162.9980 H   0  0  0  0  0  0  0  0  0  0  0  0
  152.1705  144.8703  162.3437 H   0  0  0  0  0  0  0  0  0  0  0  0
  149.7963  144.8628  159.7629 H   0  0  0  0  0  0  0  0  0  0  0  0
  151.2023  145.7321  159.1357 H   0  0  0  0  0  0  0  0  0  0  0  0
  150.7093  145.9433  160.8185 H   0  0  0  0  0  0  0  0  0  0  0  0
  152.2194  142.1563  156.6669 H   0  0  0  0  0  0  0  0  0  0  0  0
  151.6581  141.0877  157.9535 H   0  0  0  0  0  0  0  0  0  0  0  0
  149.2542  142.1587  157.1852 H   0  0  0  0  0  0  0  0  0  0  0  0
  149.6546  143.1798  155.4094 H   0  0  0  0  0  0  0  0  0  0  0  0
  149.2811  139.7993  157.2022 H   0  0  0  0  0  0  0  0  0  0  0  0
  149.0872  140.1375  155.5065 H   0  0  0  0  0  0  0  0  0  0  0  0
  153.0428  138.3609  153.9295 H   0  0  0  0  0  0  0  0  0  0  0  0
  154.6170  136.8942  156.1927 H   0  0  0  0  0  0  0  0  0  0  0  0
  153.0003  138.3515  160.8560 H   0  0  0  0  0  0  0  0  0  0  0  0
  153.6512  136.7515  160.5098 H   0  0  0  0  0  0  0  0  0  0  0  0
  151.9103  136.9783  160.6247 H   0  0  0  0  0  0  0  0  0  0  0  0
  152.9133  141.0727  159.2246 H   0  0  0  0  0  0  0  0  0  0  0  0
  1  2  1  0  0  0  0
  1 25  1  0  0  0  0
  1 26  1  0  0  0  0
  1 27  1  0  0  0  0
  2 24  1  0  0  0  0
  2  3  2  0  0  0  0
  3  4  1  0  0  0  0
  3 28  1  0  0  0  0
  4  5  2  0  0  0  0
  4 29  1  0  0  0  0
  5  6  1  0  0  0  0
  5  7  1  0  0  0  0
  6 30  1  0  0  0  0
  6 31  1  0  0  0  0
  6 32  1  0  0  0  0
  7  8  1  0  0  0  0
  7 24  2  0  0  0  0
  8  9  1  0  0  0  0
  9 10  1  0  0  0  0
  9 33  1  0  0  0  0
  9 34  1  0  0  0  0
 10 11  1  0  0  0  0
 10 12  1  0  0  0  0
 10 35  1  0  0  0  0
 11 36  1  0  0  0  0
 12 13  1  0  0  0  0
 12 37  1  0  0  0  0
 12 38  1  0  0  0  0
 13 23  1  0  0  0  0
 13 14  1  0  0  0  0
 14 15  2  0  0  0  0
 15 16  1  0  0  0  0
 15 39  1  0  0  0  0
 16 23  2  0  0  0  0
 16 17  1  0  0  0  0
 17 18  2  0  0  0  0
 17 40  1  0  0  0  0
 18 19  1  0  0  0  0
 19 20  1  0  0  0  0
 19 21  1  0  0  0  0
 20 41  1  0  0  0  0
 20 42  1  0  0  0  0
 20 43  1  0  0  0  0
 21 22  2  0  0  0  0
 21 23  1  0  0  0  0
 24 44  1  0  0  0  0
M  END
> <s_m_source_file>
AV-unprocessed.smi

> <i_m_source_file_index>
2857

> <i_lp_mmshare_version>
43012

> <i_f3d_flags>
0

> <s_epik_input>
W0NIM11jMVtjSF1bY0hdYyhbQ0gzXSljKFtjSF0xKU9bQ0gyXVtDQEhdKFtPSF0pW0NIMl1uKG5bY0hdMiljKGMyMyljKD1PKW4oW0NIM10pbltjSF0z

> <s_epik_cmdline>
J2VwaWtfcHl0aG9uJywgJy1waCcsICc3LjAnLCAnLXRuJywgJzgnLCAnLW1hJywgJzIwMCcsICctbWV0YWxfYmluZGluZycsICctaW1hZScsICc8aW5maWxlLm1hZT4nLCAnLW9tYWUnLCAnPG91dGZpbGUubWFlPic=

> <r_lp_tautomer_probability>
1

> <r_epik_Ionization_Penalty>
2.24607e-06

> <r_epik_Ionization_Penalty_Charging>
1.42095e-10

> <r_epik_Ionization_Penalty_Neutral>
2.24593e-06

> <r_epik_State_Penalty>
-0

> <r_epik_Charging_Adjusted_Penalty>
1.42095e-10

> <i_epik_Tot_Q>
0

> <i_epik_Tot_abs_Q>
0

> <r_epik_Metal_State_Penalty>
-0

> <b_epik_Metal_Only>
0

> <s_lp_Force_Field>
OPLS_2005

> <r_lp_Energy>
31.6427

> <b_lp_Chiralities_Consistent>
1

> <s_lp_Variant>
AV-unprocessed.smi:2857-2

> <Gold.Version>
5.8.1

> <Gold.Id.Protein>
6NUR|6NUR_protein|mol2

> <Gold.PLP.Fitness>
50.2355

> <Gold.PLP.PLP>
-47.0020

> <Gold.PLP.part.hbond>
-2.5978

> <Gold.PLP.part.metal>
0.0000

> <Gold.PLP.part.buried>
-3.9325

> <Gold.PLP.part.nonpolar>
-39.9610

> <Gold.PLP.part.repulsive>
0.1469

> <Gold.PLP.ligand.clash>
0.0000

> <Gold.PLP.ligand.torsion>
1.4119

> <Gold.PLP.Chemscore.Hbond>
2.0000

> <Gold.PLP.Chemscore.CHOScore>
0.0000

> <Gold.PLP.Chemscore.Metal>
0.0000

> <Gold.Chemscore.Hbonds>
donor molecule, donor type, donor heavy atom, donor atom, acceptor molecule, acceptor atom, score
      L1  H    11    36       P1  8028  1.00
      P1  H  7989  7998       L1    14  1.00

> <Gold.PLP.Chemscore.Internal.Correction>
0.0573

> <Gold.Rescore>
     Score         DG    S(hbond)    S(metal)    S(lipo)     H(rot)  DE(clash)    DE(int)     intcor
     19.37     -22.07       1.95        0.00     136.87       2.32       1.25       1.45       ----

> <Gold.Chemscore.Fitness>
19.3678

> <Gold.Chemscore.DG>
-22.0713

> <Gold.Chemscore.ZeroCoef>
-5.4800

> <Gold.Chemscore.Hbond>
1.9538

> <Gold.Chemscore.Metal>
0.0000

> <Gold.Chemscore.Lipo>
136.8719

> <Gold.Chemscore.Internal_Hbond>
0.0000

> <Gold.Chemscore.DEClash>
1.2485

> <Gold.Chemscore.DEInternal>
1.4550

> <Gold.Chemscore.Rot>
2.3236

> <Gold.Chemscore.Internal.Correction>
   9.000000E+99

> <Gold.Chemscore.Hbonds>
donor molecule, donor type, donor heavy atom, donor atom, acceptor molecule, acceptor atom, score
      L1  H    11    36       P1  8028  1.00
      P1  H  7989  7998       L1    14  0.76

> <Gold.Chemscore.Hbond.Weighted>
-6.5257

> <Gold.Chemscore.Metal.Weighted>
-0.0000

> <Gold.Chemscore.Lipo.Weighted>
-16.0140

> <Gold.Chemscore.Internal_Hbond.Weighted>
0.0000

> <Gold.Chemscore.DEClash.Weighted>
1.2485

> <Gold.Chemscore.DEInternal.Weighted>
1.4550

> <Gold.Chemscore.Rot.Weighted>
5.9484

> <Gold.Chemscore.Internal.Correction.Weighted>
   9.000000E+99

> <Gold.Protein.RotatedTorsions>
[ 6907 6896 6895 6894 ] final  165.63 input  -60.11 | X-H torsion
[ 7974 7965 7964 7962 ] final  -44.45 input  175.53 | X-H torsion
[ 8008 7997 7996 7995 ] final  108.54 input   59.86 | X-H torsion
[ 10167 10162 10161 10158 ] final  -11.50 input  -65.29 | X-H torsion
[ 10718 10713 10712 10709 ] final  -82.49 input   66.30 | X-H torsion
[ 10763 10752 10751 10750 ] final -164.68 input  -60.55 | X-H torsion
[ 11005 11000 10999 10996 ] final   46.75 input  -57.11 | X-H torsion

> <Gold.Protein.ActiveResidues>
 VAL166  LYS551  ARG553  GLY616  TRP617  ASP618  TYR619  PRO620  LYS621  CYS622 
 ASP623  PHE694  ASN695  SER759  ASP760  ASP761  ALA762  ILE779  LEU786  VAL792 
 PHE793  MET794  SER795  GLU796  ALA797  LYS798  CYS799  TRP800  GLU811  SER814 

> <Gold.Protein.RotatedAtoms>
  151.8914  133.3517  159.3799 H   0  0  0  0  0  0  0  0  0  0  0  0  # atno 6907 bound_to 6896
  150.7102  134.4920  159.5529 H   0  0  0  0  0  0  0  0  0  0  0  0  # atno 6908 bound_to 6896
  152.2491  134.8151  160.0499 H   0  0  0  0  0  0  0  0  0  0  0  0  # atno 6909 bound_to 6896
  145.9919  140.7171  142.9313 H   0  0  0  0  0  0  0  0  0  0  0  0  # atno 7974 bound_to 7965
  156.1911  140.3074  155.9334 H   0  0  0  0  0  0  0  0  0  0  0  0  # atno 8008 bound_to 7997
  155.3171  140.0454  157.3054 H   0  0  0  0  0  0  0  0  0  0  0  0  # atno 8009 bound_to 7997
  154.5453  140.2274  155.8582 H   0  0  0  0  0  0  0  0  0  0  0  0  # atno 8010 bound_to 7997
  140.7140  143.5632  150.9172 H   0  0  0  0  0  0  0  0  0  0  0  0  # atno 10167 bound_to 10162
  156.0032  130.4636  150.4112 H   0  0  0  0  0  0  0  0  0  0  0  0  # atno 10718 bound_to 10713
  154.7005  135.2987  154.9348 H   0  0  0  0  0  0  0  0  0  0  0  0  # atno 10763 bound_to 10752
  154.0282  135.6673  153.4782 H   0  0  0  0  0  0  0  0  0  0  0  0  # atno 10764 bound_to 10752
  153.0677  135.5078  154.8146 H   0  0  0  0  0  0  0  0  0  0  0  0  # atno 10765 bound_to 10752
  140.1341  134.4668  155.8499 H   0  0  0  0  0  0  0  0  0  0  0  0  # atno 11005 bound_to 11000
  144.6891  140.3084  143.7252 LP  0  0  0  0  0  0  0  0  0  0  0  0  # atno 17320 bound_to 7965
  145.7617  139.1827  143.2263 LP  0  0  0  0  0  0  0  0  0  0  0  0  # atno 17321 bound_to 7965
  139.9358  143.6440  152.3065 LP  0  0  0  0  0  0  0  0  0  0  0  0  # atno 17342 bound_to 10162
  139.6907  144.7647  151.1444 LP  0  0  0  0  0  0  0  0  0  0  0  0  # atno 17343 bound_to 10162
  157.2175  131.0475  151.2565 LP  0  0  0  0  0  0  0  0  0  0  0  0  # atno 17370 bound_to 10713
  157.3831  130.7242  149.6644 LP  0  0  0  0  0  0  0  0  0  0  0  0  # atno 17371 bound_to 10713
  141.2175  133.6807  156.7124 LP  0  0  0  0  0  0  0  0  0  0  0  0  # atno 17394 bound_to 11000
  140.2805  134.8320  157.3929 LP  0  0  0  0  0  0  0  0  0  0  0  0  # atno 17395 bound_to 11000

$$$$
