AV-unprocessed.smi:2098|AV-procd|sdf|8565|dock3
  -GOLD-   2272011293D 1   1.00000     0.00000
 Structure written by MMmdl.
 36 38  0  0  0  0  0  0  0  0  1 V2000
  156.5665  137.9035  162.4007 O   0  0  0  0  0  0  0  0  0  0  0  0
  155.8879  139.1437  162.4471 C   0  0  2  0  0  0  0  0  0  0  0  0
  156.0499  139.7332  163.8571 C   0  0  0  0  0  0  0  0  0  0  0  0
  155.7599  141.1243  163.8126 O   0  0  0  0  0  0  0  0  0  0  0  0
  155.6346  141.8033  165.0059 C   0  0  0  0  0  0  0  0  0  0  0  0
  155.3467  143.1819  164.9300 C   0  0  0  0  0  0  0  0  0  0  0  0
  155.2051  143.9546  166.0989 C   0  0  0  0  0  0  0  0  0  0  0  0
  155.3513  143.3523  167.3619 C   0  0  0  0  0  0  0  0  0  0  0  0
  155.2178  144.0938  168.4870 F   0  0  0  0  0  0  0  0  0  0  0  0
  155.6361  141.9773  167.4531 C   0  0  0  0  0  0  0  0  0  0  0  0
  155.7768  141.2044  166.2838 C   0  0  0  0  0  0  0  0  0  0  0  0
  154.4059  138.9196  162.0884 C   0  0  0  0  0  0  0  0  0  0  0  0
  153.9753  139.7228  160.9575 N   0  0  0  0  0  0  0  0  0  0  0  0
  153.9314  139.3439  159.6657 C   0  0  0  0  0  0  0  0  0  0  0  0
  153.5075  140.2415  158.7807 N   0  0  0  0  0  0  0  0  0  0  0  0
  153.2457  141.3317  159.5927 C   0  0  0  0  0  0  0  0  0  0  0  0
  152.7669  142.6218  159.2693 C   0  0  0  0  0  0  0  0  0  0  0  0
  152.5736  143.5865  160.2800 C   0  0  0  0  0  0  0  0  0  0  0  0
  152.8550  143.2771  161.6266 C   0  0  0  0  0  0  0  0  0  0  0  0
  153.3337  141.9989  161.9731 C   0  0  0  0  0  0  0  0  0  0  0  0
  153.5269  141.0396  160.9616 C   0  0  0  0  0  0  0  0  0  0  0  0
  157.3119  137.9496  162.9801 H   0  0  0  0  0  0  0  0  0  0  0  0
  156.3321  139.8176  161.7132 H   0  0  0  0  0  0  0  0  0  0  0  0
  155.3367  139.2577  164.5329 H   0  0  0  0  0  0  0  0  0  0  0  0
  157.0533  139.5404  164.2410 H   0  0  0  0  0  0  0  0  0  0  0  0
  155.2336  143.6529  163.9645 H   0  0  0  0  0  0  0  0  0  0  0  0
  154.9852  145.0094  166.0256 H   0  0  0  0  0  0  0  0  0  0  0  0
  155.7478  141.5133  168.4219 H   0  0  0  0  0  0  0  0  0  0  0  0
  155.9942  140.1532  166.3956 H   0  0  0  0  0  0  0  0  0  0  0  0
  154.2227  137.8683  161.8622 H   0  0  0  0  0  0  0  0  0  0  0  0
  153.7716  139.1679  162.9403 H   0  0  0  0  0  0  0  0  0  0  0  0
  154.2284  138.3518  159.3579 H   0  0  0  0  0  0  0  0  0  0  0  0
  152.5478  142.8695  158.2413 H   0  0  0  0  0  0  0  0  0  0  0  0
  152.2074  144.5691  160.0209 H   0  0  0  0  0  0  0  0  0  0  0  0
  152.7031  144.0221  162.3938 H   0  0  0  0  0  0  0  0  0  0  0  0
  153.5479  141.7582  163.0037 H   0  0  0  0  0  0  0  0  0  0  0  0
  1  2  1  0  0  0  0
  1 22  1  0  0  0  0
  2  3  1  0  0  0  0
  2 12  1  0  0  0  0
  2 23  1  0  0  0  0
  3  4  1  0  0  0  0
  3 24  1  0  0  0  0
  3 25  1  0  0  0  0
  4  5  1  0  0  0  0
  5 11  1  0  0  0  0
  5  6  2  0  0  0  0
  6  7  1  0  0  0  0
  6 26  1  0  0  0  0
  7  8  2  0  0  0  0
  7 27  1  0  0  0  0
  8  9  1  0  0  0  0
  8 10  1  0  0  0  0
 10 11  2  0  0  0  0
 10 28  1  0  0  0  0
 11 29  1  0  0  0  0
 12 13  1  0  0  0  0
 12 30  1  0  0  0  0
 12 31  1  0  0  0  0
 13 21  1  0  0  0  0
 13 14  1  0  0  0  0
 14 15  2  0  0  0  0
 14 32  1  0  0  0  0
 15 16  1  0  0  0  0
 16 21  2  0  0  0  0
 16 17  1  0  0  0  0
 17 18  2  0  0  0  0
 17 33  1  0  0  0  0
 18 19  1  0  0  0  0
 18 34  1  0  0  0  0
 19 20  2  0  0  0  0
 19 35  1  0  0  0  0
 20 21  1  0  0  0  0
 20 36  1  0  0  0  0
M  END
> <s_m_source_file>
AV-unprocessed.smi

> <i_m_source_file_index>
2098

> <i_lp_mmshare_version>
43012

> <i_f3d_flags>
0

> <s_epik_input>
W2NIXTFbY0hdW2NIXVtjSF1jKGMxMiluKFtjSF1uMilbQ0gyXVtDQEhdKFtPSF0pW0NIMl1PYzNbY0hdW2NIXWMoRilbY0hdW2NIXTM=

> <s_epik_cmdline>
J2VwaWtfcHl0aG9uJywgJy1waCcsICc3LjAnLCAnLXRuJywgJzgnLCAnLW1hJywgJzIwMCcsICctbWV0YWxfYmluZGluZycsICctaW1hZScsICc8aW5maWxlLm1hZT4nLCAnLW9tYWUnLCAnPG91dGZpbGUubWFlPic=

> <r_lp_tautomer_probability>
1

> <r_epik_Ionization_Penalty>
0.0603575

> <r_epik_Ionization_Penalty_Charging>
0

> <r_epik_Ionization_Penalty_Neutral>
0.0603575

> <r_epik_State_Penalty>
0.0523204

> <r_epik_Charging_Adjusted_Penalty>
0.0523204

> <i_epik_Tot_Q>
0

> <i_epik_Tot_abs_Q>
0

> <r_epik_Metal_State_Penalty>
5.46976e-05

> <b_epik_Metal_Only>
0

> <s_lp_Force_Field>
OPLS_2005

> <r_lp_Energy>
15.3662

> <b_lp_Chiralities_Consistent>
1

> <s_lp_Variant>
AV-unprocessed.smi:2098-1

> <Gold.Version>
5.8.1

> <Gold.Id.Protein>
6NUR|6NUR_protein|mol2

> <Gold.PLP.Fitness>
50.0048

> <Gold.PLP.PLP>
-49.7652

> <Gold.PLP.part.hbond>
-2.0000

> <Gold.PLP.part.metal>
0.0000

> <Gold.PLP.part.buried>
-5.0914

> <Gold.PLP.part.nonpolar>
-42.1068

> <Gold.PLP.part.repulsive>
0.0000

> <Gold.PLP.ligand.clash>
0.0000

> <Gold.PLP.ligand.torsion>
1.2804

> <Gold.PLP.Chemscore.Hbond>
0.9120

> <Gold.PLP.Chemscore.CHOScore>
0.0000

> <Gold.PLP.Chemscore.Metal>
0.0000

> <Gold.Chemscore.Hbonds>
donor molecule, donor type, donor heavy atom, donor atom, acceptor molecule, acceptor atom, score
      P1  H  7997  8009       L1    15  0.89

> <Gold.PLP.Chemscore.Internal.Correction>
0.0644

> <Gold.Rescore>
     Score         DG    S(hbond)    S(metal)    S(lipo)     H(rot)  DE(clash)    DE(int)     intcor
     15.06     -17.91       0.95        0.00     131.14       2.37       1.56       1.30       ----

> <Gold.Chemscore.Fitness>
15.0587

> <Gold.Chemscore.DG>
-17.9120

> <Gold.Chemscore.ZeroCoef>
-5.4800

> <Gold.Chemscore.Hbond>
0.9475

> <Gold.Chemscore.Metal>
0.0000

> <Gold.Chemscore.Lipo>
131.1410

> <Gold.Chemscore.Internal_Hbond>
0.0000

> <Gold.Chemscore.DEClash>
1.5556

> <Gold.Chemscore.DEInternal>
1.2977

> <Gold.Chemscore.Rot>
2.3735

> <Gold.Chemscore.Internal.Correction>
   9.000000E+99

> <Gold.Chemscore.Hbonds>
donor molecule, donor type, donor heavy atom, donor atom, acceptor molecule, acceptor atom, score
      P1  H  7997  8009       L1    15  0.36

> <Gold.Chemscore.Hbond.Weighted>
-3.1647

> <Gold.Chemscore.Metal.Weighted>
-0.0000

> <Gold.Chemscore.Lipo.Weighted>
-15.3435

> <Gold.Chemscore.Internal_Hbond.Weighted>
0.0000

> <Gold.Chemscore.DEClash.Weighted>
1.5556

> <Gold.Chemscore.DEInternal.Weighted>
1.2977

> <Gold.Chemscore.Rot.Weighted>
6.0762

> <Gold.Chemscore.Internal.Correction.Weighted>
   9.000000E+99

> <Gold.Protein.RotatedTorsions>
[ 6907 6896 6895 6894 ] final   -3.53 input  -60.11 | X-H torsion
[ 7974 7965 7964 7962 ] final -179.00 input  175.53 | X-H torsion
[ 8008 7997 7996 7995 ] final  138.42 input   59.86 | X-H torsion
[ 10167 10162 10161 10158 ] final  107.23 input  -65.29 | X-H torsion
[ 10718 10713 10712 10709 ] final -120.95 input   66.30 | X-H torsion
[ 10763 10752 10751 10750 ] final -142.86 input  -60.55 | X-H torsion
[ 11005 11000 10999 10996 ] final   87.88 input  -57.11 | X-H torsion

> <Gold.Protein.ActiveResidues>
 VAL166  LYS551  ARG553  GLY616  TRP617  ASP618  TYR619  PRO620  LYS621  CYS622 
 ASP623  PHE694  ASN695  SER759  ASP760  ASP761  ALA762  ILE779  LEU786  VAL792 
 PHE793  MET794  SER795  GLU796  ALA797  LYS798  CYS799  TRP800  GLU811  SER814 

> <Gold.Protein.RotatedAtoms>
  151.5123  135.1065  159.9856 H   0  0  0  0  0  0  0  0  0  0  0  0  # atno 6907 bound_to 6896
  152.4656  133.7912  159.6913 H   0  0  0  0  0  0  0  0  0  0  0  0  # atno 6908 bound_to 6896
  150.8638  133.7540  159.3009 H   0  0  0  0  0  0  0  0  0  0  0  0  # atno 6909 bound_to 6896
  144.7134  140.0784  143.6426 H   0  0  0  0  0  0  0  0  0  0  0  0  # atno 7974 bound_to 7965
  156.2997  140.2394  156.4070 H   0  0  0  0  0  0  0  0  0  0  0  0  # atno 8008 bound_to 7997
  154.8475  140.0425  157.1602 H   0  0  0  0  0  0  0  0  0  0  0  0  # atno 8009 bound_to 7997
  154.9035  140.2980  155.5308 H   0  0  0  0  0  0  0  0  0  0  0  0  # atno 8010 bound_to 7997
  139.6944  144.7103  151.1293 H   0  0  0  0  0  0  0  0  0  0  0  0  # atno 10167 bound_to 10162
  156.1298  130.6387  150.9603 H   0  0  0  0  0  0  0  0  0  0  0  0  # atno 10718 bound_to 10713
  154.8492  135.3484  154.6096 H   0  0  0  0  0  0  0  0  0  0  0  0  # atno 10763 bound_to 10752
  153.6704  135.6985  153.5153 H   0  0  0  0  0  0  0  0  0  0  0  0  # atno 10764 bound_to 10752
  153.2747  135.4282  155.0978 H   0  0  0  0  0  0  0  0  0  0  0  0  # atno 10765 bound_to 10752
  139.8909  134.8451  156.2922 H   0  0  0  0  0  0  0  0  0  0  0  0  # atno 11005 bound_to 11000
  145.9723  139.2879  143.1091 LP  0  0  0  0  0  0  0  0  0  0  0  0  # atno 17320 bound_to 7965
  145.9103  140.9185  143.0457 LP  0  0  0  0  0  0  0  0  0  0  0  0  # atno 17321 bound_to 7965
  140.7692  143.5513  150.9201 LP  0  0  0  0  0  0  0  0  0  0  0  0  # atno 17342 bound_to 10162
  139.9192  143.6626  152.3100 LP  0  0  0  0  0  0  0  0  0  0  0  0  # atno 17343 bound_to 10162
  157.6477  131.0901  150.8118 LP  0  0  0  0  0  0  0  0  0  0  0  0  # atno 17370 bound_to 10713
  156.8204  130.4982  149.5344 LP  0  0  0  0  0  0  0  0  0  0  0  0  # atno 17371 bound_to 10713
  140.9969  133.7175  156.0899 LP  0  0  0  0  0  0  0  0  0  0  0  0  # atno 17394 bound_to 11000
  140.7551  134.4002  157.5535 LP  0  0  0  0  0  0  0  0  0  0  0  0  # atno 17395 bound_to 11000

$$$$
