#       Name:                AV-unprocessed.smi:1788
#       Creating user name   scv26
#       Creation time:       Fri Mar 27 08:45:30 2020


#       File generated by GOLD software.
#

@<TRIPOS>MOLECULE
AV-unprocessed.smi:1788
    61    63     1
SMALL
NO_CHARGES


@<TRIPOS>ATOM
      1 ****        -1.7943   1.0630  -2.0777 C.3            1 S1                 0.0000
      2 ****        -3.0941   0.6132  -2.7674 C.3            1 S1                 0.0000
      3 ****        -4.3483   1.2522  -2.1438 C.3            1 S1                 0.0000
      4 ****        -4.6807   0.6131  -0.7889 C.3            1 S1                 0.0000
      5 ****        -4.7977  -0.9130  -0.9168 C.3            1 S1                 0.0000
      6 ****        -3.5584  -1.5012  -1.4869 N.4            1 S1                 1.0000
      7 ****        -3.5921  -2.9874  -1.4878 C.3            1 S1                 0.0000
      8 ****        -2.1927  -3.6333  -1.5036 C.3            1 S1                 0.0000
      9 ****        -1.3614  -3.1623  -0.3980 N.am           1 S1                 0.0000
     10 ****        -0.3961  -2.2370  -0.4934 C.2            1 S1                 0.0000
     11 ****        -0.0813  -1.6955  -1.5518 O.2            1 S1                 0.0000
     12 ****         0.1400  -1.9650   0.7081 N.am           1 S1                 0.0000
     13 ****         1.1474  -1.0147   1.0261 C.ar           1 S1                 0.0000
     14 ****         1.2310  -0.5564   2.3549 C.ar           1 S1                 0.0000
     15 ****         2.2311   0.3712   2.7022 C.ar           1 S1                 0.0000
     16 ****         3.1380   0.8131   1.7102 C.ar           1 S1                 0.0000
     17 ****         4.1544   1.7378   2.0369 N.3            1 S1                 0.0000
     18 ****         4.9900   1.3766   3.1799 C.3            1 S1                 0.0000
     19 ****         5.8524   2.5741   3.6159 C.3            1 S1                 0.0000
     20 ****         6.6080   3.0545   2.5092 O.3            1 S1                 0.0000
     21 ****         5.7679   3.5086   1.4537 C.3            1 S1                 0.0000
     22 ****         4.9072   2.3424   0.9388 C.3            1 S1                 0.0000
     23 ****         3.0601   0.3668   0.4324 N.ar           1 S1                 0.0000
     24 ****         2.1003  -0.5229   0.1028 C.ar           1 S1                 0.0000
     25 ****        -3.2354  -0.9239  -2.8202 C.3            1 S1                 0.0000
     26 ****        -1.7349   0.7126  -1.0472 H              1 S1                 0.0000
     27 ****        -1.7140   2.1504  -2.0639 H              1 S1                 0.0000
     28 ****        -0.9204   0.6814  -2.6064 H              1 S1                 0.0000
     29 ****        -3.0297   0.9688  -3.7967 H              1 S1                 0.0000
     30 ****        -4.2170   2.3292  -2.0340 H              1 S1                 0.0000
     31 ****        -5.1944   1.1157  -2.8187 H              1 S1                 0.0000
     32 ****        -3.9114   0.8642  -0.0579 H              1 S1                 0.0000
     33 ****        -5.6139   1.0254  -0.4042 H              1 S1                 0.0000
     34 ****        -4.9879  -1.3367   0.0702 H              1 S1                 0.0000
     35 ****        -5.6500  -1.1760  -1.5457 H              1 S1                 0.0000
     36 ****        -4.1007  -3.3326  -0.5863 H              1 S1                 0.0000
     37 ****        -4.1895  -3.3461  -2.3272 H              1 S1                 0.0000
     38 ****        -2.2951  -4.7145  -1.4083 H              1 S1                 0.0000
     39 ****        -1.7020  -3.4687  -2.4640 H              1 S1                 0.0000
     40 ****        -1.5465  -3.5613   0.5112 H              1 S1                 0.0000
     41 ****        -0.2717  -2.4390   1.4988 H              1 S1                 0.0000
     42 ****         0.5325  -0.9035   3.1024 H              1 S1                 0.0000
     43 ****         2.2821   0.7389   3.7161 H              1 S1                 0.0000
     44 ****         4.3935   1.0441   4.0282 H              1 S1                 0.0000
     45 ****         5.6304   0.5405   2.8958 H              1 S1                 0.0000
     46 ****         5.2302   3.3746   4.0198 H              1 S1                 0.0000
     47 ****         6.5375   2.2734   4.4086 H              1 S1                 0.0000
     48 ****         5.1414   4.3323   1.8007 H              1 S1                 0.0000
     49 ****         6.3900   3.8998   0.6485 H              1 S1                 0.0000
     50 ****         5.5435   1.5856   0.4778 H              1 S1                 0.0000
     51 ****         4.2253   2.7092   0.1704 H              1 S1                 0.0000
     52 ****         2.1260  -0.8519  -0.9241 H              1 S1                 0.0000
     53 ****        -4.0262  -1.1937  -3.5222 H              1 S1                 0.0000
     54 ****        -2.3159  -1.3599  -3.2104 H              1 S1                 0.0000
     55 ****        -2.8086  -1.2346  -0.8647 H              1 S1                 0.0000
     56 ****        -0.5539  -1.9401  -2.3985 LP             1 S1                 0.0000
     57 ****         0.6473  -1.0107  -1.5657 LP             1 S1                 0.0000
     58 ****         3.5835   2.4975   2.3481 LP             1 S1                 0.0000
     59 ****         7.1870   2.3145   2.1667 LP             1 S1                 0.0000
     60 ****         7.1831   3.8134   2.8147 LP             1 S1                 0.0000
     61 ****         3.7062   0.6929  -0.2577 LP             1 S1                 0.0000
@<TRIPOS>BOND
    1    1    2 1     
    2    1   26 1     
    3    1   27 1     
    4    1   28 1     
    5    2   25 1     
    6    2    3 1     
    7    2   29 1     
    8    3    4 1     
    9    3   30 1     
   10    3   31 1     
   11    4    5 1     
   12    4   32 1     
   13    4   33 1     
   14    5    6 1     
   15    5   34 1     
   16    5   35 1     
   17    6    7 1     
   18    6   25 1     
   19    6   55 1     
   20    7    8 1     
   21    7   36 1     
   22    7   37 1     
   23    8    9 1     
   24    8   38 1     
   25    8   39 1     
   26    9   10 am    
   27    9   40 1     
   28   10   11 2     
   29   10   12 am    
   30   12   13 1     
   31   12   41 1     
   32   13   24 ar    
   33   13   14 ar    
   34   14   15 ar    
   35   14   42 1     
   36   15   16 ar    
   37   15   43 1     
   38   16   17 1     
   39   16   23 ar    
   40   17   22 1     
   41   17   18 1     
   42   18   19 1     
   43   18   44 1     
   44   18   45 1     
   45   19   20 1     
   46   19   46 1     
   47   19   47 1     
   48   20   21 1     
   49   21   22 1     
   50   21   48 1     
   51   21   49 1     
   52   22   50 1     
   53   22   51 1     
   54   23   24 ar    
   55   24   52 1     
   56   25   53 1     
   57   25   54 1     
   58   11   56 1     
   59   11   57 1     
   60   17   58 1     
   61   20   59 1     
   62   20   60 1     
   63   23   61 1     
@<TRIPOS>SUBSTRUCTURE
      1 S1             1
@<TRIPOS>SET
LONE_PAIRS      STATIC     ATOMS    <user>   **** ""
6 56 57 58 59 60 61
DONOR_HYDROGENS      STATIC     ATOMS    <user>   **** ""
3 55 40 41
ATOM$BLUE        STATIC     ATOMS    COLORGROUP SYSTEM
6 56 57 58 59 60 61
ATOM$RED        STATIC     ATOMS    COLORGROUP SYSTEM
3 55 40 41
