AV-unprocessed.smi:1254|AV-procd|sdf|5275|dock5
  -GOLD-   22720 4393D 1   1.00000     0.00000
 Structure written by MMmdl.
 45 46  0  0  0  0  0  0  0  0  3 V2000
  143.5528  135.7779  162.6701 C   0  0  0  0  0  0  0  0  0  0  0  0
  144.6038  136.3948  161.8121 C   0  0  0  0  0  0  0  0  0  0  0  0
  145.6301  137.2567  162.0764 C   0  0  0  0  0  0  0  0  0  0  0  0
  146.2393  137.4362  160.8044 C   0  0  0  0  0  0  0  0  0  0  0  0
  147.3142  138.1968  160.5457 N   0  5  0  0  0  0  0  0  0  0  0  0
  148.3711  137.6794  159.8793 C   0  0  0  0  0  0  0  0  0  0  0  0
  148.4850  136.5202  159.4735 O   0  0  0  0  0  0  0  0  0  0  0  0
  149.3555  138.5628  159.6613 N   0  0  0  0  0  0  0  0  0  0  0  0
  150.5976  138.2949  158.9449 C   0  0  0  0  0  0  0  0  0  0  0  0
  150.9206  139.4074  157.9320 C   0  0  2  0  0  0  0  0  0  0  0  0
  150.7961  140.8106  158.5548 C   0  0  0  0  0  0  0  0  0  0  0  0
  151.0700  141.8537  157.5354 N   0  3  2  0  0  0  0  0  0  0  0  0
  151.0251  143.2398  158.0679 C   0  0  0  0  0  0  0  0  0  0  0  0
  152.3024  143.6422  158.8374 C   0  0  0  0  0  0  0  0  0  0  0  0
  152.4117  142.8512  160.1494 C   0  0  0  0  0  0  0  0  0  0  0  0
  152.3548  145.1537  159.1168 C   0  0  0  0  0  0  0  0  0  0  0  0
  150.1838  141.6721  156.3610 C   0  0  0  0  0  0  0  0  0  0  0  0
  150.3024  140.2410  155.8117 C   0  0  0  0  0  0  0  0  0  0  0  0
  150.0052  139.3118  156.8452 O   0  0  0  0  0  0  0  0  0  0  0  0
  145.6451  136.7324  159.8552 N   0  0  0  0  0  0  0  0  0  0  0  0
  144.5916  136.0660  160.4923 O   0  0  0  0  0  0  0  0  0  0  0  0
  143.9354  134.8845  163.1637 H   0  0  0  0  0  0  0  0  0  0  0  0
  142.6825  135.4920  162.0790 H   0  0  0  0  0  0  0  0  0  0  0  0
  143.2229  136.4756  163.4400 H   0  0  0  0  0  0  0  0  0  0  0  0
  145.9011  137.6921  163.0263 H   0  0  0  0  0  0  0  0  0  0  0  0
  149.2229  139.4999  160.0128 H   0  0  0  0  0  0  0  0  0  0  0  0
  151.4030  138.2043  159.6740 H   0  0  0  0  0  0  0  0  0  0  0  0
  150.5251  137.3294  158.4416 H   0  0  0  0  0  0  0  0  0  0  0  0
  151.9387  139.2734  157.5615 H   0  0  0  0  0  0  0  0  0  0  0  0
  149.7961  140.9534  158.9677 H   0  0  0  0  0  0  0  0  0  0  0  0
  151.4991  140.8954  159.3824 H   0  0  0  0  0  0  0  0  0  0  0  0
  150.8921  143.9376  157.2395 H   0  0  0  0  0  0  0  0  0  0  0  0
  150.1441  143.3504  158.7021 H   0  0  0  0  0  0  0  0  0  0  0  0
  153.1771  143.3804  158.2428 H   0  0  0  0  0  0  0  0  0  0  0  0
  151.5722  143.0634  160.8123 H   0  0  0  0  0  0  0  0  0  0  0  0
  153.3286  143.1008  160.6842 H   0  0  0  0  0  0  0  0  0  0  0  0
  152.4246  141.7770  159.9621 H   0  0  0  0  0  0  0  0  0  0  0  0
  151.5006  145.4773  159.7123 H   0  0  0  0  0  0  0  0  0  0  0  0
  152.3554  145.7320  158.1925 H   0  0  0  0  0  0  0  0  0  0  0  0
  153.2599  145.4198  159.6639 H   0  0  0  0  0  0  0  0  0  0  0  0
  149.1511  141.8774  156.6474 H   0  0  0  0  0  0  0  0  0  0  0  0
  150.4491  142.3860  155.5804 H   0  0  0  0  0  0  0  0  0  0  0  0
  149.5995  140.0936  154.9917 H   0  0  0  0  0  0  0  0  0  0  0  0
  151.3010  140.0556  155.4125 H   0  0  0  0  0  0  0  0  0  0  0  0
  152.0122  141.7019  157.2043 H   0  0  0  0  0  0  0  0  0  0  0  0
  1  2  1  0  0  0  0
  1 22  1  0  0  0  0
  1 23  1  0  0  0  0
  1 24  1  0  0  0  0
  2 21  1  0  0  0  0
  2  3  2  0  0  0  0
  3  4  1  0  0  0  0
  3 25  1  0  0  0  0
  4  5  1  0  0  0  0
  4 20  2  0  0  0  0
  5  6  1  0  0  0  0
  6  7  2  0  0  0  0
  6  8  1  0  0  0  0
  8  9  1  0  0  0  0
  8 26  1  0  0  0  0
  9 10  1  0  0  0  0
  9 27  1  0  0  0  0
  9 28  1  0  0  0  0
 10 19  1  0  0  0  0
 10 11  1  0  0  0  0
 10 29  1  0  0  0  0
 11 12  1  0  0  0  0
 11 30  1  0  0  0  0
 11 31  1  0  0  0  0
 12 13  1  0  0  0  0
 12 17  1  0  0  0  0
 12 45  1  0  0  0  0
 13 14  1  0  0  0  0
 13 32  1  0  0  0  0
 13 33  1  0  0  0  0
 14 15  1  0  0  0  0
 14 16  1  0  0  0  0
 14 34  1  0  0  0  0
 15 35  1  0  0  0  0
 15 36  1  0  0  0  0
 15 37  1  0  0  0  0
 16 38  1  0  0  0  0
 16 39  1  0  0  0  0
 16 40  1  0  0  0  0
 17 18  1  0  0  0  0
 17 41  1  0  0  0  0
 17 42  1  0  0  0  0
 18 19  1  0  0  0  0
 18 43  1  0  0  0  0
 18 44  1  0  0  0  0
 20 21  1  0  0  0  0
M  CHG  1   5  -1
M  CHG  1  12   1
M  END
> <s_m_source_file>
AV-unprocessed.smi

> <i_m_source_file_index>
1254

> <i_lp_mmshare_version>
43012

> <i_f3d_flags>
0

> <s_epik_input>
W0NIM11jMVtjSF1jKG5vMSlbTkhdQyg9TylbTkhdW0NIMl1bQ0BASF0yW0NIMl1OKFtDSDJdW0NIMl1PMilbQ0gyXVtDSF0oW0NIM10pW0NIM10=

> <s_epik_cmdline>
J2VwaWtfcHl0aG9uJywgJy1waCcsICc3LjAnLCAnLXRuJywgJzgnLCAnLW1hJywgJzIwMCcsICctbWV0YWxfYmluZGluZycsICctaW1hZScsICc8aW5maWxlLm1hZT4nLCAnLW9tYWUnLCAnPG91dGZpbGUubWFlPic=

> <r_epik_Ionization_Penalty>
6.33139

> <r_epik_Ionization_Penalty_Charging>
6.33128

> <r_epik_Ionization_Penalty_Neutral>
0.000104968

> <r_epik_State_Penalty>
6.32522

> <r_epik_Charging_Adjusted_Penalty>
12.6565

> <i_epik_Tot_Q>
0

> <i_epik_Tot_abs_Q>
2

> <r_epik_Metal_State_Penalty>
2.26285

> <b_epik_Metal_Only>
1

> <s_lp_Force_Field>
OPLS_2005

> <r_lp_Energy>
5.65212

> <b_lp_Chiralities_Consistent>
1

> <s_lp_Variant>
AV-unprocessed.smi:1254-7

> <Gold.Version>
5.8.1

> <Gold.Id.Protein>
6NUR|6NUR_protein|mol2

> <Gold.PLP.Fitness>
45.3470

> <Gold.PLP.PLP>
-39.7396

> <Gold.PLP.part.hbond>
-2.8631

> <Gold.PLP.part.metal>
0.0000

> <Gold.PLP.part.buried>
-5.8078

> <Gold.PLP.part.nonpolar>
-33.2826

> <Gold.PLP.part.repulsive>
0.2826

> <Gold.PLP.ligand.clash>
0.0000

> <Gold.PLP.ligand.torsion>
0.8769

> <Gold.PLP.Chemscore.Hbond>
2.3759

> <Gold.PLP.Chemscore.CHOScore>
0.0000

> <Gold.PLP.Chemscore.Metal>
0.0000

> <Gold.PLP.Chemscore.Internal.Correction>
0.2335

> <Gold.Rescore>
     Score         DG    S(hbond)    S(metal)    S(lipo)     H(rot)  DE(clash)    DE(int)     intcor
     16.49     -17.85       1.58        0.00      97.76       1.69       0.04       1.32       ----

> <Gold.Chemscore.Fitness>
16.4895

> <Gold.Chemscore.DG>
-17.8486

> <Gold.Chemscore.ZeroCoef>
-5.4800

> <Gold.Chemscore.Hbond>
1.5760

> <Gold.Chemscore.Metal>
0.0000

> <Gold.Chemscore.Lipo>
97.7582

> <Gold.Chemscore.Internal_Hbond>
0.0000

> <Gold.Chemscore.DEClash>
0.0358

> <Gold.Chemscore.DEInternal>
1.3233

> <Gold.Chemscore.Rot>
1.6926

> <Gold.Chemscore.Internal.Correction>
   9.000000E+99

> <Gold.Chemscore.Hbond.Weighted>
-5.2640

> <Gold.Chemscore.Metal.Weighted>
-0.0000

> <Gold.Chemscore.Lipo.Weighted>
-11.4377

> <Gold.Chemscore.Internal_Hbond.Weighted>
0.0000

> <Gold.Chemscore.DEClash.Weighted>
0.0358

> <Gold.Chemscore.DEInternal.Weighted>
1.3233

> <Gold.Chemscore.Rot.Weighted>
4.3330

> <Gold.Chemscore.Internal.Correction.Weighted>
   9.000000E+99

> <Gold.Protein.RotatedTorsions>
[ 6907 6896 6895 6894 ] final  -67.94 input  -60.11 | X-H torsion
[ 7974 7965 7964 7962 ] final -127.58 input  175.53 | X-H torsion
[ 8008 7997 7996 7995 ] final  121.28 input   59.86 | X-H torsion
[ 10167 10162 10161 10158 ] final  -66.81 input  -65.29 | X-H torsion
[ 10718 10713 10712 10709 ] final  -62.10 input   66.30 | X-H torsion
[ 10763 10752 10751 10750 ] final   65.83 input  -60.55 | X-H torsion
[ 11005 11000 10999 10996 ] final -153.82 input  -57.11 | X-H torsion

> <Gold.Protein.ActiveResidues>
 VAL166  LYS551  ARG553  GLY616  TRP617  ASP618  TYR619  PRO620  LYS621  CYS622 
 ASP623  PHE694  ASN695  SER759  ASP760  ASP761  ALA762  ILE779  LEU786  VAL792 
 PHE793  MET794  SER795  GLU796  ALA797  LYS798  CYS799  TRP800  GLU811  SER814 

> <Gold.Protein.RotatedAtoms>
  150.7383  134.5810  159.5938 H   0  0  0  0  0  0  0  0  0  0  0  0  # atno 6907 bound_to 6896
  152.3224  134.7361  160.0319 H   0  0  0  0  0  0  0  0  0  0  0  0  # atno 6908 bound_to 6896
  151.7872  133.3320  159.3525 H   0  0  0  0  0  0  0  0  0  0  0  0  # atno 6909 bound_to 6896
  144.9757  140.7590  143.4643 H   0  0  0  0  0  0  0  0  0  0  0  0  # atno 7974 bound_to 7965
  156.2680  140.2812  156.1284 H   0  0  0  0  0  0  0  0  0  0  0  0  # atno 8008 bound_to 7997
  155.1081  140.0390  157.2734 H   0  0  0  0  0  0  0  0  0  0  0  0  # atno 8009 bound_to 7997
  154.6764  140.2599  155.6960 H   0  0  0  0  0  0  0  0  0  0  0  0  # atno 8010 bound_to 7997
  140.5629  143.2313  151.6691 H   0  0  0  0  0  0  0  0  0  0  0  0  # atno 10167 bound_to 10162
  156.0877  130.4205  150.1087 H   0  0  0  0  0  0  0  0  0  0  0  0  # atno 10718 bound_to 10713
  153.0113  135.5342  154.6729 H   0  0  0  0  0  0  0  0  0  0  0  0  # atno 10763 bound_to 10752
  154.5909  135.2858  155.0639 H   0  0  0  0  0  0  0  0  0  0  0  0  # atno 10764 bound_to 10752
  154.1732  135.6528  153.5067 H   0  0  0  0  0  0  0  0  0  0  0  0  # atno 10765 bound_to 10752
  140.7040  134.3906  157.5206 H   0  0  0  0  0  0  0  0  0  0  0  0  # atno 11005 bound_to 11000
  145.2494  139.2038  143.4950 LP  0  0  0  0  0  0  0  0  0  0  0  0  # atno 17320 bound_to 7965
  146.3394  140.2405  142.8595 LP  0  0  0  0  0  0  0  0  0  0  0  0  # atno 17321 bound_to 7965
  139.5079  144.3630  152.0544 LP  0  0  0  0  0  0  0  0  0  0  0  0  # atno 17342 bound_to 10162
  140.2759  144.3913  150.6135 LP  0  0  0  0  0  0  0  0  0  0  0  0  # atno 17343 bound_to 10162
  156.9104  130.9650  151.3564 LP  0  0  0  0  0  0  0  0  0  0  0  0  # atno 17370 bound_to 10713
  157.6017  130.8517  149.8812 LP  0  0  0  0  0  0  0  0  0  0  0  0  # atno 17371 bound_to 10713
  139.8889  134.8844  156.2449 LP  0  0  0  0  0  0  0  0  0  0  0  0  # atno 17394 bound_to 11000
  141.0140  133.7079  156.1158 LP  0  0  0  0  0  0  0  0  0  0  0  0  # atno 17395 bound_to 11000

$$$$
