AV-unprocessed.smi:713|AV-procd|sdf|3481|dock8
  -GOLD-   22720 0473D 1   1.00000     0.00000
 Structure written by MMmdl.
 41 42  0  0  0  0  0  0  0  0  1 V2000
  145.2528  136.1747  151.7421 C   0  0  0  0  0  0  0  0  0  0  0  0
  146.0558  134.8664  151.5908 C   0  0  1  0  0  0  0  0  0  0  0  0
  146.4573  134.2436  152.9405 C   0  0  0  0  0  0  0  0  0  0  0  0
  145.6030  133.8221  153.7213 O   0  0  0  0  0  0  0  0  0  0  0  0
  147.7725  134.2082  153.2101 N   0  0  0  0  0  0  0  0  0  0  0  0
  148.3747  133.6631  154.4217 C   0  0  1  0  0  0  0  0  0  0  0  0
  149.1595  132.3871  154.0684 C   0  0  0  0  0  0  0  0  0  0  0  0
  149.8700  131.7962  155.2958 C   0  0  0  0  0  0  0  0  0  0  0  0
  150.7655  132.8389  155.9891 C   0  0  0  0  0  0  0  0  0  0  0  0
  150.0370  134.1621  156.3181 C   0  0  2  0  0  0  0  0  0  0  0  0
  148.8888  134.0384  157.7774 S   0  0  0  0  0  0  0  0  0  0  0  0
  147.2801  134.5784  157.0641 C   0  0  0  0  0  0  0  0  0  0  0  0
  148.7725  132.6194  158.1460 O   0  0  0  0  0  0  0  0  0  0  0  0
  149.2705  135.0190  158.8040 O   0  0  0  0  0  0  0  0  0  0  0  0
  149.3029  134.7072  155.0766 C   0  0  0  0  0  0  0  0  0  0  0  0
  145.3567  133.8949  150.7553 N   0  0  0  0  0  0  0  0  0  0  0  0
  145.8257  132.6828  150.2904 C   0  0  0  0  0  0  0  0  0  0  0  0
  144.8168  132.0961  149.5822 C   0  0  0  0  0  0  0  0  0  0  0  0
  143.7502  133.0326  149.6748 C   0  0  0  0  0  0  0  0  0  0  0  0
  144.0728  134.1033  150.3813 N   0  0  0  0  0  0  0  0  0  0  0  0
  145.8174  136.9226  152.3002 H   0  0  0  0  0  0  0  0  0  0  0  0
  144.3083  136.0155  152.2641 H   0  0  0  0  0  0  0  0  0  0  0  0
  145.0225  136.6032  150.7663 H   0  0  0  0  0  0  0  0  0  0  0  0
  146.9859  135.1175  151.0786 H   0  0  0  0  0  0  0  0  0  0  0  0
  148.4057  134.5743  152.5144 H   0  0  0  0  0  0  0  0  0  0  0  0
  147.5781  133.3937  155.1163 H   0  0  0  0  0  0  0  0  0  0  0  0
  148.4879  131.6416  153.6405 H   0  0  0  0  0  0  0  0  0  0  0  0
  149.9007  132.6115  153.2998 H   0  0  0  0  0  0  0  0  0  0  0  0
  149.1342  131.3973  155.9915 H   0  0  0  0  0  0  0  0  0  0  0  0
  150.4761  130.9433  154.9897 H   0  0  0  0  0  0  0  0  0  0  0  0
  151.2133  132.4089  156.8838 H   0  0  0  0  0  0  0  0  0  0  0  0
  151.6001  133.0650  155.3245 H   0  0  0  0  0  0  0  0  0  0  0  0
  150.7867  134.8986  156.6088 H   0  0  0  0  0  0  0  0  0  0  0  0
  146.4939  134.4344  157.8051 H   0  0  0  0  0  0  0  0  0  0  0  0
  147.0529  133.9840  156.1797 H   0  0  0  0  0  0  0  0  0  0  0  0
  147.3247  135.6332  156.7966 H   0  0  0  0  0  0  0  0  0  0  0  0
  150.0456  135.0305  154.3460 H   0  0  0  0  0  0  0  0  0  0  0  0
  148.7378  135.6013  155.3431 H   0  0  0  0  0  0  0  0  0  0  0  0
  146.8283  132.3411  150.5015 H   0  0  0  0  0  0  0  0  0  0  0  0
  144.8365  131.1417  149.0775 H   0  0  0  0  0  0  0  0  0  0  0  0
  142.7568  132.9649  149.2565 H   0  0  0  0  0  0  0  0  0  0  0  0
  1  2  1  0  0  0  0
  1 21  1  0  0  0  0
  1 22  1  0  0  0  0
  1 23  1  0  0  0  0
  2  3  1  0  0  0  0
  2 16  1  0  0  0  0
  2 24  1  0  0  0  0
  3  4  2  0  0  0  0
  3  5  1  0  0  0  0
  5  6  1  0  0  0  0
  5 25  1  0  0  0  0
  6 15  1  0  0  0  0
  6  7  1  0  0  0  0
  6 26  1  0  0  0  0
  7  8  1  0  0  0  0
  7 27  1  0  0  0  0
  7 28  1  0  0  0  0
  8  9  1  0  0  0  0
  8 29  1  0  0  0  0
  8 30  1  0  0  0  0
  9 10  1  0  0  0  0
  9 31  1  0  0  0  0
  9 32  1  0  0  0  0
 10 11  1  0  0  0  0
 10 15  1  0  0  0  0
 10 33  1  0  0  0  0
 11 12  1  0  0  0  0
 11 13  2  0  0  0  0
 11 14  2  0  0  0  0
 12 34  1  0  0  0  0
 12 35  1  0  0  0  0
 12 36  1  0  0  0  0
 15 37  1  0  0  0  0
 15 38  1  0  0  0  0
 16 20  1  0  0  0  0
 16 17  1  0  0  0  0
 17 18  2  0  0  0  0
 17 39  1  0  0  0  0
 18 19  1  0  0  0  0
 18 40  1  0  0  0  0
 19 20  2  0  0  0  0
 19 41  1  0  0  0  0
M  END
> <s_m_source_file>
AV-unprocessed.smi

> <i_m_source_file_index>
713

> <i_lp_mmshare_version>
43012

> <i_f3d_flags>
0

> <s_epik_input>
bjFbY0hdW2NIXVtjSF1uMVtDQEhdKFtDSDNdKUMoPU8pW05IXVtDQEBIXTJbQ0gyXVtDSDJdW0NIMl1bQ0BIXShbQ0gyXTIpUyg9TykoPU8pW0NIM10=

> <s_epik_cmdline>
J2VwaWtfcHl0aG9uJywgJy1waCcsICc3LjAnLCAnLXRuJywgJzgnLCAnLW1hJywgJzIwMCcsICctbWV0YWxfYmluZGluZycsICctaW1hZScsICc8aW5maWxlLm1hZT4nLCAnLW9tYWUnLCAnPG91dGZpbGUubWFlPic=

> <r_lp_tautomer_probability>
1

> <r_epik_Ionization_Penalty>
4.07816e-05

> <r_epik_Ionization_Penalty_Charging>
0

> <r_epik_Ionization_Penalty_Neutral>
4.07816e-05

> <r_epik_State_Penalty>
-0

> <r_epik_Charging_Adjusted_Penalty>
0

> <i_epik_Tot_Q>
0

> <i_epik_Tot_abs_Q>
0

> <r_epik_Metal_State_Penalty>
-0

> <b_epik_Metal_Only>
0

> <s_lp_Force_Field>
OPLS_2005

> <r_lp_Energy>
4.31355

> <b_lp_Chiralities_Consistent>
1

> <s_lp_Variant>
AV-unprocessed.smi:713-8

> <Gold.Version>
5.8.1

> <Gold.Id.Protein>
6NUR|6NUR_protein|mol2

> <Gold.PLP.Fitness>
42.4099

> <Gold.PLP.PLP>
-31.1212

> <Gold.PLP.part.hbond>
-2.0000

> <Gold.PLP.part.metal>
0.0000

> <Gold.PLP.part.buried>
-2.8647

> <Gold.PLP.part.nonpolar>
-26.7262

> <Gold.PLP.part.repulsive>
0.2868

> <Gold.PLP.ligand.clash>
0.0000

> <Gold.PLP.ligand.torsion>
0.2545

> <Gold.PLP.Chemscore.Hbond>
1.9600

> <Gold.PLP.Chemscore.CHOScore>
1.8719

> <Gold.PLP.Chemscore.Metal>
0.0000

> <Gold.Chemscore.Hbonds>
donor molecule, donor type, donor heavy atom, donor atom, acceptor molecule, acceptor atom, score
      L1  H     5    25       P1  7948  0.69
      P1  H  6896  6907       L1    14  1.00
      L1  C    17    39       P1 10747  0.79
      L1  C    19    41       P1 10186  0.97

> <Gold.PLP.Chemscore.Internal.Correction>
0.3020

> <Gold.Rescore>
     Score         DG    S(hbond)    S(metal)    S(lipo)     H(rot)  DE(clash)    DE(int)     intcor
     15.02     -15.82       1.85        0.00      73.42       1.72       0.26       0.53       ----

> <Gold.Chemscore.Fitness>
15.0225

> <Gold.Chemscore.DG>
-15.8205

> <Gold.Chemscore.ZeroCoef>
-5.4800

> <Gold.Chemscore.Hbond>
1.8461

> <Gold.Chemscore.Metal>
0.0000

> <Gold.Chemscore.Lipo>
73.4202

> <Gold.Chemscore.Internal_Hbond>
0.0000

> <Gold.Chemscore.DEClash>
0.2644

> <Gold.Chemscore.DEInternal>
0.5336

> <Gold.Chemscore.Rot>
1.7249

> <Gold.Chemscore.Internal.Correction>
   9.000000E+99

> <Gold.Chemscore.Hbonds>
donor molecule, donor type, donor heavy atom, donor atom, acceptor molecule, acceptor atom, score
      L1  H     5    25       P1  7948  0.12
      P1  H  6896  6907       L1    14  0.50

> <Gold.Chemscore.Hbond.Weighted>
-6.1661

> <Gold.Chemscore.Metal.Weighted>
-0.0000

> <Gold.Chemscore.Lipo.Weighted>
-8.5902

> <Gold.Chemscore.Internal_Hbond.Weighted>
0.0000

> <Gold.Chemscore.DEClash.Weighted>
0.2644

> <Gold.Chemscore.DEInternal.Weighted>
0.5336

> <Gold.Chemscore.Rot.Weighted>
4.4157

> <Gold.Chemscore.Internal.Correction.Weighted>
   9.000000E+99

> <Gold.Protein.RotatedTorsions>
[ 6907 6896 6895 6894 ] final  -81.57 input  -60.11 | X-H torsion
[ 7974 7965 7964 7962 ] final   19.13 input  175.53 | X-H torsion
[ 8008 7997 7996 7995 ] final   21.22 input   59.86 | X-H torsion
[ 10167 10162 10161 10158 ] final  130.51 input  -65.29 | X-H torsion
[ 10718 10713 10712 10709 ] final  108.97 input   66.30 | X-H torsion
[ 10763 10752 10751 10750 ] final  -92.40 input  -60.55 | X-H torsion
[ 11005 11000 10999 10996 ] final -142.42 input  -57.11 | X-H torsion

> <Gold.Protein.ActiveResidues>
 VAL166  LYS551  ARG553  GLY616  TRP617  ASP618  TYR619  PRO620  LYS621  CYS622 
 ASP623  PHE694  ASN695  SER759  ASP760  ASP761  ALA762  ILE779  LEU786  VAL792 
 PHE793  MET794  SER795  GLU796  ALA797  LYS798  CYS799  TRP800  GLU811  SER814 

> <Gold.Protein.RotatedAtoms>
  150.6910  134.3797  159.5028 H   0  0  0  0  0  0  0  0  0  0  0  0  # atno 6907 bound_to 6896
  152.1601  134.8916  160.0551 H   0  0  0  0  0  0  0  0  0  0  0  0  # atno 6908 bound_to 6896
  151.9981  133.3780  159.4208 H   0  0  0  0  0  0  0  0  0  0  0  0  # atno 6909 bound_to 6896
  146.2160  139.8358  142.8651 H   0  0  0  0  0  0  0  0  0  0  0  0  # atno 7974 bound_to 7965
  154.9473  140.3061  155.5092 H   0  0  0  0  0  0  0  0  0  0  0  0  # atno 8008 bound_to 7997
  156.2990  140.2325  156.4485 H   0  0  0  0  0  0  0  0  0  0  0  0  # atno 8009 bound_to 7997
  154.8088  140.0430  157.1316 H   0  0  0  0  0  0  0  0  0  0  0  0  # atno 8010 bound_to 7997
  139.5426  144.6745  151.4574 H   0  0  0  0  0  0  0  0  0  0  0  0  # atno 10167 bound_to 10162
  157.6562  131.0904  150.6385 H   0  0  0  0  0  0  0  0  0  0  0  0  # atno 10718 bound_to 10713
  154.6857  135.5232  153.8324 H   0  0  0  0  0  0  0  0  0  0  0  0  # atno 10763 bound_to 10752
  153.0596  135.6563  154.0504 H   0  0  0  0  0  0  0  0  0  0  0  0  # atno 10764 bound_to 10752
  154.0385  135.2979  155.3338 H   0  0  0  0  0  0  0  0  0  0  0  0  # atno 10765 bound_to 10752
  140.8226  134.2612  157.4893 H   0  0  0  0  0  0  0  0  0  0  0  0  # atno 11005 bound_to 11000
  145.2950  141.0178  143.3641 LP  0  0  0  0  0  0  0  0  0  0  0  0  # atno 17320 bound_to 7965
  144.9049  139.4602  143.6615 LP  0  0  0  0  0  0  0  0  0  0  0  0  # atno 17321 bound_to 7965
  140.6663  143.8392  150.6945 LP  0  0  0  0  0  0  0  0  0  0  0  0  # atno 17342 bound_to 10162
  140.1802  143.4121  152.1938 LP  0  0  0  0  0  0  0  0  0  0  0  0  # atno 17343 bound_to 10162
  156.6691  130.4534  149.5663 LP  0  0  0  0  0  0  0  0  0  0  0  0  # atno 17370 bound_to 10713
  156.2011  130.6620  151.1168 LP  0  0  0  0  0  0  0  0  0  0  0  0  # atno 17371 bound_to 10713
  139.8708  134.9544  156.4173 LP  0  0  0  0  0  0  0  0  0  0  0  0  # atno 17394 bound_to 11000
  140.9082  133.7730  155.9760 LP  0  0  0  0  0  0  0  0  0  0  0  0  # atno 17395 bound_to 11000

$$$$
