AV-unprocessed.smi:1762|AV-procd|sdf|7121|dock6
  -GOLD-   22720 8353D 1   1.00000     0.00000
 Structure written by MMmdl.
 52 53  0  0  0  0  0  0  0  0  3 V2000
  145.8076  132.2725  150.0619 C   0  0  0  0  0  0  0  0  0  0  0  0
  146.2123  133.3821  151.0378 C   0  0  2  0  0  0  0  0  0  0  0  0
  147.3491  132.9402  151.9745 C   0  0  0  0  0  0  0  0  0  0  0  0
  147.6420  134.0143  152.9544 N   0  3  2  0  0  0  0  0  0  0  0  0
  148.8781  133.8506  153.7811 C   0  0  1  0  0  0  0  0  0  0  0  0
  149.0683  134.9501  154.8577 C   0  0  0  0  0  0  0  0  0  0  0  0
  148.2313  135.0137  155.7645 O   0  0  0  0  0  0  0  0  0  0  0  0
  150.1725  135.7186  154.6360 N   0  5  0  0  0  0  0  0  0  0  0  0
  150.4873  136.9329  155.3906 C   0  0  0  0  0  0  0  0  0  0  0  0
  150.7807  138.1308  154.4546 C   0  0  0  0  0  0  0  0  0  0  0  0
  149.7339  139.2436  154.4512 C   0  0  0  0  0  0  0  0  0  0  0  0
  148.4137  138.9859  154.0174 C   0  0  0  0  0  0  0  0  0  0  0  0
  147.4890  140.0478  153.9987 C   0  0  0  0  0  0  0  0  0  0  0  0
  147.9143  141.3263  154.4053 C   0  0  0  0  0  0  0  0  0  0  0  0
  149.2546  141.4890  154.8066 C   0  0  0  0  0  0  0  0  0  0  0  0
  150.1505  140.4795  154.8236 N   0  0  0  0  0  0  0  0  0  0  0  0
  149.0827  132.3829  154.2782 C   0  0  0  0  0  0  0  0  0  0  0  0
  147.8914  131.8621  155.1083 C   0  0  0  0  0  0  0  0  0  0  0  0
  150.3786  132.2279  155.0977 C   0  0  0  0  0  0  0  0  0  0  0  0
  146.4251  134.3561  153.7302 C   0  0  0  0  0  0  0  0  0  0  0  0
  145.2730  134.7480  152.7856 C   0  0  1  0  0  0  0  0  0  0  0  0
  145.4529  136.1357  152.1440 C   0  0  0  0  0  0  0  0  0  0  0  0
  145.0631  133.7257  151.8101 O   0  0  0  0  0  0  0  0  0  0  0  0
  146.6524  131.9615  149.4469 H   0  0  0  0  0  0  0  0  0  0  0  0
  145.0157  132.6110  149.3936 H   0  0  0  0  0  0  0  0  0  0  0  0
  145.4404  131.3957  150.5946 H   0  0  0  0  0  0  0  0  0  0  0  0
  146.5351  134.2440  150.4537 H   0  0  0  0  0  0  0  0  0  0  0  0
  147.0601  132.0307  152.4984 H   0  0  0  0  0  0  0  0  0  0  0  0
  148.2353  132.7049  151.3864 H   0  0  0  0  0  0  0  0  0  0  0  0
  149.6985  134.0074  153.0783 H   0  0  0  0  0  0  0  0  0  0  0  0
  149.6742  137.1991  156.0662 H   0  0  0  0  0  0  0  0  0  0  0  0
  151.3523  136.7860  156.0388 H   0  0  0  0  0  0  0  0  0  0  0  0
  151.7321  138.5762  154.7474 H   0  0  0  0  0  0  0  0  0  0  0  0
  150.9295  137.7742  153.4343 H   0  0  0  0  0  0  0  0  0  0  0  0
  148.1180  137.9960  153.7027 H   0  0  0  0  0  0  0  0  0  0  0  0
  146.4722  139.8864  153.6732 H   0  0  0  0  0  0  0  0  0  0  0  0
  147.2325  142.1639  154.4040 H   0  0  0  0  0  0  0  0  0  0  0  0
  149.6185  142.4571  155.1173 H   0  0  0  0  0  0  0  0  0  0  0  0
  149.1772  131.7235  153.4152 H   0  0  0  0  0  0  0  0  0  0  0  0
  147.7136  132.4900  155.9818 H   0  0  0  0  0  0  0  0  0  0  0  0
  148.0741  130.8471  155.4618 H   0  0  0  0  0  0  0  0  0  0  0  0
  146.9694  131.8315  154.5279 H   0  0  0  0  0  0  0  0  0  0  0  0
  150.3757  132.8834  155.9691 H   0  0  0  0  0  0  0  0  0  0  0  0
  151.2646  132.4598  154.5067 H   0  0  0  0  0  0  0  0  0  0  0  0
  150.4959  131.2043  155.4546 H   0  0  0  0  0  0  0  0  0  0  0  0
  146.1259  133.4966  154.3320 H   0  0  0  0  0  0  0  0  0  0  0  0
  146.6309  135.1720  154.4243 H   0  0  0  0  0  0  0  0  0  0  0  0
  144.3592  134.7919  153.3788 H   0  0  0  0  0  0  0  0  0  0  0  0
  145.4844  136.9129  152.9079 H   0  0  0  0  0  0  0  0  0  0  0  0
  144.6228  136.3656  151.4758 H   0  0  0  0  0  0  0  0  0  0  0  0
  146.3759  136.2106  151.5697 H   0  0  0  0  0  0  0  0  0  0  0  0
  147.8314  134.8332  152.3954 H   0  0  0  0  0  0  0  0  0  0  0  0
  1  2  1  0  0  0  0
  1 24  1  0  0  0  0
  1 25  1  0  0  0  0
  1 26  1  0  0  0  0
  2 23  1  0  0  0  0
  2  3  1  0  0  0  0
  2 27  1  0  0  0  0
  3  4  1  0  0  0  0
  3 28  1  0  0  0  0
  3 29  1  0  0  0  0
  4  5  1  0  0  0  0
  4 20  1  0  0  0  0
  4 52  1  0  0  0  0
  5  6  1  0  0  0  0
  5 17  1  0  0  0  0
  5 30  1  0  0  0  0
  6  7  2  0  0  0  0
  6  8  1  0  0  0  0
  8  9  1  0  0  0  0
  9 10  1  0  0  0  0
  9 31  1  0  0  0  0
  9 32  1  0  0  0  0
 10 11  1  0  0  0  0
 10 33  1  0  0  0  0
 10 34  1  0  0  0  0
 11 16  1  0  0  0  0
 11 12  2  0  0  0  0
 12 13  1  0  0  0  0
 12 35  1  0  0  0  0
 13 14  2  0  0  0  0
 13 36  1  0  0  0  0
 14 15  1  0  0  0  0
 14 37  1  0  0  0  0
 15 16  2  0  0  0  0
 15 38  1  0  0  0  0
 17 18  1  0  0  0  0
 17 19  1  0  0  0  0
 17 39  1  0  0  0  0
 18 40  1  0  0  0  0
 18 41  1  0  0  0  0
 18 42  1  0  0  0  0
 19 43  1  0  0  0  0
 19 44  1  0  0  0  0
 19 45  1  0  0  0  0
 20 21  1  0  0  0  0
 20 46  1  0  0  0  0
 20 47  1  0  0  0  0
 21 22  1  0  0  0  0
 21 23  1  0  0  0  0
 21 48  1  0  0  0  0
 22 49  1  0  0  0  0
 22 50  1  0  0  0  0
 22 51  1  0  0  0  0
M  CHG  1   4   1
M  CHG  1   8  -1
M  END
> <s_m_source_file>
AV-unprocessed.smi

> <i_m_source_file_index>
1762

> <i_lp_mmshare_version>
43012

> <i_f3d_flags>
0

> <s_epik_input>
W0NIM11bQ0BASF0xW0NIMl1OKFtDSDJdW0NASF0oTzEpW0NIM10pW0NAQEhdKFtDSF0oW0NIM10pW0NIM10pQyg9TylbTkhdW0NIMl1bQ0gyXWMyW2NIXVtjSF1bY0hdW2NIXW4y

> <s_epik_cmdline>
J2VwaWtfcHl0aG9uJywgJy1waCcsICc3LjAnLCAnLXRuJywgJzgnLCAnLW1hJywgJzIwMCcsICctbWV0YWxfYmluZGluZycsICctaW1hZScsICc8aW5maWxlLm1hZT4nLCAnLW9tYWUnLCAnPG91dGZpbGUubWFlPic=

> <r_epik_Ionization_Penalty>
7.82966

> <r_epik_Ionization_Penalty_Charging>
7.7461

> <r_epik_Ionization_Penalty_Neutral>
0.0835571

> <r_epik_State_Penalty>
8.52273

> <r_epik_Charging_Adjusted_Penalty>
16.2688

> <i_epik_Tot_Q>
0

> <i_epik_Tot_abs_Q>
2

> <r_epik_Metal_State_Penalty>
4.47451

> <b_epik_Metal_Only>
1

> <s_lp_Force_Field>
OPLS_2005

> <r_lp_Energy>
25.1161

> <b_lp_Chiralities_Consistent>
1

> <s_lp_Variant>
AV-unprocessed.smi:1762-23

> <Gold.Version>
5.8.1

> <Gold.Id.Protein>
6NUR|6NUR_protein|mol2

> <Gold.PLP.Fitness>
49.1994

> <Gold.PLP.PLP>
-38.2693

> <Gold.PLP.part.hbond>
-2.0000

> <Gold.PLP.part.metal>
0.0000

> <Gold.PLP.part.buried>
-0.6631

> <Gold.PLP.part.nonpolar>
-35.2506

> <Gold.PLP.part.repulsive>
0.7610

> <Gold.PLP.ligand.clash>
0.0000

> <Gold.PLP.ligand.torsion>
0.9272

> <Gold.PLP.Chemscore.Hbond>
3.0000

> <Gold.PLP.Chemscore.CHOScore>
0.9965

> <Gold.PLP.Chemscore.Metal>
0.0000

> <Gold.Chemscore.Hbonds>
donor molecule, donor type, donor heavy atom, donor atom, acceptor molecule, acceptor atom, score
      L1  H     4    52       P1  7948  2.00
      P1  H  7989  7998       L1    16  0.96
      L1  C    15    38       P1  8028  1.00

> <Gold.PLP.Chemscore.Internal.Correction>
0.7950

> <Gold.Rescore>
     Score         DG    S(hbond)    S(metal)    S(lipo)     H(rot)  DE(clash)    DE(int)     intcor
     15.10     -17.46       1.39        0.00      97.71       1.60       0.16       2.20       ----

> <Gold.Chemscore.Fitness>
15.0990

> <Gold.Chemscore.DG>
-17.4629

> <Gold.Chemscore.ZeroCoef>
-5.4800

> <Gold.Chemscore.Hbond>
1.3923

> <Gold.Chemscore.Metal>
0.0000

> <Gold.Chemscore.Lipo>
97.7068

> <Gold.Chemscore.Internal_Hbond>
0.0000

> <Gold.Chemscore.DEClash>
0.1599

> <Gold.Chemscore.DEInternal>
2.2040

> <Gold.Chemscore.Rot>
1.6012

> <Gold.Chemscore.Internal.Correction>
   9.000000E+99

> <Gold.Chemscore.Hbonds>
donor molecule, donor type, donor heavy atom, donor atom, acceptor molecule, acceptor atom, score
      L1  H     4    52       P1  7948  0.78
      P1  H  7989  7998       L1    16  0.24

> <Gold.Chemscore.Hbond.Weighted>
-4.6502

> <Gold.Chemscore.Metal.Weighted>
-0.0000

> <Gold.Chemscore.Lipo.Weighted>
-11.4317

> <Gold.Chemscore.Internal_Hbond.Weighted>
0.0000

> <Gold.Chemscore.DEClash.Weighted>
0.1599

> <Gold.Chemscore.DEInternal.Weighted>
2.2040

> <Gold.Chemscore.Rot.Weighted>
4.0990

> <Gold.Chemscore.Internal.Correction.Weighted>
   9.000000E+99

> <Gold.Protein.RotatedTorsions>
[ 6907 6896 6895 6894 ] final   34.55 input  -60.11 | X-H torsion
[ 7974 7965 7964 7962 ] final  148.07 input  175.53 | X-H torsion
[ 8008 7997 7996 7995 ] final  -11.78 input   59.86 | X-H torsion
[ 10167 10162 10161 10158 ] final   76.25 input  -65.29 | X-H torsion
[ 10718 10713 10712 10709 ] final  -67.15 input   66.30 | X-H torsion
[ 10763 10752 10751 10750 ] final   17.40 input  -60.55 | X-H torsion
[ 11005 11000 10999 10996 ] final    1.87 input  -57.11 | X-H torsion

> <Gold.Protein.ActiveResidues>
 VAL166  LYS551  ARG553  GLY616  TRP617  ASP618  TYR619  PRO620  LYS621  CYS622 
 ASP623  PHE694  ASN695  SER759  ASP760  ASP761  ALA762  ILE779  LEU786  VAL792 
 PHE793  MET794  SER795  GLU796  ALA797  LYS798  CYS799  TRP800  GLU811  SER814 

> <Gold.Protein.RotatedAtoms>
  152.1040  134.9321  160.0568 H   0  0  0  0  0  0  0  0  0  0  0  0  # atno 6907 bound_to 6896
  152.0525  133.4020  159.4391 H   0  0  0  0  0  0  0  0  0  0  0  0  # atno 6908 bound_to 6896
  150.6840  134.3212  159.4831 H   0  0  0  0  0  0  0  0  0  0  0  0  # atno 6909 bound_to 6896
  144.8542  139.6108  143.5960 H   0  0  0  0  0  0  0  0  0  0  0  0  # atno 7974 bound_to 7965
  154.5435  140.2293  155.8602 H   0  0  0  0  0  0  0  0  0  0  0  0  # atno 8008 bound_to 7997
  156.1881  140.3084  155.9239 H   0  0  0  0  0  0  0  0  0  0  0  0  # atno 8009 bound_to 7997
  155.3211  140.0440  157.3030 H   0  0  0  0  0  0  0  0  0  0  0  0  # atno 8010 bound_to 7997
  139.9943  144.5734  150.7791 H   0  0  0  0  0  0  0  0  0  0  0  0  # atno 10167 bound_to 10162
  156.0573  130.4273  150.1813 H   0  0  0  0  0  0  0  0  0  0  0  0  # atno 10718 bound_to 10713
  153.1342  135.6746  153.9129 H   0  0  0  0  0  0  0  0  0  0  0  0  # atno 10763 bound_to 10752
  153.8606  135.3082  155.3439 H   0  0  0  0  0  0  0  0  0  0  0  0  # atno 10764 bound_to 10752
  154.7733  135.4927  153.9776 H   0  0  0  0  0  0  0  0  0  0  0  0  # atno 10765 bound_to 10752
  140.6106  133.9752  155.8175 H   0  0  0  0  0  0  0  0  0  0  0  0  # atno 11005 bound_to 11000
  146.2809  139.6876  142.9229 LP  0  0  0  0  0  0  0  0  0  0  0  0  # atno 17320 bound_to 7965
  145.4439  141.0424  143.2842 LP  0  0  0  0  0  0  0  0  0  0  0  0  # atno 17321 bound_to 7965
  140.7443  143.2859  151.3466 LP  0  0  0  0  0  0  0  0  0  0  0  0  # atno 17342 bound_to 10162
  139.6317  144.0707  152.2482 LP  0  0  0  0  0  0  0  0  0  0  0  0  # atno 17343 bound_to 10162
  156.9887  130.9886  151.3420 LP  0  0  0  0  0  0  0  0  0  0  0  0  # atno 17370 bound_to 10713
  157.5553  130.8210  149.8197 LP  0  0  0  0  0  0  0  0  0  0  0  0  # atno 17371 bound_to 10713
  141.0811  134.0061  157.3385 LP  0  0  0  0  0  0  0  0  0  0  0  0  # atno 17394 bound_to 11000
  139.9194  135.0199  156.8006 LP  0  0  0  0  0  0  0  0  0  0  0  0  # atno 17395 bound_to 11000

$$$$
