AV-unprocessed.smi:2098|AV-procd|sdf|8565|dock9
  -GOLD-   2272011293D 1   1.00000     0.00000
 Structure written by MMmdl.
 36 38  0  0  0  0  0  0  0  0  1 V2000
  152.7930  139.6041  155.1709 O   0  0  0  0  0  0  0  0  0  0  0  0
  151.5573  139.6717  155.8559 C   0  0  2  0  0  0  0  0  0  0  0  0
  150.4549  139.1496  154.9210 C   0  0  0  0  0  0  0  0  0  0  0  0
  149.1940  139.3121  155.5572 O   0  0  0  0  0  0  0  0  0  0  0  0
  148.3634  140.3186  155.1124 C   0  0  0  0  0  0  0  0  0  0  0  0
  147.1402  140.4865  155.7941 C   0  0  0  0  0  0  0  0  0  0  0  0
  146.2293  141.4876  155.4053 C   0  0  0  0  0  0  0  0  0  0  0  0
  146.5347  142.3349  154.3246 C   0  0  0  0  0  0  0  0  0  0  0  0
  145.6592  143.2966  153.9476 F   0  0  0  0  0  0  0  0  0  0  0  0
  147.7524  142.1807  153.6365 C   0  0  0  0  0  0  0  0  0  0  0  0
  148.6639  141.1799  154.0261 C   0  0  0  0  0  0  0  0  0  0  0  0
  151.2994  141.1292  156.2850 C   0  0  0  0  0  0  0  0  0  0  0  0
  151.7247  141.3957  157.6481 N   0  0  0  0  0  0  0  0  0  0  0  0
  152.1827  140.4991  158.5428 C   0  0  0  0  0  0  0  0  0  0  0  0
  152.5157  140.9546  159.7471 N   0  0  0  0  0  0  0  0  0  0  0  0
  152.2413  142.3055  159.6201 C   0  0  0  0  0  0  0  0  0  0  0  0
  152.3757  143.3599  160.5519 C   0  0  0  0  0  0  0  0  0  0  0  0
  152.0285  144.6792  160.1932 C   0  0  0  0  0  0  0  0  0  0  0  0
  151.5431  144.9642  158.9004 C   0  0  0  0  0  0  0  0  0  0  0  0
  151.3999  143.9303  157.9552 C   0  0  0  0  0  0  0  0  0  0  0  0
  151.7458  142.6149  158.3173 C   0  0  0  0  0  0  0  0  0  0  0  0
  152.6511  139.8647  154.2735 H   0  0  0  0  0  0  0  0  0  0  0  0
  151.6119  139.0444  156.7467 H   0  0  0  0  0  0  0  0  0  0  0  0
  150.4511  139.7376  154.0014 H   0  0  0  0  0  0  0  0  0  0  0  0
  150.6416  138.1086  154.6509 H   0  0  0  0  0  0  0  0  0  0  0  0
  146.8970  139.8399  156.6247 H   0  0  0  0  0  0  0  0  0  0  0  0
  145.2960  141.6042  155.9364 H   0  0  0  0  0  0  0  0  0  0  0  0
  147.9887  142.8309  152.8071 H   0  0  0  0  0  0  0  0  0  0  0  0
  149.5873  141.0941  153.4740 H   0  0  0  0  0  0  0  0  0  0  0  0
  151.8129  141.8207  155.6157 H   0  0  0  0  0  0  0  0  0  0  0  0
  150.2359  141.3598  156.2117 H   0  0  0  0  0  0  0  0  0  0  0  0
  152.2765  139.4518  158.2952 H   0  0  0  0  0  0  0  0  0  0  0  0
  152.7467  143.1531  161.5447 H   0  0  0  0  0  0  0  0  0  0  0  0
  152.1352  145.4768  160.9138 H   0  0  0  0  0  0  0  0  0  0  0  0
  151.2806  145.9777  158.6347 H   0  0  0  0  0  0  0  0  0  0  0  0
  151.0307  144.1456  156.9637 H   0  0  0  0  0  0  0  0  0  0  0  0
  1  2  1  0  0  0  0
  1 22  1  0  0  0  0
  2  3  1  0  0  0  0
  2 12  1  0  0  0  0
  2 23  1  0  0  0  0
  3  4  1  0  0  0  0
  3 24  1  0  0  0  0
  3 25  1  0  0  0  0
  4  5  1  0  0  0  0
  5 11  1  0  0  0  0
  5  6  2  0  0  0  0
  6  7  1  0  0  0  0
  6 26  1  0  0  0  0
  7  8  2  0  0  0  0
  7 27  1  0  0  0  0
  8  9  1  0  0  0  0
  8 10  1  0  0  0  0
 10 11  2  0  0  0  0
 10 28  1  0  0  0  0
 11 29  1  0  0  0  0
 12 13  1  0  0  0  0
 12 30  1  0  0  0  0
 12 31  1  0  0  0  0
 13 21  1  0  0  0  0
 13 14  1  0  0  0  0
 14 15  2  0  0  0  0
 14 32  1  0  0  0  0
 15 16  1  0  0  0  0
 16 21  2  0  0  0  0
 16 17  1  0  0  0  0
 17 18  2  0  0  0  0
 17 33  1  0  0  0  0
 18 19  1  0  0  0  0
 18 34  1  0  0  0  0
 19 20  2  0  0  0  0
 19 35  1  0  0  0  0
 20 21  1  0  0  0  0
 20 36  1  0  0  0  0
M  END
> <s_m_source_file>
AV-unprocessed.smi

> <i_m_source_file_index>
2098

> <i_lp_mmshare_version>
43012

> <i_f3d_flags>
0

> <s_epik_input>
W2NIXTFbY0hdW2NIXVtjSF1jKGMxMiluKFtjSF1uMilbQ0gyXVtDQEhdKFtPSF0pW0NIMl1PYzNbY0hdW2NIXWMoRilbY0hdW2NIXTM=

> <s_epik_cmdline>
J2VwaWtfcHl0aG9uJywgJy1waCcsICc3LjAnLCAnLXRuJywgJzgnLCAnLW1hJywgJzIwMCcsICctbWV0YWxfYmluZGluZycsICctaW1hZScsICc8aW5maWxlLm1hZT4nLCAnLW9tYWUnLCAnPG91dGZpbGUubWFlPic=

> <r_lp_tautomer_probability>
1

> <r_epik_Ionization_Penalty>
0.0603575

> <r_epik_Ionization_Penalty_Charging>
0

> <r_epik_Ionization_Penalty_Neutral>
0.0603575

> <r_epik_State_Penalty>
0.0523204

> <r_epik_Charging_Adjusted_Penalty>
0.0523204

> <i_epik_Tot_Q>
0

> <i_epik_Tot_abs_Q>
0

> <r_epik_Metal_State_Penalty>
5.46976e-05

> <b_epik_Metal_Only>
0

> <s_lp_Force_Field>
OPLS_2005

> <r_lp_Energy>
15.3662

> <b_lp_Chiralities_Consistent>
1

> <s_lp_Variant>
AV-unprocessed.smi:2098-1

> <Gold.Version>
5.8.1

> <Gold.Id.Protein>
6NUR|6NUR_protein|mol2

> <Gold.PLP.Fitness>
50.0430

> <Gold.PLP.PLP>
-48.6911

> <Gold.PLP.part.hbond>
-2.0000

> <Gold.PLP.part.metal>
0.0000

> <Gold.PLP.part.buried>
-6.5303

> <Gold.PLP.part.nonpolar>
-39.7078

> <Gold.PLP.part.repulsive>
0.0273

> <Gold.PLP.ligand.clash>
0.0000

> <Gold.PLP.ligand.torsion>
0.8562

> <Gold.PLP.Chemscore.Hbond>
1.0000

> <Gold.PLP.Chemscore.CHOScore>
0.0000

> <Gold.PLP.Chemscore.Metal>
0.0000

> <Gold.Chemscore.Hbonds>
donor molecule, donor type, donor heavy atom, donor atom, acceptor molecule, acceptor atom, score
      P1  H  7997  8010       L1     1  1.00

> <Gold.PLP.Chemscore.Internal.Correction>
0.0644

> <Gold.Rescore>
     Score         DG    S(hbond)    S(metal)    S(lipo)     H(rot)  DE(clash)    DE(int)     intcor
     15.22     -16.09       0.92        0.00     116.39       2.37       0.01       0.86       ----

> <Gold.Chemscore.Fitness>
15.2166

> <Gold.Chemscore.DG>
-16.0918

> <Gold.Chemscore.ZeroCoef>
-5.4800

> <Gold.Chemscore.Hbond>
0.9194

> <Gold.Chemscore.Metal>
0.0000

> <Gold.Chemscore.Lipo>
116.3865

> <Gold.Chemscore.Internal_Hbond>
0.0000

> <Gold.Chemscore.DEClash>
0.0135

> <Gold.Chemscore.DEInternal>
0.8616

> <Gold.Chemscore.Rot>
2.3735

> <Gold.Chemscore.Internal.Correction>
   9.000000E+99

> <Gold.Chemscore.Hbonds>
donor molecule, donor type, donor heavy atom, donor atom, acceptor molecule, acceptor atom, score
      P1  H  7997  8010       L1     1  0.94

> <Gold.Chemscore.Hbond.Weighted>
-3.0708

> <Gold.Chemscore.Metal.Weighted>
-0.0000

> <Gold.Chemscore.Lipo.Weighted>
-13.6172

> <Gold.Chemscore.Internal_Hbond.Weighted>
0.0000

> <Gold.Chemscore.DEClash.Weighted>
0.0135

> <Gold.Chemscore.DEInternal.Weighted>
0.8616

> <Gold.Chemscore.Rot.Weighted>
6.0762

> <Gold.Chemscore.Internal.Correction.Weighted>
   9.000000E+99

> <Gold.Protein.RotatedTorsions>
[ 6907 6896 6895 6894 ] final   99.02 input  -60.11 | X-H torsion
[ 7974 7965 7964 7962 ] final  134.87 input  175.53 | X-H torsion
[ 8008 7997 7996 7995 ] final   91.51 input   59.86 | X-H torsion
[ 10167 10162 10161 10158 ] final  -48.97 input  -65.29 | X-H torsion
[ 10718 10713 10712 10709 ] final   -3.07 input   66.30 | X-H torsion
[ 10763 10752 10751 10750 ] final -167.33 input  -60.55 | X-H torsion
[ 11005 11000 10999 10996 ] final  121.08 input  -57.11 | X-H torsion

> <Gold.Protein.ActiveResidues>
 VAL166  LYS551  ARG553  GLY616  TRP617  ASP618  TYR619  PRO620  LYS621  CYS622 
 ASP623  PHE694  ASN695  SER759  ASP760  ASP761  ALA762  ILE779  LEU786  VAL792 
 PHE793  MET794  SER795  GLU796  ALA797  LYS798  CYS799  TRP800  GLU811  SER814 

> <Gold.Protein.RotatedAtoms>
  152.5399  134.0492  159.8101 H   0  0  0  0  0  0  0  0  0  0  0  0  # atno 6907 bound_to 6896
  151.0636  133.5516  159.2639 H   0  0  0  0  0  0  0  0  0  0  0  0  # atno 6908 bound_to 6896
  151.2406  135.0595  159.9077 H   0  0  0  0  0  0  0  0  0  0  0  0  # atno 6909 bound_to 6896
  144.9720  139.4595  143.5428 H   0  0  0  0  0  0  0  0  0  0  0  0  # atno 7974 bound_to 7965
  156.0246  140.3337  155.7075 H   0  0  0  0  0  0  0  0  0  0  0  0  # atno 8008 bound_to 7997
  155.5973  140.0652  157.2760 H   0  0  0  0  0  0  0  0  0  0  0  0  # atno 8009 bound_to 7997
  154.4329  140.1816  156.1124 H   0  0  0  0  0  0  0  0  0  0  0  0  # atno 8010 bound_to 7997
  140.6706  143.2717  151.4148 H   0  0  0  0  0  0  0  0  0  0  0  0  # atno 10167 bound_to 10162
  156.7815  130.5332  149.5750 H   0  0  0  0  0  0  0  0  0  0  0  0  # atno 10718 bound_to 10713
  154.6743  135.2944  154.9700 H   0  0  0  0  0  0  0  0  0  0  0  0  # atno 10763 bound_to 10752
  154.0716  135.6617  153.4829 H   0  0  0  0  0  0  0  0  0  0  0  0  # atno 10764 bound_to 10752
  153.0506  135.5176  154.7754 H   0  0  0  0  0  0  0  0  0  0  0  0  # atno 10765 bound_to 10752
  139.9211  134.9637  156.7904 H   0  0  0  0  0  0  0  0  0  0  0  0  # atno 11005 bound_to 11000
  146.3385  139.8939  142.8805 LP  0  0  0  0  0  0  0  0  0  0  0  0  # atno 17320 bound_to 7965
  145.2544  141.0055  143.3862 LP  0  0  0  0  0  0  0  0  0  0  0  0  # atno 17321 bound_to 7965
  139.5973  144.1369  152.2159 LP  0  0  0  0  0  0  0  0  0  0  0  0  # atno 17342 bound_to 10162
  140.0743  144.5754  150.7169 LP  0  0  0  0  0  0  0  0  0  0  0  0  # atno 17343 bound_to 10162
  156.1215  130.6113  151.0200 LP  0  0  0  0  0  0  0  0  0  0  0  0  # atno 17370 bound_to 10713
  157.6644  131.0874  150.7763 LP  0  0  0  0  0  0  0  0  0  0  0  0  # atno 17371 bound_to 10713
  140.6472  133.9765  155.7736 LP  0  0  0  0  0  0  0  0  0  0  0  0  # atno 17394 bound_to 11000
  141.0732  134.0174  157.3495 LP  0  0  0  0  0  0  0  0  0  0  0  0  # atno 17395 bound_to 11000

$$$$
