#       Name:                AV-unprocessed.smi:970
#       Creating user name   scv26
#       Creation time:       Fri Mar 27 02:19:44 2020


#       File generated by GOLD software.
#

@<TRIPOS>MOLECULE
AV-unprocessed.smi:970
    37    37     1
SMALL
NO_CHARGES


@<TRIPOS>ATOM
      1 ****        -3.4956   3.1469  -1.1973 C.3            1 S1                 0.0000
      2 ****        -2.9872   1.8174  -0.8968 N.am           1 S1                 0.0000
      3 ****        -1.9857   1.5691  -0.0408 C.2            1 S1                 0.0000
      4 ****        -1.3990   2.4551   0.5835 O.2            1 S1                 0.0000
      5 ****        -1.6046   0.0920   0.1503 C.3            1 S1                 0.0000
      6 ****        -2.2499  -0.3996   1.4566 C.3            1 S1                 0.0000
      7 ****        -0.1562  -0.0500   0.2846 N.am           1 S1                 0.0000
      8 ****         0.7157  -0.1354  -0.7343 C.2            1 S1                 0.0000
      9 ****         0.3674  -0.1026  -1.9155 O.2            1 S1                 0.0000
     10 ****         2.2014  -0.2638  -0.3524 C.3            1 S1                 0.0000
     11 ****         3.1447  -0.2405  -1.5722 C.3            1 S1                 0.0000
     12 ****         2.4251  -1.4431   0.4761 N.pl3          1 S1                 0.0000
     13 ****         2.6433  -1.5409   1.7893 C.2            1 S1                 0.0000
     14 ****         2.7703  -2.7871   2.2228 N.2            1 S1                 0.0000
     15 ****         2.6020  -3.4567   1.0441 C.2            1 S1                 0.0000
     16 ****         2.3864  -2.7003  -0.0319 N.2            1 S1                 0.0000
     17 ****        -4.2803   3.0839  -1.9510 H              1 S1                 0.0000
     18 ****        -2.7030   3.7894  -1.5834 H              1 S1                 0.0000
     19 ****        -3.9165   3.6109  -0.3043 H              1 S1                 0.0000
     20 ****        -3.4211   1.0378  -1.3700 H              1 S1                 0.0000
     21 ****        -1.9674  -0.5078  -0.6869 H              1 S1                 0.0000
     22 ****        -3.3373  -0.3265   1.4127 H              1 S1                 0.0000
     23 ****        -1.9118   0.1751   2.3204 H              1 S1                 0.0000
     24 ****        -2.0038  -1.4457   1.6417 H              1 S1                 0.0000
     25 ****         0.2106  -0.0747   1.2248 H              1 S1                 0.0000
     26 ****         2.4406   0.6078   0.2590 H              1 S1                 0.0000
     27 ****         3.0294   0.6814  -2.1433 H              1 S1                 0.0000
     28 ****         2.9572  -1.0753  -2.2486 H              1 S1                 0.0000
     29 ****         4.1867  -0.2988  -1.2570 H              1 S1                 0.0000
     30 ****         2.7059  -0.6828   2.4424 H              1 S1                 0.0000
     31 ****         2.6342  -4.5342   0.9778 H              1 S1                 0.0000
     32 ****        -1.6646   3.4116   0.4626 LP             1 S1                 0.0000
     33 ****        -0.6575   2.2175   1.2109 LP             1 S1                 0.0000
     34 ****        -0.6005  -0.0090  -2.1490 LP             1 S1                 0.0000
     35 ****         1.0525  -0.1697  -2.6409 LP             1 S1                 0.0000
     36 ****         2.9399  -3.1357   3.1446 LP             1 S1                 0.0000
     37 ****         2.2341  -2.9878  -0.9775 LP             1 S1                 0.0000
@<TRIPOS>BOND
    1    1    2 1     
    2    1   17 1     
    3    1   18 1     
    4    1   19 1     
    5    2    3 am    
    6    2   20 1     
    7    3    4 2     
    8    3    5 1     
    9    5    6 1     
   10    5    7 1     
   11    5   21 1     
   12    6   22 1     
   13    6   23 1     
   14    6   24 1     
   15    7    8 am    
   16    7   25 1     
   17    8    9 2     
   18    8   10 1     
   19   10   11 1     
   20   10   12 1     
   21   10   26 1     
   22   11   27 1     
   23   11   28 1     
   24   11   29 1     
   25   12   16 1     
   26   12   13 1     
   27   13   14 2     
   28   13   30 1     
   29   14   15 1     
   30   15   16 2     
   31   15   31 1     
   32    4   32 1     
   33    4   33 1     
   34    9   34 1     
   35    9   35 1     
   36   14   36 1     
   37   16   37 1     
@<TRIPOS>SUBSTRUCTURE
      1 S1             1
@<TRIPOS>SET
LONE_PAIRS      STATIC     ATOMS    <user>   **** ""
6 32 33 34 35 36 37
DONOR_HYDROGENS      STATIC     ATOMS    <user>   **** ""
2 20 25
ATOM$BLUE        STATIC     ATOMS    COLORGROUP SYSTEM
6 32 33 34 35 36 37
ATOM$RED        STATIC     ATOMS    COLORGROUP SYSTEM
2 20 25
