#       Name:                AV-unprocessed.smi:2638
#       Creating user name   scv26
#       Creation time:       Fri Mar 27 14:27:30 2020


#       File generated by GOLD software.
#

@<TRIPOS>MOLECULE
AV-unprocessed.smi:2638
    48    49     1
SMALL
NO_CHARGES


@<TRIPOS>ATOM
      1 ****         0.8865   0.2024  -1.3349 O.2            1 S1                 0.0000
      2 ****         0.1967  -0.7702  -1.0298 C.2            1 S1                 0.0000
      3 ****        -0.3992  -1.6026  -1.9014 N.am           1 S1                 0.0000
      4 ****        -0.3883  -1.5536  -3.3210 C.ar           1 S1                 0.0000
      5 ****         0.7500  -1.0780  -4.0226 C.ar           1 S1                 0.0000
      6 ****         0.7384  -1.0657  -5.4308 C.ar           1 S1                 0.0000
      7 ****        -0.4008  -1.5399  -6.1046 C.ar           1 S1                 0.0000
      8 ****        -1.4770  -2.0131  -5.3326 C.ar           1 S1                 0.0000
      9 ****        -1.4698  -2.0263  -3.9827 N.ar           1 S1                 0.0000
     10 ****        -0.0712  -1.1285   0.2371 N.am           1 S1                 0.0000
     11 ****         0.3977  -0.4755   1.4661 C.3            1 S1                 0.0000
     12 ****         1.9397  -0.5781   1.6035 C.3            1 S1                 0.0000
     13 ****         2.4894  -2.0088   1.4641 C.3            1 S1                 0.0000
     14 ****         3.8808  -2.0116   1.6990 O.3            1 S1                 0.0000
     15 ****        -0.1683   0.9702   1.6195 C.3            1 S1                 0.0000
     16 ****         0.1973   1.6085   2.9825 C.3            1 S1                 0.0000
     17 ****        -0.3799   3.0248   3.1415 C.3            1 S1                 0.0000
     18 ****        -1.9010   3.0353   2.9471 C.3            1 S1                 0.0000
     19 ****        -2.2747   2.4351   1.5866 C.3            1 S1                 0.0000
     20 ****        -1.7066   1.0162   1.4299 C.3            1 S1                 0.0000
     21 ****        -1.0151  -2.2946  -1.5010 H              1 S1                 0.0000
     22 ****         1.6342  -0.7351  -3.5071 H              1 S1                 0.0000
     23 ****         1.5927  -0.7044  -5.9841 H              1 S1                 0.0000
     24 ****        -0.4460  -1.5470  -7.1836 H              1 S1                 0.0000
     25 ****        -2.3671  -2.3941  -5.8109 H              1 S1                 0.0000
     26 ****        -0.6579  -1.9392   0.3696 H              1 S1                 0.0000
     27 ****        -0.0283  -1.0700   2.2752 H              1 S1                 0.0000
     28 ****         2.4250   0.0724   0.8749 H              1 S1                 0.0000
     29 ****         2.2427  -0.2098   2.5827 H              1 S1                 0.0000
     30 ****         2.0086  -2.6760   2.1800 H              1 S1                 0.0000
     31 ****         2.3068  -2.4103   0.4671 H              1 S1                 0.0000
     32 ****         4.1992  -2.8970   1.6109 H              1 S1                 0.0000
     33 ****         0.2775   1.5941   0.8438 H              1 S1                 0.0000
     34 ****        -0.1636   0.9754   3.7941 H              1 S1                 0.0000
     35 ****         1.2778   1.6769   3.0997 H              1 S1                 0.0000
     36 ****        -0.1296   3.4186   4.1269 H              1 S1                 0.0000
     37 ****         0.0864   3.6923   2.4156 H              1 S1                 0.0000
     38 ****        -2.3779   2.4645   3.7448 H              1 S1                 0.0000
     39 ****        -2.2809   4.0545   3.0235 H              1 S1                 0.0000
     40 ****        -3.3592   2.4146   1.4757 H              1 S1                 0.0000
     41 ****        -1.8941   3.0716   0.7867 H              1 S1                 0.0000
     42 ****        -1.9881   0.6460   0.4443 H              1 S1                 0.0000
     43 ****        -2.1842   0.3541   2.1532 H              1 S1                 0.0000
     44 ****         1.0397   0.4245  -2.2978 LP             1 S1                 0.0000
     45 ****         1.2939   0.7706  -0.6198 LP             1 S1                 0.0000
     46 ****        -2.2557  -2.3818  -3.4769 LP             1 S1                 0.0000
     47 ****         4.0674  -1.6767   2.6226 LP             1 S1                 0.0000
     48 ****         4.3364  -1.4217   1.0323 LP             1 S1                 0.0000
@<TRIPOS>BOND
    1    1    2 2     
    2    2    3 am    
    3    2   10 am    
    4    3    4 1     
    5    3   21 1     
    6    4    9 ar    
    7    4    5 ar    
    8    5    6 ar    
    9    5   22 1     
   10    6    7 ar    
   11    6   23 1     
   12    7    8 ar    
   13    7   24 1     
   14    8    9 ar    
   15    8   25 1     
   16   10   11 1     
   17   10   26 1     
   18   11   12 1     
   19   11   15 1     
   20   11   27 1     
   21   12   13 1     
   22   12   28 1     
   23   12   29 1     
   24   13   14 1     
   25   13   30 1     
   26   13   31 1     
   27   14   32 1     
   28   15   20 1     
   29   15   16 1     
   30   15   33 1     
   31   16   17 1     
   32   16   34 1     
   33   16   35 1     
   34   17   18 1     
   35   17   36 1     
   36   17   37 1     
   37   18   19 1     
   38   18   38 1     
   39   18   39 1     
   40   19   20 1     
   41   19   40 1     
   42   19   41 1     
   43   20   42 1     
   44   20   43 1     
   45    1   44 1     
   46    1   45 1     
   47    9   46 1     
   48   14   47 1     
   49   14   48 1     
@<TRIPOS>SUBSTRUCTURE
      1 S1             1
@<TRIPOS>SET
LONE_PAIRS      STATIC     ATOMS    <user>   **** ""
5 44 45 46 47 48
DONOR_HYDROGENS      STATIC     ATOMS    <user>   **** ""
3 21 26 32
ATOM$BLUE        STATIC     ATOMS    COLORGROUP SYSTEM
5 44 45 46 47 48
ATOM$RED        STATIC     ATOMS    COLORGROUP SYSTEM
3 21 26 32
