#       Name:                AV-unprocessed.smi:465
#       Creating user name   scv26
#       Creation time:       Thu Mar 26 23:04:44 2020


#       File generated by GOLD software.
#

@<TRIPOS>MOLECULE
AV-unprocessed.smi:465
    47    49     1
SMALL
NO_CHARGES


@<TRIPOS>ATOM
      1 ****        -6.0830   3.2605  -0.2570 C.3            1 S1                 0.0000
      2 ****        -4.6273   2.8539  -0.1568 C.ar           1 S1                 0.0000
      3 ****        -3.6335   3.8160   0.1105 C.ar           1 S1                 0.0000
      4 ****        -2.2831   3.4283   0.2060 C.ar           1 S1                 0.0000
      5 ****        -1.9040   2.0805   0.0391 C.ar           1 S1                 0.0000
      6 ****        -0.5615   1.7889   0.1534 O.3            1 S1                 0.0000
      7 ****        -0.1555   0.4342   0.0201 C.3            1 S1                 0.0000
      8 ****         1.3609   0.3525   0.2308 C.3            1 S1                 0.0000
      9 ****         1.8400  -1.0172   0.1280 N.pl3          1 S1                 0.0000
     10 ****         2.2674  -1.6847  -0.9745 C.2            1 S1                 0.0000
     11 ****         2.3202  -1.0553  -2.3366 C.3            1 S1                 0.0000
     12 ****         3.7315  -0.6004  -2.7417 C.3            1 S1                 0.0000
     13 ****         4.1225   0.5441  -2.0130 O.3            1 S1                 0.0000
     14 ****         2.6482  -2.9474  -0.7744 N.2            1 S1                 0.0000
     15 ****         2.4446  -3.1169   0.5810 C.ar           1 S1                 0.0000
     16 ****         2.6563  -4.2436   1.4078 C.ar           1 S1                 0.0000
     17 ****         2.3676  -4.1812   2.7868 C.ar           1 S1                 0.0000
     18 ****         1.8641  -2.9943   3.3576 C.ar           1 S1                 0.0000
     19 ****         1.6465  -1.8602   2.5517 C.ar           1 S1                 0.0000
     20 ****         1.9374  -1.9274   1.1758 C.ar           1 S1                 0.0000
     21 ****        -2.9093   1.1179  -0.2315 C.ar           1 S1                 0.0000
     22 ****        -4.2602   1.5048  -0.3271 C.ar           1 S1                 0.0000
     23 ****        -6.1880   4.3432  -0.3317 H              1 S1                 0.0000
     24 ****        -6.6285   2.9236   0.6246 H              1 S1                 0.0000
     25 ****        -6.5441   2.8137  -1.1382 H              1 S1                 0.0000
     26 ****        -3.9016   4.8537   0.2447 H              1 S1                 0.0000
     27 ****        -1.5293   4.1740   0.4120 H              1 S1                 0.0000
     28 ****        -0.6615  -0.1859   0.7620 H              1 S1                 0.0000
     29 ****        -0.4145   0.0597  -0.9715 H              1 S1                 0.0000
     30 ****         1.8855   0.9803  -0.4884 H              1 S1                 0.0000
     31 ****         1.6218   0.7383   1.2166 H              1 S1                 0.0000
     32 ****         1.9747  -1.8003  -3.0542 H              1 S1                 0.0000
     33 ****         1.6111  -0.2312  -2.4117 H              1 S1                 0.0000
     34 ****         4.4588  -1.4003  -2.5986 H              1 S1                 0.0000
     35 ****         3.7444  -0.3405  -3.8004 H              1 S1                 0.0000
     36 ****         4.9901   0.7962  -2.2902 H              1 S1                 0.0000
     37 ****         3.0402  -5.1579   0.9799 H              1 S1                 0.0000
     38 ****         2.5327  -5.0482   3.4095 H              1 S1                 0.0000
     39 ****         1.6448  -2.9553   4.4147 H              1 S1                 0.0000
     40 ****         1.2598  -0.9502   2.9858 H              1 S1                 0.0000
     41 ****        -2.6706   0.0744  -0.3692 H              1 S1                 0.0000
     42 ****        -5.0159   0.7604  -0.5311 H              1 S1                 0.0000
     43 ****        -0.2665   2.0994   1.0570 LP             1 S1                 0.0000
     44 ****        -0.0832   2.3126  -0.5516 LP             1 S1                 0.0000
     45 ****         4.1287   0.3350  -1.0351 LP             1 S1                 0.0000
     46 ****         3.4819   1.2913  -2.1900 LP             1 S1                 0.0000
     47 ****         2.9951  -3.6076  -1.4406 LP             1 S1                 0.0000
@<TRIPOS>BOND
    1    1    2 1     
    2    1   23 1     
    3    1   24 1     
    4    1   25 1     
    5    2   22 ar    
    6    2    3 ar    
    7    3    4 ar    
    8    3   26 1     
    9    4    5 ar    
   10    4   27 1     
   11    5    6 1     
   12    5   21 ar    
   13    6    7 1     
   14    7    8 1     
   15    7   28 1     
   16    7   29 1     
   17    8    9 1     
   18    8   30 1     
   19    8   31 1     
   20    9   20 1     
   21    9   10 1     
   22   10   11 1     
   23   10   14 2     
   24   11   12 1     
   25   11   32 1     
   26   11   33 1     
   27   12   13 1     
   28   12   34 1     
   29   12   35 1     
   30   13   36 1     
   31   14   15 1     
   32   15   20 ar    
   33   15   16 ar    
   34   16   17 ar    
   35   16   37 1     
   36   17   18 ar    
   37   17   38 1     
   38   18   19 ar    
   39   18   39 1     
   40   19   20 ar    
   41   19   40 1     
   42   21   22 ar    
   43   21   41 1     
   44   22   42 1     
   45    6   43 1     
   46    6   44 1     
   47   13   45 1     
   48   13   46 1     
   49   14   47 1     
@<TRIPOS>SUBSTRUCTURE
      1 S1             1
@<TRIPOS>SET
LONE_PAIRS      STATIC     ATOMS    <user>   **** ""
5 43 44 45 46 47
DONOR_HYDROGENS      STATIC     ATOMS    <user>   **** ""
1 36
ATOM$BLUE        STATIC     ATOMS    COLORGROUP SYSTEM
5 43 44 45 46 47
ATOM$RED        STATIC     ATOMS    COLORGROUP SYSTEM
1 36
