AV-unprocessed.smi:1828|AV-procd|sdf|7427|dock2
  -GOLD-   22720 9113D 1   1.00000     0.00000
 Structure written by MMmdl.
 40 42  0  0  0  0  0  0  0  0  2 V2000
  151.3987  136.3303  154.4313 O   0  0  0  0  0  0  0  0  0  0  0  0
  151.8593  137.6631  154.4552 C   0  0  0  0  0  0  0  0  0  0  0  0
  150.7402  138.6512  154.4308 C   0  0  0  0  0  0  0  0  0  0  0  0
  149.5424  138.4866  153.8021 N   0  3  0  0  0  0  0  0  0  0  0  0
  148.7434  139.6123  154.0054 C   0  0  0  0  0  0  0  0  0  0  0  0
  147.4552  139.9050  153.5681 C   0  0  0  0  0  0  0  0  0  0  0  0
  146.9246  141.1538  153.9532 C   0  0  0  0  0  0  0  0  0  0  0  0
  147.6687  142.0559  154.7409 C   0  0  0  0  0  0  0  0  0  0  0  0
  148.9738  141.7478  155.1782 C   0  0  0  0  0  0  0  0  0  0  0  0
  149.4909  140.5098  154.7957 C   0  0  0  0  0  0  0  0  0  0  0  0
  150.7155  139.8741  155.0350 N   0  0  0  0  0  0  0  0  0  0  0  0
  151.7410  140.5464  155.8499 C   0  0  0  0  0  0  0  0  0  0  0  0
  152.0414  139.8102  157.1710 C   0  0  1  0  0  0  0  0  0  0  0  0
  153.1348  138.9291  157.0013 O   0  0  0  0  0  0  0  0  0  0  0  0
  152.2648  140.7947  158.3084 C   0  0  0  0  0  0  0  0  0  0  0  0
  152.8468  140.3533  159.5154 C   0  0  0  0  0  0  0  0  0  0  0  0
  153.0463  141.2557  160.5769 C   0  0  0  0  0  0  0  0  0  0  0  0
  152.6645  142.6033  160.4375 C   0  0  0  0  0  0  0  0  0  0  0  0
  152.0794  143.0584  159.2371 C   0  0  0  0  0  0  0  0  0  0  0  0
  151.6715  144.5188  159.1115 C   0  0  0  0  0  0  0  0  0  0  0  0
  151.9358  145.2095  160.2212 F   0  0  0  0  0  0  0  0  0  0  0  0
  152.3322  145.0770  158.0978 F   0  0  0  0  0  0  0  0  0  0  0  0
  150.3635  144.5980  158.8671 F   0  0  0  0  0  0  0  0  0  0  0  0
  151.8795  142.1474  158.1760 C   0  0  0  0  0  0  0  0  0  0  0  0
  151.1402  136.1159  153.5479 H   0  0  0  0  0  0  0  0  0  0  0  0
  152.4618  137.8181  155.3501 H   0  0  0  0  0  0  0  0  0  0  0  0
  152.5104  137.8286  153.5964 H   0  0  0  0  0  0  0  0  0  0  0  0
  146.8838  139.2162  152.9633 H   0  0  0  0  0  0  0  0  0  0  0  0
  145.9281  141.4257  153.6365 H   0  0  0  0  0  0  0  0  0  0  0  0
  147.2307  143.0047  155.0146 H   0  0  0  0  0  0  0  0  0  0  0  0
  149.5360  142.4499  155.7759 H   0  0  0  0  0  0  0  0  0  0  0  0
  152.6449  140.6791  155.2553 H   0  0  0  0  0  0  0  0  0  0  0  0
  151.3733  141.5509  156.0628 H   0  0  0  0  0  0  0  0  0  0  0  0
  151.1834  139.1874  157.4270 H   0  0  0  0  0  0  0  0  0  0  0  0
  153.0612  138.5218  156.1516 H   0  0  0  0  0  0  0  0  0  0  0  0
  153.1402  139.3204  159.6331 H   0  0  0  0  0  0  0  0  0  0  0  0
  153.4916  140.9135  161.4996 H   0  0  0  0  0  0  0  0  0  0  0  0
  152.8196  143.2908  161.2561 H   0  0  0  0  0  0  0  0  0  0  0  0
  151.4264  142.4805  157.2539 H   0  0  0  0  0  0  0  0  0  0  0  0
  149.2911  137.6598  153.2759 H   0  0  0  0  0  0  0  0  0  0  0  0
  1  2  1  0  0  0  0
  1 25  1  0  0  0  0
  2  3  1  0  0  0  0
  2 26  1  0  0  0  0
  2 27  1  0  0  0  0
  3 11  1  0  0  0  0
  3  4  2  0  0  0  0
  4  5  1  0  0  0  0
  4 40  1  0  0  0  0
  5 10  2  0  0  0  0
  5  6  1  0  0  0  0
  6  7  2  0  0  0  0
  6 28  1  0  0  0  0
  7  8  1  0  0  0  0
  7 29  1  0  0  0  0
  8  9  2  0  0  0  0
  8 30  1  0  0  0  0
  9 10  1  0  0  0  0
  9 31  1  0  0  0  0
 10 11  1  0  0  0  0
 11 12  1  0  0  0  0
 12 13  1  0  0  0  0
 12 32  1  0  0  0  0
 12 33  1  0  0  0  0
 13 14  1  0  0  0  0
 13 15  1  0  0  0  0
 13 34  1  0  0  0  0
 14 35  1  0  0  0  0
 15 24  1  0  0  0  0
 15 16  2  0  0  0  0
 16 17  1  0  0  0  0
 16 36  1  0  0  0  0
 17 18  2  0  0  0  0
 17 37  1  0  0  0  0
 18 19  1  0  0  0  0
 18 38  1  0  0  0  0
 19 20  1  0  0  0  0
 19 24  2  0  0  0  0
 20 21  1  0  0  0  0
 20 22  1  0  0  0  0
 20 23  1  0  0  0  0
 24 39  1  0  0  0  0
M  CHG  1   4   1
M  END
> <s_m_source_file>
AV-unprocessed.smi

> <i_m_source_file_index>
1828

> <i_lp_mmshare_version>
43012

> <i_f3d_flags>
0

> <s_epik_input>
W2NIXTFbY0hdW2NIXVtjSF1jKGMxMiluKGMobjIpW0NIMl1bT0hdKVtDSDJdW0NASF0oW09IXSljM1tjSF1bY0hdW2NIXWMoQyhGKShGKUYpW2NIXTM=

> <s_epik_cmdline>
J2VwaWtfcHl0aG9uJywgJy1waCcsICc3LjAnLCAnLXRuJywgJzgnLCAnLW1hJywgJzIwMCcsICctbWV0YWxfYmluZGluZycsICctaW1hZScsICc8aW5maWxlLm1hZT4nLCAnLW9tYWUnLCAnPG91dGZpbGUubWFlPic=

> <r_epik_Ionization_Penalty>
1.35643

> <r_epik_Ionization_Penalty_Charging>
1.35557

> <r_epik_Ionization_Penalty_Neutral>
0.000856502

> <r_epik_State_Penalty>
1.43401

> <r_epik_Charging_Adjusted_Penalty>
2.78958

> <i_epik_Tot_Q>
1

> <i_epik_Tot_abs_Q>
1

> <r_epik_Metal_State_Penalty>
5.47166

> <b_epik_Metal_Only>
0

> <s_lp_Force_Field>
OPLS_2005

> <r_lp_Energy>
16.2288

> <b_lp_Chiralities_Consistent>
1

> <s_lp_Variant>
AV-unprocessed.smi:1828-4

> <Gold.Version>
5.8.1

> <Gold.Id.Protein>
6NUR|6NUR_protein|mol2

> <Gold.PLP.Fitness>
68.9593

> <Gold.PLP.PLP>
-57.8395

> <Gold.PLP.part.hbond>
-4.9629

> <Gold.PLP.part.metal>
0.0000

> <Gold.PLP.part.buried>
0.0348

> <Gold.PLP.part.nonpolar>
-52.7521

> <Gold.PLP.part.repulsive>
0.0587

> <Gold.PLP.ligand.clash>
1.2737

> <Gold.PLP.ligand.torsion>
1.3208

> <Gold.PLP.Chemscore.Hbond>
5.0000

> <Gold.PLP.Chemscore.CHOScore>
0.0000

> <Gold.PLP.Chemscore.Metal>
0.0000

> <Gold.Chemscore.Hbonds>
donor molecule, donor type, donor heavy atom, donor atom, acceptor molecule, acceptor atom, score
      L1  H     1    25       P1  7949  0.94
      L1  H     4    40       P1  7948  2.00
      P1  H  7997  8010       L1    14  1.00
      P1  H 10752 10764       L1     1  0.85

> <Gold.PLP.Chemscore.Internal.Correction>
0.0352

> <Gold.Rescore>
     Score         DG    S(hbond)    S(metal)    S(lipo)     H(rot)  DE(clash)    DE(int)     intcor
     18.72     -22.05       2.68        0.00     130.43       2.98       2.09       1.24       ----

> <Gold.Chemscore.Fitness>
18.7154

> <Gold.Chemscore.DG>
-22.0479

> <Gold.Chemscore.ZeroCoef>
-5.4800

> <Gold.Chemscore.Hbond>
2.6772

> <Gold.Chemscore.Metal>
0.0000

> <Gold.Chemscore.Lipo>
130.4309

> <Gold.Chemscore.Internal_Hbond>
0.0000

> <Gold.Chemscore.DEClash>
2.0901

> <Gold.Chemscore.DEInternal>
1.2424

> <Gold.Chemscore.Rot>
2.9822

> <Gold.Chemscore.Internal.Correction>
   9.000000E+99

> <Gold.Chemscore.Hbonds>
donor molecule, donor type, donor heavy atom, donor atom, acceptor molecule, acceptor atom, score
      L1  H     1    25       P1  7949  0.31
      L1  H     4    40       P1  7948  0.94
      P1  H  7997  8010       L1    14  0.15
      P1  H 10752 10764       L1     1  0.05

> <Gold.Chemscore.Hbond.Weighted>
-8.9419

> <Gold.Chemscore.Metal.Weighted>
-0.0000

> <Gold.Chemscore.Lipo.Weighted>
-15.2604

> <Gold.Chemscore.Internal_Hbond.Weighted>
0.0000

> <Gold.Chemscore.DEClash.Weighted>
2.0901

> <Gold.Chemscore.DEInternal.Weighted>
1.2424

> <Gold.Chemscore.Rot.Weighted>
7.6343

> <Gold.Chemscore.Internal.Correction.Weighted>
   9.000000E+99

> <Gold.Protein.RotatedTorsions>
[ 6907 6896 6895 6894 ] final  -44.05 input  -60.11 | X-H torsion
[ 7974 7965 7964 7962 ] final  -98.07 input  175.53 | X-H torsion
[ 8008 7997 7996 7995 ] final   47.05 input   59.86 | X-H torsion
[ 10167 10162 10161 10158 ] final   28.26 input  -65.29 | X-H torsion
[ 10718 10713 10712 10709 ] final -110.20 input   66.30 | X-H torsion
[ 10763 10752 10751 10750 ] final  -61.34 input  -60.55 | X-H torsion
[ 11005 11000 10999 10996 ] final   61.90 input  -57.11 | X-H torsion

> <Gold.Protein.ActiveResidues>
 VAL166  LYS551  ARG553  GLY616  TRP617  ASP618  TYR619  PRO620  LYS621  CYS622 
 ASP623  PHE694  ASN695  SER759  ASP760  ASP761  ALA762  ILE779  LEU786  VAL792 
 PHE793  MET794  SER795  GLU796  ALA797  LYS798  CYS799  TRP800  GLU811  SER814 

> <Gold.Protein.RotatedAtoms>
  150.9371  134.8783  159.7588 H   0  0  0  0  0  0  0  0  0  0  0  0  # atno 6907 bound_to 6896
  152.5064  134.3995  159.9421 H   0  0  0  0  0  0  0  0  0  0  0  0  # atno 6908 bound_to 6896
  151.4018  133.3715  159.2768 H   0  0  0  0  0  0  0  0  0  0  0  0  # atno 6909 bound_to 6896
  145.3254  140.9430  143.2692 H   0  0  0  0  0  0  0  0  0  0  0  0  # atno 7974 bound_to 7965
  155.3626  140.3419  155.4241 H   0  0  0  0  0  0  0  0  0  0  0  0  # atno 8008 bound_to 7997
  156.1705  140.1630  156.8490 H   0  0  0  0  0  0  0  0  0  0  0  0  # atno 8009 bound_to 7997
  154.5228  140.0763  156.8187 H   0  0  0  0  0  0  0  0  0  0  0  0  # atno 8010 bound_to 7997
  140.4868  144.0530  150.6283 H   0  0  0  0  0  0  0  0  0  0  0  0  # atno 10167 bound_to 10162
  156.0578  130.5803  150.8204 H   0  0  0  0  0  0  0  0  0  0  0  0  # atno 10718 bound_to 10713
  154.2831  135.6268  153.5355 H   0  0  0  0  0  0  0  0  0  0  0  0  # atno 10763 bound_to 10752
  152.9863  135.5638  154.5473 H   0  0  0  0  0  0  0  0  0  0  0  0  # atno 10764 bound_to 10752
  154.5068  135.2875  155.1351 H   0  0  0  0  0  0  0  0  0  0  0  0  # atno 10765 bound_to 10752
  140.0129  134.6269  155.9753 H   0  0  0  0  0  0  0  0  0  0  0  0  # atno 11005 bound_to 11000
  144.8906  139.4780  143.6680 LP  0  0  0  0  0  0  0  0  0  0  0  0  # atno 17320 bound_to 7965
  146.3066  139.7601  142.9051 LP  0  0  0  0  0  0  0  0  0  0  0  0  # atno 17321 bound_to 7965
  140.3788  143.2814  152.0194 LP  0  0  0  0  0  0  0  0  0  0  0  0  # atno 17342 bound_to 10162
  139.4843  144.6171  151.7325 LP  0  0  0  0  0  0  0  0  0  0  0  0  # atno 17343 bound_to 10162
  157.5562  131.0945  150.9625 LP  0  0  0  0  0  0  0  0  0  0  0  0  # atno 17370 bound_to 10713
  156.9874  130.5550  149.5300 LP  0  0  0  0  0  0  0  0  0  0  0  0  # atno 17371 bound_to 10713
  141.1723  133.6538  156.4698 LP  0  0  0  0  0  0  0  0  0  0  0  0  # atno 17394 bound_to 11000
  140.4522  134.6918  157.5045 LP  0  0  0  0  0  0  0  0  0  0  0  0  # atno 17395 bound_to 11000

$$$$
