AV-unprocessed.smi:652|AV-procd|sdf|3192|dock5
  -GOLD-   22720 0113D 1   1.00000     0.00000
 Structure written by MMmdl.
 48 49  0  0  0  0  0  0  0  0  2 V2000
  144.0799  132.5019  150.6107 C   0  0  0  0  0  0  0  0  0  0  0  0
  145.4211  133.2440  150.6814 C   0  0  0  0  0  0  0  0  0  0  0  0
  146.3875  132.5798  151.6746 C   0  0  0  0  0  0  0  0  0  0  0  0
  145.1865  134.6370  151.0517 N   0  0  0  0  0  0  0  0  0  0  0  0
  144.5943  135.0534  152.1824 C   0  0  0  0  0  0  0  0  0  0  0  0
  144.1603  134.2861  153.0416 O   0  0  0  0  0  0  0  0  0  0  0  0
  144.4668  136.5677  152.3678 C   0  0  0  0  0  0  0  0  0  0  0  0
  145.8374  137.2577  152.5268 C   0  0  0  0  0  0  0  0  0  0  0  0
  145.7521  138.5328  153.2824 N   0  3  1  0  0  0  0  0  0  0  0  0
  145.2889  138.3295  154.6760 C   0  0  0  0  0  0  0  0  0  0  0  0
  145.1772  139.6756  155.4100 C   0  0  0  0  0  0  0  0  0  0  0  0
  146.4309  140.3447  155.3678 O   0  0  0  0  0  0  0  0  0  0  0  0
  146.8363  140.6432  154.0359 C   0  0  1  0  0  0  0  0  0  0  0  0
  148.1502  141.4344  154.0920 C   0  0  0  0  0  0  0  0  0  0  0  0
  149.3117  140.5558  154.1202 N   0  0  0  0  0  0  0  0  0  0  0  0
  150.1491  140.5237  155.2435 C   0  0  0  0  0  0  0  0  0  0  0  0
  149.6402  140.9451  156.4881 C   0  0  0  0  0  0  0  0  0  0  0  0
  150.5068  140.9057  157.5942 C   0  0  0  0  0  0  0  0  0  0  0  0
  151.8183  140.4481  157.3711 C   0  0  0  0  0  0  0  0  0  0  0  0
  152.2544  140.0550  156.1532 N   0  0  0  0  0  0  0  0  0  0  0  0
  151.4282  140.0928  155.1018 N   0  0  0  0  0  0  0  0  0  0  0  0
  147.0108  139.3185  153.2679 C   0  0  0  0  0  0  0  0  0  0  0  0
  144.2222  131.4649  150.3053 H   0  0  0  0  0  0  0  0  0  0  0  0
  143.4103  132.9677  149.8865 H   0  0  0  0  0  0  0  0  0  0  0  0
  143.5751  132.4969  151.5774 H   0  0  0  0  0  0  0  0  0  0  0  0
  145.8695  133.2093  149.6867 H   0  0  0  0  0  0  0  0  0  0  0  0
  146.5794  131.5426  151.3984 H   0  0  0  0  0  0  0  0  0  0  0  0
  145.9827  132.5843  152.6872 H   0  0  0  0  0  0  0  0  0  0  0  0
  147.3484  133.0947  151.6972 H   0  0  0  0  0  0  0  0  0  0  0  0
  145.5054  135.3380  150.3984 H   0  0  0  0  0  0  0  0  0  0  0  0
  143.9198  136.9878  151.5235 H   0  0  0  0  0  0  0  0  0  0  0  0
  143.8575  136.7440  153.2550 H   0  0  0  0  0  0  0  0  0  0  0  0
  146.5106  136.5892  153.0664 H   0  0  0  0  0  0  0  0  0  0  0  0
  146.2945  137.4348  151.5518 H   0  0  0  0  0  0  0  0  0  0  0  0
  144.3189  137.8307  154.6767 H   0  0  0  0  0  0  0  0  0  0  0  0
  145.9869  137.6753  155.2010 H   0  0  0  0  0  0  0  0  0  0  0  0
  144.4008  140.3005  154.9659 H   0  0  0  0  0  0  0  0  0  0  0  0
  144.8980  139.5134  156.4513 H   0  0  0  0  0  0  0  0  0  0  0  0
  146.0733  141.2497  153.5439 H   0  0  0  0  0  0  0  0  0  0  0  0
  148.2214  142.1114  153.2394 H   0  0  0  0  0  0  0  0  0  0  0  0
  148.1608  142.0491  154.9929 H   0  0  0  0  0  0  0  0  0  0  0  0
  149.5930  140.0847  153.2724 H   0  0  0  0  0  0  0  0  0  0  0  0
  148.6212  141.2874  156.5947 H   0  0  0  0  0  0  0  0  0  0  0  0
  150.1804  141.2144  158.5762 H   0  0  0  0  0  0  0  0  0  0  0  0
  152.5304  140.3963  158.1812 H   0  0  0  0  0  0  0  0  0  0  0  0
  147.8144  138.7285  153.7118 H   0  0  0  0  0  0  0  0  0  0  0  0
  147.3058  139.5400  152.2429 H   0  0  0  0  0  0  0  0  0  0  0  0
  145.0463  139.0940  152.8271 H   0  0  0  0  0  0  0  0  0  0  0  0
  1  2  1  0  0  0  0
  1 23  1  0  0  0  0
  1 24  1  0  0  0  0
  1 25  1  0  0  0  0
  2  3  1  0  0  0  0
  2  4  1  0  0  0  0
  2 26  1  0  0  0  0
  3 27  1  0  0  0  0
  3 28  1  0  0  0  0
  3 29  1  0  0  0  0
  4  5  1  0  0  0  0
  4 30  1  0  0  0  0
  5  6  2  0  0  0  0
  5  7  1  0  0  0  0
  7  8  1  0  0  0  0
  7 31  1  0  0  0  0
  7 32  1  0  0  0  0
  8  9  1  0  0  0  0
  8 33  1  0  0  0  0
  8 34  1  0  0  0  0
  9 22  1  0  0  0  0
  9 10  1  0  0  0  0
  9 48  1  0  0  0  0
 10 11  1  0  0  0  0
 10 35  1  0  0  0  0
 10 36  1  0  0  0  0
 11 12  1  0  0  0  0
 11 37  1  0  0  0  0
 11 38  1  0  0  0  0
 12 13  1  0  0  0  0
 13 14  1  0  0  0  0
 13 22  1  0  0  0  0
 13 39  1  0  0  0  0
 14 15  1  0  0  0  0
 14 40  1  0  0  0  0
 14 41  1  0  0  0  0
 15 16  1  0  0  0  0
 15 42  1  0  0  0  0
 16 21  1  0  0  0  0
 16 17  2  0  0  0  0
 17 18  1  0  0  0  0
 17 43  1  0  0  0  0
 18 19  2  0  0  0  0
 18 44  1  0  0  0  0
 19 20  1  0  0  0  0
 19 45  1  0  0  0  0
 20 21  2  0  0  0  0
 22 46  1  0  0  0  0
 22 47  1  0  0  0  0
M  CHG  1   9   1
M  END
> <s_m_source_file>
AV-unprocessed.smi

> <i_m_source_file_index>
652

> <i_lp_mmshare_version>
43012

> <i_f3d_flags>
0

> <s_epik_input>
W0NIM11bQ0hdKFtDSDNdKVtOSF1DKD1PKVtDSDJdW0NIMl1OMVtDSDJdW0NIMl1PW0NASF0oW0NIMl0xKVtDSDJdW05IXWMyW2NIXVtjSF1bY0hdbm4y

> <s_epik_cmdline>
J2VwaWtfcHl0aG9uJywgJy1waCcsICc3LjAnLCAnLXRuJywgJzgnLCAnLW1hJywgJzIwMCcsICctbWV0YWxfYmluZGluZycsICctaW1hZScsICc8aW5maWxlLm1hZT4nLCAnLW9tYWUnLCAnPG91dGZpbGUubWFlPic=

> <r_lp_tautomer_probability>
0.999978

> <r_epik_Ionization_Penalty>
0.433079

> <r_epik_Ionization_Penalty_Charging>
0.413784

> <r_epik_Ionization_Penalty_Neutral>
0.0192945

> <r_epik_State_Penalty>
0.425138

> <r_epik_Charging_Adjusted_Penalty>
0.838922

> <i_epik_Tot_Q>
1

> <i_epik_Tot_abs_Q>
1

> <r_epik_Metal_State_Penalty>
0.422073

> <b_epik_Metal_Only>
0

> <s_lp_Force_Field>
OPLS_2005

> <r_lp_Energy>
21.6039

> <b_lp_Chiralities_Consistent>
1

> <s_lp_Variant>
AV-unprocessed.smi:652-1

> <Gold.Version>
5.8.1

> <Gold.Id.Protein>
6NUR|6NUR_protein|mol2

> <Gold.PLP.Fitness>
46.0660

> <Gold.PLP.PLP>
-33.0642

> <Gold.PLP.part.hbond>
-4.0000

> <Gold.PLP.part.metal>
0.0000

> <Gold.PLP.part.buried>
-4.3856

> <Gold.PLP.part.nonpolar>
-25.0491

> <Gold.PLP.part.repulsive>
0.5528

> <Gold.PLP.ligand.clash>
0.0733

> <Gold.PLP.ligand.torsion>
0.6649

> <Gold.PLP.Chemscore.Hbond>
4.7675

> <Gold.PLP.Chemscore.CHOScore>
0.0000

> <Gold.PLP.Chemscore.Metal>
0.0000

> <Gold.Chemscore.Hbonds>
donor molecule, donor type, donor heavy atom, donor atom, acceptor molecule, acceptor atom, score
      L1  H     9    48       P1 10175  2.00
      L1  H    15    42       P1  7957  0.78
      P1  H  7989  7998       L1    21  0.70
      P1  H  7997  8009       L1    20  0.86

> <Gold.PLP.Chemscore.Internal.Correction>
0.1024

> <Gold.Rescore>
     Score         DG    S(hbond)    S(metal)    S(lipo)     H(rot)  DE(clash)    DE(int)     intcor
     15.67     -17.44       2.78        0.00      72.39       2.26       0.05       1.72       ----

> <Gold.Chemscore.Fitness>
15.6732

> <Gold.Chemscore.DG>
-17.4422

> <Gold.Chemscore.ZeroCoef>
-5.4800

> <Gold.Chemscore.Hbond>
2.7776

> <Gold.Chemscore.Metal>
0.0000

> <Gold.Chemscore.Lipo>
72.3864

> <Gold.Chemscore.Internal_Hbond>
0.0000

> <Gold.Chemscore.DEClash>
0.0455

> <Gold.Chemscore.DEInternal>
1.7235

> <Gold.Chemscore.Rot>
2.2594

> <Gold.Chemscore.Internal.Correction>
   9.000000E+99

> <Gold.Chemscore.Hbonds>
donor molecule, donor type, donor heavy atom, donor atom, acceptor molecule, acceptor atom, score
      L1  H     9    48       P1 10175  0.98
      L1  H    15    42       P1  7957  0.72
      P1  H  7989  7998       L1    21  0.07
      P1  H  7997  8009       L1    20  0.33

> <Gold.Chemscore.Hbond.Weighted>
-9.2772

> <Gold.Chemscore.Metal.Weighted>
-0.0000

> <Gold.Chemscore.Lipo.Weighted>
-8.4692

> <Gold.Chemscore.Internal_Hbond.Weighted>
0.0000

> <Gold.Chemscore.DEClash.Weighted>
0.0455

> <Gold.Chemscore.DEInternal.Weighted>
1.7235

> <Gold.Chemscore.Rot.Weighted>
5.7841

> <Gold.Chemscore.Internal.Correction.Weighted>
   9.000000E+99

> <Gold.Protein.RotatedTorsions>
[ 6907 6896 6895 6894 ] final  -85.21 input  -60.11 | X-H torsion
[ 7974 7965 7964 7962 ] final    5.44 input  175.53 | X-H torsion
[ 8008 7997 7996 7995 ] final -162.96 input   59.86 | X-H torsion
[ 10167 10162 10161 10158 ] final   51.82 input  -65.29 | X-H torsion
[ 10718 10713 10712 10709 ] final -113.72 input   66.30 | X-H torsion
[ 10763 10752 10751 10750 ] final  -85.66 input  -60.55 | X-H torsion
[ 11005 11000 10999 10996 ] final  103.08 input  -57.11 | X-H torsion

> <Gold.Protein.ActiveResidues>
 VAL166  LYS551  ARG553  GLY616  TRP617  ASP618  TYR619  PRO620  LYS621  CYS622 
 ASP623  PHE694  ASN695  SER759  ASP760  ASP761  ALA762  ILE779  LEU786  VAL792 
 PHE793  MET794  SER795  GLU796  ALA797  LYS798  CYS799  TRP800  GLU811  SER814 

> <Gold.Protein.RotatedAtoms>
  150.6871  134.3240  159.4798 H   0  0  0  0  0  0  0  0  0  0  0  0  # atno 6907 bound_to 6896
  152.1112  134.9270  160.0576 H   0  0  0  0  0  0  0  0  0  0  0  0  # atno 6908 bound_to 6896
  152.0512  133.3985  159.4415 H   0  0  0  0  0  0  0  0  0  0  0  0  # atno 6909 bound_to 6896
  146.2440  140.0383  142.8384 H   0  0  0  0  0  0  0  0  0  0  0  0  # atno 7974 bound_to 7965
  155.8144  140.0910  157.1885 H   0  0  0  0  0  0  0  0  0  0  0  0  # atno 8008 bound_to 7997
  154.3979  140.1448  156.3485 H   0  0  0  0  0  0  0  0  0  0  0  0  # atno 8009 bound_to 7997
  155.8331  140.3442  155.5587 H   0  0  0  0  0  0  0  0  0  0  0  0  # atno 8010 bound_to 7997
  140.2579  144.3406  150.6327 H   0  0  0  0  0  0  0  0  0  0  0  0  # atno 10167 bound_to 10162
  156.0784  130.5988  150.8679 H   0  0  0  0  0  0  0  0  0  0  0  0  # atno 10718 bound_to 10713
  154.6137  135.5477  153.7500 H   0  0  0  0  0  0  0  0  0  0  0  0  # atno 10763 bound_to 10752
  153.0206  135.6396  154.1541 H   0  0  0  0  0  0  0  0  0  0  0  0  # atno 10764 bound_to 10752
  154.1478  135.2904  155.3123 H   0  0  0  0  0  0  0  0  0  0  0  0  # atno 10765 bound_to 10752
  139.8781  134.9249  156.5155 H   0  0  0  0  0  0  0  0  0  0  0  0  # atno 11005 bound_to 11000
  145.1092  140.9394  143.4666 LP  0  0  0  0  0  0  0  0  0  0  0  0  # atno 17320 bound_to 7965
  145.0593  139.3118  143.5888 LP  0  0  0  0  0  0  0  0  0  0  0  0  # atno 17321 bound_to 7965
  140.5989  143.2167  151.7110 LP  0  0  0  0  0  0  0  0  0  0  0  0  # atno 17342 bound_to 10162
  139.5026  144.3824  152.0363 LP  0  0  0  0  0  0  0  0  0  0  0  0  # atno 17343 bound_to 10162
  157.5890  131.0945  150.9149 LP  0  0  0  0  0  0  0  0  0  0  0  0  # atno 17370 bound_to 10713
  156.9329  130.5356  149.5279 LP  0  0  0  0  0  0  0  0  0  0  0  0  # atno 17371 bound_to 10713
  140.8489  133.8147  155.9148 LP  0  0  0  0  0  0  0  0  0  0  0  0  # atno 17394 bound_to 11000
  140.9164  134.2196  157.4954 LP  0  0  0  0  0  0  0  0  0  0  0  0  # atno 17395 bound_to 11000

$$$$
