AV-unprocessed.smi:2901|AV-procd|sdf|11149|dock2
  -GOLD-   2272016 23D 1   1.00000     0.00000
 Structure written by MMmdl.
 40 41  0  0  0  0  0  0  0  0  1 V2000
  146.5486  129.2711  152.9293 C   0  0  0  0  0  0  0  0  0  0  0  0
  147.7107  129.9358  153.5822 C   0  0  0  0  0  0  0  0  0  0  0  0
  147.8545  131.2315  153.8520 N   0  0  0  0  0  0  0  0  0  0  0  0
  149.1016  131.3322  154.4530 C   0  0  0  0  0  0  0  0  0  0  0  0
  149.6544  132.6429  154.9230 C   0  0  0  0  0  0  0  0  0  0  0  0
  148.6007  133.7618  154.8841 C   0  0  0  0  0  0  0  0  0  0  0  0
  149.1425  134.9919  154.3184 N   0  0  0  0  0  0  0  0  0  0  0  0
  149.8780  135.8863  154.9926 C   0  0  0  0  0  0  0  0  0  0  0  0
  150.1917  135.7698  156.1774 O   0  0  0  0  0  0  0  0  0  0  0  0
  150.2245  136.9267  154.2231 N   0  0  0  0  0  0  0  0  0  0  0  0
  151.0083  138.0725  154.6716 C   0  0  0  0  0  0  0  0  0  0  0  0
  150.1273  139.3017  154.9562 C   0  0  2  0  0  0  0  0  0  0  0  0
  148.9585  139.4923  153.9889 C   0  0  0  0  0  0  0  0  0  0  0  0
  148.7046  140.9920  154.0242 C   0  0  0  0  0  0  0  0  0  0  0  0
  149.9361  141.5665  154.7308 C   0  0  0  0  0  0  0  0  0  0  0  0
  150.8691  140.4965  154.7783 O   0  0  0  0  0  0  0  0  0  0  0  0
  149.6471  130.0753  154.5180 C   0  0  0  0  0  0  0  0  0  0  0  0
  150.9378  129.5518  155.0502 C   0  0  0  0  0  0  0  0  0  0  0  0
  148.7734  129.1779  153.9651 O   0  0  0  0  0  0  0  0  0  0  0  0
  145.7167  129.9693  152.8336 H   0  0  0  0  0  0  0  0  0  0  0  0
  146.2234  128.4181  153.5251 H   0  0  0  0  0  0  0  0  0  0  0  0
  146.8301  128.9209  151.9362 H   0  0  0  0  0  0  0  0  0  0  0  0
  150.0396  132.5410  155.9382 H   0  0  0  0  0  0  0  0  0  0  0  0
  150.5099  132.9205  154.3059 H   0  0  0  0  0  0  0  0  0  0  0  0
  147.7238  133.4438  154.3171 H   0  0  0  0  0  0  0  0  0  0  0  0
  148.2541  133.9796  155.8948 H   0  0  0  0  0  0  0  0  0  0  0  0
  148.9387  135.1762  153.3470 H   0  0  0  0  0  0  0  0  0  0  0  0
  149.9189  136.9324  153.2611 H   0  0  0  0  0  0  0  0  0  0  0  0
  151.5831  137.8061  155.5600 H   0  0  0  0  0  0  0  0  0  0  0  0
  151.7352  138.3080  153.8940 H   0  0  0  0  0  0  0  0  0  0  0  0
  149.7577  139.2754  155.9832 H   0  0  0  0  0  0  0  0  0  0  0  0
  149.2502  139.1963  152.9804 H   0  0  0  0  0  0  0  0  0  0  0  0
  148.0831  138.9066  154.2711 H   0  0  0  0  0  0  0  0  0  0  0  0
  148.6002  141.3892  153.0140 H   0  0  0  0  0  0  0  0  0  0  0  0
  147.7952  141.2341  154.5757 H   0  0  0  0  0  0  0  0  0  0  0  0
  150.3525  142.4307  154.2127 H   0  0  0  0  0  0  0  0  0  0  0  0
  149.6869  141.8681  155.7492 H   0  0  0  0  0  0  0  0  0  0  0  0
  151.2201  130.0734  155.9649 H   0  0  0  0  0  0  0  0  0  0  0  0
  151.7379  129.6874  154.3224 H   0  0  0  0  0  0  0  0  0  0  0  0
  150.8641  128.4882  155.2787 H   0  0  0  0  0  0  0  0  0  0  0  0
  1  2  1  0  0  0  0
  1 20  1  0  0  0  0
  1 21  1  0  0  0  0
  1 22  1  0  0  0  0
  2 19  1  0  0  0  0
  2  3  2  0  0  0  0
  3  4  1  0  0  0  0
  4  5  1  0  0  0  0
  4 17  2  0  0  0  0
  5  6  1  0  0  0  0
  5 23  1  0  0  0  0
  5 24  1  0  0  0  0
  6  7  1  0  0  0  0
  6 25  1  0  0  0  0
  6 26  1  0  0  0  0
  7  8  1  0  0  0  0
  7 27  1  0  0  0  0
  8  9  2  0  0  0  0
  8 10  1  0  0  0  0
 10 11  1  0  0  0  0
 10 28  1  0  0  0  0
 11 12  1  0  0  0  0
 11 29  1  0  0  0  0
 11 30  1  0  0  0  0
 12 16  1  0  0  0  0
 12 13  1  0  0  0  0
 12 31  1  0  0  0  0
 13 14  1  0  0  0  0
 13 32  1  0  0  0  0
 13 33  1  0  0  0  0
 14 15  1  0  0  0  0
 14 34  1  0  0  0  0
 14 35  1  0  0  0  0
 15 16  1  0  0  0  0
 15 36  1  0  0  0  0
 15 37  1  0  0  0  0
 17 18  1  0  0  0  0
 17 19  1  0  0  0  0
 18 38  1  0  0  0  0
 18 39  1  0  0  0  0
 18 40  1  0  0  0  0
M  END
> <s_m_source_file>
AV-unprocessed.smi

> <i_m_source_file_index>
2901

> <i_lp_mmshare_version>
43012

> <i_f3d_flags>
0

> <s_epik_input>
W0NIM11jMW5jKGMobzEpW0NIM10pW0NIMl1bQ0gyXVtOSF1DKD1PKVtOSF1bQ0gyXVtDQEBIXTJbQ0gyXVtDSDJdW0NIMl1PMg==

> <s_epik_cmdline>
J2VwaWtfcHl0aG9uJywgJy1waCcsICc3LjAnLCAnLXRuJywgJzgnLCAnLW1hJywgJzIwMCcsICctbWV0YWxfYmluZGluZycsICctaW1hZScsICc8aW5maWxlLm1hZT4nLCAnLW9tYWUnLCAnPG91dGZpbGUubWFlPic=

> <r_lp_tautomer_probability>
1

> <r_epik_Ionization_Penalty>
9.58254e-05

> <r_epik_Ionization_Penalty_Charging>
0

> <r_epik_Ionization_Penalty_Neutral>
9.58254e-05

> <r_epik_State_Penalty>
-0

> <r_epik_Charging_Adjusted_Penalty>
0

> <i_epik_Tot_Q>
0

> <i_epik_Tot_abs_Q>
0

> <r_epik_Metal_State_Penalty>
-0

> <b_epik_Metal_Only>
0

> <s_lp_Force_Field>
OPLS_2005

> <r_lp_Energy>
8.98545

> <b_lp_Chiralities_Consistent>
1

> <s_lp_Variant>
AV-unprocessed.smi:2901-1

> <Gold.Version>
5.8.1

> <Gold.Id.Protein>
6NUR|6NUR_protein|mol2

> <Gold.PLP.Fitness>
40.2741

> <Gold.PLP.PLP>
-33.1641

> <Gold.PLP.part.hbond>
-3.9389

> <Gold.PLP.part.metal>
0.0000

> <Gold.PLP.part.buried>
-3.2683

> <Gold.PLP.part.nonpolar>
-26.3222

> <Gold.PLP.part.repulsive>
0.3886

> <Gold.PLP.ligand.clash>
0.0000

> <Gold.PLP.ligand.torsion>
0.9663

> <Gold.PLP.Chemscore.Hbond>
3.0000

> <Gold.PLP.Chemscore.CHOScore>
0.0000

> <Gold.PLP.Chemscore.Metal>
0.0000

> <Gold.Chemscore.Hbonds>
donor molecule, donor type, donor heavy atom, donor atom, acceptor molecule, acceptor atom, score
      L1  H     7    27       P1  7948  1.00
      L1  H    10    28       P1  7948  0.95
      P1  H  7989  7998       L1    16  0.80

> <Gold.PLP.Chemscore.Internal.Correction>
0.0425

> <Gold.Rescore>
     Score         DG    S(hbond)    S(metal)    S(lipo)     H(rot)  DE(clash)    DE(int)     intcor
     14.97     -16.18       2.46        0.00      63.17       1.92       0.01       1.20       ----

> <Gold.Chemscore.Fitness>
14.9699

> <Gold.Chemscore.DG>
-16.1810

> <Gold.Chemscore.ZeroCoef>
-5.4800

> <Gold.Chemscore.Hbond>
2.4600

> <Gold.Chemscore.Metal>
0.0000

> <Gold.Chemscore.Lipo>
63.1739

> <Gold.Chemscore.Internal_Hbond>
0.0000

> <Gold.Chemscore.DEClash>
0.0132

> <Gold.Chemscore.DEInternal>
1.1980

> <Gold.Chemscore.Rot>
1.9167

> <Gold.Chemscore.Internal.Correction>
   9.000000E+99

> <Gold.Chemscore.Hbonds>
donor molecule, donor type, donor heavy atom, donor atom, acceptor molecule, acceptor atom, score
      L1  H     7    27       P1  7948  0.43
      L1  H    10    28       P1  7948  0.21
      P1  H  7989  7998       L1    16  0.11

> <Gold.Chemscore.Hbond.Weighted>
-8.2165

> <Gold.Chemscore.Metal.Weighted>
-0.0000

> <Gold.Chemscore.Lipo.Weighted>
-7.3913

> <Gold.Chemscore.Internal_Hbond.Weighted>
0.0000

> <Gold.Chemscore.DEClash.Weighted>
0.0132

> <Gold.Chemscore.DEInternal.Weighted>
1.1980

> <Gold.Chemscore.Rot.Weighted>
4.9069

> <Gold.Chemscore.Internal.Correction.Weighted>
   9.000000E+99

> <Gold.Protein.RotatedTorsions>
[ 6907 6896 6895 6894 ] final -123.40 input  -60.11 | X-H torsion
[ 7974 7965 7964 7962 ] final  -25.54 input  175.53 | X-H torsion
[ 8008 7997 7996 7995 ] final  -55.87 input   59.86 | X-H torsion
[ 10167 10162 10161 10158 ] final  -43.06 input  -65.29 | X-H torsion
[ 10718 10713 10712 10709 ] final  -96.08 input   66.30 | X-H torsion
[ 10763 10752 10751 10750 ] final -177.10 input  -60.55 | X-H torsion
[ 11005 11000 10999 10996 ] final   48.15 input  -57.11 | X-H torsion

> <Gold.Protein.ActiveResidues>
 VAL166  LYS551  ARG553  GLY616  TRP617  ASP618  TYR619  PRO620  LYS621  CYS622 
 ASP623  PHE694  ASN695  SER759  ASP760  ASP761  ALA762  ILE779  LEU786  VAL792 
 PHE793  MET794  SER795  GLU796  ALA797  LYS798  CYS799  TRP800  GLU811  SER814 

> <Gold.Protein.RotatedAtoms>
  150.8667  133.7564  159.2974 H   0  0  0  0  0  0  0  0  0  0  0  0  # atno 6907 bound_to 6896
  151.5190  135.1065  159.9883 H   0  0  0  0  0  0  0  0  0  0  0  0  # atno 6908 bound_to 6896
  152.4666  133.7891  159.6948 H   0  0  0  0  0  0  0  0  0  0  0  0  # atno 6909 bound_to 6896
  146.1485  140.4899  142.8621 H   0  0  0  0  0  0  0  0  0  0  0  0  # atno 7974 bound_to 7965
  154.4210  140.1143  156.5547 H   0  0  0  0  0  0  0  0  0  0  0  0  # atno 8008 bound_to 7997
  155.6373  140.3496  155.4684 H   0  0  0  0  0  0  0  0  0  0  0  0  # atno 8009 bound_to 7997
  155.9899  140.1177  157.0638 H   0  0  0  0  0  0  0  0  0  0  0  0  # atno 8010 bound_to 7997
  140.6947  143.3003  151.3298 H   0  0  0  0  0  0  0  0  0  0  0  0  # atno 10167 bound_to 10162
  156.0055  130.5136  150.6173 H   0  0  0  0  0  0  0  0  0  0  0  0  # atno 10718 bound_to 10713
  154.5642  135.2822  155.0890 H   0  0  0  0  0  0  0  0  0  0  0  0  # atno 10763 bound_to 10752
  154.2287  135.6378  153.5172 H   0  0  0  0  0  0  0  0  0  0  0  0  # atno 10764 bound_to 10752
  153.0038  135.5532  154.6246 H   0  0  0  0  0  0  0  0  0  0  0  0  # atno 10765 bound_to 10752
  140.1216  134.4822  155.8593 H   0  0  0  0  0  0  0  0  0  0  0  0  # atno 11005 bound_to 11000
  144.7875  140.5965  143.6564 LP  0  0  0  0  0  0  0  0  0  0  0  0  # atno 17320 bound_to 7965
  145.4881  139.1490  143.3725 LP  0  0  0  0  0  0  0  0  0  0  0  0  # atno 17321 bound_to 7965
  139.6389  144.0578  152.2538 LP  0  0  0  0  0  0  0  0  0  0  0  0  # atno 17342 bound_to 10162
  140.0076  144.6247  150.7675 LP  0  0  0  0  0  0  0  0  0  0  0  0  # atno 17343 bound_to 10162
  157.3994  131.0807  151.1322 LP  0  0  0  0  0  0  0  0  0  0  0  0  # atno 17370 bound_to 10713
  157.1988  130.6385  149.5731 LP  0  0  0  0  0  0  0  0  0  0  0  0  # atno 17371 bound_to 10713
  141.2153  133.6762  156.6899 LP  0  0  0  0  0  0  0  0  0  0  0  0  # atno 17394 bound_to 11000
  140.2958  134.8204  157.4056 LP  0  0  0  0  0  0  0  0  0  0  0  0  # atno 17395 bound_to 11000

$$$$
