AV-unprocessed.smi:1380|AV-procd|sdf|5601|dock1
  -GOLD-   22720 5203D 1   1.00000     0.00000
 Structure written by MMmdl.
 34 35  0  0  0  0  0  0  0  0  2 V2000
  146.0850  138.7888  153.7238 O   0  0  0  0  0  0  0  0  0  0  0  0
  146.9387  139.1215  152.9020 C   0  0  0  0  0  0  0  0  0  0  0  0
  147.0068  138.6356  151.6547 N   0  0  0  0  0  0  0  0  0  0  0  0
  146.0889  137.6501  151.0899 C   0  0  0  0  0  0  0  0  0  0  0  0
  145.8475  136.4417  152.0177 C   0  0  0  0  0  0  0  0  0  0  0  0
  145.2627  135.2342  151.3055 C   0  0  0  0  0  0  0  0  0  0  0  0
  145.9836  134.0218  151.2399 C   0  0  0  0  0  0  0  0  0  0  0  0
  145.4158  132.9145  150.5757 C   0  0  0  0  0  0  0  0  0  0  0  0
  144.1392  133.0455  149.9914 C   0  0  0  0  0  0  0  0  0  0  0  0
  143.4790  134.2216  150.0741 N   0  3  0  0  0  0  0  0  0  0  0  0
  143.9885  135.3048  150.7004 C   0  0  0  0  0  0  0  0  0  0  0  0
  147.9213  139.9976  153.1512 N   0  0  0  0  0  0  0  0  0  0  0  0
  148.1360  140.6598  154.4311 C   0  0  0  0  0  0  0  0  0  0  0  0
  147.7035  142.1131  154.4774 C   0  0  0  0  0  0  0  0  0  0  0  0
  146.6179  142.5773  155.4209 C   0  0  0  0  0  0  0  0  0  0  0  0
  146.3546  142.5254  153.9359 C   0  0  0  0  0  0  0  0  0  0  0  0
  147.7426  138.9728  151.0512 H   0  0  0  0  0  0  0  0  0  0  0  0
  145.1413  138.1269  150.8343 H   0  0  0  0  0  0  0  0  0  0  0  0
  146.5220  137.3052  150.1507 H   0  0  0  0  0  0  0  0  0  0  0  0
  146.7830  136.1494  152.4966 H   0  0  0  0  0  0  0  0  0  0  0  0
  145.1782  136.7317  152.8283 H   0  0  0  0  0  0  0  0  0  0  0  0
  146.9603  133.9398  151.6946 H   0  0  0  0  0  0  0  0  0  0  0  0
  145.9522  131.9787  150.5153 H   0  0  0  0  0  0  0  0  0  0  0  0
  143.6301  132.2513  149.4648 H   0  0  0  0  0  0  0  0  0  0  0  0
  143.3638  136.1866  150.7033 H   0  0  0  0  0  0  0  0  0  0  0  0
  148.5728  140.2126  152.4106 H   0  0  0  0  0  0  0  0  0  0  0  0
  147.5683  140.1134  155.1845 H   0  0  0  0  0  0  0  0  0  0  0  0
  149.1849  140.5788  154.7218 H   0  0  0  0  0  0  0  0  0  0  0  0
  148.5135  142.8163  154.2922 H   0  0  0  0  0  0  0  0  0  0  0  0
  146.1305  141.8291  156.0426 H   0  0  0  0  0  0  0  0  0  0  0  0
  146.7369  143.5571  155.8786 H   0  0  0  0  0  0  0  0  0  0  0  0
  146.2942  143.4721  153.4031 H   0  0  0  0  0  0  0  0  0  0  0  0
  145.6917  141.7425  153.5726 H   0  0  0  0  0  0  0  0  0  0  0  0
  142.5564  134.2952  149.6445 H   0  0  0  0  0  0  0  0  0  0  0  0
  1  2  2  0  0  0  0
  2  3  1  0  0  0  0
  2 12  1  0  0  0  0
  3  4  1  0  0  0  0
  3 17  1  0  0  0  0
  4  5  1  0  0  0  0
  4 18  1  0  0  0  0
  4 19  1  0  0  0  0
  5  6  1  0  0  0  0
  5 20  1  0  0  0  0
  5 21  1  0  0  0  0
  6 11  1  0  0  0  0
  6  7  2  0  0  0  0
  7  8  1  0  0  0  0
  7 22  1  0  0  0  0
  8  9  2  0  0  0  0
  8 23  1  0  0  0  0
  9 10  1  0  0  0  0
  9 24  1  0  0  0  0
 10 11  2  0  0  0  0
 10 34  1  0  0  0  0
 11 25  1  0  0  0  0
 12 13  1  0  0  0  0
 12 26  1  0  0  0  0
 13 14  1  0  0  0  0
 13 27  1  0  0  0  0
 13 28  1  0  0  0  0
 14 16  1  0  0  0  0
 14 15  1  0  0  0  0
 14 29  1  0  0  0  0
 15 16  1  0  0  0  0
 15 30  1  0  0  0  0
 15 31  1  0  0  0  0
 16 32  1  0  0  0  0
 16 33  1  0  0  0  0
M  CHG  1  10   1
M  END
> <s_m_source_file>
AV-unprocessed.smi

> <i_m_source_file_index>
1380

> <i_lp_mmshare_version>
43012

> <i_f3d_flags>
0

> <s_epik_input>
W0NIMl0xW0NIMl1bQ0hdMVtDSDJdW05IXUMoPU8pW05IXVtDSDJdW0NIMl1jMltjSF1bY0hdW2NIXW5bY0hdMg==

> <s_epik_cmdline>
J2VwaWtfcHl0aG9uJywgJy1waCcsICc3LjAnLCAnLXRuJywgJzgnLCAnLW1hJywgJzIwMCcsICctbWV0YWxfYmluZGluZycsICctaW1hZScsICc8aW5maWxlLm1hZT4nLCAnLW9tYWUnLCAnPG91dGZpbGUubWFlPic=

> <r_epik_Ionization_Penalty>
2.21218

> <r_epik_Ionization_Penalty_Charging>
2.21212

> <r_epik_Ionization_Penalty_Neutral>
5.76468e-05

> <r_epik_State_Penalty>
2.35642

> <r_epik_Charging_Adjusted_Penalty>
4.56854

> <i_epik_Tot_Q>
1

> <i_epik_Tot_abs_Q>
1

> <r_epik_Metal_State_Penalty>
2.37048

> <b_epik_Metal_Only>
0

> <s_lp_Force_Field>
OPLS_2005

> <r_lp_Energy>
16.6962

> <b_lp_Chiralities_Consistent>
1

> <s_lp_Variant>
AV-unprocessed.smi:1380-2

> <Gold.Version>
5.8.1

> <Gold.Id.Protein>
6NUR|6NUR_protein|mol2

> <Gold.PLP.Fitness>
43.9889

> <Gold.PLP.PLP>
-33.1747

> <Gold.PLP.part.hbond>
-4.0000

> <Gold.PLP.part.metal>
0.0000

> <Gold.PLP.part.buried>
0.5423

> <Gold.PLP.part.nonpolar>
-30.3345

> <Gold.PLP.part.repulsive>
0.6145

> <Gold.PLP.ligand.clash>
0.0000

> <Gold.PLP.ligand.torsion>
0.6698

> <Gold.PLP.Chemscore.Hbond>
3.8640

> <Gold.PLP.Chemscore.CHOScore>
0.0000

> <Gold.PLP.Chemscore.Metal>
0.0000

> <Gold.Chemscore.Hbonds>
donor molecule, donor type, donor heavy atom, donor atom, acceptor molecule, acceptor atom, score
      L1  H     3    17       P1  7957  0.70
      L1  H    10    34       P1 10186  2.00
      L1  H    12    26       P1  7957  1.00

> <Gold.PLP.Chemscore.Internal.Correction>
0.5617

> <Gold.Rescore>
     Score         DG    S(hbond)    S(metal)    S(lipo)     H(rot)  DE(clash)    DE(int)     intcor
     14.60     -18.01       2.65        0.00      70.88       1.80       1.37       2.04       ----

> <Gold.Chemscore.Fitness>
14.6019

> <Gold.Chemscore.DG>
-18.0106

> <Gold.Chemscore.ZeroCoef>
-5.4800

> <Gold.Chemscore.Hbond>
2.6518

> <Gold.Chemscore.Metal>
0.0000

> <Gold.Chemscore.Lipo>
70.8845

> <Gold.Chemscore.Internal_Hbond>
0.0000

> <Gold.Chemscore.DEClash>
1.3676

> <Gold.Chemscore.DEInternal>
2.0410

> <Gold.Chemscore.Rot>
1.8047

> <Gold.Chemscore.Internal.Correction>
   9.000000E+99

> <Gold.Chemscore.Hbonds>
donor molecule, donor type, donor heavy atom, donor atom, acceptor molecule, acceptor atom, score
      L1  H     3    17       P1  7957  0.27
      L1  H    10    34       P1 10186  0.94
      L1  H    12    26       P1  7957  0.99

> <Gold.Chemscore.Hbond.Weighted>
-8.8570

> <Gold.Chemscore.Metal.Weighted>
-0.0000

> <Gold.Chemscore.Lipo.Weighted>
-8.2935

> <Gold.Chemscore.Internal_Hbond.Weighted>
0.0000

> <Gold.Chemscore.DEClash.Weighted>
1.3676

> <Gold.Chemscore.DEInternal.Weighted>
2.0410

> <Gold.Chemscore.Rot.Weighted>
4.6199

> <Gold.Chemscore.Internal.Correction.Weighted>
   9.000000E+99

> <Gold.Protein.RotatedTorsions>
[ 6907 6896 6895 6894 ] final   91.28 input  -60.11 | X-H torsion
[ 7974 7965 7964 7962 ] final   76.57 input  175.53 | X-H torsion
[ 8008 7997 7996 7995 ] final   29.17 input   59.86 | X-H torsion
[ 10167 10162 10161 10158 ] final  -87.35 input  -65.29 | X-H torsion
[ 10718 10713 10712 10709 ] final  135.51 input   66.30 | X-H torsion
[ 10763 10752 10751 10750 ] final   69.88 input  -60.55 | X-H torsion
[ 11005 11000 10999 10996 ] final  -88.52 input  -57.11 | X-H torsion

> <Gold.Protein.ActiveResidues>
 VAL166  LYS551  ARG553  GLY616  TRP617  ASP618  TYR619  PRO620  LYS621  CYS622 
 ASP623  PHE694  ASN695  SER759  ASP760  ASP761  ALA762  ILE779  LEU786  VAL792 
 PHE793  MET794  SER795  GLU796  ALA797  LYS798  CYS799  TRP800  GLU811  SER814 

> <Gold.Protein.RotatedAtoms>
  152.5449  134.1681  159.8585 H   0  0  0  0  0  0  0  0  0  0  0  0  # atno 6907 bound_to 6896
  151.1693  133.4787  159.2601 H   0  0  0  0  0  0  0  0  0  0  0  0  # atno 6908 bound_to 6896
  151.1291  135.0132  159.8629 H   0  0  0  0  0  0  0  0  0  0  0  0  # atno 6909 bound_to 6896
  145.7011  139.2583  143.1705 H   0  0  0  0  0  0  0  0  0  0  0  0  # atno 7974 bound_to 7965
  155.0702  140.3199  155.4633 H   0  0  0  0  0  0  0  0  0  0  0  0  # atno 8008 bound_to 7997
  156.2792  140.2113  156.5775 H   0  0  0  0  0  0  0  0  0  0  0  0  # atno 8009 bound_to 7997
  154.7061  140.0502  157.0492 H   0  0  0  0  0  0  0  0  0  0  0  0  # atno 8010 bound_to 7997
  140.3853  143.2729  151.9333 H   0  0  0  0  0  0  0  0  0  0  0  0  # atno 10167 bound_to 10162
  157.4563  131.1070  150.9973 H   0  0  0  0  0  0  0  0  0  0  0  0  # atno 10718 bound_to 10713
  153.0311  135.5194  154.7356 H   0  0  0  0  0  0  0  0  0  0  0  0  # atno 10763 bound_to 10752
  154.6371  135.2907  155.0150 H   0  0  0  0  0  0  0  0  0  0  0  0  # atno 10764 bound_to 10752
  154.1082  135.6626  153.4932 H   0  0  0  0  0  0  0  0  0  0  0  0  # atno 10765 bound_to 10752
  141.1600  133.7575  156.9462 H   0  0  0  0  0  0  0  0  0  0  0  0  # atno 11005 bound_to 11000
  146.0797  140.7778  142.9648 LP  0  0  0  0  0  0  0  0  0  0  0  0  # atno 17320 bound_to 7965
  144.6968  140.3469  143.7189 LP  0  0  0  0  0  0  0  0  0  0  0  0  # atno 17321 bound_to 7965
  139.4792  144.5780  151.7980 LP  0  0  0  0  0  0  0  0  0  0  0  0  # atno 17342 bound_to 10162
  140.4896  144.1330  150.5947 LP  0  0  0  0  0  0  0  0  0  0  0  0  # atno 17343 bound_to 10162
  157.0786  130.5893  149.5416 LP  0  0  0  0  0  0  0  0  0  0  0  0  # atno 17370 bound_to 10713
  156.0009  130.5087  150.7658 LP  0  0  0  0  0  0  0  0  0  0  0  0  # atno 17371 bound_to 10713
  140.1288  134.9369  157.2307 LP  0  0  0  0  0  0  0  0  0  0  0  0  # atno 17394 bound_to 11000
  140.2979  134.3165  155.7297 LP  0  0  0  0  0  0  0  0  0  0  0  0  # atno 17395 bound_to 11000

$$$$
