AV-unprocessed.smi:3132|AV-procd|sdf|11929|dock3
  -GOLD-   2272017313D 1   1.00000     0.00000
 Structure written by MMmdl.
 34 35  0  0  0  0  0  0  0  0  2 V2000
  150.9123  139.8045  155.7978 C   0  0  0  0  0  0  0  0  0  0  0  0
  150.0439  141.0696  155.7849 C   0  0  2  0  0  0  0  0  0  0  0  0
  149.5601  141.4035  154.3569 C   0  0  0  0  0  0  0  0  0  0  0  0
  148.0992  141.4815  154.2502 N   0  0  0  0  0  0  0  0  0  0  0  0
  147.2554  142.2998  154.9575 C   0  0  0  0  0  0  0  0  0  0  0  0
  145.9839  142.0076  154.5362 C   0  0  0  0  0  0  0  0  0  0  0  0
  146.1058  141.0295  153.5857 N   0  3  0  0  0  0  0  0  0  0  0  0
  147.3930  140.7129  153.4112 C   0  0  0  0  0  0  0  0  0  0  0  0
  150.8127  142.1793  156.3468 N   0  0  0  0  0  0  0  0  0  0  0  0
  150.7997  142.5707  157.6310 C   0  0  0  0  0  0  0  0  0  0  0  0
  150.1390  142.0059  158.5036 O   0  0  0  0  0  0  0  0  0  0  0  0
  151.6245  143.8171  157.9670 C   0  0  2  0  0  0  0  0  0  0  0  0
  152.7157  143.5818  159.0276 C   0  0  0  0  0  0  0  0  0  0  0  0
  152.1824  144.2958  160.2537 C   0  0  0  0  0  0  0  0  0  0  0  0
  151.3703  145.4198  159.6271 C   0  0  0  0  0  0  0  0  0  0  0  0
  150.7391  144.7876  158.5242 O   0  0  0  0  0  0  0  0  0  0  0  0
  150.3621  138.9475  155.4079 H   0  0  0  0  0  0  0  0  0  0  0  0
  151.2306  139.5560  156.8110 H   0  0  0  0  0  0  0  0  0  0  0  0
  151.8079  139.9296  155.1882 H   0  0  0  0  0  0  0  0  0  0  0  0
  149.1745  140.8677  156.4133 H   0  0  0  0  0  0  0  0  0  0  0  0
  149.9757  142.3539  154.0188 H   0  0  0  0  0  0  0  0  0  0  0  0
  149.8987  140.6426  153.6520 H   0  0  0  0  0  0  0  0  0  0  0  0
  147.6120  143.0026  155.6967 H   0  0  0  0  0  0  0  0  0  0  0  0
  145.0270  142.4104  154.8348 H   0  0  0  0  0  0  0  0  0  0  0  0
  147.7836  139.9741  152.7341 H   0  0  0  0  0  0  0  0  0  0  0  0
  151.3834  142.7075  155.7023 H   0  0  0  0  0  0  0  0  0  0  0  0
  152.0751  144.2242  157.0602 H   0  0  0  0  0  0  0  0  0  0  0  0
  152.9306  142.5304  159.2250 H   0  0  0  0  0  0  0  0  0  0  0  0
  153.6472  144.0473  158.7028 H   0  0  0  0  0  0  0  0  0  0  0  0
  151.5283  143.6322  160.8210 H   0  0  0  0  0  0  0  0  0  0  0  0
  152.9691  144.6546  160.9180 H   0  0  0  0  0  0  0  0  0  0  0  0
  150.6423  145.8499  160.3150 H   0  0  0  0  0  0  0  0  0  0  0  0
  152.0222  146.2173  159.2673 H   0  0  0  0  0  0  0  0  0  0  0  0
  145.3343  140.6030  153.0882 H   0  0  0  0  0  0  0  0  0  0  0  0
  1  2  1  0  0  0  0
  1 17  1  0  0  0  0
  1 18  1  0  0  0  0
  1 19  1  0  0  0  0
  2  3  1  0  0  0  0
  2  9  1  0  0  0  0
  2 20  1  0  0  0  0
  3  4  1  0  0  0  0
  3 21  1  0  0  0  0
  3 22  1  0  0  0  0
  4  8  1  0  0  0  0
  4  5  1  0  0  0  0
  5  6  2  0  0  0  0
  5 23  1  0  0  0  0
  6  7  1  0  0  0  0
  6 24  1  0  0  0  0
  7  8  2  0  0  0  0
  7 34  1  0  0  0  0
  8 25  1  0  0  0  0
  9 10  1  0  0  0  0
  9 26  1  0  0  0  0
 10 11  2  0  0  0  0
 10 12  1  0  0  0  0
 12 16  1  0  0  0  0
 12 13  1  0  0  0  0
 12 27  1  0  0  0  0
 13 14  1  0  0  0  0
 13 28  1  0  0  0  0
 13 29  1  0  0  0  0
 14 15  1  0  0  0  0
 14 30  1  0  0  0  0
 14 31  1  0  0  0  0
 15 16  1  0  0  0  0
 15 32  1  0  0  0  0
 15 33  1  0  0  0  0
M  CHG  1   7   1
M  END
> <s_m_source_file>
AV-unprocessed.smi

> <i_m_source_file_index>
3132

> <i_lp_mmshare_version>
43012

> <i_f3d_flags>
0

> <s_epik_input>
W2NIXTFuW2NIXVtjSF1uMVtDSDJdW0NAQEhdKFtDSDNdKVtOSF1DKD1PKVtDQEBIXTJbQ0gyXVtDSDJdW0NIMl1PMg==

> <s_epik_cmdline>
J2VwaWtfcHl0aG9uJywgJy1waCcsICc3LjAnLCAnLXRuJywgJzgnLCAnLW1hJywgJzIwMCcsICctbWV0YWxfYmluZGluZycsICctaW1hZScsICc8aW5maWxlLm1hZT4nLCAnLW9tYWUnLCAnPG91dGZpbGUubWFlPic=

> <r_lp_tautomer_probability>
1

> <r_epik_Ionization_Penalty>
0.250802

> <r_epik_Ionization_Penalty_Charging>
0

> <r_epik_Ionization_Penalty_Neutral>
0.250802

> <r_epik_State_Penalty>
0.242139

> <r_epik_Charging_Adjusted_Penalty>
0.242139

> <i_epik_Tot_Q>
1

> <i_epik_Tot_abs_Q>
1

> <r_epik_Metal_State_Penalty>
0.533361

> <b_epik_Metal_Only>
0

> <s_lp_Force_Field>
OPLS_2005

> <r_lp_Energy>
20.2127

> <b_lp_Chiralities_Consistent>
1

> <s_lp_Variant>
AV-unprocessed.smi:3132-1

> <Gold.Version>
5.8.1

> <Gold.Id.Protein>
6NUR|6NUR_protein|mol2

> <Gold.PLP.Fitness>
45.5568

> <Gold.PLP.PLP>
-35.7761

> <Gold.PLP.part.hbond>
-1.2970

> <Gold.PLP.part.metal>
0.0000

> <Gold.PLP.part.buried>
-1.6619

> <Gold.PLP.part.nonpolar>
-33.5984

> <Gold.PLP.part.repulsive>
0.3242

> <Gold.PLP.ligand.clash>
0.0000

> <Gold.PLP.ligand.torsion>
1.1041

> <Gold.PLP.Chemscore.Hbond>
2.0000

> <Gold.PLP.Chemscore.CHOScore>
1.9882

> <Gold.PLP.Chemscore.Metal>
0.0000

> <Gold.Chemscore.Hbonds>
donor molecule, donor type, donor heavy atom, donor atom, acceptor molecule, acceptor atom, score
      L1  H     7    34       P1 10175  2.00
      L1  C     5    23       P1  8028  1.00
      L1  C     8    25       P1  7957  1.00

> <Gold.PLP.Chemscore.Internal.Correction>
0.0244

> <Gold.Rescore>
     Score         DG    S(hbond)    S(metal)    S(lipo)     H(rot)  DE(clash)    DE(int)     intcor
     11.43     -13.12       0.95        0.00      80.29       1.93       0.58       1.11       ----

> <Gold.Chemscore.Fitness>
11.4277

> <Gold.Chemscore.DG>
-13.1183

> <Gold.Chemscore.ZeroCoef>
-5.4800

> <Gold.Chemscore.Hbond>
0.9544

> <Gold.Chemscore.Metal>
0.0000

> <Gold.Chemscore.Lipo>
80.2876

> <Gold.Chemscore.Internal_Hbond>
0.0000

> <Gold.Chemscore.DEClash>
0.5790

> <Gold.Chemscore.DEInternal>
1.1115

> <Gold.Chemscore.Rot>
1.9308

> <Gold.Chemscore.Internal.Correction>
   9.000000E+99

> <Gold.Chemscore.Hbonds>
donor molecule, donor type, donor heavy atom, donor atom, acceptor molecule, acceptor atom, score
      L1  H     7    34       P1 10175  0.84

> <Gold.Chemscore.Hbond.Weighted>
-3.1876

> <Gold.Chemscore.Metal.Weighted>
-0.0000

> <Gold.Chemscore.Lipo.Weighted>
-9.3937

> <Gold.Chemscore.Internal_Hbond.Weighted>
0.0000

> <Gold.Chemscore.DEClash.Weighted>
0.5790

> <Gold.Chemscore.DEInternal.Weighted>
1.1115

> <Gold.Chemscore.Rot.Weighted>
4.9429

> <Gold.Chemscore.Internal.Correction.Weighted>
   9.000000E+99

> <Gold.Protein.RotatedTorsions>
[ 6907 6896 6895 6894 ] final  -32.32 input  -60.11 | X-H torsion
[ 7974 7965 7964 7962 ] final  -51.18 input  175.53 | X-H torsion
[ 8008 7997 7996 7995 ] final  135.54 input   59.86 | X-H torsion
[ 10167 10162 10161 10158 ] final -144.18 input  -65.29 | X-H torsion
[ 10718 10713 10712 10709 ] final  -37.84 input   66.30 | X-H torsion
[ 10763 10752 10751 10750 ] final   55.76 input  -60.55 | X-H torsion
[ 11005 11000 10999 10996 ] final -169.22 input  -57.11 | X-H torsion

> <Gold.Protein.ActiveResidues>
 VAL166  LYS551  ARG553  GLY616  TRP617  ASP618  TYR619  PRO620  LYS621  CYS622 
 ASP623  PHE694  ASN695  SER759  ASP760  ASP761  ALA762  ILE779  LEU786  VAL792 
 PHE793  MET794  SER795  GLU796  ALA797  LYS798  CYS799  TRP800  GLU811  SER814 

> <Gold.Protein.RotatedAtoms>
  151.0803  134.9854  159.8352 H   0  0  0  0  0  0  0  0  0  0  0  0  # atno 6907 bound_to 6896
  152.5419  134.2189  159.8790 H   0  0  0  0  0  0  0  0  0  0  0  0  # atno 6908 bound_to 6896
  151.2219  133.4454  159.2634 H   0  0  0  0  0  0  0  0  0  0  0  0  # atno 6909 bound_to 6896
  145.9218  140.7827  142.9643 H   0  0  0  0  0  0  0  0  0  0  0  0  # atno 7974 bound_to 7965
  156.3003  140.2468  156.3598 H   0  0  0  0  0  0  0  0  0  0  0  0  # atno 8008 bound_to 7997
  154.8887  140.0410  157.1845 H   0  0  0  0  0  0  0  0  0  0  0  0  # atno 8009 bound_to 7997
  154.8620  140.2922  155.5537 H   0  0  0  0  0  0  0  0  0  0  0  0  # atno 8010 bound_to 7997
  139.7923  143.7949  152.2651 H   0  0  0  0  0  0  0  0  0  0  0  0  # atno 10167 bound_to 10162
  156.3106  130.4252  149.8054 H   0  0  0  0  0  0  0  0  0  0  0  0  # atno 10718 bound_to 10713
  152.9821  135.5700  154.5118 H   0  0  0  0  0  0  0  0  0  0  0  0  # atno 10763 bound_to 10752
  154.4621  135.2782  155.1707 H   0  0  0  0  0  0  0  0  0  0  0  0  # atno 10764 bound_to 10752
  154.3291  135.6253  153.5596 H   0  0  0  0  0  0  0  0  0  0  0  0  # atno 10765 bound_to 10752
  140.5332  134.5595  157.5080 H   0  0  0  0  0  0  0  0  0  0  0  0  # atno 11005 bound_to 11000
  144.6754  140.1988  143.7389 LP  0  0  0  0  0  0  0  0  0  0  0  0  # atno 17320 bound_to 7965
  145.8540  139.2189  143.1755 LP  0  0  0  0  0  0  0  0  0  0  0  0  # atno 17321 bound_to 7965
  139.8044  144.7361  150.9781 LP  0  0  0  0  0  0  0  0  0  0  0  0  # atno 17342 bound_to 10162
  140.7820  143.4313  151.0690 LP  0  0  0  0  0  0  0  0  0  0  0  0  # atno 17343 bound_to 10162
  156.5398  130.8295  151.3265 LP  0  0  0  0  0  0  0  0  0  0  0  0  # atno 17370 bound_to 10713
  157.7390  130.9823  150.2287 LP  0  0  0  0  0  0  0  0  0  0  0  0  # atno 17371 bound_to 10713
  139.9543  134.7562  156.0377 LP  0  0  0  0  0  0  0  0  0  0  0  0  # atno 17394 bound_to 11000
  141.1269  133.6597  156.3361 LP  0  0  0  0  0  0  0  0  0  0  0  0  # atno 17395 bound_to 11000

$$$$
