AV-unprocessed.smi:3292|AV-procd|sdf|12625|dock8
  -GOLD-   2272018563D 1   1.00000     0.00000
 Structure written by MMmdl.
 38 39  0  0  0  0  0  0  0  0  1 V2000
  146.5209  139.2117  151.7910 C   0  0  0  0  0  0  0  0  0  0  0  0
  146.1858  138.2307  152.9226 C   0  0  2  0  0  0  0  0  0  0  0  0
  146.8809  138.6350  154.2400 C   0  0  0  0  0  0  0  0  0  0  0  0
  147.3778  139.9989  154.2183 N   0  0  0  0  0  0  0  0  0  0  0  0
  146.7605  141.1248  154.7473 C   0  0  0  0  0  0  0  0  0  0  0  0
  147.5991  142.1872  154.4969 C   0  0  0  0  0  0  0  0  0  0  0  0
  148.7266  141.7429  153.8102 N   0  0  0  0  0  0  0  0  0  0  0  0
  148.5236  140.4384  153.6798 C   0  0  0  0  0  0  0  0  0  0  0  0
  146.5820  136.8828  152.5154 N   0  0  0  0  0  0  0  0  0  0  0  0
  145.8250  135.7811  152.6244 C   0  0  0  0  0  0  0  0  0  0  0  0
  144.6807  135.7707  153.0782 O   0  0  0  0  0  0  0  0  0  0  0  0
  146.4729  134.6891  152.1954 N   0  0  0  0  0  0  0  0  0  0  0  0
  145.9423  133.3296  152.2237 C   0  0  0  0  0  0  0  0  0  0  0  0
  145.4132  132.8954  150.8440 C   0  0  2  0  0  0  0  0  0  0  0  0
  144.4318  133.8717  150.2292 C   0  0  0  0  0  0  0  0  0  0  0  0
  143.7602  133.0121  149.1631 C   0  0  0  0  0  0  0  0  0  0  0  0
  143.7511  131.6863  149.6838 O   0  0  0  0  0  0  0  0  0  0  0  0
  144.5865  131.6072  150.8351 C   0  0  0  0  0  0  0  0  0  0  0  0
  146.2101  140.2250  152.0462 H   0  0  0  0  0  0  0  0  0  0  0  0
  146.0110  138.9353  150.8673 H   0  0  0  0  0  0  0  0  0  0  0  0
  147.5920  139.2341  151.5871 H   0  0  0  0  0  0  0  0  0  0  0  0
  145.1049  138.2702  153.0706 H   0  0  0  0  0  0  0  0  0  0  0  0
  146.2000  138.5194  155.0847 H   0  0  0  0  0  0  0  0  0  0  0  0
  147.7295  137.9775  154.4325 H   0  0  0  0  0  0  0  0  0  0  0  0
  145.8062  141.0766  155.2509 H   0  0  0  0  0  0  0  0  0  0  0  0
  147.4781  143.2292  154.7542 H   0  0  0  0  0  0  0  0  0  0  0  0
  149.2296  139.7858  153.1872 H   0  0  0  0  0  0  0  0  0  0  0  0
  147.5101  136.7818  152.1314 H   0  0  0  0  0  0  0  0  0  0  0  0
  147.4108  134.8023  151.8397 H   0  0  0  0  0  0  0  0  0  0  0  0
  146.6921  132.6249  152.5875 H   0  0  0  0  0  0  0  0  0  0  0  0
  145.1281  133.3064  152.9483 H   0  0  0  0  0  0  0  0  0  0  0  0
  146.2530  132.7746  150.1573 H   0  0  0  0  0  0  0  0  0  0  0  0
  143.6962  134.1906  150.9695 H   0  0  0  0  0  0  0  0  0  0  0  0
  144.9104  134.7609  149.8177 H   0  0  0  0  0  0  0  0  0  0  0  0
  142.7532  133.3547  148.9243 H   0  0  0  0  0  0  0  0  0  0  0  0
  144.3474  133.0193  148.2439 H   0  0  0  0  0  0  0  0  0  0  0  0
  145.2107  130.7143  150.8089 H   0  0  0  0  0  0  0  0  0  0  0  0
  143.9484  131.5479  151.7181 H   0  0  0  0  0  0  0  0  0  0  0  0
  1  2  1  0  0  0  0
  1 19  1  0  0  0  0
  1 20  1  0  0  0  0
  1 21  1  0  0  0  0
  2  3  1  0  0  0  0
  2  9  1  0  0  0  0
  2 22  1  0  0  0  0
  3  4  1  0  0  0  0
  3 23  1  0  0  0  0
  3 24  1  0  0  0  0
  4  8  1  0  0  0  0
  4  5  1  0  0  0  0
  5  6  2  0  0  0  0
  5 25  1  0  0  0  0
  6  7  1  0  0  0  0
  6 26  1  0  0  0  0
  7  8  2  0  0  0  0
  8 27  1  0  0  0  0
  9 10  1  0  0  0  0
  9 28  1  0  0  0  0
 10 11  2  0  0  0  0
 10 12  1  0  0  0  0
 12 13  1  0  0  0  0
 12 29  1  0  0  0  0
 13 14  1  0  0  0  0
 13 30  1  0  0  0  0
 13 31  1  0  0  0  0
 14 18  1  0  0  0  0
 14 15  1  0  0  0  0
 14 32  1  0  0  0  0
 15 16  1  0  0  0  0
 15 33  1  0  0  0  0
 15 34  1  0  0  0  0
 16 17  1  0  0  0  0
 16 35  1  0  0  0  0
 16 36  1  0  0  0  0
 17 18  1  0  0  0  0
 18 37  1  0  0  0  0
 18 38  1  0  0  0  0
M  END
> <s_m_source_file>
AV-unprocessed.smi

> <i_m_source_file_index>
3292

> <i_lp_mmshare_version>
43012

> <i_f3d_flags>
0

> <s_epik_input>
W2NIXTFuW2NIXVtjSF1uMVtDSDJdW0NAQEhdKFtDSDNdKVtOSF1DKD1PKVtOSF1bQ0gyXVtDQEBIXTJbQ0gyXVtDSDJdT1tDSDJdMg==

> <s_epik_cmdline>
J2VwaWtfcHl0aG9uJywgJy1waCcsICc3LjAnLCAnLXRuJywgJzgnLCAnLW1hJywgJzIwMCcsICctbWV0YWxfYmluZGluZycsICctaW1hZScsICc8aW5maWxlLm1hZT4nLCAnLW9tYWUnLCAnPG91dGZpbGUubWFlPic=

> <r_lp_tautomer_probability>
1

> <r_epik_Ionization_Penalty>
0.621291

> <r_epik_Ionization_Penalty_Charging>
0.621234

> <r_epik_Ionization_Penalty_Neutral>
5.72199e-05

> <r_epik_State_Penalty>
0.637278

> <r_epik_Charging_Adjusted_Penalty>
1.25851

> <i_epik_Tot_Q>
0

> <i_epik_Tot_abs_Q>
0

> <r_epik_Metal_State_Penalty>
0.306757

> <b_epik_Metal_Only>
0

> <s_lp_Force_Field>
OPLS_2005

> <r_lp_Energy>
18.0177

> <b_lp_Chiralities_Consistent>
1

> <s_lp_Variant>
AV-unprocessed.smi:3292-5

> <Gold.Version>
5.8.1

> <Gold.Id.Protein>
6NUR|6NUR_protein|mol2

> <Gold.PLP.Fitness>
42.0045

> <Gold.PLP.PLP>
-29.5051

> <Gold.PLP.part.hbond>
-3.9612

> <Gold.PLP.part.metal>
0.0000

> <Gold.PLP.part.buried>
1.6823

> <Gold.PLP.part.nonpolar>
-28.1195

> <Gold.PLP.part.repulsive>
0.5100

> <Gold.PLP.ligand.clash>
0.0000

> <Gold.PLP.ligand.torsion>
1.2865

> <Gold.PLP.Chemscore.Hbond>
3.2169

> <Gold.PLP.Chemscore.CHOScore>
1.7910

> <Gold.PLP.Chemscore.Metal>
0.0000

> <Gold.Chemscore.Hbonds>
donor molecule, donor type, donor heavy atom, donor atom, acceptor molecule, acceptor atom, score
      L1  H     9    28       P1  7948  1.00
      L1  H    12    29       P1  7948  0.77
      P1  H  8011  8017       L1     7  0.59
      P1  H 10785 10796       L1    17  0.86
      L1  C     6    26       P1  8028  1.00
      L1  C     8    27       P1  7957  0.79

> <Gold.PLP.Chemscore.Internal.Correction>
0.0487

> <Gold.Rescore>
     Score         DG    S(hbond)    S(metal)    S(lipo)     H(rot)  DE(clash)    DE(int)     intcor
     14.46     -17.31       2.70        0.00      71.40       2.16       1.39       1.47       ----

> <Gold.Chemscore.Fitness>
14.4588

> <Gold.Chemscore.DG>
-17.3140

> <Gold.Chemscore.ZeroCoef>
-5.4800

> <Gold.Chemscore.Hbond>
2.6956

> <Gold.Chemscore.Metal>
0.0000

> <Gold.Chemscore.Lipo>
71.4044

> <Gold.Chemscore.Internal_Hbond>
0.0000

> <Gold.Chemscore.DEClash>
1.3872

> <Gold.Chemscore.DEInternal>
1.4681

> <Gold.Chemscore.Rot>
2.1577

> <Gold.Chemscore.Internal.Correction>
   9.000000E+99

> <Gold.Chemscore.Hbonds>
donor molecule, donor type, donor heavy atom, donor atom, acceptor molecule, acceptor atom, score
      L1  H     9    28       P1  7948  0.95
      L1  H    12    29       P1  7948  0.54
      P1  H  8011  8017       L1     7  0.45
      P1  H 10785 10796       L1    17  0.83

> <Gold.Chemscore.Hbond.Weighted>
-9.0034

> <Gold.Chemscore.Metal.Weighted>
-0.0000

> <Gold.Chemscore.Lipo.Weighted>
-8.3543

> <Gold.Chemscore.Internal_Hbond.Weighted>
0.0000

> <Gold.Chemscore.DEClash.Weighted>
1.3872

> <Gold.Chemscore.DEInternal.Weighted>
1.4681

> <Gold.Chemscore.Rot.Weighted>
5.5237

> <Gold.Chemscore.Internal.Correction.Weighted>
   9.000000E+99

> <Gold.Protein.RotatedTorsions>
[ 6907 6896 6895 6894 ] final  -88.28 input  -60.11 | X-H torsion
[ 7974 7965 7964 7962 ] final  -37.84 input  175.53 | X-H torsion
[ 8008 7997 7996 7995 ] final  -89.08 input   59.86 | X-H torsion
[ 10167 10162 10161 10158 ] final -164.65 input  -65.29 | X-H torsion
[ 10718 10713 10712 10709 ] final   42.76 input   66.30 | X-H torsion
[ 10763 10752 10751 10750 ] final  -79.01 input  -60.55 | X-H torsion
[ 11005 11000 10999 10996 ] final  -37.06 input  -57.11 | X-H torsion

> <Gold.Protein.ActiveResidues>
 VAL166  LYS551  ARG553  GLY616  TRP617  ASP618  TYR619  PRO620  LYS621  CYS622 
 ASP623  PHE694  ASN695  SER759  ASP760  ASP761  ALA762  ILE779  LEU786  VAL792 
 PHE793  MET794  SER795  GLU796  ALA797  LYS798  CYS799  TRP800  GLU811  SER814 

> <Gold.Protein.RotatedAtoms>
  150.6868  134.2766  159.4609 H   0  0  0  0  0  0  0  0  0  0  0  0  # atno 6907 bound_to 6896
  152.0684  134.9547  160.0584 H   0  0  0  0  0  0  0  0  0  0  0  0  # atno 6908 bound_to 6896
  152.0947  133.4183  159.4596 H   0  0  0  0  0  0  0  0  0  0  0  0  # atno 6909 bound_to 6896
  146.0540  140.6442  142.9029 H   0  0  0  0  0  0  0  0  0  0  0  0  # atno 7974 bound_to 7965
  154.6823  140.0546  157.0279 H   0  0  0  0  0  0  0  0  0  0  0  0  # atno 8008 bound_to 7997
  155.0934  140.3221  155.4548 H   0  0  0  0  0  0  0  0  0  0  0  0  # atno 8009 bound_to 7997
  156.2698  140.2044  156.6061 H   0  0  0  0  0  0  0  0  0  0  0  0  # atno 8010 bound_to 7997
  139.6236  144.0577  152.1954 H   0  0  0  0  0  0  0  0  0  0  0  0  # atno 10167 bound_to 10162
  157.4085  130.7900  149.7409 H   0  0  0  0  0  0  0  0  0  0  0  0  # atno 10718 bound_to 10713
  154.5332  135.5710  153.6776 H   0  0  0  0  0  0  0  0  0  0  0  0  # atno 10763 bound_to 10752
  152.9944  135.6209  154.2601 H   0  0  0  0  0  0  0  0  0  0  0  0  # atno 10764 bound_to 10752
  154.2529  135.2858  155.2789 H   0  0  0  0  0  0  0  0  0  0  0  0  # atno 10765 bound_to 10752
  140.9923  133.6998  156.1872 H   0  0  0  0  0  0  0  0  0  0  0  0  # atno 11005 bound_to 11000
  144.7137  140.4134  143.7060 LP  0  0  0  0  0  0  0  0  0  0  0  0  # atno 17320 bound_to 7965
  145.6676  139.1593  143.2773 LP  0  0  0  0  0  0  0  0  0  0  0  0  # atno 17321 bound_to 7965
  140.0224  144.6143  150.7555 LP  0  0  0  0  0  0  0  0  0  0  0  0  # atno 17342 bound_to 10162
  140.7397  143.2795  151.3642 LP  0  0  0  0  0  0  0  0  0  0  0  0  # atno 17343 bound_to 10162
  155.9843  130.3992  150.3317 LP  0  0  0  0  0  0  0  0  0  0  0  0  # atno 17370 bound_to 10713
  157.1452  131.0307  151.2910 LP  0  0  0  0  0  0  0  0  0  0  0  0  # atno 17371 bound_to 10713
  140.7020  134.4553  157.5586 LP  0  0  0  0  0  0  0  0  0  0  0  0  # atno 17394 bound_to 11000
  139.8998  134.8583  156.1945 LP  0  0  0  0  0  0  0  0  0  0  0  0  # atno 17395 bound_to 11000

$$$$
