AV-unprocessed.smi:99|AV-procd|sdf|891|dock5
  -GOLD-   2262017383D 1   1.00000     0.00000
 Structure written by MMmdl.
 52 55  0  0  0  0  0  0  0  0  2 V2000
  144.8990  135.9250  153.2939 O   0  0  0  0  0  0  0  0  0  0  0  0
  145.4395  134.8187  153.2344 C   0  0  0  0  0  0  0  0  0  0  0  0
  146.2309  134.3222  154.2050 O   0  0  0  0  0  0  0  0  0  0  0  0
  146.9148  135.2031  155.0805 C   0  0  0  0  0  0  0  0  0  0  0  0
  147.6126  134.3874  156.1776 C   0  0  2  0  0  0  0  0  0  0  0  0
  147.0083  134.6125  157.4407 O   0  0  0  0  0  0  0  0  0  0  0  0
  147.8948  134.1927  158.4285 C   0  0  2  0  0  0  0  0  0  0  0  0
  147.6360  135.0079  159.6776 N   0  0  0  0  0  0  0  0  0  0  0  0
  146.9499  134.4198  160.7252 C   0  0  0  0  0  0  0  0  0  0  0  0
  146.6613  135.1025  161.8520 C   0  0  0  0  0  0  0  0  0  0  0  0
  147.0729  136.4980  161.9688 C   0  0  0  0  0  0  0  0  0  0  0  0
  146.8208  137.1087  163.0056 O   0  0  0  0  0  0  0  0  0  0  0  0
  147.7212  137.0660  160.9119 N   0  5  0  0  0  0  0  0  0  0  0  0
  148.0043  136.3805  159.7658 C   0  0  0  0  0  0  0  0  0  0  0  0
  148.5601  136.9005  158.8008 O   0  0  0  0  0  0  0  0  0  0  0  0
  149.3249  134.3460  157.8709 C   0  0  1  0  0  0  0  0  0  0  0  0
  150.0397  133.1275  157.9073 O   0  0  0  0  0  0  0  0  0  0  0  0
  149.0894  134.7371  156.4093 C   0  0  2  0  0  0  0  0  0  0  0  0
  149.3139  136.1278  156.2088 O   0  0  0  0  0  0  0  0  0  0  0  0
  150.5541  136.6151  156.0035 C   0  0  0  0  0  0  0  0  0  0  0  0
  151.5612  135.9098  155.9162 O   0  0  0  0  0  0  0  0  0  0  0  0
  150.5758  138.1021  155.8949 C   0  0  0  0  0  0  0  0  0  0  0  0
  149.3713  138.7978  155.6388 C   0  0  0  0  0  0  0  0  0  0  0  0
  149.3642  140.2019  155.5271 C   0  0  0  0  0  0  0  0  0  0  0  0
  150.5617  140.9271  155.6683 C   0  0  0  0  0  0  0  0  0  0  0  0
  151.7667  140.2465  155.9220 C   0  0  0  0  0  0  0  0  0  0  0  0
  151.7755  138.8428  156.0357 C   0  0  0  0  0  0  0  0  0  0  0  0
  145.2818  133.8871  152.0800 C   0  0  0  0  0  0  0  0  0  0  0  0
  144.4513  134.2600  150.9974 C   0  0  0  0  0  0  0  0  0  0  0  0
  144.2746  133.3972  149.8983 C   0  0  0  0  0  0  0  0  0  0  0  0
  144.9270  132.1510  149.8680 C   0  0  0  0  0  0  0  0  0  0  0  0
  145.7575  131.7690  150.9376 C   0  0  0  0  0  0  0  0  0  0  0  0
  145.9349  132.6303  152.0380 C   0  0  0  0  0  0  0  0  0  0  0  0
  147.6547  135.7688  154.5125 H   0  0  0  0  0  0  0  0  0  0  0  0
  146.2162  135.9172  155.5192 H   0  0  0  0  0  0  0  0  0  0  0  0
  147.5392  133.3223  155.9503 H   0  0  0  0  0  0  0  0  0  0  0  0
  147.6607  133.1593  158.6889 H   0  0  0  0  0  0  0  0  0  0  0  0
  146.6362  133.3893  160.6496 H   0  0  0  0  0  0  0  0  0  0  0  0
  146.1272  134.6236  162.6595 H   0  0  0  0  0  0  0  0  0  0  0  0
  149.8918  135.0982  158.4202 H   0  0  0  0  0  0  0  0  0  0  0  0
  150.0123  132.7388  157.0467 H   0  0  0  0  0  0  0  0  0  0  0  0
  149.7175  134.1683  155.7214 H   0  0  0  0  0  0  0  0  0  0  0  0
  148.4402  138.2620  155.5246 H   0  0  0  0  0  0  0  0  0  0  0  0
  148.4386  140.7225  155.3309 H   0  0  0  0  0  0  0  0  0  0  0  0
  150.5567  142.0035  155.5805 H   0  0  0  0  0  0  0  0  0  0  0  0
  152.6878  140.8003  156.0271 H   0  0  0  0  0  0  0  0  0  0  0  0
  152.7190  138.3523  156.2267 H   0  0  0  0  0  0  0  0  0  0  0  0
  143.9383  135.2110  150.9990 H   0  0  0  0  0  0  0  0  0  0  0  0
  143.6359  133.6921  149.0787 H   0  0  0  0  0  0  0  0  0  0  0  0
  144.7900  131.4886  149.0259 H   0  0  0  0  0  0  0  0  0  0  0  0
  146.2584  130.8123  150.9161 H   0  0  0  0  0  0  0  0  0  0  0  0
  146.5763  132.3048  152.8440 H   0  0  0  0  0  0  0  0  0  0  0  0
  1  2  2  0  0  0  0
  2  3  1  0  0  0  0
  2 28  1  0  0  0  0
  3  4  1  0  0  0  0
  4  5  1  0  0  0  0
  4 34  1  0  0  0  0
  4 35  1  0  0  0  0
  5 18  1  0  0  0  0
  5  6  1  0  0  0  0
  5 36  1  0  0  0  0
  6  7  1  0  0  0  0
  7  8  1  0  0  0  0
  7 16  1  0  0  0  0
  7 37  1  0  0  0  0
  8 14  1  0  0  0  0
  8  9  1  0  0  0  0
  9 10  2  0  0  0  0
  9 38  1  0  0  0  0
 10 11  1  0  0  0  0
 10 39  1  0  0  0  0
 11 12  2  0  0  0  0
 11 13  1  0  0  0  0
 13 14  1  0  0  0  0
 14 15  2  0  0  0  0
 16 17  1  0  0  0  0
 16 18  1  0  0  0  0
 16 40  1  0  0  0  0
 17 41  1  0  0  0  0
 18 19  1  0  0  0  0
 18 42  1  0  0  0  0
 19 20  1  0  0  0  0
 20 21  2  0  0  0  0
 20 22  1  0  0  0  0
 22 27  1  0  0  0  0
 22 23  2  0  0  0  0
 23 24  1  0  0  0  0
 23 43  1  0  0  0  0
 24 25  2  0  0  0  0
 24 44  1  0  0  0  0
 25 26  1  0  0  0  0
 25 45  1  0  0  0  0
 26 27  2  0  0  0  0
 26 46  1  0  0  0  0
 27 47  1  0  0  0  0
 28 33  1  0  0  0  0
 28 29  2  0  0  0  0
 29 30  1  0  0  0  0
 29 48  1  0  0  0  0
 30 31  2  0  0  0  0
 30 49  1  0  0  0  0
 31 32  1  0  0  0  0
 31 50  1  0  0  0  0
 32 33  2  0  0  0  0
 32 51  1  0  0  0  0
 33 52  1  0  0  0  0
M  CHG  1  13  -1
M  END
> <s_m_source_file>
AV-unprocessed.smi

> <i_m_source_file_index>
99

> <i_lp_mmshare_version>
43012

> <i_f3d_flags>
0

> <s_epik_input>
W2NIXTFbY0hdW2NIXVtjSF1bY0hdYzFDKD1PKU9bQ0gyXVtDQEBIXTJPW0NAQEhdKG4zW2NIXVtjSF1jKD1PKVtuSF1jMz1PKVtDQEBIXShbT0hdKVtDQEhdMk9DKD1PKWM0W2NIXVtjSF1bY0hdW2NIXVtjSF00

> <s_epik_cmdline>
J2VwaWtfcHl0aG9uJywgJy1waCcsICc3LjAnLCAnLXRuJywgJzgnLCAnLW1hJywgJzIwMCcsICctbWV0YWxfYmluZGluZycsICctaW1hZScsICc8aW5maWxlLm1hZT4nLCAnLW9tYWUnLCAnPG91dGZpbGUubWFlPic=

> <r_lp_tautomer_probability>
1

> <r_epik_Ionization_Penalty>
2.89159

> <r_epik_Ionization_Penalty_Charging>
2.1077e-08

> <r_epik_Ionization_Penalty_Neutral>
2.89159

> <r_epik_State_Penalty>
2.88671

> <r_epik_Charging_Adjusted_Penalty>
2.88671

> <i_epik_Tot_Q>
-1

> <i_epik_Tot_abs_Q>
1

> <r_epik_Metal_State_Penalty>
0.0727308

> <b_epik_Metal_Only>
1

> <s_epik_Chemistry_Notes>
This compound has an ester and may undergo hydrolysis at high or low pH. This compound contains an acetal/aminal-like group ( X-CH(R)-Y where X, Y are N, S, or O) that may be acid/base labile, releasing an aldehyde.

> <s_lp_Force_Field>
OPLS_2005

> <r_lp_Energy>
34.2079

> <b_lp_Chiralities_Consistent>
1

> <s_lp_Variant>
AV-unprocessed.smi:99-27

> <Gold.Version>
5.8.1

> <Gold.Id.Protein>
6NUR|6NUR_protein|mol2

> <Gold.PLP.Fitness>
51.9950

> <Gold.PLP.PLP>
-38.1384

> <Gold.PLP.part.hbond>
-4.0000

> <Gold.PLP.part.metal>
0.0000

> <Gold.PLP.part.buried>
-5.0525

> <Gold.PLP.part.nonpolar>
-31.5938

> <Gold.PLP.part.repulsive>
0.2138

> <Gold.PLP.ligand.clash>
0.0000

> <Gold.PLP.ligand.torsion>
1.7565

> <Gold.PLP.Chemscore.Hbond>
5.6800

> <Gold.PLP.Chemscore.CHOScore>
0.0000

> <Gold.PLP.Chemscore.Metal>
0.0000

> <Gold.Chemscore.Hbonds>
donor molecule, donor type, donor heavy atom, donor atom, acceptor molecule, acceptor atom, score
      P1  H  6896  6909       L1    17  1.00
      P1  H  6931  6943       L1    13  1.86
      P1  H  6934  6947       L1    13  1.82
      P1  H 10752 10763       L1    21  1.00

> <Gold.PLP.Chemscore.Internal.Correction>
0.3295

> <Gold.Rescore>
     Score         DG    S(hbond)    S(metal)    S(lipo)     H(rot)  DE(clash)    DE(int)     intcor
     11.69     -16.89       2.38        0.00      98.15       3.13       0.07       5.13       ----

> <Gold.Chemscore.Fitness>
11.6939

> <Gold.Chemscore.DG>
-16.8935

> <Gold.Chemscore.ZeroCoef>
-5.4800

> <Gold.Chemscore.Hbond>
2.3817

> <Gold.Chemscore.Metal>
0.0000

> <Gold.Chemscore.Lipo>
98.1455

> <Gold.Chemscore.Internal_Hbond>
0.0000

> <Gold.Chemscore.DEClash>
0.0730

> <Gold.Chemscore.DEInternal>
5.1266

> <Gold.Chemscore.Rot>
3.1346

> <Gold.Chemscore.Internal.Correction>
   9.000000E+99

> <Gold.Chemscore.Hbonds>
donor molecule, donor type, donor heavy atom, donor atom, acceptor molecule, acceptor atom, score
      P1  H  6896  6909       L1    17  0.24
      P1  H  6931  6943       L1    13  0.21
      P1  H  6934  6947       L1    13  0.45
      P1  H 10752 10763       L1    21  0.95

> <Gold.Chemscore.Hbond.Weighted>
-7.9550

> <Gold.Chemscore.Metal.Weighted>
-0.0000

> <Gold.Chemscore.Lipo.Weighted>
-11.4830

> <Gold.Chemscore.Internal_Hbond.Weighted>
0.0000

> <Gold.Chemscore.DEClash.Weighted>
0.0730

> <Gold.Chemscore.DEInternal.Weighted>
5.1266

> <Gold.Chemscore.Rot.Weighted>
8.0246

> <Gold.Chemscore.Internal.Correction.Weighted>
   9.000000E+99

> <Gold.Protein.RotatedTorsions>
[ 6907 6896 6895 6894 ] final  -29.13 input  -60.11 | X-H torsion
[ 7974 7965 7964 7962 ] final   55.11 input  175.53 | X-H torsion
[ 8008 7997 7996 7995 ] final   98.69 input   59.86 | X-H torsion
[ 10167 10162 10161 10158 ] final  178.15 input  -65.29 | X-H torsion
[ 10718 10713 10712 10709 ] final  162.53 input   66.30 | X-H torsion
[ 10763 10752 10751 10750 ] final   60.70 input  -60.55 | X-H torsion
[ 11005 11000 10999 10996 ] final  -40.47 input  -57.11 | X-H torsion

> <Gold.Protein.ActiveResidues>
 VAL166  LYS551  ARG553  GLY616  TRP617  ASP618  TYR619  PRO620  LYS621  CYS622 
 ASP623  PHE694  ASN695  SER759  ASP760  ASP761  ALA762  ILE779  LEU786  VAL792 
 PHE793  MET794  SER795  GLU796  ALA797  LYS798  CYS799  TRP800  GLU811  SER814 

> <Gold.Protein.RotatedAtoms>
  151.1234  135.0092  159.8548 H   0  0  0  0  0  0  0  0  0  0  0  0  # atno 6907 bound_to 6896
  152.5448  134.1695  159.8601 H   0  0  0  0  0  0  0  0  0  0  0  0  # atno 6908 bound_to 6896
  151.1755  133.4712  159.2627 H   0  0  0  0  0  0  0  0  0  0  0  0  # atno 6909 bound_to 6896
  145.9538  139.3997  143.0289 H   0  0  0  0  0  0  0  0  0  0  0  0  # atno 7974 bound_to 7965
  156.1029  140.3240  155.7967 H   0  0  0  0  0  0  0  0  0  0  0  0  # atno 8008 bound_to 7997
  155.4805  140.0553  157.2985 H   0  0  0  0  0  0  0  0  0  0  0  0  # atno 8009 bound_to 7997
  154.4709  140.2011  156.0013 H   0  0  0  0  0  0  0  0  0  0  0  0  # atno 8010 bound_to 7997
  139.5282  144.2713  152.0625 H   0  0  0  0  0  0  0  0  0  0  0  0  # atno 10167 bound_to 10162
  157.1213  131.0493  151.2414 H   0  0  0  0  0  0  0  0  0  0  0  0  # atno 10718 bound_to 10713
  152.9928  135.5527  154.5915 H   0  0  0  0  0  0  0  0  0  0  0  0  # atno 10763 bound_to 10752
  154.5275  135.2811  155.1211 H   0  0  0  0  0  0  0  0  0  0  0  0  # atno 10764 bound_to 10752
  154.2539  135.6393  153.5303 H   0  0  0  0  0  0  0  0  0  0  0  0  # atno 10765 bound_to 10752
  141.0177  133.6877  156.2325 H   0  0  0  0  0  0  0  0  0  0  0  0  # atno 11005 bound_to 11000
  145.8134  140.9715  143.0937 LP  0  0  0  0  0  0  0  0  0  0  0  0  # atno 17320 bound_to 7965
  144.6801  139.9950  143.7484 LP  0  0  0  0  0  0  0  0  0  0  0  0  # atno 17321 bound_to 7965
  140.2173  144.4502  150.6358 LP  0  0  0  0  0  0  0  0  0  0  0  0  # atno 17342 bound_to 10162
  140.6441  143.2210  151.6224 LP  0  0  0  0  0  0  0  0  0  0  0  0  # atno 17343 bound_to 10162
  157.4474  130.7579  149.7121 LP  0  0  0  0  0  0  0  0  0  0  0  0  # atno 17370 bound_to 10713
  155.9828  130.4006  150.3398 LP  0  0  0  0  0  0  0  0  0  0  0  0  # atno 17371 bound_to 10713
  140.6627  134.4951  157.5584 LP  0  0  0  0  0  0  0  0  0  0  0  0  # atno 17394 bound_to 11000
  139.9127  134.8311  156.1473 LP  0  0  0  0  0  0  0  0  0  0  0  0  # atno 17395 bound_to 11000

$$$$
