AV-unprocessed.smi:3143|AV-procd|sdf|11975|dock1
  -GOLD-   2272017373D 1   1.00000     0.00000
 Structure written by MMmdl.
 38 39  0  0  0  0  0  0  0  0  2 V2000
  152.2044  144.5425  157.5620 C   0  0  0  0  0  0  0  0  0  0  0  0
  151.3117  143.6848  158.4727 C   0  0  1  0  0  0  0  0  0  0  0  0
  150.2737  143.0136  157.6567 N   0  3  0  0  0  0  0  0  0  0  0  0
  150.7894  142.2325  156.5123 C   0  0  0  0  0  0  0  0  0  0  0  0
  149.9516  140.9666  156.2862 C   0  0  0  0  0  0  0  0  0  0  0  0
  148.7577  141.2487  155.5136 N   0  0  0  0  0  0  0  0  0  0  0  0
  148.4845  140.9229  154.2015 C   0  0  0  0  0  0  0  0  0  0  0  0
  147.2358  141.3974  153.9180 C   0  0  0  0  0  0  0  0  0  0  0  0
  146.8195  142.0049  155.1356 C   0  0  0  0  0  0  0  0  0  0  0  0
  147.7330  141.9139  156.0888 N   0  0  0  0  0  0  0  0  0  0  0  0
  152.1731  142.6634  159.2426 C   0  0  0  0  0  0  0  0  0  0  0  0
  152.5795  141.6640  158.6475 O   0  0  0  0  0  0  0  0  0  0  0  0
  152.4711  142.8914  160.5400 N   0  0  0  0  0  0  0  0  0  0  0  0
  153.2682  142.0282  161.4121 C   0  0  0  0  0  0  0  0  0  0  0  0
  153.1078  142.5992  162.8212 C   0  0  0  0  0  0  0  0  0  0  0  0
  152.7837  144.0683  162.5923 C   0  0  0  0  0  0  0  0  0  0  0  0
  152.0230  144.0787  161.2664 C   0  0  0  0  0  0  0  0  0  0  0  0
  152.9700  145.0693  158.1327 H   0  0  0  0  0  0  0  0  0  0  0  0
  151.6166  145.2953  157.0359 H   0  0  0  0  0  0  0  0  0  0  0  0
  152.7119  143.9354  156.8109 H   0  0  0  0  0  0  0  0  0  0  0  0
  150.7937  144.3493  159.1643 H   0  0  0  0  0  0  0  0  0  0  0  0
  149.7656  142.3792  158.2558 H   0  0  0  0  0  0  0  0  0  0  0  0
  150.7764  142.8499  155.6132 H   0  0  0  0  0  0  0  0  0  0  0  0
  151.8290  141.9616  156.7014 H   0  0  0  0  0  0  0  0  0  0  0  0
  150.5354  140.2094  155.7609 H   0  0  0  0  0  0  0  0  0  0  0  0
  149.6510  140.5311  157.2405 H   0  0  0  0  0  0  0  0  0  0  0  0
  149.1917  140.3879  153.5845 H   0  0  0  0  0  0  0  0  0  0  0  0
  146.7001  141.3210  152.9833 H   0  0  0  0  0  0  0  0  0  0  0  0
  145.8873  142.5052  155.3543 H   0  0  0  0  0  0  0  0  0  0  0  0
  152.9479  140.9864  161.3751 H   0  0  0  0  0  0  0  0  0  0  0  0
  154.3132  142.0772  161.1024 H   0  0  0  0  0  0  0  0  0  0  0  0
  152.2673  142.1143  163.3199 H   0  0  0  0  0  0  0  0  0  0  0  0
  153.9929  142.4528  163.4409 H   0  0  0  0  0  0  0  0  0  0  0  0
  152.2135  144.5092  163.4105 H   0  0  0  0  0  0  0  0  0  0  0  0
  153.7103  144.6349  162.4880 H   0  0  0  0  0  0  0  0  0  0  0  0
  152.2126  144.9981  160.7101 H   0  0  0  0  0  0  0  0  0  0  0  0
  150.9486  144.0027  161.4410 H   0  0  0  0  0  0  0  0  0  0  0  0
  149.6341  143.7171  157.3147 H   0  0  0  0  0  0  0  0  0  0  0  0
  1  2  1  0  0  0  0
  1 18  1  0  0  0  0
  1 19  1  0  0  0  0
  1 20  1  0  0  0  0
  2  3  1  0  0  0  0
  2 11  1  0  0  0  0
  2 21  1  0  0  0  0
  3  4  1  0  0  0  0
  3 22  1  0  0  0  0
  3 38  1  0  0  0  0
  4  5  1  0  0  0  0
  4 23  1  0  0  0  0
  4 24  1  0  0  0  0
  5  6  1  0  0  0  0
  5 25  1  0  0  0  0
  5 26  1  0  0  0  0
  6 10  1  0  0  0  0
  6  7  1  0  0  0  0
  7  8  2  0  0  0  0
  7 27  1  0  0  0  0
  8  9  1  0  0  0  0
  8 28  1  0  0  0  0
  9 10  2  0  0  0  0
  9 29  1  0  0  0  0
 11 12  2  0  0  0  0
 11 13  1  0  0  0  0
 13 17  1  0  0  0  0
 13 14  1  0  0  0  0
 14 15  1  0  0  0  0
 14 30  1  0  0  0  0
 14 31  1  0  0  0  0
 15 16  1  0  0  0  0
 15 32  1  0  0  0  0
 15 33  1  0  0  0  0
 16 17  1  0  0  0  0
 16 34  1  0  0  0  0
 16 35  1  0  0  0  0
 17 36  1  0  0  0  0
 17 37  1  0  0  0  0
M  CHG  1   3   1
M  END
> <s_m_source_file>
AV-unprocessed.smi

> <i_m_source_file_index>
3143

> <i_lp_mmshare_version>
43012

> <i_f3d_flags>
0

> <s_epik_input>
W0NIMl0xW0NIMl1bQ0gyXVtDSDJdTjFDKD1PKVtDQEhdKFtDSDNdKVtOSF1bQ0gyXVtDSDJdbjJbY0hdW2NIXVtjSF1uMg==

> <s_epik_cmdline>
J2VwaWtfcHl0aG9uJywgJy1waCcsICc3LjAnLCAnLXRuJywgJzgnLCAnLW1hJywgJzIwMCcsICctbWV0YWxfYmluZGluZycsICctaW1hZScsICc8aW5maWxlLm1hZT4nLCAnLW9tYWUnLCAnPG91dGZpbGUubWFlPic=

> <r_lp_tautomer_probability>
1

> <r_epik_Ionization_Penalty>
0.203171

> <r_epik_Ionization_Penalty_Charging>
0.203168

> <r_epik_Ionization_Penalty_Neutral>
2.46932e-06

> <r_epik_State_Penalty>
0.193072

> <r_epik_Charging_Adjusted_Penalty>
0.39624

> <i_epik_Tot_Q>
1

> <i_epik_Tot_abs_Q>
1

> <r_epik_Metal_State_Penalty>
0.193323

> <b_epik_Metal_Only>
0

> <s_lp_Force_Field>
OPLS_2005

> <r_lp_Energy>
30.1321

> <b_lp_Chiralities_Consistent>
1

> <s_lp_Variant>
AV-unprocessed.smi:3143-2

> <Gold.Version>
5.8.1

> <Gold.Id.Protein>
6NUR|6NUR_protein|mol2

> <Gold.PLP.Fitness>
51.2323

> <Gold.PLP.PLP>
-44.0314

> <Gold.PLP.part.hbond>
-1.0000

> <Gold.PLP.part.metal>
0.0000

> <Gold.PLP.part.buried>
-4.8353

> <Gold.PLP.part.nonpolar>
-38.8320

> <Gold.PLP.part.repulsive>
1.4769

> <Gold.PLP.ligand.clash>
0.0000

> <Gold.PLP.ligand.torsion>
0.9637

> <Gold.PLP.Chemscore.Hbond>
2.0000

> <Gold.PLP.Chemscore.CHOScore>
1.0000

> <Gold.PLP.Chemscore.Metal>
0.0000

> <Gold.Chemscore.Hbonds>
donor molecule, donor type, donor heavy atom, donor atom, acceptor molecule, acceptor atom, score
      L1  H     3    38       P1  8028  1.78
      L1  C     7    27       P1  7957  1.00

> <Gold.PLP.Chemscore.Internal.Correction>
0.1282

> <Gold.Rescore>
     Score         DG    S(hbond)    S(metal)    S(lipo)     H(rot)  DE(clash)    DE(int)     intcor
     13.72     -16.47       0.97        0.00     106.41       1.84       0.55       2.20       ----

> <Gold.Chemscore.Fitness>
13.7161

> <Gold.Chemscore.DG>
-16.4728

> <Gold.Chemscore.ZeroCoef>
-5.4800

> <Gold.Chemscore.Hbond>
0.9743

> <Gold.Chemscore.Metal>
0.0000

> <Gold.Chemscore.Lipo>
106.4125

> <Gold.Chemscore.Internal_Hbond>
0.0000

> <Gold.Chemscore.DEClash>
0.5535

> <Gold.Chemscore.DEInternal>
2.2032

> <Gold.Chemscore.Rot>
1.8405

> <Gold.Chemscore.Internal.Correction>
   9.000000E+99

> <Gold.Chemscore.Hbonds>
donor molecule, donor type, donor heavy atom, donor atom, acceptor molecule, acceptor atom, score
      L1  H     3    38       P1  8028  0.61

> <Gold.Chemscore.Hbond.Weighted>
-3.2542

> <Gold.Chemscore.Metal.Weighted>
-0.0000

> <Gold.Chemscore.Lipo.Weighted>
-12.4503

> <Gold.Chemscore.Internal_Hbond.Weighted>
0.0000

> <Gold.Chemscore.DEClash.Weighted>
0.5535

> <Gold.Chemscore.DEInternal.Weighted>
2.2032

> <Gold.Chemscore.Rot.Weighted>
4.7117

> <Gold.Chemscore.Internal.Correction.Weighted>
   9.000000E+99

> <Gold.Protein.RotatedTorsions>
[ 6907 6896 6895 6894 ] final  -50.11 input  -60.11 | X-H torsion
[ 7974 7965 7964 7962 ] final  -19.45 input  175.53 | X-H torsion
[ 8008 7997 7996 7995 ] final  119.34 input   59.86 | X-H torsion
[ 10167 10162 10161 10158 ] final   59.96 input  -65.29 | X-H torsion
[ 10718 10713 10712 10709 ] final   95.68 input   66.30 | X-H torsion
[ 10763 10752 10751 10750 ] final   27.71 input  -60.55 | X-H torsion
[ 11005 11000 10999 10996 ] final  131.65 input  -57.11 | X-H torsion

> <Gold.Protein.ActiveResidues>
 VAL166  LYS551  ARG553  GLY616  TRP617  ASP618  TYR619  PRO620  LYS621  CYS622 
 ASP623  PHE694  ASN695  SER759  ASP760  ASP761  ALA762  ILE779  LEU786  VAL792 
 PHE793  MET794  SER795  GLU796  ALA797  LYS798  CYS799  TRP800  GLU811  SER814 

> <Gold.Protein.RotatedAtoms>
  150.8739  134.8118  159.7174 H   0  0  0  0  0  0  0  0  0  0  0  0  # atno 6907 bound_to 6896
  152.4733  134.4903  159.9703 H   0  0  0  0  0  0  0  0  0  0  0  0  # atno 6908 bound_to 6896
  151.4988  133.3470  159.2901 H   0  0  0  0  0  0  0  0  0  0  0  0  # atno 6909 bound_to 6896
  146.1841  140.4063  142.8483 H   0  0  0  0  0  0  0  0  0  0  0  0  # atno 7974 bound_to 7965
  156.2591  140.2855  156.0976 H   0  0  0  0  0  0  0  0  0  0  0  0  # atno 8008 bound_to 7997
  155.1395  140.0395  157.2812 H   0  0  0  0  0  0  0  0  0  0  0  0  # atno 8009 bound_to 7997
  154.6540  140.2551  155.7188 H   0  0  0  0  0  0  0  0  0  0  0  0  # atno 8010 bound_to 7997
  140.1708  144.4279  150.6662 H   0  0  0  0  0  0  0  0  0  0  0  0  # atno 10167 bound_to 10162
  157.6936  131.0553  150.4375 H   0  0  0  0  0  0  0  0  0  0  0  0  # atno 10718 bound_to 10713
  153.0538  135.6530  154.0627 H   0  0  0  0  0  0  0  0  0  0  0  0  # atno 10763 bound_to 10752
  154.0309  135.2911  155.3370 H   0  0  0  0  0  0  0  0  0  0  0  0  # atno 10764 bound_to 10752
  154.6842  135.5308  153.8371 H   0  0  0  0  0  0  0  0  0  0  0  0  # atno 10765 bound_to 10752
  139.9743  134.9568  156.9469 H   0  0  0  0  0  0  0  0  0  0  0  0  # atno 11005 bound_to 11000
  144.8365  140.6791  143.6257 LP  0  0  0  0  0  0  0  0  0  0  0  0  # atno 17320 bound_to 7965
  145.3991  139.1601  143.4187 LP  0  0  0  0  0  0  0  0  0  0  0  0  # atno 17321 bound_to 7965
  140.6583  143.2244  151.5916 LP  0  0  0  0  0  0  0  0  0  0  0  0  # atno 17342 bound_to 10162
  139.5339  144.2837  152.1208 LP  0  0  0  0  0  0  0  0  0  0  0  0  # atno 17343 bound_to 10162
  156.4737  130.4058  149.6503 LP  0  0  0  0  0  0  0  0  0  0  0  0  # atno 17370 bound_to 10713
  156.3574  130.7464  151.2431 LP  0  0  0  0  0  0  0  0  0  0  0  0  # atno 17371 bound_to 10713
  140.5227  134.0891  155.7296 LP  0  0  0  0  0  0  0  0  0  0  0  0  # atno 17394 bound_to 11000
  141.1421  133.9120  157.2301 LP  0  0  0  0  0  0  0  0  0  0  0  0  # atno 17395 bound_to 11000

$$$$
