AV-unprocessed.smi:1258|AV-procd|sdf|5290|dock5
  -GOLD-   22720 4413D 1   1.00000     0.00000
 Structure written by MMmdl.
 33 34  0  0  0  0  0  0  0  0  1 V2000
  153.1575  142.6361  162.7824 C   0  0  0  0  0  0  0  0  0  0  0  0
  152.5077  142.9076  161.4181 C   0  0  1  0  0  0  0  0  0  0  0  0
  152.1916  144.4044  161.2357 C   0  0  0  0  0  0  0  0  0  0  0  0
  151.5481  144.6841  159.8690 C   0  0  0  0  0  0  0  0  0  0  0  0
  152.4363  144.1765  158.7212 C   0  0  0  0  0  0  0  0  0  0  0  0
  152.7831  142.6795  158.8732 C   0  0  2  0  0  0  0  0  0  0  0  0
  151.6155  141.8284  158.6479 N   0  0  0  0  0  0  0  0  0  0  0  0
  151.6226  140.6466  158.0119 C   0  0  0  0  0  0  0  0  0  0  0  0
  152.6384  140.1446  157.5293 O   0  0  0  0  0  0  0  0  0  0  0  0
  150.2736  139.9309  157.8967 C   0  0  0  0  0  0  0  0  0  0  0  0
  150.3069  138.6173  158.5135 N   0  0  0  0  0  0  0  0  0  0  0  0
  151.2363  137.6597  158.4889 C   0  0  0  0  0  0  0  0  0  0  0  0
  150.8697  136.6042  159.1999 N   0  0  0  0  0  0  0  0  0  0  0  0
  149.6243  136.9683  159.6842 N   0  0  0  0  0  0  0  0  0  0  0  0
  149.2851  138.1621  159.2807 N   0  0  0  0  0  0  0  0  0  0  0  0
  153.3919  142.3945  160.2612 C   0  0  0  0  0  0  0  0  0  0  0  0
  154.1076  143.1620  162.8812 H   0  0  0  0  0  0  0  0  0  0  0  0
  153.3499  141.5720  162.9214 H   0  0  0  0  0  0  0  0  0  0  0  0
  152.5105  142.9625  163.5972 H   0  0  0  0  0  0  0  0  0  0  0  0
  151.5644  142.3601  161.3938 H   0  0  0  0  0  0  0  0  0  0  0  0
  151.5249  144.7449  162.0287 H   0  0  0  0  0  0  0  0  0  0  0  0
  153.1074  144.9894  161.3310 H   0  0  0  0  0  0  0  0  0  0  0  0
  150.5692  144.2057  159.8187 H   0  0  0  0  0  0  0  0  0  0  0  0
  151.3728  145.7543  159.7547 H   0  0  0  0  0  0  0  0  0  0  0  0
  151.9526  144.3659  157.7624 H   0  0  0  0  0  0  0  0  0  0  0  0
  153.3611  144.7545  158.7082 H   0  0  0  0  0  0  0  0  0  0  0  0
  153.5329  142.4197  158.1236 H   0  0  0  0  0  0  0  0  0  0  0  0
  150.7348  142.1649  159.0096 H   0  0  0  0  0  0  0  0  0  0  0  0
  149.4811  140.5204  158.3613 H   0  0  0  0  0  0  0  0  0  0  0  0
  150.0167  139.8169  156.8432 H   0  0  0  0  0  0  0  0  0  0  0  0
  152.1734  137.7369  157.9573 H   0  0  0  0  0  0  0  0  0  0  0  0
  154.3703  142.8735  160.3206 H   0  0  0  0  0  0  0  0  0  0  0  0
  153.5743  141.3249  160.3738 H   0  0  0  0  0  0  0  0  0  0  0  0
  1  2  1  0  0  0  0
  1 17  1  0  0  0  0
  1 18  1  0  0  0  0
  1 19  1  0  0  0  0
  2 16  1  0  0  0  0
  2  3  1  0  0  0  0
  2 20  1  0  0  0  0
  3  4  1  0  0  0  0
  3 21  1  0  0  0  0
  3 22  1  0  0  0  0
  4  5  1  0  0  0  0
  4 23  1  0  0  0  0
  4 24  1  0  0  0  0
  5  6  1  0  0  0  0
  5 25  1  0  0  0  0
  5 26  1  0  0  0  0
  6  7  1  0  0  0  0
  6 16  1  0  0  0  0
  6 27  1  0  0  0  0
  7  8  1  0  0  0  0
  7 28  1  0  0  0  0
  8  9  2  0  0  0  0
  8 10  1  0  0  0  0
 10 11  1  0  0  0  0
 10 29  1  0  0  0  0
 10 30  1  0  0  0  0
 11 15  1  0  0  0  0
 11 12  1  0  0  0  0
 12 13  2  0  0  0  0
 12 31  1  0  0  0  0
 13 14  1  0  0  0  0
 14 15  2  0  0  0  0
 16 32  1  0  0  0  0
 16 33  1  0  0  0  0
M  END
> <s_m_source_file>
AV-unprocessed.smi

> <i_m_source_file_index>
1258

> <i_lp_mmshare_version>
43012

> <i_f3d_flags>
0

> <s_epik_input>
W0NIM11bQ0BASF0xW0NIMl1bQ0gyXVtDSDJdW0NASF0oW0NIMl0xKVtOSF1DKD1PKVtDSDJdbjJbY0hdbm5uMg==

> <s_epik_cmdline>
J2VwaWtfcHl0aG9uJywgJy1waCcsICc3LjAnLCAnLXRuJywgJzgnLCAnLW1hJywgJzIwMCcsICctbWV0YWxfYmluZGluZycsICctaW1hZScsICc8aW5maWxlLm1hZT4nLCAnLW9tYWUnLCAnPG91dGZpbGUubWFlPic=

> <r_lp_tautomer_probability>
1

> <r_epik_Ionization_Penalty>
5.03816e-07

> <r_epik_Ionization_Penalty_Charging>
0

> <r_epik_Ionization_Penalty_Neutral>
5.03816e-07

> <r_epik_State_Penalty>
-0

> <r_epik_Charging_Adjusted_Penalty>
0

> <i_epik_Tot_Q>
0

> <i_epik_Tot_abs_Q>
0

> <r_epik_Metal_State_Penalty>
-0

> <b_epik_Metal_Only>
0

> <s_lp_Force_Field>
OPLS_2005

> <r_lp_Energy>
10.3289

> <b_lp_Chiralities_Consistent>
1

> <s_lp_Variant>
AV-unprocessed.smi:1258-4

> <Gold.Version>
5.8.1

> <Gold.Id.Protein>
6NUR|6NUR_protein|mol2

> <Gold.PLP.Fitness>
43.4113

> <Gold.PLP.PLP>
-38.5446

> <Gold.PLP.part.hbond>
-4.1726

> <Gold.PLP.part.metal>
0.0000

> <Gold.PLP.part.buried>
-4.1579

> <Gold.PLP.part.nonpolar>
-29.5406

> <Gold.PLP.part.repulsive>
0.0901

> <Gold.PLP.ligand.clash>
0.0000

> <Gold.PLP.ligand.torsion>
0.5715

> <Gold.PLP.Chemscore.Hbond>
2.0000

> <Gold.PLP.Chemscore.CHOScore>
0.0000

> <Gold.PLP.Chemscore.Metal>
0.0000

> <Gold.Chemscore.Hbonds>
donor molecule, donor type, donor heavy atom, donor atom, acceptor molecule, acceptor atom, score
      P1  H  6896  6909       L1    13  1.00
      P1  H  7997  8009       L1     9  1.00

> <Gold.PLP.Chemscore.Internal.Correction>
0.0097

> <Gold.Rescore>
     Score         DG    S(hbond)    S(metal)    S(lipo)     H(rot)  DE(clash)    DE(int)     intcor
     16.00     -17.50       1.96        0.00      88.89       1.92       0.03       1.48       ----

> <Gold.Chemscore.Fitness>
15.9967

> <Gold.Chemscore.DG>
-17.5035

> <Gold.Chemscore.ZeroCoef>
-5.4800

> <Gold.Chemscore.Hbond>
1.9552

> <Gold.Chemscore.Metal>
0.0000

> <Gold.Chemscore.Lipo>
88.8913

> <Gold.Chemscore.Internal_Hbond>
0.0000

> <Gold.Chemscore.DEClash>
0.0270

> <Gold.Chemscore.DEInternal>
1.4799

> <Gold.Chemscore.Rot>
1.9169

> <Gold.Chemscore.Internal.Correction>
   9.000000E+99

> <Gold.Chemscore.Hbonds>
donor molecule, donor type, donor heavy atom, donor atom, acceptor molecule, acceptor atom, score
      P1  H  6896  6909       L1    13  0.34
      P1  H  7997  8009       L1     9  0.95

> <Gold.Chemscore.Hbond.Weighted>
-6.5305

> <Gold.Chemscore.Metal.Weighted>
-0.0000

> <Gold.Chemscore.Lipo.Weighted>
-10.4003

> <Gold.Chemscore.Internal_Hbond.Weighted>
0.0000

> <Gold.Chemscore.DEClash.Weighted>
0.0270

> <Gold.Chemscore.DEInternal.Weighted>
1.4799

> <Gold.Chemscore.Rot.Weighted>
4.9073

> <Gold.Chemscore.Internal.Correction.Weighted>
   9.000000E+99

> <Gold.Protein.RotatedTorsions>
[ 6907 6896 6895 6894 ] final   83.76 input  -60.11 | X-H torsion
[ 7974 7965 7964 7962 ] final -111.78 input  175.53 | X-H torsion
[ 8008 7997 7996 7995 ] final  177.84 input   59.86 | X-H torsion
[ 10167 10162 10161 10158 ] final  -73.51 input  -65.29 | X-H torsion
[ 10718 10713 10712 10709 ] final   64.00 input   66.30 | X-H torsion
[ 10763 10752 10751 10750 ] final   46.66 input  -60.55 | X-H torsion
[ 11005 11000 10999 10996 ] final   69.04 input  -57.11 | X-H torsion

> <Gold.Protein.ActiveResidues>
 VAL166  LYS551  ARG553  GLY616  TRP617  ASP618  TYR619  PRO620  LYS621  CYS622 
 ASP623  PHE694  ASN695  SER759  ASP760  ASP761  ALA762  ILE779  LEU786  VAL792 
 PHE793  MET794  SER795  GLU796  ALA797  LYS798  CYS799  TRP800  GLU811  SER814 

> <Gold.Protein.RotatedAtoms>
  152.5335  134.2845  159.9019 H   0  0  0  0  0  0  0  0  0  0  0  0  # atno 6907 bound_to 6896
  151.2799  133.4208  159.2634 H   0  0  0  0  0  0  0  0  0  0  0  0  # atno 6908 bound_to 6896
  151.0293  134.9543  159.8159 H   0  0  0  0  0  0  0  0  0  0  0  0  # atno 6909 bound_to 6896
  145.1520  140.8834  143.3641 H   0  0  0  0  0  0  0  0  0  0  0  0  # atno 7974 bound_to 7965
  156.0612  140.1348  156.9939 H   0  0  0  0  0  0  0  0  0  0  0  0  # atno 8008 bound_to 7997
  154.4483  140.0991  156.6591 H   0  0  0  0  0  0  0  0  0  0  0  0  # atno 8009 bound_to 7997
  155.5374  140.3460  155.4441 H   0  0  0  0  0  0  0  0  0  0  0  0  # atno 8010 bound_to 7997
  140.5105  143.2346  151.7602 H   0  0  0  0  0  0  0  0  0  0  0  0  # atno 10167 bound_to 10162
  157.6009  130.9136  149.9788 H   0  0  0  0  0  0  0  0  0  0  0  0  # atno 10718 bound_to 10713
  152.9808  135.6001  154.3636 H   0  0  0  0  0  0  0  0  0  0  0  0  # atno 10763 bound_to 10752
  154.3315  135.2768  155.2471 H   0  0  0  0  0  0  0  0  0  0  0  0  # atno 10764 bound_to 10752
  154.4593  135.5970  153.6300 H   0  0  0  0  0  0  0  0  0  0  0  0  # atno 10765 bound_to 10752
  139.9676  134.6954  156.0512 H   0  0  0  0  0  0  0  0  0  0  0  0  # atno 11005 bound_to 11000
  145.0421  139.3251  143.5971 LP  0  0  0  0  0  0  0  0  0  0  0  0  # atno 17320 bound_to 7965
  146.3493  139.9798  142.8697 LP  0  0  0  0  0  0  0  0  0  0  0  0  # atno 17321 bound_to 7965
  139.4895  144.4398  151.9778 LP  0  0  0  0  0  0  0  0  0  0  0  0  # atno 17342 bound_to 10162
  140.3490  144.3112  150.5953 LP  0  0  0  0  0  0  0  0  0  0  0  0  # atno 17343 bound_to 10162
  156.1083  130.3651  150.0095 LP  0  0  0  0  0  0  0  0  0  0  0  0  # atno 17370 bound_to 10713
  156.8198  130.9354  151.3641 LP  0  0  0  0  0  0  0  0  0  0  0  0  # atno 17371 bound_to 10713
  141.1356  133.6576  156.3585 LP  0  0  0  0  0  0  0  0  0  0  0  0  # atno 17394 bound_to 11000
  140.5362  134.6165  157.5365 LP  0  0  0  0  0  0  0  0  0  0  0  0  # atno 17395 bound_to 11000

$$$$
