AV-unprocessed.smi:634|AV-procd|sdf|3138|dock3
  -GOLD-   22720 0 63D 1   1.00000     0.00000
 Structure written by MMmdl.
 32 33  0  0  0  0  0  0  0  0  2 V2000
  145.0386  134.8349  162.8024 C   0  0  0  0  0  0  0  0  0  0  0  0
  146.0674  135.5170  161.9677 C   0  0  0  0  0  0  0  0  0  0  0  0
  147.3471  135.1899  161.6180 C   0  0  0  0  0  0  0  0  0  0  0  0
  147.7496  136.2864  160.8095 C   0  0  0  0  0  0  0  0  0  0  0  0
  149.0508  136.3279  160.2431 N   0  0  0  0  0  0  0  0  0  0  0  0
  149.4713  136.9793  159.1439 C   0  0  0  0  0  0  0  0  0  0  0  0
  148.6746  137.6307  158.4603 O   0  0  0  0  0  0  0  0  0  0  0  0
  150.8069  136.8135  158.9279 N   0  5  0  0  0  0  0  0  0  0  0  0
  151.7073  137.6659  158.1297 C   0  0  2  0  0  0  0  0  0  0  0  0
  153.1435  137.1755  158.4087 C   0  0  0  0  0  0  0  0  0  0  0  0
  151.5882  139.1643  158.5212 C   0  0  0  0  0  0  0  0  0  0  0  0
  152.2561  140.0300  157.4409 C   0  0  0  0  0  0  0  0  0  0  0  0
  152.0600  139.1131  155.8635 S   0  0  0  0  0  0  0  0  0  0  0  0
  151.0033  139.7429  155.0566 O   0  0  0  0  0  0  0  0  0  0  0  0
  153.3916  138.8597  155.2903 O   0  0  0  0  0  0  0  0  0  0  0  0
  151.4057  137.5698  156.6159 C   0  0  0  0  0  0  0  0  0  0  0  0
  146.7982  137.1991  160.6763 N   0  0  0  0  0  0  0  0  0  0  0  0
  145.7157  136.7105  161.4172 O   0  0  0  0  0  0  0  0  0  0  0  0
  145.4826  134.0277  163.3849 H   0  0  0  0  0  0  0  0  0  0  0  0
  144.2545  134.4092  162.1761 H   0  0  0  0  0  0  0  0  0  0  0  0
  144.5753  135.5360  163.4966 H   0  0  0  0  0  0  0  0  0  0  0  0
  147.9057  134.3092  161.8982 H   0  0  0  0  0  0  0  0  0  0  0  0
  149.7607  135.8124  160.7416 H   0  0  0  0  0  0  0  0  0  0  0  0
  153.8861  137.7394  157.8445 H   0  0  0  0  0  0  0  0  0  0  0  0
  153.2645  136.1256  158.1383 H   0  0  0  0  0  0  0  0  0  0  0  0
  153.3983  137.2716  159.4650 H   0  0  0  0  0  0  0  0  0  0  0  0
  150.5414  139.4629  158.5697 H   0  0  0  0  0  0  0  0  0  0  0  0
  152.0085  139.3655  159.5072 H   0  0  0  0  0  0  0  0  0  0  0  0
  151.8029  141.0178  157.3573 H   0  0  0  0  0  0  0  0  0  0  0  0
  153.3222  140.1563  157.6336 H   0  0  0  0  0  0  0  0  0  0  0  0
  151.8582  136.6999  156.1398 H   0  0  0  0  0  0  0  0  0  0  0  0
  150.3371  137.5458  156.4062 H   0  0  0  0  0  0  0  0  0  0  0  0
  1  2  1  0  0  0  0
  1 19  1  0  0  0  0
  1 20  1  0  0  0  0
  1 21  1  0  0  0  0
  2 18  1  0  0  0  0
  2  3  2  0  0  0  0
  3  4  1  0  0  0  0
  3 22  1  0  0  0  0
  4  5  1  0  0  0  0
  4 17  2  0  0  0  0
  5  6  1  0  0  0  0
  5 23  1  0  0  0  0
  6  7  2  0  0  0  0
  6  8  1  0  0  0  0
  8  9  1  0  0  0  0
  9 16  1  0  0  0  0
  9 10  1  0  0  0  0
  9 11  1  0  0  0  0
 10 24  1  0  0  0  0
 10 25  1  0  0  0  0
 10 26  1  0  0  0  0
 11 12  1  0  0  0  0
 11 27  1  0  0  0  0
 11 28  1  0  0  0  0
 12 13  1  0  0  0  0
 12 29  1  0  0  0  0
 12 30  1  0  0  0  0
 13 14  2  0  0  0  0
 13 15  2  0  0  0  0
 13 16  1  0  0  0  0
 16 31  1  0  0  0  0
 16 32  1  0  0  0  0
 17 18  1  0  0  0  0
M  CHG  1   8  -1
M  END
> <s_m_source_file>
AV-unprocessed.smi

> <i_m_source_file_index>
634

> <i_lp_mmshare_version>
43012

> <i_f3d_flags>
0

> <s_epik_input>
W0NIM11jMVtjSF1jKG5vMSlbTkhdQyg9TylbTkhdW0NAQF0yKFtDSDNdKVtDSDJdW0NIMl1TKD1PKSg9TylbQ0gyXTI=

> <s_epik_cmdline>
J2VwaWtfcHl0aG9uJywgJy1waCcsICc3LjAnLCAnLXRuJywgJzgnLCAnLW1hJywgJzIwMCcsICctbWV0YWxfYmluZGluZycsICctaW1hZScsICc8aW5maWxlLm1hZT4nLCAnLW9tYWUnLCAnPG91dGZpbGUubWFlPic=

> <r_lp_tautomer_probability>
1

> <r_epik_Ionization_Penalty>
6.62388

> <r_epik_Ionization_Penalty_Charging>
6.62387

> <r_epik_Ionization_Penalty_Neutral>
5.45748e-06

> <r_epik_State_Penalty>
6.65157

> <r_epik_Charging_Adjusted_Penalty>
13.2754

> <i_epik_Tot_Q>
-1

> <i_epik_Tot_abs_Q>
1

> <r_epik_Metal_State_Penalty>
2.59195

> <b_epik_Metal_Only>
1

> <s_lp_Force_Field>
OPLS_2005

> <r_lp_Energy>
8.10378

> <b_lp_Chiralities_Consistent>
1

> <s_lp_Variant>
AV-unprocessed.smi:634-6

> <Gold.Version>
5.8.1

> <Gold.Id.Protein>
6NUR|6NUR_protein|mol2

> <Gold.PLP.Fitness>
38.9111

> <Gold.PLP.PLP>
-24.6115

> <Gold.PLP.part.hbond>
-4.0000

> <Gold.PLP.part.metal>
0.0000

> <Gold.PLP.part.buried>
-5.2317

> <Gold.PLP.part.nonpolar>
-15.9736

> <Gold.PLP.part.repulsive>
0.2753

> <Gold.PLP.ligand.clash>
0.0000

> <Gold.PLP.ligand.torsion>
0.3563

> <Gold.PLP.Chemscore.Hbond>
5.0000

> <Gold.PLP.Chemscore.CHOScore>
0.0000

> <Gold.PLP.Chemscore.Metal>
0.0000

> <Gold.Chemscore.Hbonds>
donor molecule, donor type, donor heavy atom, donor atom, acceptor molecule, acceptor atom, score
      P1  H  6896  6907       L1     8  2.00
      P1  H  6934  6947       L1    17  1.00
      P1  H  7989  7998       L1    14  1.00
      P1  H  7997  8010       L1    15  1.00

> <Gold.PLP.Chemscore.Internal.Correction>
0.0121

> <Gold.Rescore>
     Score         DG    S(hbond)    S(metal)    S(lipo)     H(rot)  DE(clash)    DE(int)     intcor
     17.36     -18.82       3.28        0.00      42.26       1.00       0.00       1.46       ----

> <Gold.Chemscore.Fitness>
17.3580

> <Gold.Chemscore.DG>
-18.8206

> <Gold.Chemscore.ZeroCoef>
-5.4800

> <Gold.Chemscore.Hbond>
3.2801

> <Gold.Chemscore.Metal>
0.0000

> <Gold.Chemscore.Lipo>
42.2648

> <Gold.Chemscore.Internal_Hbond>
0.0000

> <Gold.Chemscore.DEClash>
0.0000

> <Gold.Chemscore.DEInternal>
1.4626

> <Gold.Chemscore.Rot>
1.0000

> <Gold.Chemscore.Internal.Correction>
   9.000000E+99

> <Gold.Chemscore.Hbonds>
donor molecule, donor type, donor heavy atom, donor atom, acceptor molecule, acceptor atom, score
      P1  H  6896  6907       L1     8  0.33
      P1  H  6934  6947       L1    17  0.89
      P1  H  7989  7998       L1    14  0.88
      P1  H  7997  8010       L1    15  0.48

> <Gold.Chemscore.Hbond.Weighted>
-10.9556

> <Gold.Chemscore.Metal.Weighted>
-0.0000

> <Gold.Chemscore.Lipo.Weighted>
-4.9450

> <Gold.Chemscore.Internal_Hbond.Weighted>
0.0000

> <Gold.Chemscore.DEClash.Weighted>
0.0000

> <Gold.Chemscore.DEInternal.Weighted>
1.4626

> <Gold.Chemscore.Rot.Weighted>
2.5600

> <Gold.Chemscore.Internal.Correction.Weighted>
   9.000000E+99

> <Gold.Protein.RotatedTorsions>
[ 6907 6896 6895 6894 ] final  -25.78 input  -60.11 | X-H torsion
[ 7974 7965 7964 7962 ] final   52.42 input  175.53 | X-H torsion
[ 8008 7997 7996 7995 ] final   99.34 input   59.86 | X-H torsion
[ 10167 10162 10161 10158 ] final -121.55 input  -65.29 | X-H torsion
[ 10718 10713 10712 10709 ] final    2.93 input   66.30 | X-H torsion
[ 10763 10752 10751 10750 ] final   14.81 input  -60.55 | X-H torsion
[ 11005 11000 10999 10996 ] final   35.98 input  -57.11 | X-H torsion

> <Gold.Protein.ActiveResidues>
 VAL166  LYS551  ARG553  GLY616  TRP617  ASP618  TYR619  PRO620  LYS621  CYS622 
 ASP623  PHE694  ASN695  SER759  ASP760  ASP761  ALA762  ILE779  LEU786  VAL792 
 PHE793  MET794  SER795  GLU796  ALA797  LYS798  CYS799  TRP800  GLU811  SER814 

> <Gold.Protein.RotatedAtoms>
  151.1703  135.0314  159.8748 H   0  0  0  0  0  0  0  0  0  0  0  0  # atno 6907 bound_to 6896
  152.5449  134.1179  159.8396 H   0  0  0  0  0  0  0  0  0  0  0  0  # atno 6908 bound_to 6896
  151.1284  133.5008  159.2632 H   0  0  0  0  0  0  0  0  0  0  0  0  # atno 6909 bound_to 6896
  145.9815  139.4247  143.0129 H   0  0  0  0  0  0  0  0  0  0  0  0  # atno 7974 bound_to 7965
  156.1095  140.3230  155.8053 H   0  0  0  0  0  0  0  0  0  0  0  0  # atno 8008 bound_to 7997
  155.4697  140.0545  157.2998 H   0  0  0  0  0  0  0  0  0  0  0  0  # atno 8009 bound_to 7997
  154.4750  140.2028  155.9914 H   0  0  0  0  0  0  0  0  0  0  0  0  # atno 8010 bound_to 7997
  140.0238  143.5317  152.2208 H   0  0  0  0  0  0  0  0  0  0  0  0  # atno 10167 bound_to 10162
  156.8702  130.5617  149.5658 H   0  0  0  0  0  0  0  0  0  0  0  0  # atno 10718 bound_to 10713
  153.1586  135.6792  153.8775 H   0  0  0  0  0  0  0  0  0  0  0  0  # atno 10763 bound_to 10752
  153.8178  135.3134  155.3408 H   0  0  0  0  0  0  0  0  0  0  0  0  # atno 10764 bound_to 10752
  154.7916  135.4831  154.0154 H   0  0  0  0  0  0  0  0  0  0  0  0  # atno 10765 bound_to 10752
  140.2371  134.3458  155.7940 H   0  0  0  0  0  0  0  0  0  0  0  0  # atno 11005 bound_to 11000
  145.7762  140.9875  143.1123 LP  0  0  0  0  0  0  0  0  0  0  0  0  # atno 17320 bound_to 7965
  144.6863  139.9508  143.7478 LP  0  0  0  0  0  0  0  0  0  0  0  0  # atno 17321 bound_to 7965
  139.6121  144.7611  151.2927 LP  0  0  0  0  0  0  0  0  0  0  0  0  # atno 17342 bound_to 10162
  140.7331  143.6804  150.8005 LP  0  0  0  0  0  0  0  0  0  0  0  0  # atno 17343 bound_to 10162
  156.0730  130.5759  150.9420 LP  0  0  0  0  0  0  0  0  0  0  0  0  # atno 17370 bound_to 10713
  157.6200  131.0930  150.8640 LP  0  0  0  0  0  0  0  0  0  0  0  0  # atno 17371 bound_to 10713
  141.2213  133.7278  156.8826 LP  0  0  0  0  0  0  0  0  0  0  0  0  # atno 17394 bound_to 11000
  140.1691  134.9113  157.2810 LP  0  0  0  0  0  0  0  0  0  0  0  0  # atno 17395 bound_to 11000

$$$$
