AV-unprocessed.smi:1056|AV-procd|sdf|4645|dock7
  -GOLD-   22720 3153D 1   1.00000     0.00000
 Structure written by MMmdl.
 44 46  0  0  0  0  0  0  0  0  3 V2000
  152.2699  143.9895  159.8349 C   0  0  0  0  0  0  0  0  0  0  0  0
  152.0325  142.8631  158.8439 C   0  0  0  0  0  0  0  0  0  0  0  0
  151.1169  143.0606  157.7861 C   0  0  0  0  0  0  0  0  0  0  0  0
  150.8708  142.0406  156.8413 C   0  0  0  0  0  0  0  0  0  0  0  0
  150.0267  142.0165  155.7444 N   0  0  0  0  0  0  0  0  0  0  0  0
  150.2434  140.7952  155.2658 C   0  0  0  0  0  0  0  0  0  0  0  0
  151.1260  140.0216  155.9262 N   0  0  0  0  0  0  0  0  0  0  0  0
  151.5165  138.6646  155.5898 C   0  0  0  0  0  0  0  0  0  0  0  0
  150.3477  137.8336  155.0259 C   0  0  1  0  0  0  0  0  0  0  0  0
  150.1778  138.2072  153.6729 O   0  0  0  0  0  0  0  0  0  0  0  0
  150.5900  136.3092  155.1039 C   0  0  0  0  0  0  0  0  0  0  0  0
  149.4412  135.5129  154.6022 N   0  3  1  0  0  0  0  0  0  0  0  0
  149.7024  134.0512  154.6383 C   0  0  0  0  0  0  0  0  0  0  0  0
  148.6322  133.2964  153.8268 C   0  0  0  0  0  0  0  0  0  0  0  0
  147.2905  133.7685  154.1882 N   0  5  0  0  0  0  0  0  0  0  0  0
  146.9775  134.9770  154.7509 C   0  0  0  0  0  0  0  0  0  0  0  0
  145.8402  135.4092  154.9239 O   0  0  0  0  0  0  0  0  0  0  0  0
  148.1486  135.8597  155.2607 C   0  0  0  0  0  0  0  0  0  0  0  0
  151.5727  140.8079  156.9833 C   0  0  0  0  0  0  0  0  0  0  0  0
  152.4844  140.5983  158.0331 C   0  0  0  0  0  0  0  0  0  0  0  0
  152.7167  141.6273  158.9697 C   0  0  0  0  0  0  0  0  0  0  0  0
  153.7028  141.3915  160.0998 C   0  0  0  0  0  0  0  0  0  0  0  0
  151.7087  144.8840  159.5633 H   0  0  0  0  0  0  0  0  0  0  0  0
  153.3262  144.2566  159.8661 H   0  0  0  0  0  0  0  0  0  0  0  0
  151.9584  143.6899  160.8358 H   0  0  0  0  0  0  0  0  0  0  0  0
  150.5952  144.0015  157.6904 H   0  0  0  0  0  0  0  0  0  0  0  0
  149.7290  140.4402  154.3845 H   0  0  0  0  0  0  0  0  0  0  0  0
  152.3275  138.7170  154.8618 H   0  0  0  0  0  0  0  0  0  0  0  0
  151.9304  138.1892  156.4802 H   0  0  0  0  0  0  0  0  0  0  0  0
  149.4434  138.1084  155.5677 H   0  0  0  0  0  0  0  0  0  0  0  0
  149.6460  137.5575  153.2393 H   0  0  0  0  0  0  0  0  0  0  0  0
  151.4841  136.0757  154.5239 H   0  0  0  0  0  0  0  0  0  0  0  0
  150.8028  135.9962  156.1264 H   0  0  0  0  0  0  0  0  0  0  0  0
  150.6840  133.8271  154.2193 H   0  0  0  0  0  0  0  0  0  0  0  0
  149.7136  133.7085  155.6744 H   0  0  0  0  0  0  0  0  0  0  0  0
  148.8239  133.4582  152.7658 H   0  0  0  0  0  0  0  0  0  0  0  0
  148.7456  132.2248  153.9889 H   0  0  0  0  0  0  0  0  0  0  0  0
  148.2343  135.7316  156.3407 H   0  0  0  0  0  0  0  0  0  0  0  0
  147.8976  136.9038  155.0777 H   0  0  0  0  0  0  0  0  0  0  0  0
  153.0005  139.6535  158.1173 H   0  0  0  0  0  0  0  0  0  0  0  0
  154.0969  140.3751  160.0786 H   0  0  0  0  0  0  0  0  0  0  0  0
  153.2219  141.5429  161.0664 H   0  0  0  0  0  0  0  0  0  0  0  0
  154.5446  142.0795  160.0196 H   0  0  0  0  0  0  0  0  0  0  0  0
  149.3357  135.7366  153.6233 H   0  0  0  0  0  0  0  0  0  0  0  0
  1  2  1  0  0  0  0
  1 23  1  0  0  0  0
  1 24  1  0  0  0  0
  1 25  1  0  0  0  0
  2 21  1  0  0  0  0
  2  3  2  0  0  0  0
  3  4  1  0  0  0  0
  3 26  1  0  0  0  0
  4 19  2  0  0  0  0
  4  5  1  0  0  0  0
  5  6  2  0  0  0  0
  6  7  1  0  0  0  0
  6 27  1  0  0  0  0
  7  8  1  0  0  0  0
  7 19  1  0  0  0  0
  8  9  1  0  0  0  0
  8 28  1  0  0  0  0
  8 29  1  0  0  0  0
  9 10  1  0  0  0  0
  9 11  1  0  0  0  0
  9 30  1  0  0  0  0
 10 31  1  0  0  0  0
 11 12  1  0  0  0  0
 11 32  1  0  0  0  0
 11 33  1  0  0  0  0
 12 18  1  0  0  0  0
 12 13  1  0  0  0  0
 12 44  1  0  0  0  0
 13 14  1  0  0  0  0
 13 34  1  0  0  0  0
 13 35  1  0  0  0  0
 14 15  1  0  0  0  0
 14 36  1  0  0  0  0
 14 37  1  0  0  0  0
 15 16  1  0  0  0  0
 16 17  2  0  0  0  0
 16 18  1  0  0  0  0
 18 38  1  0  0  0  0
 18 39  1  0  0  0  0
 19 20  1  0  0  0  0
 20 21  2  0  0  0  0
 20 40  1  0  0  0  0
 21 22  1  0  0  0  0
 22 41  1  0  0  0  0
 22 42  1  0  0  0  0
 22 43  1  0  0  0  0
M  CHG  1  12   1
M  CHG  1  15  -1
M  END
> <s_m_source_file>
AV-unprocessed.smi

> <i_m_source_file_index>
1056

> <i_lp_mmshare_version>
43012

> <i_f3d_flags>
0

> <s_epik_input>
W0NIM11jKFtjSF0xKWMoW0NIM10pW2NIXWMoYzEyKW4oW2NIXW4yKVtDSDJdW0NASF0oW09IXSlbQ0gyXU4zW0NIMl1bQ0gyXVtOSF1DKD1PKVtDSDJdMw==

> <s_epik_cmdline>
J2VwaWtfcHl0aG9uJywgJy1waCcsICc3LjAnLCAnLXRuJywgJzgnLCAnLW1hJywgJzIwMCcsICctbWV0YWxfYmluZGluZycsICctaW1hZScsICc8aW5maWxlLm1hZT4nLCAnLW9tYWUnLCAnPG91dGZpbGUubWFlPic=

> <r_epik_Ionization_Penalty>
5.13411

> <r_epik_Ionization_Penalty_Charging>
5.04792

> <r_epik_Ionization_Penalty_Neutral>
0.0861879

> <r_epik_State_Penalty>
5.18224

> <r_epik_Charging_Adjusted_Penalty>
10.2302

> <i_epik_Tot_Q>
0

> <i_epik_Tot_abs_Q>
2

> <r_epik_Metal_State_Penalty>
1.33873

> <b_epik_Metal_Only>
1

> <s_lp_Force_Field>
OPLS_2005

> <r_lp_Energy>
19.55

> <b_lp_Chiralities_Consistent>
1

> <s_lp_Variant>
AV-unprocessed.smi:1056-16

> <Gold.Version>
5.8.1

> <Gold.Id.Protein>
6NUR|6NUR_protein|mol2

> <Gold.PLP.Fitness>
48.3964

> <Gold.PLP.PLP>
-40.4049

> <Gold.PLP.part.hbond>
-3.2153

> <Gold.PLP.part.metal>
0.0000

> <Gold.PLP.part.buried>
-2.4695

> <Gold.PLP.part.nonpolar>
-34.8388

> <Gold.PLP.part.repulsive>
1.1899

> <Gold.PLP.ligand.clash>
0.0000

> <Gold.PLP.ligand.torsion>
0.5257

> <Gold.PLP.Chemscore.Hbond>
3.0000

> <Gold.PLP.Chemscore.CHOScore>
0.0000

> <Gold.PLP.Chemscore.Metal>
0.0000

> <Gold.Chemscore.Hbonds>
donor molecule, donor type, donor heavy atom, donor atom, acceptor molecule, acceptor atom, score
      L1  H    10    31       P1  7948  1.00
      L1  H    12    44       P1  7948  2.00

> <Gold.PLP.Chemscore.Internal.Correction>
0.0429

> <Gold.Rescore>
     Score         DG    S(hbond)    S(metal)    S(lipo)     H(rot)  DE(clash)    DE(int)     intcor
     16.08     -16.85       1.79        0.00      96.76       2.31       0.14       0.64       ----

> <Gold.Chemscore.Fitness>
16.0787

> <Gold.Chemscore.DG>
-16.8542

> <Gold.Chemscore.ZeroCoef>
-5.4800

> <Gold.Chemscore.Hbond>
1.7900

> <Gold.Chemscore.Metal>
0.0000

> <Gold.Chemscore.Lipo>
96.7631

> <Gold.Chemscore.Internal_Hbond>
0.0000

> <Gold.Chemscore.DEClash>
0.1358

> <Gold.Chemscore.DEInternal>
0.6397

> <Gold.Chemscore.Rot>
2.3147

> <Gold.Chemscore.Internal.Correction>
   9.000000E+99

> <Gold.Chemscore.Hbonds>
donor molecule, donor type, donor heavy atom, donor atom, acceptor molecule, acceptor atom, score
      L1  H    10    31       P1  7948  0.76
      L1  H    12    44       P1  7948  0.50

> <Gold.Chemscore.Hbond.Weighted>
-5.9785

> <Gold.Chemscore.Metal.Weighted>
-0.0000

> <Gold.Chemscore.Lipo.Weighted>
-11.3213

> <Gold.Chemscore.Internal_Hbond.Weighted>
0.0000

> <Gold.Chemscore.DEClash.Weighted>
0.1358

> <Gold.Chemscore.DEInternal.Weighted>
0.6397

> <Gold.Chemscore.Rot.Weighted>
5.9256

> <Gold.Chemscore.Internal.Correction.Weighted>
   9.000000E+99

> <Gold.Protein.RotatedTorsions>
[ 6907 6896 6895 6894 ] final   25.48 input  -60.11 | X-H torsion
[ 7974 7965 7964 7962 ] final   60.66 input  175.53 | X-H torsion
[ 8008 7997 7996 7995 ] final  -35.69 input   59.86 | X-H torsion
[ 10167 10162 10161 10158 ] final   26.41 input  -65.29 | X-H torsion
[ 10718 10713 10712 10709 ] final   70.72 input   66.30 | X-H torsion
[ 10763 10752 10751 10750 ] final  -85.10 input  -60.55 | X-H torsion
[ 11005 11000 10999 10996 ] final  139.23 input  -57.11 | X-H torsion

> <Gold.Protein.ActiveResidues>
 VAL166  LYS551  ARG553  GLY616  TRP617  ASP618  TYR619  PRO620  LYS621  CYS622 
 ASP623  PHE694  ASN695  SER759  ASP760  ASP761  ALA762  ILE779  LEU786  VAL792 
 PHE793  MET794  SER795  GLU796  ALA797  LYS798  CYS799  TRP800  GLU811  SER814 

> <Gold.Protein.RotatedAtoms>
  151.9731  135.0067  160.0553 H   0  0  0  0  0  0  0  0  0  0  0  0  # atno 6907 bound_to 6896
  152.1765  133.4673  159.4944 H   0  0  0  0  0  0  0  0  0  0  0  0  # atno 6908 bound_to 6896
  150.6910  134.1805  159.4289 H   0  0  0  0  0  0  0  0  0  0  0  0  # atno 6909 bound_to 6896
  145.8936  139.3529  143.0635 H   0  0  0  0  0  0  0  0  0  0  0  0  # atno 7974 bound_to 7965
  154.4089  140.1650  156.2253 H   0  0  0  0  0  0  0  0  0  0  0  0  # atno 8008 bound_to 7997
  155.9329  140.3413  155.6240 H   0  0  0  0  0  0  0  0  0  0  0  0  # atno 8009 bound_to 7997
  155.7085  140.0753  157.2372 H   0  0  0  0  0  0  0  0  0  0  0  0  # atno 8010 bound_to 7997
  140.5025  144.0292  150.6338 H   0  0  0  0  0  0  0  0  0  0  0  0  # atno 10167 bound_to 10162
  157.6414  130.9491  150.0689 H   0  0  0  0  0  0  0  0  0  0  0  0  # atno 10718 bound_to 10713
  154.6071  135.5497  153.7435 H   0  0  0  0  0  0  0  0  0  0  0  0  # atno 10763 bound_to 10752
  153.0179  135.6380  154.1631 H   0  0  0  0  0  0  0  0  0  0  0  0  # atno 10764 bound_to 10752
  154.1570  135.2899  155.3099 H   0  0  0  0  0  0  0  0  0  0  0  0  # atno 10765 bound_to 10752
  140.0240  134.9383  157.0531 H   0  0  0  0  0  0  0  0  0  0  0  0  # atno 11005 bound_to 11000
  145.8878  140.9322  143.0568 LP  0  0  0  0  0  0  0  0  0  0  0  0  # atno 17320 bound_to 7965
  144.6731  140.0866  143.7467 LP  0  0  0  0  0  0  0  0  0  0  0  0  # atno 17321 bound_to 7965
  140.3592  143.2918  152.0402 LP  0  0  0  0  0  0  0  0  0  0  0  0  # atno 17342 bound_to 10162
  139.4875  144.6316  151.7059 LP  0  0  0  0  0  0  0  0  0  0  0  0  # atno 17343 bound_to 10162
  156.1699  130.3646  149.9179 LP  0  0  0  0  0  0  0  0  0  0  0  0  # atno 17370 bound_to 10713
  156.7157  130.8987  151.3613 LP  0  0  0  0  0  0  0  0  0  0  0  0  # atno 17371 bound_to 10713
  140.4339  134.1752  155.7169 LP  0  0  0  0  0  0  0  0  0  0  0  0  # atno 17394 bound_to 11000
  141.1791  133.8451  157.1320 LP  0  0  0  0  0  0  0  0  0  0  0  0  # atno 17395 bound_to 11000

$$$$
