AV-unprocessed.smi:1847|AV-procd|sdf|7516|dock1
  -GOLD-   22720 9223D 1   1.00000     0.00000
 Structure written by MMmdl.
 26 27  0  0  0  0  0  0  0  0  2 V2000
  152.5380  140.3138  157.2043 O   0  0  0  0  0  0  0  0  0  0  0  0
  151.6800  141.1975  157.2191 C   0  0  0  0  0  0  0  0  0  0  0  0
  150.5912  141.1998  156.4260 N   0  0  0  0  0  0  0  0  0  0  0  0
  150.2057  140.2501  155.4419 C   0  0  0  0  0  0  0  0  0  0  0  0
  151.1761  139.3138  155.0209 C   0  0  0  0  0  0  0  0  0  0  0  0
  150.8352  138.3465  154.0537 C   0  0  0  0  0  0  0  0  0  0  0  0
  149.5841  138.3139  153.5468 N   0  3  0  0  0  0  0  0  0  0  0  0
  148.6182  139.1756  153.9312 C   0  0  0  0  0  0  0  0  0  0  0  0
  148.9000  140.1651  154.8952 C   0  0  0  0  0  0  0  0  0  0  0  0
  151.6966  142.3565  158.1032 C   0  0  0  0  0  0  0  0  0  0  0  0
  151.2994  143.5603  157.6300 C   0  0  0  0  0  0  0  0  0  0  0  0
  151.2423  144.6989  158.3939 O   0  0  0  0  0  0  0  0  0  0  0  0
  151.3867  144.4826  159.7926 C   0  0  0  0  0  0  0  0  0  0  0  0
  152.4756  143.4335  160.0610 C   0  0  0  0  0  0  0  0  0  0  0  0
  152.1613  142.2159  159.3929 O   0  0  0  0  0  0  0  0  0  0  0  0
  149.9277  141.9408  156.6012 H   0  0  0  0  0  0  0  0  0  0  0  0
  152.1771  139.3391  155.4276 H   0  0  0  0  0  0  0  0  0  0  0  0
  151.5205  137.6030  153.6740 H   0  0  0  0  0  0  0  0  0  0  0  0
  147.6529  139.0461  153.4638 H   0  0  0  0  0  0  0  0  0  0  0  0
  148.1079  140.8302  155.2035 H   0  0  0  0  0  0  0  0  0  0  0  0
  150.9497  143.7423  156.6237 H   0  0  0  0  0  0  0  0  0  0  0  0
  151.6387  145.4268  160.2756 H   0  0  0  0  0  0  0  0  0  0  0  0
  150.4317  144.1544  160.2054 H   0  0  0  0  0  0  0  0  0  0  0  0
  153.4457  143.7934  159.7154 H   0  0  0  0  0  0  0  0  0  0  0  0
  152.5659  143.2416  161.1303 H   0  0  0  0  0  0  0  0  0  0  0  0
  149.3577  137.6057  152.8476 H   0  0  0  0  0  0  0  0  0  0  0  0
  1  2  2  0  0  0  0
  2  3  1  0  0  0  0
  2 10  1  0  0  0  0
  3  4  1  0  0  0  0
  3 16  1  0  0  0  0
  4  9  1  0  0  0  0
  4  5  2  0  0  0  0
  5  6  1  0  0  0  0
  5 17  1  0  0  0  0
  6  7  2  0  0  0  0
  6 18  1  0  0  0  0
  7  8  1  0  0  0  0
  7 26  1  0  0  0  0
  8  9  2  0  0  0  0
  8 19  1  0  0  0  0
  9 20  1  0  0  0  0
 10 15  1  0  0  0  0
 10 11  2  0  0  0  0
 11 12  1  0  0  0  0
 11 21  1  0  0  0  0
 12 13  1  0  0  0  0
 13 14  1  0  0  0  0
 13 22  1  0  0  0  0
 13 23  1  0  0  0  0
 14 15  1  0  0  0  0
 14 24  1  0  0  0  0
 14 25  1  0  0  0  0
M  CHG  1   7   1
M  END
> <s_m_source_file>
AV-unprocessed.smi

> <i_m_source_file_index>
1847

> <i_lp_mmshare_version>
43012

> <i_f3d_flags>
0

> <s_epik_input>
TzFbQ0gyXVtDSDJdT1tDSF09QzFDKD1PKVtOSF1jMltjSF1bY0hdbltjSF1bY0hdMg==

> <s_epik_cmdline>
J2VwaWtfcHl0aG9uJywgJy1waCcsICc3LjAnLCAnLXRuJywgJzgnLCAnLW1hJywgJzIwMCcsICctbWV0YWxfYmluZGluZycsICctaW1hZScsICc8aW5maWxlLm1hZT4nLCAnLW9tYWUnLCAnPG91dGZpbGUubWFlPic=

> <r_epik_Ionization_Penalty>
1.62337

> <r_epik_Ionization_Penalty_Charging>
1.62336

> <r_epik_Ionization_Penalty_Neutral>
7.67397e-06

> <r_epik_State_Penalty>
1.72329

> <r_epik_Charging_Adjusted_Penalty>
3.34665

> <i_epik_Tot_Q>
1

> <i_epik_Tot_abs_Q>
1

> <r_epik_Metal_State_Penalty>
1.82278

> <b_epik_Metal_Only>
0

> <s_lp_Force_Field>
OPLS_2005

> <r_lp_Energy>
12.9835

> <b_lp_Chiralities_Consistent>
1

> <s_lp_Variant>
AV-unprocessed.smi:1847-2

> <Gold.Version>
5.8.1

> <Gold.Id.Protein>
6NUR|6NUR_protein|mol2

> <Gold.PLP.Fitness>
40.2512

> <Gold.PLP.PLP>
-29.7562

> <Gold.PLP.part.hbond>
-3.0000

> <Gold.PLP.part.metal>
0.0000

> <Gold.PLP.part.buried>
-3.7487

> <Gold.PLP.part.nonpolar>
-23.5955

> <Gold.PLP.part.repulsive>
0.2835

> <Gold.PLP.ligand.clash>
0.2608

> <Gold.PLP.ligand.torsion>
0.6218

> <Gold.PLP.Chemscore.Hbond>
3.0000

> <Gold.PLP.Chemscore.CHOScore>
0.9991

> <Gold.PLP.Chemscore.Metal>
0.0000

> <Gold.Chemscore.Hbonds>
donor molecule, donor type, donor heavy atom, donor atom, acceptor molecule, acceptor atom, score
      L1  H     7    26       P1  7948  2.00
      P1  H  7997  8009       L1     1  0.98
      L1  C    11    21       P1  8028  1.00

> <Gold.PLP.Chemscore.Internal.Correction>
0.0021

> <Gold.Rescore>
     Score         DG    S(hbond)    S(metal)    S(lipo)     H(rot)  DE(clash)    DE(int)     intcor
     19.29     -21.03       1.96        0.00      76.91       0.00       0.01       1.73       ----

> <Gold.Chemscore.Fitness>
19.2925

> <Gold.Chemscore.DG>
-21.0333

> <Gold.Chemscore.ZeroCoef>
-5.4800

> <Gold.Chemscore.Hbond>
1.9626

> <Gold.Chemscore.Metal>
0.0000

> <Gold.Chemscore.Lipo>
76.9081

> <Gold.Chemscore.Internal_Hbond>
0.0000

> <Gold.Chemscore.DEClash>
0.0073

> <Gold.Chemscore.DEInternal>
1.7334

> <Gold.Chemscore.Rot>
0.0000

> <Gold.Chemscore.Internal.Correction>
   9.000000E+99

> <Gold.Chemscore.Hbonds>
donor molecule, donor type, donor heavy atom, donor atom, acceptor molecule, acceptor atom, score
      L1  H     7    26       P1  7948  0.93
      P1  H  7997  8009       L1     1  0.93

> <Gold.Chemscore.Hbond.Weighted>
-6.5550

> <Gold.Chemscore.Metal.Weighted>
-0.0000

> <Gold.Chemscore.Lipo.Weighted>
-8.9983

> <Gold.Chemscore.Internal_Hbond.Weighted>
0.0000

> <Gold.Chemscore.DEClash.Weighted>
0.0073

> <Gold.Chemscore.DEInternal.Weighted>
1.7334

> <Gold.Chemscore.Rot.Weighted>
0.0000

> <Gold.Chemscore.Internal.Correction.Weighted>
   9.000000E+99

> <Gold.Protein.RotatedTorsions>
[ 6907 6896 6895 6894 ] final  -54.54 input  -60.11 | X-H torsion
[ 7974 7965 7964 7962 ] final  -74.74 input  175.53 | X-H torsion
[ 8008 7997 7996 7995 ] final -178.68 input   59.86 | X-H torsion
[ 10167 10162 10161 10158 ] final -137.56 input  -65.29 | X-H torsion
[ 10718 10713 10712 10709 ] final   -8.03 input   66.30 | X-H torsion
[ 10763 10752 10751 10750 ] final  -38.20 input  -60.55 | X-H torsion
[ 11005 11000 10999 10996 ] final -128.72 input  -57.11 | X-H torsion

> <Gold.Protein.ActiveResidues>
 VAL166  LYS551  ARG553  GLY616  TRP617  ASP618  TYR619  PRO620  LYS621  CYS622 
 ASP623  PHE694  ASN695  SER759  ASP760  ASP761  ALA762  ILE779  LEU786  VAL792 
 PHE793  MET794  SER795  GLU796  ALA797  LYS798  CYS799  TRP800  GLU811  SER814 

> <Gold.Protein.RotatedAtoms>
  150.8329  134.7590  159.6868 H   0  0  0  0  0  0  0  0  0  0  0  0  # atno 6907 bound_to 6896
  152.4431  134.5547  159.9887 H   0  0  0  0  0  0  0  0  0  0  0  0  # atno 6908 bound_to 6896
  151.5704  133.3353  159.3024 H   0  0  0  0  0  0  0  0  0  0  0  0  # atno 6909 bound_to 6896
  145.6352  140.9326  143.1065 H   0  0  0  0  0  0  0  0  0  0  0  0  # atno 7974 bound_to 7965
  156.0217  140.1262  157.0350 H   0  0  0  0  0  0  0  0  0  0  0  0  # atno 8008 bound_to 7997
  154.4314  140.1067  156.6043 H   0  0  0  0  0  0  0  0  0  0  0  0  # atno 8009 bound_to 7997
  155.5935  140.3469  155.4575 H   0  0  0  0  0  0  0  0  0  0  0  0  # atno 8010 bound_to 7997
  139.8565  143.7131  152.2654 H   0  0  0  0  0  0  0  0  0  0  0  0  # atno 10167 bound_to 10162
  156.7086  130.5115  149.5898 H   0  0  0  0  0  0  0  0  0  0  0  0  # atno 10718 bound_to 10713
  153.9090  135.6794  153.4752 H   0  0  0  0  0  0  0  0  0  0  0  0  # atno 10763 bound_to 10752
  153.1089  135.4792  154.8997 H   0  0  0  0  0  0  0  0  0  0  0  0  # atno 10764 bound_to 10752
  154.7537  135.3191  154.8465 H   0  0  0  0  0  0  0  0  0  0  0  0  # atno 10765 bound_to 10752
  140.9492  134.1089  157.4078 H   0  0  0  0  0  0  0  0  0  0  0  0  # atno 11005 bound_to 11000
  144.7178  139.8134  143.7392 LP  0  0  0  0  0  0  0  0  0  0  0  0  # atno 17320 bound_to 7965
  146.1325  139.4363  143.0160 LP  0  0  0  0  0  0  0  0  0  0  0  0  # atno 17321 bound_to 7965
  139.7415  144.7558  151.0646 LP  0  0  0  0  0  0  0  0  0  0  0  0  # atno 17342 bound_to 10162
  140.7781  143.4967  150.9823 LP  0  0  0  0  0  0  0  0  0  0  0  0  # atno 17343 bound_to 10162
  156.1677  130.6416  151.0799 LP  0  0  0  0  0  0  0  0  0  0  0  0  # atno 17370 bound_to 10713
  157.6945  131.0799  150.7010 LP  0  0  0  0  0  0  0  0  0  0  0  0  # atno 17371 bound_to 10713
  139.8842  135.0060  156.6355 LP  0  0  0  0  0  0  0  0  0  0  0  0  # atno 17394 bound_to 11000
  140.7626  133.8804  155.8430 LP  0  0  0  0  0  0  0  0  0  0  0  0  # atno 17395 bound_to 11000

$$$$
