AV-unprocessed.smi:960|AV-procd|sdf|4273|dock3
  -GOLD-   22720 2183D 1   1.00000     0.00000
 Structure written by MMmdl.
 45 46  0  0  0  0  0  0  0  0  1 V2000
  150.7835  140.7349  159.7715 C   0  0  0  0  0  0  0  0  0  0  0  0
  151.1709  141.8403  159.1142 C   0  0  0  0  0  0  0  0  0  0  0  0
  151.8819  142.9838  159.8136 C   0  0  0  0  0  0  0  0  0  0  0  0
  150.9434  142.0074  157.6188 C   0  0  0  0  0  0  0  0  0  0  0  0
  150.3772  140.8200  156.9784 N   0  0  0  0  0  0  0  0  0  0  0  0
  151.3962  139.7860  156.7656 C   0  0  0  0  0  0  0  0  0  0  0  0
  150.7604  138.5240  156.1567 C   0  0  0  0  0  0  0  0  0  0  0  0
  150.0552  138.8393  154.8292 C   0  0  0  0  0  0  0  0  0  0  0  0
  149.3480  137.6550  154.3513 N   0  0  0  0  0  0  0  0  0  0  0  0
  148.4404  136.9614  155.0525 C   0  0  0  0  0  0  0  0  0  0  0  0
  148.0776  137.2649  156.1885 O   0  0  0  0  0  0  0  0  0  0  0  0
  147.9731  135.9184  154.3499 N   0  0  0  0  0  0  0  0  0  0  0  0
  147.0335  134.9499  154.7838 C   0  0  0  0  0  0  0  0  0  0  0  0
  146.7128  134.5236  156.1065 C   0  0  0  0  0  0  0  0  0  0  0  0
  147.2542  134.9508  157.4423 C   0  0  0  0  0  0  0  0  0  0  0  0
  145.8018  133.5626  156.0609 N   0  0  0  0  0  0  0  0  0  0  0  0
  145.5370  133.3211  154.7043 O   0  0  0  0  0  0  0  0  0  0  0  0
  146.3025  134.1539  153.9521 C   0  0  0  0  0  0  0  0  0  0  0  0
  146.1802  134.0333  152.4707 C   0  0  0  0  0  0  0  0  0  0  0  0
  149.0810  140.0106  155.0426 C   0  0  0  0  0  0  0  0  0  0  0  0
  149.7900  141.2095  155.6953 C   0  0  0  0  0  0  0  0  0  0  0  0
  150.9575  140.6224  160.8317 H   0  0  0  0  0  0  0  0  0  0  0  0
  150.2853  139.9250  159.2590 H   0  0  0  0  0  0  0  0  0  0  0  0
  152.8556  143.1589  159.3564 H   0  0  0  0  0  0  0  0  0  0  0  0
  152.0379  142.7681  160.8710 H   0  0  0  0  0  0  0  0  0  0  0  0
  151.2980  143.9017  159.7398 H   0  0  0  0  0  0  0  0  0  0  0  0
  150.2654  142.8504  157.4793 H   0  0  0  0  0  0  0  0  0  0  0  0
  151.8831  142.2744  157.1322 H   0  0  0  0  0  0  0  0  0  0  0  0
  152.1846  140.1665  156.1142 H   0  0  0  0  0  0  0  0  0  0  0  0
  151.8670  139.5154  157.7107 H   0  0  0  0  0  0  0  0  0  0  0  0
  151.5281  137.7653  156.0001 H   0  0  0  0  0  0  0  0  0  0  0  0
  150.0485  138.1018  156.8677 H   0  0  0  0  0  0  0  0  0  0  0  0
  150.8117  139.1302  154.0974 H   0  0  0  0  0  0  0  0  0  0  0  0
  149.5776  137.3340  153.4221 H   0  0  0  0  0  0  0  0  0  0  0  0
  148.2583  135.8568  153.3833 H   0  0  0  0  0  0  0  0  0  0  0  0
  148.3092  135.2160  157.3745 H   0  0  0  0  0  0  0  0  0  0  0  0
  147.1678  134.1540  158.1819 H   0  0  0  0  0  0  0  0  0  0  0  0
  146.7129  135.8156  157.8257 H   0  0  0  0  0  0  0  0  0  0  0  0
  146.9077  134.6670  151.9634 H   0  0  0  0  0  0  0  0  0  0  0  0
  145.1850  134.3313  152.1410 H   0  0  0  0  0  0  0  0  0  0  0  0
  146.3488  133.0047  152.1519 H   0  0  0  0  0  0  0  0  0  0  0  0
  148.6466  140.3176  154.0907 H   0  0  0  0  0  0  0  0  0  0  0  0
  148.2494  139.6952  155.6747 H   0  0  0  0  0  0  0  0  0  0  0  0
  149.0662  142.0102  155.8525 H   0  0  0  0  0  0  0  0  0  0  0  0
  150.5618  141.6015  155.0307 H   0  0  0  0  0  0  0  0  0  0  0  0
  1  2  2  0  0  0  0
  1 22  1  0  0  0  0
  1 23  1  0  0  0  0
  2  3  1  0  0  0  0
  2  4  1  0  0  0  0
  3 24  1  0  0  0  0
  3 25  1  0  0  0  0
  3 26  1  0  0  0  0
  4  5  1  0  0  0  0
  4 27  1  0  0  0  0
  4 28  1  0  0  0  0
  5 21  1  0  0  0  0
  5  6  1  0  0  0  0
  6  7  1  0  0  0  0
  6 29  1  0  0  0  0
  6 30  1  0  0  0  0
  7  8  1  0  0  0  0
  7 31  1  0  0  0  0
  7 32  1  0  0  0  0
  8  9  1  0  0  0  0
  8 20  1  0  0  0  0
  8 33  1  0  0  0  0
  9 10  1  0  0  0  0
  9 34  1  0  0  0  0
 10 11  2  0  0  0  0
 10 12  1  0  0  0  0
 12 13  1  0  0  0  0
 12 35  1  0  0  0  0
 13 18  2  0  0  0  0
 13 14  1  0  0  0  0
 14 15  1  0  0  0  0
 14 16  2  0  0  0  0
 15 36  1  0  0  0  0
 15 37  1  0  0  0  0
 15 38  1  0  0  0  0
 16 17  1  0  0  0  0
 17 18  1  0  0  0  0
 18 19  1  0  0  0  0
 19 39  1  0  0  0  0
 19 40  1  0  0  0  0
 19 41  1  0  0  0  0
 20 21  1  0  0  0  0
 20 42  1  0  0  0  0
 20 43  1  0  0  0  0
 21 44  1  0  0  0  0
 21 45  1  0  0  0  0
M  END
> <s_m_source_file>
AV-unprocessed.smi

> <i_m_source_file_index>
960

> <i_lp_mmshare_version>
43012

> <i_f3d_flags>
0

> <s_epik_input>
W0NIMl09QyhbQ0gzXSlbQ0gyXU4xW0NIMl1bQ0gyXVtDSF0oW0NIMl1bQ0gyXTEpW05IXUMoPU8pW05IXWMyYyhbQ0gzXSlub2MyW0NIM10=

> <s_epik_cmdline>
J2VwaWtfcHl0aG9uJywgJy1waCcsICc3LjAnLCAnLXRuJywgJzgnLCAnLW1hJywgJzIwMCcsICctbWV0YWxfYmluZGluZycsICctaW1hZScsICc8aW5maWxlLm1hZT4nLCAnLW9tYWUnLCAnPG91dGZpbGUubWFlPic=

> <r_epik_Ionization_Penalty>
2.03694

> <r_epik_Ionization_Penalty_Charging>
0

> <r_epik_Ionization_Penalty_Neutral>
2.03694

> <r_epik_State_Penalty>
2.16834

> <r_epik_Charging_Adjusted_Penalty>
2.16834

> <i_epik_Tot_Q>
0

> <i_epik_Tot_abs_Q>
0

> <r_epik_Metal_State_Penalty>
2.16834

> <b_epik_Metal_Only>
0

> <s_lp_Force_Field>
OPLS_2005

> <r_lp_Energy>
16.835

> <b_lp_Chiralities_Consistent>
1

> <s_lp_Variant>
AV-unprocessed.smi:960-3

> <Gold.Version>
5.8.1

> <Gold.Id.Protein>
6NUR|6NUR_protein|mol2

> <Gold.PLP.Fitness>
39.2624

> <Gold.PLP.PLP>
-33.8820

> <Gold.PLP.part.hbond>
-2.5945

> <Gold.PLP.part.metal>
0.0000

> <Gold.PLP.part.buried>
-3.2237

> <Gold.PLP.part.nonpolar>
-28.5707

> <Gold.PLP.part.repulsive>
0.1461

> <Gold.PLP.ligand.clash>
0.0000

> <Gold.PLP.ligand.torsion>
0.3246

> <Gold.PLP.Chemscore.Hbond>
1.9280

> <Gold.PLP.Chemscore.CHOScore>
0.0000

> <Gold.PLP.Chemscore.Metal>
0.0000

> <Gold.Chemscore.Hbonds>
donor molecule, donor type, donor heavy atom, donor atom, acceptor molecule, acceptor atom, score
      L1  H     9    34       P1  7948  0.93
      L1  H    12    35       P1  7948  1.00

> <Gold.PLP.Chemscore.Internal.Correction>
0.2456

> <Gold.Rescore>
     Score         DG    S(hbond)    S(metal)    S(lipo)     H(rot)  DE(clash)    DE(int)     intcor
     13.57     -18.03       1.58        0.00      91.18       1.32       0.13       4.33       ----

> <Gold.Chemscore.Fitness>
13.5746

> <Gold.Chemscore.DG>
-18.0314

> <Gold.Chemscore.ZeroCoef>
-5.4800

> <Gold.Chemscore.Hbond>
1.5776

> <Gold.Chemscore.Metal>
0.0000

> <Gold.Chemscore.Lipo>
91.1788

> <Gold.Chemscore.Internal_Hbond>
0.0000

> <Gold.Chemscore.DEClash>
0.1283

> <Gold.Chemscore.DEInternal>
4.3286

> <Gold.Chemscore.Rot>
1.3225

> <Gold.Chemscore.Internal.Correction>
   9.000000E+99

> <Gold.Chemscore.Hbonds>
donor molecule, donor type, donor heavy atom, donor atom, acceptor molecule, acceptor atom, score
      L1  H     9    34       P1  7948  0.76
      L1  H    12    35       P1  7948  1.00

> <Gold.Chemscore.Hbond.Weighted>
-5.2691

> <Gold.Chemscore.Metal.Weighted>
-0.0000

> <Gold.Chemscore.Lipo.Weighted>
-10.6679

> <Gold.Chemscore.Internal_Hbond.Weighted>
0.0000

> <Gold.Chemscore.DEClash.Weighted>
0.1283

> <Gold.Chemscore.DEInternal.Weighted>
4.3286

> <Gold.Chemscore.Rot.Weighted>
3.3856

> <Gold.Chemscore.Internal.Correction.Weighted>
   9.000000E+99

> <Gold.Protein.RotatedTorsions>
[ 6907 6896 6895 6894 ] final -133.44 input  -60.11 | X-H torsion
[ 7974 7965 7964 7962 ] final   86.44 input  175.53 | X-H torsion
[ 8008 7997 7996 7995 ] final  -35.37 input   59.86 | X-H torsion
[ 10167 10162 10161 10158 ] final  157.46 input  -65.29 | X-H torsion
[ 10718 10713 10712 10709 ] final  -90.61 input   66.30 | X-H torsion
[ 10763 10752 10751 10750 ] final   40.93 input  -60.55 | X-H torsion
[ 11005 11000 10999 10996 ] final   66.16 input  -57.11 | X-H torsion

> <Gold.Protein.ActiveResidues>
 VAL166  LYS551  ARG553  GLY616  TRP617  ASP618  TYR619  PRO620  LYS621  CYS622 
 ASP623  PHE694  ASN695  SER759  ASP760  ASP761  ALA762  ILE779  LEU786  VAL792 
 PHE793  MET794  SER795  GLU796  ALA797  LYS798  CYS799  TRP800  GLU811  SER814 

> <Gold.Protein.RotatedAtoms>
  150.9740  133.6314  159.2733 H   0  0  0  0  0  0  0  0  0  0  0  0  # atno 6907 bound_to 6896
  151.3592  135.0899  159.9438 H   0  0  0  0  0  0  0  0  0  0  0  0  # atno 6908 bound_to 6896
  152.5193  133.9317  159.7638 H   0  0  0  0  0  0  0  0  0  0  0  0  # atno 6909 bound_to 6896
  145.5722  139.2315  143.2400 H   0  0  0  0  0  0  0  0  0  0  0  0  # atno 7974 bound_to 7965
  154.4097  140.1659  156.2201 H   0  0  0  0  0  0  0  0  0  0  0  0  # atno 8008 bound_to 7997
  155.9371  140.3410  155.6274 H   0  0  0  0  0  0  0  0  0  0  0  0  # atno 8009 bound_to 7997
  155.7035  140.0748  157.2391 H   0  0  0  0  0  0  0  0  0  0  0  0  # atno 8010 bound_to 7997
  139.4823  144.4915  151.8302 H   0  0  0  0  0  0  0  0  0  0  0  0  # atno 10167 bound_to 10162
  155.9989  130.4916  150.5350 H   0  0  0  0  0  0  0  0  0  0  0  0  # atno 10718 bound_to 10713
  152.9922  135.6177  154.2705 H   0  0  0  0  0  0  0  0  0  0  0  0  # atno 10763 bound_to 10752
  154.2438  135.2787  155.2845 H   0  0  0  0  0  0  0  0  0  0  0  0  # atno 10764 bound_to 10752
  154.5347  135.5778  153.6846 H   0  0  0  0  0  0  0  0  0  0  0  0  # atno 10765 bound_to 10752
  139.9849  134.6684  156.0195 H   0  0  0  0  0  0  0  0  0  0  0  0  # atno 11005 bound_to 11000
  146.1776  140.6548  142.9204 LP  0  0  0  0  0  0  0  0  0  0  0  0  # atno 17320 bound_to 7965
  144.7432  140.5000  143.6854 LP  0  0  0  0  0  0  0  0  0  0  0  0  # atno 17321 bound_to 7965
  140.4399  144.2000  150.5891 LP  0  0  0  0  0  0  0  0  0  0  0  0  # atno 17342 bound_to 10162
  140.4693  143.2419  151.9111 LP  0  0  0  0  0  0  0  0  0  0  0  0  # atno 17343 bound_to 10162
  157.3294  131.0696  151.1872 LP  0  0  0  0  0  0  0  0  0  0  0  0  # atno 17370 bound_to 10713
  157.2758  130.6726  149.6042 LP  0  0  0  0  0  0  0  0  0  0  0  0  # atno 17371 bound_to 10713
  141.1515  133.6548  156.4029 LP  0  0  0  0  0  0  0  0  0  0  0  0  # atno 17394 bound_to 11000
  140.5023  134.6474  157.5253 LP  0  0  0  0  0  0  0  0  0  0  0  0  # atno 17395 bound_to 11000

$$$$
