AV-unprocessed.smi:1545|AV-procd|sdf|6215|dock10
  -GOLD-   22720 6383D 1   1.00000     0.00000
 Structure written by MMmdl.
 42 44  0  0  0  0  0  0  0  0  2 V2000
  146.1538  136.6861  151.3680 O   0  0  0  0  0  0  0  0  0  0  0  0
  146.1243  137.7686  152.2726 C   0  0  0  0  0  0  0  0  0  0  0  0
  146.3786  139.0844  151.5259 C   0  0  0  0  0  0  0  0  0  0  0  0
  146.7760  140.1491  152.4326 N   0  0  0  0  0  0  0  0  0  0  0  0
  147.9158  139.9769  153.2248 C   0  0  0  0  0  0  0  0  0  0  0  0
  148.8245  138.9720  153.1081 N   0  3  0  0  0  0  0  0  0  0  0  0
  149.8037  139.1484  154.0898 C   0  0  0  0  0  0  0  0  0  0  0  0
  150.9355  138.3963  154.3888 C   0  0  0  0  0  0  0  0  0  0  0  0
  151.7304  138.8474  155.4630 C   0  0  0  0  0  0  0  0  0  0  0  0
  151.3910  140.0043  156.1946 C   0  0  0  0  0  0  0  0  0  0  0  0
  150.2423  140.7614  155.8843 C   0  0  0  0  0  0  0  0  0  0  0  0
  149.4608  140.3111  154.8211 C   0  0  0  0  0  0  0  0  0  0  0  0
  148.2792  140.7952  154.2466 N   0  0  0  0  0  0  0  0  0  0  0  0
  147.6427  142.0031  154.7932 C   0  0  0  0  0  0  0  0  0  0  0  0
  146.1400  141.8016  155.0712 C   0  0  1  0  0  0  0  0  0  0  0  0
  145.9944  141.3598  156.4048 O   0  0  0  0  0  0  0  0  0  0  0  0
  145.3305  143.0587  154.7848 C   0  0  0  0  0  0  0  0  0  0  0  0
  144.4543  143.5902  155.7569 C   0  0  0  0  0  0  0  0  0  0  0  0
  143.7306  144.7686  155.4909 C   0  0  0  0  0  0  0  0  0  0  0  0
  143.8827  145.4254  154.2547 C   0  0  0  0  0  0  0  0  0  0  0  0
  144.7582  144.9030  153.2841 C   0  0  0  0  0  0  0  0  0  0  0  0
  144.9118  145.5381  152.0982 F   0  0  0  0  0  0  0  0  0  0  0  0
  145.4780  143.7217  153.5474 C   0  0  0  0  0  0  0  0  0  0  0  0
  147.0393  136.3591  151.3192 H   0  0  0  0  0  0  0  0  0  0  0  0
  145.1316  137.7897  152.7227 H   0  0  0  0  0  0  0  0  0  0  0  0
  146.8402  137.6142  153.0811 H   0  0  0  0  0  0  0  0  0  0  0  0
  147.1233  138.9481  150.7403 H   0  0  0  0  0  0  0  0  0  0  0  0
  145.4545  139.3968  151.0382 H   0  0  0  0  0  0  0  0  0  0  0  0
  146.1195  140.8876  152.6434 H   0  0  0  0  0  0  0  0  0  0  0  0
  151.1986  137.5091  153.8315 H   0  0  0  0  0  0  0  0  0  0  0  0
  152.6187  138.2943  155.7317 H   0  0  0  0  0  0  0  0  0  0  0  0
  152.0251  140.3178  157.0112 H   0  0  0  0  0  0  0  0  0  0  0  0
  149.9909  141.6456  156.4514 H   0  0  0  0  0  0  0  0  0  0  0  0
  148.1746  142.2844  155.7030 H   0  0  0  0  0  0  0  0  0  0  0  0
  147.7981  142.8171  154.0839 H   0  0  0  0  0  0  0  0  0  0  0  0
  145.7637  140.9962  154.4394 H   0  0  0  0  0  0  0  0  0  0  0  0
  146.5573  141.8811  156.9570 H   0  0  0  0  0  0  0  0  0  0  0  0
  144.3391  143.1001  156.7127 H   0  0  0  0  0  0  0  0  0  0  0  0
  143.0639  145.1733  156.2378 H   0  0  0  0  0  0  0  0  0  0  0  0
  143.3319  146.3323  154.0536 H   0  0  0  0  0  0  0  0  0  0  0  0
  146.1536  143.3323  152.7998 H   0  0  0  0  0  0  0  0  0  0  0  0
  148.7759  138.2310  152.4212 H   0  0  0  0  0  0  0  0  0  0  0  0
  1  2  1  0  0  0  0
  1 24  1  0  0  0  0
  2  3  1  0  0  0  0
  2 25  1  0  0  0  0
  2 26  1  0  0  0  0
  3  4  1  0  0  0  0
  3 27  1  0  0  0  0
  3 28  1  0  0  0  0
  4  5  1  0  0  0  0
  4 29  1  0  0  0  0
  5 13  1  0  0  0  0
  5  6  2  0  0  0  0
  6  7  1  0  0  0  0
  6 42  1  0  0  0  0
  7 12  2  0  0  0  0
  7  8  1  0  0  0  0
  8  9  2  0  0  0  0
  8 30  1  0  0  0  0
  9 10  1  0  0  0  0
  9 31  1  0  0  0  0
 10 11  2  0  0  0  0
 10 32  1  0  0  0  0
 11 12  1  0  0  0  0
 11 33  1  0  0  0  0
 12 13  1  0  0  0  0
 13 14  1  0  0  0  0
 14 15  1  0  0  0  0
 14 34  1  0  0  0  0
 14 35  1  0  0  0  0
 15 16  1  0  0  0  0
 15 17  1  0  0  0  0
 15 36  1  0  0  0  0
 16 37  1  0  0  0  0
 17 23  1  0  0  0  0
 17 18  2  0  0  0  0
 18 19  1  0  0  0  0
 18 38  1  0  0  0  0
 19 20  2  0  0  0  0
 19 39  1  0  0  0  0
 20 21  1  0  0  0  0
 20 40  1  0  0  0  0
 21 22  1  0  0  0  0
 21 23  2  0  0  0  0
 23 41  1  0  0  0  0
M  CHG  1   6   1
M  END
> <s_m_source_file>
AV-unprocessed.smi

> <i_m_source_file_index>
1545

> <i_lp_mmshare_version>
43012

> <i_f3d_flags>
0

> <s_epik_input>
W09IXVtDSDJdW0NIMl1bTkhdYyhuMSluKGMoYzEyKVtjSF1bY0hdW2NIXVtjSF0yKVtDSDJdW0NASF0oW09IXSljM1tjSF1bY0hdW2NIXWMoRilbY0hdMw==

> <s_epik_cmdline>
J2VwaWtfcHl0aG9uJywgJy1waCcsICc3LjAnLCAnLXRuJywgJzgnLCAnLW1hJywgJzIwMCcsICctbWV0YWxfYmluZGluZycsICctaW1hZScsICc8aW5maWxlLm1hZT4nLCAnLW9tYWUnLCAnPG91dGZpbGUubWFlPic=

> <r_epik_Ionization_Penalty>
0.0688114

> <r_epik_Ionization_Penalty_Charging>
0.0688055

> <r_epik_Ionization_Penalty_Neutral>
5.85933e-06

> <r_epik_State_Penalty>
0.0602293

> <r_epik_Charging_Adjusted_Penalty>
0.129035

> <i_epik_Tot_Q>
1

> <i_epik_Tot_abs_Q>
1

> <r_epik_Metal_State_Penalty>
2.77411

> <b_epik_Metal_Only>
0

> <s_lp_Force_Field>
OPLS_2005

> <r_lp_Energy>
23.1511

> <b_lp_Chiralities_Consistent>
1

> <s_lp_Variant>
AV-unprocessed.smi:1545-2

> <Gold.Version>
5.8.1

> <Gold.Id.Protein>
6NUR|6NUR_protein|mol2

> <Gold.PLP.Fitness>
60.5472

> <Gold.PLP.PLP>
-52.9796

> <Gold.PLP.part.hbond>
-3.5904

> <Gold.PLP.part.metal>
0.0000

> <Gold.PLP.part.buried>
3.6047

> <Gold.PLP.part.nonpolar>
-53.0842

> <Gold.PLP.part.repulsive>
0.1715

> <Gold.PLP.ligand.clash>
0.0000

> <Gold.PLP.ligand.torsion>
0.7355

> <Gold.PLP.Chemscore.Hbond>
3.0000

> <Gold.PLP.Chemscore.CHOScore>
0.0000

> <Gold.PLP.Chemscore.Metal>
0.0000

> <Gold.Chemscore.Hbonds>
donor molecule, donor type, donor heavy atom, donor atom, acceptor molecule, acceptor atom, score
      L1  H     1    24       P1  7948  1.00
      L1  H     6    42       P1  7948  1.92

> <Gold.PLP.Chemscore.Internal.Correction>
0.0385

> <Gold.Rescore>
     Score         DG    S(hbond)    S(metal)    S(lipo)     H(rot)  DE(clash)    DE(int)     intcor
     13.80     -16.20       1.96        0.00     104.61       3.15       1.72       0.67       ----

> <Gold.Chemscore.Fitness>
13.7997

> <Gold.Chemscore.DG>
-16.1975

> <Gold.Chemscore.ZeroCoef>
-5.4800

> <Gold.Chemscore.Hbond>
1.9590

> <Gold.Chemscore.Metal>
0.0000

> <Gold.Chemscore.Lipo>
104.6118

> <Gold.Chemscore.Internal_Hbond>
0.0000

> <Gold.Chemscore.DEClash>
1.7234

> <Gold.Chemscore.DEInternal>
0.6744

> <Gold.Chemscore.Rot>
3.1505

> <Gold.Chemscore.Internal.Correction>
   9.000000E+99

> <Gold.Chemscore.Hbonds>
donor molecule, donor type, donor heavy atom, donor atom, acceptor molecule, acceptor atom, score
      L1  H     1    24       P1  7948  0.98
      L1  H     6    42       P1  7948  0.88

> <Gold.Chemscore.Hbond.Weighted>
-6.5431

> <Gold.Chemscore.Metal.Weighted>
-0.0000

> <Gold.Chemscore.Lipo.Weighted>
-12.2396

> <Gold.Chemscore.Internal_Hbond.Weighted>
0.0000

> <Gold.Chemscore.DEClash.Weighted>
1.7234

> <Gold.Chemscore.DEInternal.Weighted>
0.6744

> <Gold.Chemscore.Rot.Weighted>
8.0652

> <Gold.Chemscore.Internal.Correction.Weighted>
   9.000000E+99

> <Gold.Protein.RotatedTorsions>
[ 6907 6896 6895 6894 ] final   -8.72 input  -60.11 | X-H torsion
[ 7974 7965 7964 7962 ] final  -81.81 input  175.53 | X-H torsion
[ 8008 7997 7996 7995 ] final   21.68 input   59.86 | X-H torsion
[ 10167 10162 10161 10158 ] final   22.09 input  -65.29 | X-H torsion
[ 10718 10713 10712 10709 ] final  156.92 input   66.30 | X-H torsion
[ 10763 10752 10751 10750 ] final   43.18 input  -60.55 | X-H torsion
[ 11005 11000 10999 10996 ] final -160.91 input  -57.11 | X-H torsion

> <Gold.Protein.ActiveResidues>
 VAL166  LYS551  ARG553  GLY616  TRP617  ASP618  TYR619  PRO620  LYS621  CYS622 
 ASP623  PHE694  ASN695  SER759  ASP760  ASP761  ALA762  ILE779  LEU786  VAL792 
 PHE793  MET794  SER795  GLU796  ALA797  LYS798  CYS799  TRP800  GLU811  SER814 

> <Gold.Protein.RotatedAtoms>
  151.4291  135.1007  159.9636 H   0  0  0  0  0  0  0  0  0  0  0  0  # atno 6907 bound_to 6896
  152.4962  133.8635  159.7272 H   0  0  0  0  0  0  0  0  0  0  0  0  # atno 6908 bound_to 6896
  150.9168  133.6871  159.2869 H   0  0  0  0  0  0  0  0  0  0  0  0  # atno 6909 bound_to 6896
  145.5416  140.9509  143.1548 H   0  0  0  0  0  0  0  0  0  0  0  0  # atno 7974 bound_to 7965
  154.9542  140.3069  155.5061 H   0  0  0  0  0  0  0  0  0  0  0  0  # atno 8008 bound_to 7997
  156.2984  140.2313  156.4560 H   0  0  0  0  0  0  0  0  0  0  0  0  # atno 8009 bound_to 7997
  154.8026  140.0433  157.1272 H   0  0  0  0  0  0  0  0  0  0  0  0  # atno 8010 bound_to 7997
  140.5376  143.9734  150.6500 H   0  0  0  0  0  0  0  0  0  0  0  0  # atno 10167 bound_to 10162
  157.1985  131.0671  151.2038 H   0  0  0  0  0  0  0  0  0  0  0  0  # atno 10718 bound_to 10713
  152.9866  135.6109  154.3070 H   0  0  0  0  0  0  0  0  0  0  0  0  # atno 10763 bound_to 10752
  154.2787  135.2777  155.2708 H   0  0  0  0  0  0  0  0  0  0  0  0  # atno 10764 bound_to 10752
  154.5057  135.5855  153.6622 H   0  0  0  0  0  0  0  0  0  0  0  0  # atno 10765 bound_to 10752
  140.6262  134.4699  157.5227 H   0  0  0  0  0  0  0  0  0  0  0  0  # atno 11005 bound_to 11000
  144.7574  139.7041  143.7248 LP  0  0  0  0  0  0  0  0  0  0  0  0  # atno 17320 bound_to 7965
  146.1977  139.5253  142.9764 LP  0  0  0  0  0  0  0  0  0  0  0  0  # atno 17321 bound_to 7965
  140.3125  143.3189  152.0864 LP  0  0  0  0  0  0  0  0  0  0  0  0  # atno 17342 bound_to 10162
  139.4976  144.6627  151.6428 LP  0  0  0  0  0  0  0  0  0  0  0  0  # atno 17343 bound_to 10162
  157.3790  130.7221  149.6617 LP  0  0  0  0  0  0  0  0  0  0  0  0  # atno 17370 bound_to 10713
  155.9703  130.4177  150.4295 LP  0  0  0  0  0  0  0  0  0  0  0  0  # atno 17371 bound_to 10713
  139.9134  134.8297  156.1450 LP  0  0  0  0  0  0  0  0  0  0  0  0  # atno 17394 bound_to 11000
  141.0707  133.6798  156.2136 LP  0  0  0  0  0  0  0  0  0  0  0  0  # atno 17395 bound_to 11000

$$$$
