AV-unprocessed.smi:3304|AV-procd|sdf|12698|dock2
  -GOLD-   2272019 33D 1   1.00000     0.00000
 Structure written by MMmdl.
 46 47  0  0  0  0  0  0  0  0  2 V2000
  147.7146  141.7518  155.9459 C   0  0  0  0  0  0  0  0  0  0  0  0
  148.5320  140.8485  155.0798 C   0  0  0  0  0  0  0  0  0  0  0  0
  148.1692  140.0382  154.0373 C   0  0  0  0  0  0  0  0  0  0  0  0
  146.8070  139.8113  153.4413 C   0  0  0  0  0  0  0  0  0  0  0  0
  146.8390  138.7222  152.3607 C   0  0  0  0  0  0  0  0  0  0  0  0
  145.4754  138.2786  152.0137 N   0  3  0  0  0  0  0  0  0  0  0  0
  145.1261  136.9435  152.5392 C   0  0  0  0  0  0  0  0  0  0  0  0
  145.4689  135.8292  151.5331 C   0  0  2  0  0  0  0  0  0  0  0  0
  144.2079  135.3626  150.7789 C   0  0  0  0  0  0  0  0  0  0  0  0
  144.5262  134.2473  149.7675 C   0  0  0  0  0  0  0  0  0  0  0  0
  145.2307  133.0421  150.4209 C   0  0  2  0  0  0  0  0  0  0  0  0
  144.2752  132.1900  151.2748 C   0  0  0  0  0  0  0  0  0  0  0  0
  146.4733  133.5059  151.2067 C   0  0  0  0  0  0  0  0  0  0  0  0
  146.1514  134.6236  152.2141 C   0  0  0  0  0  0  0  0  0  0  0  0
  149.3966  139.4413  153.6320 C   0  0  0  0  0  0  0  0  0  0  0  0
  150.4257  139.8410  154.3569 N   0  0  0  0  0  0  0  0  0  0  0  0
  149.8968  140.7065  155.2461 N   0  0  0  0  0  0  0  0  0  0  0  0
  150.7630  141.3491  156.2154 C   0  0  0  0  0  0  0  0  0  0  0  0
  146.6615  141.7222  155.6669 H   0  0  0  0  0  0  0  0  0  0  0  0
  148.0543  142.7840  155.8584 H   0  0  0  0  0  0  0  0  0  0  0  0
  147.7912  141.4578  156.9930 H   0  0  0  0  0  0  0  0  0  0  0  0
  146.0930  139.5318  154.2169 H   0  0  0  0  0  0  0  0  0  0  0  0
  146.4240  140.7360  153.0078 H   0  0  0  0  0  0  0  0  0  0  0  0
  147.3310  139.1009  151.4636 H   0  0  0  0  0  0  0  0  0  0  0  0
  147.4173  137.8654  152.7092 H   0  0  0  0  0  0  0  0  0  0  0  0
  144.8147  138.9496  152.3791 H   0  0  0  0  0  0  0  0  0  0  0  0
  145.6434  136.7723  153.4844 H   0  0  0  0  0  0  0  0  0  0  0  0
  144.0569  136.9312  152.7550 H   0  0  0  0  0  0  0  0  0  0  0  0
  146.1590  136.2413  150.7946 H   0  0  0  0  0  0  0  0  0  0  0  0
  143.4574  135.0142  151.4894 H   0  0  0  0  0  0  0  0  0  0  0  0
  143.7577  136.2047  150.2519 H   0  0  0  0  0  0  0  0  0  0  0  0
  143.6126  133.9247  149.2669 H   0  0  0  0  0  0  0  0  0  0  0  0
  145.1695  134.6537  148.9858 H   0  0  0  0  0  0  0  0  0  0  0  0
  145.5791  132.3943  149.6153 H   0  0  0  0  0  0  0  0  0  0  0  0
  143.8667  132.7483  152.1167 H   0  0  0  0  0  0  0  0  0  0  0  0
  144.7866  131.3152  151.6772 H   0  0  0  0  0  0  0  0  0  0  0  0
  143.4353  131.8313  150.6793 H   0  0  0  0  0  0  0  0  0  0  0  0
  146.9312  132.6603  151.7210 H   0  0  0  0  0  0  0  0  0  0  0  0
  147.2228  133.8710  150.5029 H   0  0  0  0  0  0  0  0  0  0  0  0
  147.0754  134.9381  152.7001 H   0  0  0  0  0  0  0  0  0  0  0  0
  145.5115  134.2328  153.0059 H   0  0  0  0  0  0  0  0  0  0  0  0
  149.5678  138.7313  152.8364 H   0  0  0  0  0  0  0  0  0  0  0  0
  150.6908  142.4319  156.1112 H   0  0  0  0  0  0  0  0  0  0  0  0
  151.8013  141.0499  156.0644 H   0  0  0  0  0  0  0  0  0  0  0  0
  150.4578  141.0661  157.2233 H   0  0  0  0  0  0  0  0  0  0  0  0
  145.3920  138.2579  151.0073 H   0  0  0  0  0  0  0  0  0  0  0  0
  1  2  1  0  0  0  0
  1 19  1  0  0  0  0
  1 20  1  0  0  0  0
  1 21  1  0  0  0  0
  2 17  1  0  0  0  0
  2  3  2  0  0  0  0
  3  4  1  0  0  0  0
  3 15  1  0  0  0  0
  4  5  1  0  0  0  0
  4 22  1  0  0  0  0
  4 23  1  0  0  0  0
  5  6  1  0  0  0  0
  5 24  1  0  0  0  0
  5 25  1  0  0  0  0
  6  7  1  0  0  0  0
  6 26  1  0  0  0  0
  6 46  1  0  0  0  0
  7  8  1  0  0  0  0
  7 27  1  0  0  0  0
  7 28  1  0  0  0  0
  8 14  1  0  0  0  0
  8  9  1  0  0  0  0
  8 29  1  0  0  0  0
  9 10  1  0  0  0  0
  9 30  1  0  0  0  0
  9 31  1  0  0  0  0
 10 11  1  0  0  0  0
 10 32  1  0  0  0  0
 10 33  1  0  0  0  0
 11 12  1  0  0  0  0
 11 13  1  0  0  0  0
 11 34  1  0  0  0  0
 12 35  1  0  0  0  0
 12 36  1  0  0  0  0
 12 37  1  0  0  0  0
 13 14  1  0  0  0  0
 13 38  1  0  0  0  0
 13 39  1  0  0  0  0
 14 40  1  0  0  0  0
 14 41  1  0  0  0  0
 15 16  2  0  0  0  0
 15 42  1  0  0  0  0
 16 17  1  0  0  0  0
 17 18  1  0  0  0  0
 18 43  1  0  0  0  0
 18 44  1  0  0  0  0
 18 45  1  0  0  0  0
M  CHG  1   6   1
M  END
> <s_m_source_file>
AV-unprocessed.smi

> <i_m_source_file_index>
3304

> <i_lp_mmshare_version>
43012

> <i_f3d_flags>
0

> <s_epik_input>
W0NIM11uMW5bY0hdYyhjMVtDSDNdKVtDSDJdW0NIMl1bTkhdW0NIMl1bQ0BASF0yW0NIMl1bQ0gyXVtDQEBIXShbQ0gzXSlbQ0gyXVtDSDJdMg==

> <s_epik_cmdline>
J2VwaWtfcHl0aG9uJywgJy1waCcsICc3LjAnLCAnLXRuJywgJzgnLCAnLW1hJywgJzIwMCcsICctbWV0YWxfYmluZGluZycsICctaW1hZScsICc8aW5maWxlLm1hZT4nLCAnLW9tYWUnLCAnPG91dGZpbGUubWFlPic=

> <r_lp_tautomer_probability>
1

> <r_epik_Ionization_Penalty>
0.000505313

> <r_epik_Ionization_Penalty_Charging>
0.000421171

> <r_epik_Ionization_Penalty_Neutral>
8.41424e-05

> <r_epik_State_Penalty>
-0

> <r_epik_Charging_Adjusted_Penalty>
0.000421171

> <i_epik_Tot_Q>
1

> <i_epik_Tot_abs_Q>
1

> <r_epik_Metal_State_Penalty>
-0

> <b_epik_Metal_Only>
0

> <s_lp_Force_Field>
OPLS_2005

> <r_lp_Energy>
12.247

> <b_lp_Chiralities_Consistent>
1

> <s_lp_Variant>
AV-unprocessed.smi:3304-2

> <Gold.Version>
5.8.1

> <Gold.Id.Protein>
6NUR|6NUR_protein|mol2

> <Gold.PLP.Fitness>
46.5386

> <Gold.PLP.PLP>
-34.3419

> <Gold.PLP.part.hbond>
-3.0000

> <Gold.PLP.part.metal>
0.0000

> <Gold.PLP.part.buried>
1.4921

> <Gold.PLP.part.nonpolar>
-34.1595

> <Gold.PLP.part.repulsive>
0.1627

> <Gold.PLP.ligand.clash>
0.0000

> <Gold.PLP.ligand.torsion>
1.1984

> <Gold.PLP.Chemscore.Hbond>
3.7040

> <Gold.PLP.Chemscore.CHOScore>
1.1379

> <Gold.PLP.Chemscore.Metal>
0.0000

> <Gold.Chemscore.Hbonds>
donor molecule, donor type, donor heavy atom, donor atom, acceptor molecule, acceptor atom, score
      L1  H     6    26       P1 10175  2.00
      L1  H     6    46       P1 10171  0.64
      P1  H  7989  7998       L1    16  1.00
      L1  C    15    42       P1  7948  0.56
      L1  C    15    42       P1  7957  0.43

> <Gold.PLP.Chemscore.Internal.Correction>
0.0677

> <Gold.Rescore>
     Score         DG    S(hbond)    S(metal)    S(lipo)     H(rot)  DE(clash)    DE(int)     intcor
     17.61     -21.87       2.55        0.00      98.57       1.43       3.09       1.17       ----

> <Gold.Chemscore.Fitness>
17.6071

> <Gold.Chemscore.DG>
-21.8684

> <Gold.Chemscore.ZeroCoef>
-5.4800

> <Gold.Chemscore.Hbond>
2.5523

> <Gold.Chemscore.Metal>
0.0000

> <Gold.Chemscore.Lipo>
98.5690

> <Gold.Chemscore.Internal_Hbond>
0.0000

> <Gold.Chemscore.DEClash>
3.0938

> <Gold.Chemscore.DEInternal>
1.1675

> <Gold.Chemscore.Rot>
1.4331

> <Gold.Chemscore.Internal.Correction>
   9.000000E+99

> <Gold.Chemscore.Hbonds>
donor molecule, donor type, donor heavy atom, donor atom, acceptor molecule, acceptor atom, score
      L1  H     6    26       P1 10175  0.99
      L1  H     6    46       P1 10171  0.63
      P1  H  7989  7998       L1    16  0.31

> <Gold.Chemscore.Hbond.Weighted>
-8.5246

> <Gold.Chemscore.Metal.Weighted>
-0.0000

> <Gold.Chemscore.Lipo.Weighted>
-11.5326

> <Gold.Chemscore.Internal_Hbond.Weighted>
0.0000

> <Gold.Chemscore.DEClash.Weighted>
3.0938

> <Gold.Chemscore.DEInternal.Weighted>
1.1675

> <Gold.Chemscore.Rot.Weighted>
3.6688

> <Gold.Chemscore.Internal.Correction.Weighted>
   9.000000E+99

> <Gold.Protein.RotatedTorsions>
[ 6907 6896 6895 6894 ] final  -51.83 input  -60.11 | X-H torsion
[ 7974 7965 7964 7962 ] final -108.60 input  175.53 | X-H torsion
[ 8008 7997 7996 7995 ] final  -28.01 input   59.86 | X-H torsion
[ 10167 10162 10161 10158 ] final   43.51 input  -65.29 | X-H torsion
[ 10718 10713 10712 10709 ] final   39.64 input   66.30 | X-H torsion
[ 10763 10752 10751 10750 ] final -115.50 input  -60.55 | X-H torsion
[ 11005 11000 10999 10996 ] final   98.25 input  -57.11 | X-H torsion

> <Gold.Protein.ActiveResidues>
 VAL166  LYS551  ARG553  GLY616  TRP617  ASP618  TYR619  PRO620  LYS621  CYS622 
 ASP623  PHE694  ASN695  SER759  ASP760  ASP761  ALA762  ILE779  LEU786  VAL792 
 PHE793  MET794  SER795  GLU796  ALA797  LYS798  CYS799  TRP800  GLU811  SER814 

> <Gold.Protein.RotatedAtoms>
  150.8574  134.7917  159.7055 H   0  0  0  0  0  0  0  0  0  0  0  0  # atno 6907 bound_to 6896
  152.4621  134.5156  159.9777 H   0  0  0  0  0  0  0  0  0  0  0  0  # atno 6908 bound_to 6896
  151.5266  133.3418  159.2946 H   0  0  0  0  0  0  0  0  0  0  0  0  # atno 6909 bound_to 6896
  145.1909  140.9014  143.3425 H   0  0  0  0  0  0  0  0  0  0  0  0  # atno 7974 bound_to 7965
  154.4351  140.1857  156.1022 H   0  0  0  0  0  0  0  0  0  0  0  0  # atno 8008 bound_to 7997
  156.0283  140.3333  155.7086 H   0  0  0  0  0  0  0  0  0  0  0  0  # atno 8009 bound_to 7997
  155.5876  140.0628  157.2758 H   0  0  0  0  0  0  0  0  0  0  0  0  # atno 8010 bound_to 7997
  140.3436  144.2438  150.6153 H   0  0  0  0  0  0  0  0  0  0  0  0  # atno 10167 bound_to 10162
  157.3730  130.7711  149.7133 H   0  0  0  0  0  0  0  0  0  0  0  0  # atno 10718 bound_to 10713
  154.8483  135.4379  154.1673 H   0  0  0  0  0  0  0  0  0  0  0  0  # atno 10763 bound_to 10752
  153.2795  135.6952  153.7405 H   0  0  0  0  0  0  0  0  0  0  0  0  # atno 10764 bound_to 10752
  153.6615  135.3434  155.3103 H   0  0  0  0  0  0  0  0  0  0  0  0  # atno 10765 bound_to 10752
  139.8773  134.9040  156.4428 H   0  0  0  0  0  0  0  0  0  0  0  0  # atno 11005 bound_to 11000
  145.0042  139.3570  143.6152 LP  0  0  0  0  0  0  0  0  0  0  0  0  # atno 17320 bound_to 7965
  146.3436  139.9278  142.8758 LP  0  0  0  0  0  0  0  0  0  0  0  0  # atno 17321 bound_to 7965
  140.5285  143.2249  151.8276 LP  0  0  0  0  0  0  0  0  0  0  0  0  # atno 17342 bound_to 10162
  139.4836  144.4749  151.9379 LP  0  0  0  0  0  0  0  0  0  0  0  0  # atno 17343 bound_to 10162
  155.9759  130.4082  150.3814 LP  0  0  0  0  0  0  0  0  0  0  0  0  # atno 17370 bound_to 10713
  157.1908  131.0415  151.2701 LP  0  0  0  0  0  0  0  0  0  0  0  0  # atno 17371 bound_to 10713
  140.8987  133.7795  155.9655 LP  0  0  0  0  0  0  0  0  0  0  0  0  # atno 17394 bound_to 11000
  140.8674  134.2767  157.5206 LP  0  0  0  0  0  0  0  0  0  0  0  0  # atno 17395 bound_to 11000

$$$$
