AV-unprocessed.smi:2250|AV-procd|sdf|9100|dock3
  -GOLD-   2272012303D 1   1.00000     0.00000
 Structure written by MMmdl.
 43 44  0  0  0  0  0  0  0  0  1 V2000
  143.3484  131.6833  150.4164 C   0  0  0  0  0  0  0  0  0  0  0  0
  144.2438  132.8624  150.7338 C   0  0  0  0  0  0  0  0  0  0  0  0
  145.6329  132.7006  150.8943 C   0  0  0  0  0  0  0  0  0  0  0  0
  146.4184  133.8320  151.1870 C   0  0  0  0  0  0  0  0  0  0  0  0
  145.7988  135.0956  151.3137 C   0  0  0  0  0  0  0  0  0  0  0  0
  146.6802  136.1692  151.6089 N   0  0  0  0  0  0  0  0  0  0  0  0
  146.3859  137.3626  152.1542 C   0  0  0  0  0  0  0  0  0  0  0  0
  145.2664  137.7225  152.5199 O   0  0  0  0  0  0  0  0  0  0  0  0
  147.4814  138.1273  152.2578 N   0  0  0  0  0  0  0  0  0  0  0  0
  147.5159  139.4792  152.8025 C   0  0  0  0  0  0  0  0  0  0  0  0
  148.0794  139.4593  154.2350 C   0  0  0  0  0  0  0  0  0  0  0  0
  149.3024  140.3710  154.4391 C   0  0  0  0  0  0  0  0  0  0  0  0
  149.6004  141.1763  153.5554 O   0  0  0  0  0  0  0  0  0  0  0  0
  150.0208  140.2575  155.5832 N   0  0  0  0  0  0  0  0  0  0  0  0
  151.1825  141.0805  155.9476 C   0  0  0  0  0  0  0  0  0  0  0  0
  150.7697  142.0432  157.0758 C   0  0  0  0  0  0  0  0  0  0  0  0
  150.2131  141.2647  158.2834 C   0  0  0  0  0  0  0  0  0  0  0  0
  149.1304  140.2526  157.8612 C   0  0  0  0  0  0  0  0  0  0  0  0
  149.6162  139.3795  156.6891 C   0  0  0  0  0  0  0  0  0  0  0  0
  144.4597  135.2419  151.1553 N   0  0  0  0  0  0  0  0  0  0  0  0
  143.7077  134.1572  150.8739 C   0  0  0  0  0  0  0  0  0  0  0  0
  143.8766  130.7388  150.5506 H   0  0  0  0  0  0  0  0  0  0  0  0
  143.0036  131.7398  149.3838 H   0  0  0  0  0  0  0  0  0  0  0  0
  142.4764  131.6803  151.0708 H   0  0  0  0  0  0  0  0  0  0  0  0
  146.0929  131.7281  150.7961 H   0  0  0  0  0  0  0  0  0  0  0  0
  147.4859  133.7253  151.3137 H   0  0  0  0  0  0  0  0  0  0  0  0
  147.6490  136.0108  151.3749 H   0  0  0  0  0  0  0  0  0  0  0  0
  148.3591  137.7455  151.9369 H   0  0  0  0  0  0  0  0  0  0  0  0
  148.1260  140.1317  152.1747 H   0  0  0  0  0  0  0  0  0  0  0  0
  146.5006  139.8782  152.7921 H   0  0  0  0  0  0  0  0  0  0  0  0
  147.3009  139.7636  154.9359 H   0  0  0  0  0  0  0  0  0  0  0  0
  148.3593  138.4344  154.4830 H   0  0  0  0  0  0  0  0  0  0  0  0
  151.9873  140.4292  156.2917 H   0  0  0  0  0  0  0  0  0  0  0  0
  151.6048  141.6393  155.1141 H   0  0  0  0  0  0  0  0  0  0  0  0
  151.6216  142.6503  157.3836 H   0  0  0  0  0  0  0  0  0  0  0  0
  150.0128  142.7358  156.7052 H   0  0  0  0  0  0  0  0  0  0  0  0
  151.0304  140.7286  158.7674 H   0  0  0  0  0  0  0  0  0  0  0  0
  149.8154  141.9556  159.0272 H   0  0  0  0  0  0  0  0  0  0  0  0
  148.8549  139.6247  158.7089 H   0  0  0  0  0  0  0  0  0  0  0  0
  148.2265  140.7868  157.5651 H   0  0  0  0  0  0  0  0  0  0  0  0
  148.8365  138.6713  156.4059 H   0  0  0  0  0  0  0  0  0  0  0  0
  150.4677  138.7723  156.9997 H   0  0  0  0  0  0  0  0  0  0  0  0
  142.6477  134.3292  150.7572 H   0  0  0  0  0  0  0  0  0  0  0  0
  1  2  1  0  0  0  0
  1 22  1  0  0  0  0
  1 23  1  0  0  0  0
  1 24  1  0  0  0  0
  2 21  1  0  0  0  0
  2  3  2  0  0  0  0
  3  4  1  0  0  0  0
  3 25  1  0  0  0  0
  4  5  2  0  0  0  0
  4 26  1  0  0  0  0
  5  6  1  0  0  0  0
  5 20  1  0  0  0  0
  6  7  1  0  0  0  0
  6 27  1  0  0  0  0
  7  8  2  0  0  0  0
  7  9  1  0  0  0  0
  9 10  1  0  0  0  0
  9 28  1  0  0  0  0
 10 11  1  0  0  0  0
 10 29  1  0  0  0  0
 10 30  1  0  0  0  0
 11 12  1  0  0  0  0
 11 31  1  0  0  0  0
 11 32  1  0  0  0  0
 12 13  2  0  0  0  0
 12 14  1  0  0  0  0
 14 19  1  0  0  0  0
 14 15  1  0  0  0  0
 15 16  1  0  0  0  0
 15 33  1  0  0  0  0
 15 34  1  0  0  0  0
 16 17  1  0  0  0  0
 16 35  1  0  0  0  0
 16 36  1  0  0  0  0
 17 18  1  0  0  0  0
 17 37  1  0  0  0  0
 17 38  1  0  0  0  0
 18 19  1  0  0  0  0
 18 39  1  0  0  0  0
 18 40  1  0  0  0  0
 19 41  1  0  0  0  0
 19 42  1  0  0  0  0
 20 21  2  0  0  0  0
 21 43  1  0  0  0  0
M  END
> <s_m_source_file>
AV-unprocessed.smi

> <i_m_source_file_index>
2250

> <i_lp_mmshare_version>
43012

> <i_f3d_flags>
0

> <s_epik_input>
W0NIM11jMVtjSF1bY0hdYyhuW2NIXTEpW05IXUMoPU8pW05IXVtDSDJdW0NIMl1DKD1PKU4yW0NIMl1bQ0gyXVtDSDJdW0NIMl1bQ0gyXTI=

> <s_epik_cmdline>
J2VwaWtfcHl0aG9uJywgJy1waCcsICc3LjAnLCAnLXRuJywgJzgnLCAnLW1hJywgJzIwMCcsICctbWV0YWxfYmluZGluZycsICctaW1hZScsICc8aW5maWxlLm1hZT4nLCAnLW9tYWUnLCAnPG91dGZpbGUubWFlPic=

> <r_lp_tautomer_probability>
1

> <r_epik_Ionization_Penalty>
5.00358e-05

> <r_epik_Ionization_Penalty_Charging>
0

> <r_epik_Ionization_Penalty_Neutral>
5.00358e-05

> <r_epik_State_Penalty>
-0

> <r_epik_Charging_Adjusted_Penalty>
0

> <i_epik_Tot_Q>
0

> <i_epik_Tot_abs_Q>
0

> <r_epik_Metal_State_Penalty>
-0

> <b_epik_Metal_Only>
0

> <s_lp_Force_Field>
OPLS_2005

> <r_lp_Energy>
26.56

> <b_lp_Chiralities_Consistent>
1

> <s_lp_Variant>
AV-unprocessed.smi:2250-1

> <Gold.Version>
5.8.1

> <Gold.Id.Protein>
6NUR|6NUR_protein|mol2

> <Gold.PLP.Fitness>
40.8936

> <Gold.PLP.PLP>
-33.3060

> <Gold.PLP.part.hbond>
-3.8054

> <Gold.PLP.part.metal>
0.0000

> <Gold.PLP.part.buried>
-4.0736

> <Gold.PLP.part.nonpolar>
-26.5486

> <Gold.PLP.part.repulsive>
1.0460

> <Gold.PLP.ligand.clash>
0.0000

> <Gold.PLP.ligand.torsion>
0.7102

> <Gold.PLP.Chemscore.Hbond>
1.9932

> <Gold.PLP.Chemscore.CHOScore>
1.0000

> <Gold.PLP.Chemscore.Metal>
0.0000

> <Gold.Chemscore.Hbonds>
donor molecule, donor type, donor heavy atom, donor atom, acceptor molecule, acceptor atom, score
      L1  H     6    27       P1  7948  0.50
      L1  H     9    28       P1  7948  0.70
      P1  H  7989  7998       L1    13  0.21
      P1  H  8011  8017       L1    13  0.98
      L1  C    21    43       P1 10186  1.00

> <Gold.PLP.Chemscore.Internal.Correction>
0.0285

> <Gold.Rescore>
     Score         DG    S(hbond)    S(metal)    S(lipo)     H(rot)  DE(clash)    DE(int)     intcor
     15.73     -17.57       2.31        0.00      70.32       1.51       0.11       1.73       ----

> <Gold.Chemscore.Fitness>
15.7300

> <Gold.Chemscore.DG>
-17.5658

> <Gold.Chemscore.ZeroCoef>
-5.4800

> <Gold.Chemscore.Hbond>
2.3150

> <Gold.Chemscore.Metal>
0.0000

> <Gold.Chemscore.Lipo>
70.3188

> <Gold.Chemscore.Internal_Hbond>
0.0000

> <Gold.Chemscore.DEClash>
0.1051

> <Gold.Chemscore.DEInternal>
1.7307

> <Gold.Chemscore.Rot>
1.5131

> <Gold.Chemscore.Internal.Correction>
   9.000000E+99

> <Gold.Chemscore.Hbonds>
donor molecule, donor type, donor heavy atom, donor atom, acceptor molecule, acceptor atom, score
      L1  H     6    27       P1  7948  0.50
      L1  H     9    28       P1  7948  0.69
      P1  H  7989  7998       L1    13  0.06
      P1  H  8011  8017       L1    13  0.93

> <Gold.Chemscore.Hbond.Weighted>
-7.7320

> <Gold.Chemscore.Metal.Weighted>
-0.0000

> <Gold.Chemscore.Lipo.Weighted>
-8.2273

> <Gold.Chemscore.Internal_Hbond.Weighted>
0.0000

> <Gold.Chemscore.DEClash.Weighted>
0.1051

> <Gold.Chemscore.DEInternal.Weighted>
1.7307

> <Gold.Chemscore.Rot.Weighted>
3.8735

> <Gold.Chemscore.Internal.Correction.Weighted>
   9.000000E+99

> <Gold.Protein.RotatedTorsions>
[ 6907 6896 6895 6894 ] final  130.64 input  -60.11 | X-H torsion
[ 7974 7965 7964 7962 ] final -117.41 input  175.53 | X-H torsion
[ 8008 7997 7996 7995 ] final  -60.93 input   59.86 | X-H torsion
[ 10167 10162 10161 10158 ] final -152.94 input  -65.29 | X-H torsion
[ 10718 10713 10712 10709 ] final  100.23 input   66.30 | X-H torsion
[ 10763 10752 10751 10750 ] final  -72.05 input  -60.55 | X-H torsion
[ 11005 11000 10999 10996 ] final  -10.78 input  -57.11 | X-H torsion

> <Gold.Protein.ActiveResidues>
 VAL166  LYS551  ARG553  GLY616  TRP617  ASP618  TYR619  PRO620  LYS621  CYS622 
 ASP623  PHE694  ASN695  SER759  ASP760  ASP761  ALA762  ILE779  LEU786  VAL792 
 PHE793  MET794  SER795  GLU796  ALA797  LYS798  CYS799  TRP800  GLU811  SER814 

> <Gold.Protein.RotatedAtoms>
  152.3506  133.6175  159.5941 H   0  0  0  0  0  0  0  0  0  0  0  0  # atno 6907 bound_to 6896
  150.7535  133.9581  159.3515 H   0  0  0  0  0  0  0  0  0  0  0  0  # atno 6908 bound_to 6896
  151.7433  135.0850  160.0370 H   0  0  0  0  0  0  0  0  0  0  0  0  # atno 6909 bound_to 6896
  145.0856  140.8455  143.4013 H   0  0  0  0  0  0  0  0  0  0  0  0  # atno 7974 bound_to 7965
  154.4422  140.1029  156.6351 H   0  0  0  0  0  0  0  0  0  0  0  0  # atno 8008 bound_to 7997
  155.5563  140.3486  155.4462 H   0  0  0  0  0  0  0  0  0  0  0  0  # atno 8009 bound_to 7997
  156.0493  140.1300  157.0058 H   0  0  0  0  0  0  0  0  0  0  0  0  # atno 8010 bound_to 7997
  139.7139  143.9065  152.2478 H   0  0  0  0  0  0  0  0  0  0  0  0  # atno 10167 bound_to 10162
  157.6859  131.0692  150.5068 H   0  0  0  0  0  0  0  0  0  0  0  0  # atno 10718 bound_to 10713
  154.4403  135.5942  153.6125 H   0  0  0  0  0  0  0  0  0  0  0  0  # atno 10763 bound_to 10752
  152.9805  135.5996  154.3730 H   0  0  0  0  0  0  0  0  0  0  0  0  # atno 10764 bound_to 10752
  154.3579  135.2841  155.2315 H   0  0  0  0  0  0  0  0  0  0  0  0  # atno 10765 bound_to 10752
  140.7484  133.8613  155.9024 H   0  0  0  0  0  0  0  0  0  0  0  0  # atno 11005 bound_to 11000
  145.1127  139.2746  143.5629 LP  0  0  0  0  0  0  0  0  0  0  0  0  # atno 17320 bound_to 7965
  146.3531  140.0727  142.8622 LP  0  0  0  0  0  0  0  0  0  0  0  0  # atno 17321 bound_to 7965
  139.8941  144.6949  150.8737 LP  0  0  0  0  0  0  0  0  0  0  0  0  # atno 17342 bound_to 10162
  140.7739  143.3563  151.1914 LP  0  0  0  0  0  0  0  0  0  0  0  0  # atno 17343 bound_to 10162
  156.5387  130.4203  149.6164 LP  0  0  0  0  0  0  0  0  0  0  0  0  # atno 17370 bound_to 10713
  156.3004  130.7174  151.2044 LP  0  0  0  0  0  0  0  0  0  0  0  0  # atno 17371 bound_to 10713
  140.9773  134.1452  157.4525 LP  0  0  0  0  0  0  0  0  0  0  0  0  # atno 17394 bound_to 11000
  139.8792  134.9999  156.5979 LP  0  0  0  0  0  0  0  0  0  0  0  0  # atno 17395 bound_to 11000

$$$$
