AV-unprocessed.smi:467|AV-procd|sdf|2650|dock4
  -GOLD-   2262023 63D 1   1.00000     0.00000
 Structure written by MMmdl.
 46 48  0  0  0  0  0  0  0  0  3 V2000
  152.2700  144.4554  160.6677 C   0  0  0  0  0  0  0  0  0  0  0  0
  152.0432  143.3931  159.6054 C   0  0  0  0  0  0  0  0  0  0  0  0
  151.1835  143.6930  158.5247 C   0  0  0  0  0  0  0  0  0  0  0  0
  150.9986  142.7026  157.5674 C   0  0  0  0  0  0  0  0  0  0  0  0
  150.2292  142.6917  156.4023 N   0  3  0  0  0  0  0  0  0  0  0  0
  150.3662  141.4892  155.7788 C   0  0  0  0  0  0  0  0  0  0  0  0
  151.2124  140.7307  156.5280 N   0  0  0  0  0  0  0  0  0  0  0  0
  151.6917  139.3596  156.2979 C   0  0  0  0  0  0  0  0  0  0  0  0
  152.1624  139.1277  154.8485 C   0  0  1  0  0  0  0  0  0  0  0  0
  153.5760  139.1648  154.7957 O   0  0  0  0  0  0  0  0  0  0  0  0
  151.6816  137.7697  154.2992 C   0  0  0  0  0  0  0  0  0  0  0  0
  150.2002  137.6659  154.2513 N   0  3  0  0  0  0  0  0  0  0  0  0
  149.6460  136.9106  155.4002 C   0  0  0  0  0  0  0  0  0  0  0  0
  148.1178  136.7840  155.2770 C   0  0  0  0  0  0  0  0  0  0  0  0
  147.5372  138.0785  155.1799 O   0  0  0  0  0  0  0  0  0  0  0  0
  147.9927  138.7804  154.0302 C   0  0  0  0  0  0  0  0  0  0  0  0
  149.5160  138.9762  154.1155 C   0  0  0  0  0  0  0  0  0  0  0  0
  151.6315  141.4471  157.6566 C   0  0  0  0  0  0  0  0  0  0  0  0
  152.4798  141.1352  158.7170 C   0  0  0  0  0  0  0  0  0  0  0  0
  152.6820  142.1298  159.7007 C   0  0  0  0  0  0  0  0  0  0  0  0
  153.6039  141.8176  160.8674 C   0  0  0  0  0  0  0  0  0  0  0  0
  151.7506  145.3822  160.4224 H   0  0  0  0  0  0  0  0  0  0  0  0
  153.3317  144.6849  160.7620 H   0  0  0  0  0  0  0  0  0  0  0  0
  151.9015  144.1130  161.6349 H   0  0  0  0  0  0  0  0  0  0  0  0
  150.6931  144.6523  158.4461 H   0  0  0  0  0  0  0  0  0  0  0  0
  149.8902  141.1922  154.8553 H   0  0  0  0  0  0  0  0  0  0  0  0
  152.4770  139.1225  157.0161 H   0  0  0  0  0  0  0  0  0  0  0  0
  150.8602  138.6914  156.5264 H   0  0  0  0  0  0  0  0  0  0  0  0
  151.7818  139.9415  154.2319 H   0  0  0  0  0  0  0  0  0  0  0  0
  153.9060  138.2830  154.8795 H   0  0  0  0  0  0  0  0  0  0  0  0
  152.0944  137.6349  153.2978 H   0  0  0  0  0  0  0  0  0  0  0  0
  152.0775  136.9501  154.9010 H   0  0  0  0  0  0  0  0  0  0  0  0
  150.0919  135.9159  155.4396 H   0  0  0  0  0  0  0  0  0  0  0  0
  149.9062  137.4169  156.3313 H   0  0  0  0  0  0  0  0  0  0  0  0
  147.8445  136.1831  154.4079 H   0  0  0  0  0  0  0  0  0  0  0  0
  147.7103  136.2795  156.1534 H   0  0  0  0  0  0  0  0  0  0  0  0
  147.7193  138.2373  153.1240 H   0  0  0  0  0  0  0  0  0  0  0  0
  147.4913  139.7474  153.9855 H   0  0  0  0  0  0  0  0  0  0  0  0
  149.7604  139.6082  154.9708 H   0  0  0  0  0  0  0  0  0  0  0  0
  149.8610  139.4992  153.2244 H   0  0  0  0  0  0  0  0  0  0  0  0
  152.9705  140.1766  158.7924 H   0  0  0  0  0  0  0  0  0  0  0  0
  153.9631  140.7887  160.8285 H   0  0  0  0  0  0  0  0  0  0  0  0
  153.0830  141.9512  161.8159 H   0  0  0  0  0  0  0  0  0  0  0  0
  154.4733  142.4757  160.8533 H   0  0  0  0  0  0  0  0  0  0  0  0
  149.9779  137.1271  153.4258 H   0  0  0  0  0  0  0  0  0  0  0  0
  149.6526  143.4481  156.0560 H   0  0  0  0  0  0  0  0  0  0  0  0
  1  2  1  0  0  0  0
  1 22  1  0  0  0  0
  1 23  1  0  0  0  0
  1 24  1  0  0  0  0
  2 20  1  0  0  0  0
  2  3  2  0  0  0  0
  3  4  1  0  0  0  0
  3 25  1  0  0  0  0
  4 18  2  0  0  0  0
  4  5  1  0  0  0  0
  5  6  2  0  0  0  0
  5 46  1  0  0  0  0
  6  7  1  0  0  0  0
  6 26  1  0  0  0  0
  7  8  1  0  0  0  0
  7 18  1  0  0  0  0
  8  9  1  0  0  0  0
  8 27  1  0  0  0  0
  8 28  1  0  0  0  0
  9 10  1  0  0  0  0
  9 11  1  0  0  0  0
  9 29  1  0  0  0  0
 10 30  1  0  0  0  0
 11 12  1  0  0  0  0
 11 31  1  0  0  0  0
 11 32  1  0  0  0  0
 12 17  1  0  0  0  0
 12 13  1  0  0  0  0
 12 45  1  0  0  0  0
 13 14  1  0  0  0  0
 13 33  1  0  0  0  0
 13 34  1  0  0  0  0
 14 15  1  0  0  0  0
 14 35  1  0  0  0  0
 14 36  1  0  0  0  0
 15 16  1  0  0  0  0
 16 17  1  0  0  0  0
 16 37  1  0  0  0  0
 16 38  1  0  0  0  0
 17 39  1  0  0  0  0
 17 40  1  0  0  0  0
 18 19  1  0  0  0  0
 19 20  2  0  0  0  0
 19 41  1  0  0  0  0
 20 21  1  0  0  0  0
 21 42  1  0  0  0  0
 21 43  1  0  0  0  0
 21 44  1  0  0  0  0
M  CHG  1   5   1
M  CHG  1  12   1
M  END
> <s_m_source_file>
AV-unprocessed.smi

> <i_m_source_file_index>
467

> <i_lp_mmshare_version>
43012

> <i_f3d_flags>
0

> <s_epik_input>
W0NIM11jKFtjSF0xKWMoW0NIM10pW2NIXWMoYzEyKW4oW2NIXW4yKVtDSDJdW0NASF0oW09IXSlbQ0gyXU4zW0NIMl1bQ0gyXU9bQ0gyXVtDSDJdMw==

> <s_epik_cmdline>
J2VwaWtfcHl0aG9uJywgJy1waCcsICc3LjAnLCAnLXRuJywgJzgnLCAnLW1hJywgJzIwMCcsICctbWV0YWxfYmluZGluZycsICctaW1hZScsICc8aW5maWxlLm1hZT4nLCAnLW9tYWUnLCAnPG91dGZpbGUubWFlPic=

> <r_epik_Ionization_Penalty>
1.88533

> <r_epik_Ionization_Penalty_Charging>
1.88531

> <r_epik_Ionization_Penalty_Neutral>
1.42224e-05

> <r_epik_State_Penalty>
1.94609

> <r_epik_Charging_Adjusted_Penalty>
3.8314

> <i_epik_Tot_Q>
2

> <i_epik_Tot_abs_Q>
2

> <r_epik_Metal_State_Penalty>
5.95915

> <b_epik_Metal_Only>
0

> <s_lp_Force_Field>
OPLS_2005

> <r_lp_Energy>
30.7546

> <b_lp_Chiralities_Consistent>
1

> <s_lp_Variant>
AV-unprocessed.smi:467-8

> <Gold.Version>
5.8.1

> <Gold.Id.Protein>
6NUR|6NUR_protein|mol2

> <Gold.PLP.Fitness>
57.9186

> <Gold.PLP.PLP>
-45.3989

> <Gold.PLP.part.hbond>
-3.0000

> <Gold.PLP.part.metal>
0.0000

> <Gold.PLP.part.buried>
-5.2639

> <Gold.PLP.part.nonpolar>
-38.6302

> <Gold.PLP.part.repulsive>
0.1989

> <Gold.PLP.ligand.clash>
0.0000

> <Gold.PLP.ligand.torsion>
1.2559

> <Gold.PLP.Chemscore.Hbond>
5.0000

> <Gold.PLP.Chemscore.CHOScore>
0.0000

> <Gold.PLP.Chemscore.Metal>
0.0000

> <Gold.Chemscore.Hbonds>
donor molecule, donor type, donor heavy atom, donor atom, acceptor molecule, acceptor atom, score
      L1  H     5    46       P1  8028  2.00
      L1  H    12    45       P1  7948  2.00
      P1  H  7997  8008       L1    10  1.00

> <Gold.PLP.Chemscore.Internal.Correction>
0.0316

> <Gold.Rescore>
     Score         DG    S(hbond)    S(metal)    S(lipo)     H(rot)  DE(clash)    DE(int)     intcor
     21.20     -22.45       2.74        0.00     114.07       2.16       0.07       1.18       ----

> <Gold.Chemscore.Fitness>
21.2028

> <Gold.Chemscore.DG>
-22.4531

> <Gold.Chemscore.ZeroCoef>
-5.4800

> <Gold.Chemscore.Hbond>
2.7408

> <Gold.Chemscore.Metal>
0.0000

> <Gold.Chemscore.Lipo>
114.0711

> <Gold.Chemscore.Internal_Hbond>
0.0000

> <Gold.Chemscore.DEClash>
0.0736

> <Gold.Chemscore.DEInternal>
1.1768

> <Gold.Chemscore.Rot>
2.1592

> <Gold.Chemscore.Internal.Correction>
   9.000000E+99

> <Gold.Chemscore.Hbonds>
donor molecule, donor type, donor heavy atom, donor atom, acceptor molecule, acceptor atom, score
      L1  H     5    46       P1  8028  0.93
      L1  H    12    45       P1  7948  0.28
      P1  H  7997  8008       L1    10  0.65

> <Gold.Chemscore.Hbond.Weighted>
-9.1544

> <Gold.Chemscore.Metal.Weighted>
-0.0000

> <Gold.Chemscore.Lipo.Weighted>
-13.3463

> <Gold.Chemscore.Internal_Hbond.Weighted>
0.0000

> <Gold.Chemscore.DEClash.Weighted>
0.0736

> <Gold.Chemscore.DEInternal.Weighted>
1.1768

> <Gold.Chemscore.Rot.Weighted>
5.5275

> <Gold.Chemscore.Internal.Correction.Weighted>
   9.000000E+99

> <Gold.Protein.RotatedTorsions>
[ 6907 6896 6895 6894 ] final  121.80 input  -60.11 | X-H torsion
[ 7974 7965 7964 7962 ] final   18.27 input  175.53 | X-H torsion
[ 8008 7997 7996 7995 ] final   -2.16 input   59.86 | X-H torsion
[ 10167 10162 10161 10158 ] final  -28.86 input  -65.29 | X-H torsion
[ 10718 10713 10712 10709 ] final -166.23 input   66.30 | X-H torsion
[ 10763 10752 10751 10750 ] final  -16.19 input  -60.55 | X-H torsion
[ 11005 11000 10999 10996 ] final   72.08 input  -57.11 | X-H torsion

> <Gold.Protein.ActiveResidues>
 VAL166  LYS551  ARG553  GLY616  TRP617  ASP618  TYR619  PRO620  LYS621  CYS622 
 ASP623  PHE694  ASN695  SER759  ASP760  ASP761  ALA762  ILE779  LEU786  VAL792 
 PHE793  MET794  SER795  GLU796  ALA797  LYS798  CYS799  TRP800  GLU811  SER814 

> <Gold.Protein.RotatedAtoms>
  152.4293  133.7250  159.6554 H   0  0  0  0  0  0  0  0  0  0  0  0  # atno 6907 bound_to 6896
  150.8172  133.8306  159.3161 H   0  0  0  0  0  0  0  0  0  0  0  0  # atno 6908 bound_to 6896
  151.5999  135.1050  160.0109 H   0  0  0  0  0  0  0  0  0  0  0  0  # atno 6909 bound_to 6896
  146.2190  139.8481  142.8628 H   0  0  0  0  0  0  0  0  0  0  0  0  # atno 7974 bound_to 7965
  154.6387  140.2541  155.7347 H   0  0  0  0  0  0  0  0  0  0  0  0  # atno 8008 bound_to 7997
  156.2518  140.2892  156.0692 H   0  0  0  0  0  0  0  0  0  0  0  0  # atno 8009 bound_to 7997
  155.1630  140.0384  157.2837 H   0  0  0  0  0  0  0  0  0  0  0  0  # atno 8010 bound_to 7997
  140.7266  143.3975  151.1322 H   0  0  0  0  0  0  0  0  0  0  0  0  # atno 10167 bound_to 10162
  156.6648  130.9060  151.3035 H   0  0  0  0  0  0  0  0  0  0  0  0  # atno 10718 bound_to 10713
  153.5547  135.7011  153.5575 H   0  0  0  0  0  0  0  0  0  0  0  0  # atno 10763 bound_to 10752
  153.3483  135.4002  155.1626 H   0  0  0  0  0  0  0  0  0  0  0  0  # atno 10764 bound_to 10752
  154.8656  135.3759  154.5061 H   0  0  0  0  0  0  0  0  0  0  0  0  # atno 10765 bound_to 10752
  139.9509  134.7228  156.0865 H   0  0  0  0  0  0  0  0  0  0  0  0  # atno 11005 bound_to 11000
  145.2829  141.0144  143.3707 LP  0  0  0  0  0  0  0  0  0  0  0  0  # atno 17320 bound_to 7965
  144.9136  139.4498  143.6575 LP  0  0  0  0  0  0  0  0  0  0  0  0  # atno 17321 bound_to 7965
  139.7590  143.8664  152.3095 LP  0  0  0  0  0  0  0  0  0  0  0  0  # atno 17342 bound_to 10162
  139.8544  144.7149  150.9175 LP  0  0  0  0  0  0  0  0  0  0  0  0  # atno 17343 bound_to 10162
  157.7097  130.9426  150.1048 LP  0  0  0  0  0  0  0  0  0  0  0  0  # atno 17370 bound_to 10713
  156.1983  130.3658  149.8820 LP  0  0  0  0  0  0  0  0  0  0  0  0  # atno 17371 bound_to 10713
  141.1172  133.6624  156.3123 LP  0  0  0  0  0  0  0  0  0  0  0  0  # atno 17394 bound_to 11000
  140.5721  134.5830  157.5460 LP  0  0  0  0  0  0  0  0  0  0  0  0  # atno 17395 bound_to 11000

$$$$
