AV-unprocessed.smi:2217|AV-procd|sdf|8970|dock2
  -GOLD-   2272012183D 1   1.00000     0.00000
 Structure written by MMmdl.
 45 48  0  0  0  0  0  0  0  0  1 V2000
  146.3187  133.4193  162.0854 C   0  0  0  0  0  0  0  0  0  0  0  0
  147.1427  134.4210  161.3043 C   0  0  0  0  0  0  0  0  0  0  0  0
  146.9477  135.8057  161.4639 C   0  0  0  0  0  0  0  0  0  0  0  0
  147.7432  136.6943  160.7151 C   0  0  0  0  0  0  0  0  0  0  0  0
  148.7161  136.1833  159.8267 C   0  0  0  0  0  0  0  0  0  0  0  0
  149.4537  137.1801  159.1201 N   0  0  0  0  0  0  0  0  0  0  0  0
  149.0812  138.3756  158.6138 C   0  0  0  0  0  0  0  0  0  0  0  0
  147.9254  138.7809  158.7233 O   0  0  0  0  0  0  0  0  0  0  0  0
  150.0432  139.0770  157.9965 N   0  0  0  0  0  0  0  0  0  0  0  0
  149.8848  140.3769  157.3456 C   0  0  2  0  0  0  0  0  0  0  0  0
  150.3121  140.3565  155.8597 C   0  0  2  0  0  0  0  0  0  0  0  0
  150.5576  139.0760  155.0985 C   0  0  0  0  0  0  0  0  0  0  0  0
  152.0765  138.9039  155.2002 C   0  0  0  0  0  0  0  0  0  0  0  0
  152.4644  139.7057  156.3143 O   0  0  0  0  0  0  0  0  0  0  0  0
  151.6664  140.8875  156.3024 C   0  0  2  0  0  0  0  0  0  0  0  0
  151.0669  141.3254  157.6552 C   0  0  0  0  0  0  0  0  0  0  0  0
  151.9168  141.1174  158.9091 C   0  0  0  0  0  0  0  0  0  0  0  0
  152.7487  142.3871  159.0930 C   0  0  0  0  0  0  0  0  0  0  0  0
  151.9466  143.5022  158.4155 C   0  0  0  0  0  0  0  0  0  0  0  0
  150.7399  142.8142  157.7677 C   0  0  0  0  0  0  0  0  0  0  0  0
  148.8932  134.8451  159.6820 N   0  0  0  0  0  0  0  0  0  0  0  0
  148.1320  133.9928  160.3992 C   0  0  0  0  0  0  0  0  0  0  0  0
  145.3837  133.8637  162.4278 H   0  0  0  0  0  0  0  0  0  0  0  0
  146.8747  133.0734  162.9569 H   0  0  0  0  0  0  0  0  0  0  0  0
  146.0766  132.5553  161.4659 H   0  0  0  0  0  0  0  0  0  0  0  0
  146.2026  136.1845  162.1479 H   0  0  0  0  0  0  0  0  0  0  0  0
  147.6043  137.7600  160.8263 H   0  0  0  0  0  0  0  0  0  0  0  0
  150.4329  136.9651  159.0011 H   0  0  0  0  0  0  0  0  0  0  0  0
  150.9651  138.6648  157.9561 H   0  0  0  0  0  0  0  0  0  0  0  0
  148.9112  140.8454  157.4990 H   0  0  0  0  0  0  0  0  0  0  0  0
  149.7644  141.1091  155.2902 H   0  0  0  0  0  0  0  0  0  0  0  0
  150.0324  138.2288  155.5392 H   0  0  0  0  0  0  0  0  0  0  0  0
  150.2404  139.1481  154.0580 H   0  0  0  0  0  0  0  0  0  0  0  0
  152.3741  137.8637  155.3349 H   0  0  0  0  0  0  0  0  0  0  0  0
  152.5653  139.2855  154.3028 H   0  0  0  0  0  0  0  0  0  0  0  0
  152.0662  141.6802  155.6682 H   0  0  0  0  0  0  0  0  0  0  0  0
  151.2695  140.9822  159.7770 H   0  0  0  0  0  0  0  0  0  0  0  0
  152.5517  140.2329  158.8509 H   0  0  0  0  0  0  0  0  0  0  0  0
  152.9440  142.5957  160.1452 H   0  0  0  0  0  0  0  0  0  0  0  0
  153.7123  142.2740  158.5947 H   0  0  0  0  0  0  0  0  0  0  0  0
  151.6281  144.2635  159.1282 H   0  0  0  0  0  0  0  0  0  0  0  0
  152.5586  143.9958  157.6597 H   0  0  0  0  0  0  0  0  0  0  0  0
  150.4990  143.2630  156.8032 H   0  0  0  0  0  0  0  0  0  0  0  0
  149.8641  142.9536  158.4032 H   0  0  0  0  0  0  0  0  0  0  0  0
  148.3199  132.9406  160.2440 H   0  0  0  0  0  0  0  0  0  0  0  0
  1  2  1  0  0  0  0
  1 23  1  0  0  0  0
  1 24  1  0  0  0  0
  1 25  1  0  0  0  0
  2 22  1  0  0  0  0
  2  3  2  0  0  0  0
  3  4  1  0  0  0  0
  3 26  1  0  0  0  0
  4  5  2  0  0  0  0
  4 27  1  0  0  0  0
  5  6  1  0  0  0  0
  5 21  1  0  0  0  0
  6  7  1  0  0  0  0
  6 28  1  0  0  0  0
  7  8  2  0  0  0  0
  7  9  1  0  0  0  0
  9 10  1  0  0  0  0
  9 29  1  0  0  0  0
 10 16  1  0  0  0  0
 10 11  1  0  0  0  0
 10 30  1  0  0  0  0
 11 15  1  0  0  0  0
 11 12  1  0  0  0  0
 11 31  1  0  0  0  0
 12 13  1  0  0  0  0
 12 32  1  0  0  0  0
 12 33  1  0  0  0  0
 13 14  1  0  0  0  0
 13 34  1  0  0  0  0
 13 35  1  0  0  0  0
 14 15  1  0  0  0  0
 15 16  1  0  0  0  0
 15 36  1  0  0  0  0
 16 20  1  0  0  0  0
 16 17  1  0  0  0  0
 17 18  1  0  0  0  0
 17 37  1  0  0  0  0
 17 38  1  0  0  0  0
 18 19  1  0  0  0  0
 18 39  1  0  0  0  0
 18 40  1  0  0  0  0
 19 20  1  0  0  0  0
 19 41  1  0  0  0  0
 19 42  1  0  0  0  0
 20 43  1  0  0  0  0
 20 44  1  0  0  0  0
 21 22  2  0  0  0  0
 22 45  1  0  0  0  0
M  END
> <s_m_source_file>
AV-unprocessed.smi

> <i_m_source_file_index>
2217

> <i_lp_mmshare_version>
43012

> <i_f3d_flags>
0

> <s_epik_input>
W0NIM11jMVtjSF1bY0hdYyhuW2NIXTEpW05IXUMoPU8pW05IXVtDQEBIXTJbQ0BASF0oW0NIMl1bQ0gyXU8zKVtDQEhdM0MyNFtDSDJdW0NIMl1bQ0gyXVtDSDJdNA==

> <s_epik_cmdline>
J2VwaWtfcHl0aG9uJywgJy1waCcsICc3LjAnLCAnLXRuJywgJzgnLCAnLW1hJywgJzIwMCcsICctbWV0YWxfYmluZGluZycsICctaW1hZScsICc8aW5maWxlLm1hZT4nLCAnLW9tYWUnLCAnPG91dGZpbGUubWFlPic=

> <r_lp_tautomer_probability>
1

> <r_epik_Ionization_Penalty>
6.14796e-05

> <r_epik_Ionization_Penalty_Charging>
0

> <r_epik_Ionization_Penalty_Neutral>
6.14796e-05

> <r_epik_State_Penalty>
-0

> <r_epik_Charging_Adjusted_Penalty>
0

> <i_epik_Tot_Q>
0

> <i_epik_Tot_abs_Q>
0

> <r_epik_Metal_State_Penalty>
-0

> <b_epik_Metal_Only>
0

> <s_lp_Force_Field>
OPLS_2005

> <r_lp_Energy>
58.8698

> <b_lp_Chiralities_Consistent>
1

> <s_lp_Variant>
AV-unprocessed.smi:2217-3

> <Gold.Version>
5.8.1

> <Gold.Id.Protein>
6NUR|6NUR_protein|mol2

> <Gold.PLP.Fitness>
44.3936

> <Gold.PLP.PLP>
-39.0240

> <Gold.PLP.part.hbond>
-3.0000

> <Gold.PLP.part.metal>
0.0000

> <Gold.PLP.part.buried>
-5.5537

> <Gold.PLP.part.nonpolar>
-32.0399

> <Gold.PLP.part.repulsive>
0.2645

> <Gold.PLP.ligand.clash>
0.0000

> <Gold.PLP.ligand.torsion>
0.4180

> <Gold.PLP.Chemscore.Hbond>
2.0000

> <Gold.PLP.Chemscore.CHOScore>
0.0000

> <Gold.PLP.Chemscore.Metal>
0.0000

> <Gold.Chemscore.Hbonds>
donor molecule, donor type, donor heavy atom, donor atom, acceptor molecule, acceptor atom, score
      P1  H  6896  6908       L1    21  0.88
      P1  H  7997  8010       L1    14  1.00

> <Gold.PLP.Chemscore.Internal.Correction>
0.2055

> <Gold.Rescore>
     Score         DG    S(hbond)    S(metal)    S(lipo)     H(rot)  DE(clash)    DE(int)     intcor
     18.83     -20.67       1.51        0.00     108.49       1.00       0.17       1.67       ----

> <Gold.Chemscore.Fitness>
18.8325

> <Gold.Chemscore.DG>
-20.6720

> <Gold.Chemscore.ZeroCoef>
-5.4800

> <Gold.Chemscore.Hbond>
1.5146

> <Gold.Chemscore.Metal>
0.0000

> <Gold.Chemscore.Lipo>
108.4885

> <Gold.Chemscore.Internal_Hbond>
0.0000

> <Gold.Chemscore.DEClash>
0.1722

> <Gold.Chemscore.DEInternal>
1.6673

> <Gold.Chemscore.Rot>
1.0000

> <Gold.Chemscore.Internal.Correction>
   9.000000E+99

> <Gold.Chemscore.Hbonds>
donor molecule, donor type, donor heavy atom, donor atom, acceptor molecule, acceptor atom, score
      P1  H  6896  6908       L1    21  0.69
      P1  H  6934  6947       L1     8  0.02
      P1  H  7997  8010       L1    14  0.78

> <Gold.Chemscore.Hbond.Weighted>
-5.0588

> <Gold.Chemscore.Metal.Weighted>
-0.0000

> <Gold.Chemscore.Lipo.Weighted>
-12.6932

> <Gold.Chemscore.Internal_Hbond.Weighted>
0.0000

> <Gold.Chemscore.DEClash.Weighted>
0.1722

> <Gold.Chemscore.DEInternal.Weighted>
1.6673

> <Gold.Chemscore.Rot.Weighted>
2.5600

> <Gold.Chemscore.Internal.Correction.Weighted>
   9.000000E+99

> <Gold.Protein.RotatedTorsions>
[ 6907 6896 6895 6894 ] final  152.62 input  -60.11 | X-H torsion
[ 7974 7965 7964 7962 ] final  -33.02 input  175.53 | X-H torsion
[ 8008 7997 7996 7995 ] final   64.06 input   59.86 | X-H torsion
[ 10167 10162 10161 10158 ] final  -35.05 input  -65.29 | X-H torsion
[ 10718 10713 10712 10709 ] final  -96.91 input   66.30 | X-H torsion
[ 10763 10752 10751 10750 ] final -138.26 input  -60.55 | X-H torsion
[ 11005 11000 10999 10996 ] final  -85.32 input  -57.11 | X-H torsion

> <Gold.Protein.ActiveResidues>
 VAL166  LYS551  ARG553  GLY616  TRP617  ASP618  TYR619  PRO620  LYS621  CYS622 
 ASP623  PHE694  ASN695  SER759  ASP760  ASP761  ALA762  ILE779  LEU786  VAL792 
 PHE793  MET794  SER795  GLU796  ALA797  LYS798  CYS799  TRP800  GLU811  SER814 

> <Gold.Protein.RotatedAtoms>
  152.0841  133.4167  159.4514 H   0  0  0  0  0  0  0  0  0  0  0  0  # atno 6907 bound_to 6896
  150.6862  134.2948  159.4691 H   0  0  0  0  0  0  0  0  0  0  0  0  # atno 6908 bound_to 6896
  152.0792  134.9482  160.0624 H   0  0  0  0  0  0  0  0  0  0  0  0  # atno 6909 bound_to 6896
  146.0944  140.5864  142.8849 H   0  0  0  0  0  0  0  0  0  0  0  0  # atno 7974 bound_to 7965
  155.6401  140.3497  155.4712 H   0  0  0  0  0  0  0  0  0  0  0  0  # atno 8008 bound_to 7997
  155.9933  140.1198  157.0641 H   0  0  0  0  0  0  0  0  0  0  0  0  # atno 8009 bound_to 7997
  154.4226  140.1115  156.5582 H   0  0  0  0  0  0  0  0  0  0  0  0  # atno 8010 bound_to 7997
  140.7173  143.3504  151.2167 H   0  0  0  0  0  0  0  0  0  0  0  0  # atno 10167 bound_to 10162
  156.0072  130.5171  150.6296 H   0  0  0  0  0  0  0  0  0  0  0  0  # atno 10718 bound_to 10713
  154.8641  135.3617  154.5357 H   0  0  0  0  0  0  0  0  0  0  0  0  # atno 10763 bound_to 10752
  153.5980  135.7013  153.5401 H   0  0  0  0  0  0  0  0  0  0  0  0  # atno 10764 bound_to 10752
  153.3315  135.4123  155.1461 H   0  0  0  0  0  0  0  0  0  0  0  0  # atno 10765 bound_to 10752
  141.1642  133.7393  156.8998 H   0  0  0  0  0  0  0  0  0  0  0  0  # atno 11005 bound_to 11000
  144.7384  140.4874  143.6887 LP  0  0  0  0  0  0  0  0  0  0  0  0  # atno 17320 bound_to 7965
  145.5977  139.1501  143.3147 LP  0  0  0  0  0  0  0  0  0  0  0  0  # atno 17321 bound_to 7965
  139.7034  143.9495  152.2916 LP  0  0  0  0  0  0  0  0  0  0  0  0  # atno 17342 bound_to 10162
  139.9196  144.6807  150.8475 LP  0  0  0  0  0  0  0  0  0  0  0  0  # atno 17343 bound_to 10162
  157.4097  131.0822  151.1233 LP  0  0  0  0  0  0  0  0  0  0  0  0  # atno 17370 bound_to 10713
  157.1868  130.6334  149.5690 LP  0  0  0  0  0  0  0  0  0  0  0  0  # atno 17371 bound_to 10713
  140.1591  134.9178  157.2691 LP  0  0  0  0  0  0  0  0  0  0  0  0  # atno 17394 bound_to 11000
  140.2633  134.3546  155.7399 LP  0  0  0  0  0  0  0  0  0  0  0  0  # atno 17395 bound_to 11000

$$$$
