AV-unprocessed.smi:1|AV-procd|sdf|23|dock8
  -GOLD-   2262015133D 1   1.00000     0.00000
 Structure written by MMmdl.
 56 61  0  0  0  0  0  0  0  0  2 V2000
  152.5523  139.5303  159.3724 O   0  0  0  0  0  0  0  0  0  0  0  0
  152.3774  140.3884  158.5046 C   0  0  0  0  0  0  0  0  0  0  0  0
  152.4051  140.2293  157.1573 N   0  5  0  0  0  0  0  0  0  0  0  0
  151.4635  139.4913  156.5511 C   0  0  0  0  0  0  0  0  0  0  0  0
  151.0176  139.8242  155.3128 N   0  0  0  0  0  0  0  0  0  0  0  0
  150.0681  139.0929  154.7169 C   0  0  0  0  0  0  0  0  0  0  0  0
  149.4294  138.0113  155.1740 N   0  0  0  0  0  0  0  0  0  0  0  0
  149.8663  137.6714  156.4222 C   0  0  0  0  0  0  0  0  0  0  0  0
  150.8688  138.3568  157.1670 C   0  0  0  0  0  0  0  0  0  0  0  0
  151.0696  137.7495  158.3984 N   0  0  0  0  0  0  0  0  0  0  0  0
  150.1990  136.7438  158.3475 C   0  0  0  0  0  0  0  0  0  0  0  0
  149.4505  136.6288  157.2329 N   0  0  0  0  0  0  0  0  0  0  0  0
  148.4093  135.6063  156.9371 C   0  0  2  0  0  0  0  0  0  0  0  0
  149.0230  134.3685  156.7871 O   0  0  0  0  0  0  0  0  0  0  0  0
  148.2813  133.5695  155.8677 C   0  0  2  0  0  0  0  0  0  0  0  0
  149.2696  132.9503  154.8721 C   0  0  0  0  0  0  0  0  0  0  0  0
  148.6211  132.7662  153.6243 O   0  0  0  0  0  0  0  0  0  0  0  0
  147.7582  131.7465  153.4540 C   0  0  0  0  0  0  0  0  0  0  0  0
  147.7193  130.7557  154.1863 O   0  0  0  0  0  0  0  0  0  0  0  0
  146.8525  131.9440  152.2854 C   0  0  0  0  0  0  0  0  0  0  0  0
  146.9502  133.1327  151.5249 C   0  0  0  0  0  0  0  0  0  0  0  0
  146.1088  133.3462  150.4155 C   0  0  0  0  0  0  0  0  0  0  0  0
  145.1585  132.3738  150.0536 C   0  0  0  0  0  0  0  0  0  0  0  0
  145.0503  131.1877  150.8026 C   0  0  0  0  0  0  0  0  0  0  0  0
  145.8913  130.9722  151.9118 C   0  0  0  0  0  0  0  0  0  0  0  0
  147.2537  134.5029  155.2068 C   0  0  1  0  0  0  0  0  0  0  0  0
  145.9652  134.2659  155.7496 O   0  0  0  0  0  0  0  0  0  0  0  0
  145.2419  135.7365  156.0763 S   0  0  0  0  0  0  0  0  0  0  0  0
  144.2545  136.0112  155.0215 O   0  0  0  0  0  0  0  0  0  0  0  0
  144.9044  135.7741  157.5075 O   0  0  0  0  0  0  0  0  0  0  0  0
  146.5644  136.7248  155.8231 O   0  0  0  0  0  0  0  0  0  0  0  0
  147.7018  135.9070  155.6191 C   0  0  1  0  0  0  0  0  0  0  0  0
  152.1589  141.8157  158.9291 C   0  0  0  0  0  0  0  0  0  0  0  0
  151.6388  142.7497  158.0045 C   0  0  0  0  0  0  0  0  0  0  0  0
  151.4542  144.0964  158.3740 C   0  0  0  0  0  0  0  0  0  0  0  0
  151.7978  144.5257  159.6695 C   0  0  0  0  0  0  0  0  0  0  0  0
  152.3294  143.6078  160.5947 C   0  0  0  0  0  0  0  0  0  0  0  0
  152.5132  142.2607  160.2263 C   0  0  0  0  0  0  0  0  0  0  0  0
  149.7756  139.4247  153.7319 H   0  0  0  0  0  0  0  0  0  0  0  0
  150.0945  136.0543  159.1722 H   0  0  0  0  0  0  0  0  0  0  0  0
  147.7451  135.5944  157.8026 H   0  0  0  0  0  0  0  0  0  0  0  0
  147.7778  132.7785  156.4254 H   0  0  0  0  0  0  0  0  0  0  0  0
  150.1468  133.5887  154.7561 H   0  0  0  0  0  0  0  0  0  0  0  0
  149.6124  131.9842  155.2448 H   0  0  0  0  0  0  0  0  0  0  0  0
  147.6728  133.8936  151.7831 H   0  0  0  0  0  0  0  0  0  0  0  0
  146.1935  134.2572  149.8414 H   0  0  0  0  0  0  0  0  0  0  0  0
  144.5138  132.5373  149.2025 H   0  0  0  0  0  0  0  0  0  0  0  0
  144.3211  130.4405  150.5259 H   0  0  0  0  0  0  0  0  0  0  0  0
  145.7810  130.0507  152.4647 H   0  0  0  0  0  0  0  0  0  0  0  0
  147.2045  134.3920  154.1228 H   0  0  0  0  0  0  0  0  0  0  0  0
  148.3941  136.3299  154.8906 H   0  0  0  0  0  0  0  0  0  0  0  0
  151.3730  142.4366  157.0050 H   0  0  0  0  0  0  0  0  0  0  0  0
  151.0502  144.8002  157.6614 H   0  0  0  0  0  0  0  0  0  0  0  0
  151.6577  145.5586  159.9519 H   0  0  0  0  0  0  0  0  0  0  0  0
  152.6001  143.9364  161.5872 H   0  0  0  0  0  0  0  0  0  0  0  0
  152.9334  141.5745  160.9477 H   0  0  0  0  0  0  0  0  0  0  0  0
  1  2  2  0  0  0  0
  2  3  1  0  0  0  0
  2 33  1  0  0  0  0
  3  4  1  0  0  0  0
  4  9  1  0  0  0  0
  4  5  2  0  0  0  0
  5  6  1  0  0  0  0
  6  7  2  0  0  0  0
  6 39  1  0  0  0  0
  7  8  1  0  0  0  0
  8 12  1  0  0  0  0
  8  9  2  0  0  0  0
  9 10  1  0  0  0  0
 10 11  2  0  0  0  0
 11 12  1  0  0  0  0
 11 40  1  0  0  0  0
 12 13  1  0  0  0  0
 13 32  1  0  0  0  0
 13 14  1  0  0  0  0
 13 41  1  0  0  0  0
 14 15  1  0  0  0  0
 15 16  1  0  0  0  0
 15 26  1  0  0  0  0
 15 42  1  0  0  0  0
 16 17  1  0  0  0  0
 16 43  1  0  0  0  0
 16 44  1  0  0  0  0
 17 18  1  0  0  0  0
 18 19  2  0  0  0  0
 18 20  1  0  0  0  0
 20 25  1  0  0  0  0
 20 21  2  0  0  0  0
 21 22  1  0  0  0  0
 21 45  1  0  0  0  0
 22 23  2  0  0  0  0
 22 46  1  0  0  0  0
 23 24  1  0  0  0  0
 23 47  1  0  0  0  0
 24 25  2  0  0  0  0
 24 48  1  0  0  0  0
 25 49  1  0  0  0  0
 26 32  1  0  0  0  0
 26 27  1  0  0  0  0
 26 50  1  0  0  0  0
 27 28  1  0  0  0  0
 28 29  2  0  0  0  0
 28 30  2  0  0  0  0
 28 31  1  0  0  0  0
 31 32  1  0  0  0  0
 32 51  1  0  0  0  0
 33 38  1  0  0  0  0
 33 34  2  0  0  0  0
 34 35  1  0  0  0  0
 34 52  1  0  0  0  0
 35 36  2  0  0  0  0
 35 53  1  0  0  0  0
 36 37  1  0  0  0  0
 36 54  1  0  0  0  0
 37 38  2  0  0  0  0
 37 55  1  0  0  0  0
 38 56  1  0  0  0  0
M  CHG  1   3  -1
M  END
> <s_m_source_file>
AV-unprocessed.smi

> <i_m_source_file_index>
1

> <i_lp_mmshare_version>
43012

> <i_f3d_flags>
0

> <s_epik_input>
W2NIXTFbY0hdW2NIXVtjSF1bY0hdYzFDKD1PKVtOSF1jKG5bY0hdbjIpYyhjMjMpbltjSF1uM1tDQEBIXShbQ0BIXShbQ0BIXTQ1KU9TKE81KSg9Tyk9TylPW0NASF00W0NIMl1PQyg9TyljNltjSF1bY0hdW2NIXVtjSF1bY0hdNg==

> <s_epik_cmdline>
J2VwaWtfcHl0aG9uJywgJy1waCcsICc3LjAnLCAnLXRuJywgJzgnLCAnLW1hJywgJzIwMCcsICctbWV0YWxfYmluZGluZycsICctaW1hZScsICc8aW5maWxlLm1hZT4nLCAnLW9tYWUnLCAnPG91dGZpbGUubWFlPic=

> <r_lp_tautomer_probability>
1

> <r_epik_Ionization_Penalty>
4.39121

> <r_epik_Ionization_Penalty_Charging>
3.39398

> <r_epik_Ionization_Penalty_Neutral>
0.997232

> <r_epik_State_Penalty>
3.39839

> <r_epik_Charging_Adjusted_Penalty>
6.79237

> <i_epik_Tot_Q>
-1

> <i_epik_Tot_abs_Q>
1

> <r_epik_Metal_State_Penalty>
0.497663

> <b_epik_Metal_Only>
1

> <s_epik_Chemistry_Notes>
This compound has an ester and may undergo hydrolysis at high or low pH. This compound contains an acetal/aminal-like group ( X-CH(R)-Y where X, Y are N, S, or O) that may be acid/base labile, releasing an aldehyde.

> <s_lp_Force_Field>
OPLS_2005

> <r_lp_Energy>
40.5787

> <b_lp_Chiralities_Consistent>
1

> <s_lp_Variant>
AV-unprocessed.smi:1-23

> <Gold.Version>
5.8.1

> <Gold.Id.Protein>
6NUR|6NUR_protein|mol2

> <Gold.PLP.Fitness>
58.4144

> <Gold.PLP.PLP>
-49.8399

> <Gold.PLP.part.hbond>
-2.0000

> <Gold.PLP.part.metal>
0.0000

> <Gold.PLP.part.buried>
-5.1284

> <Gold.PLP.part.nonpolar>
-42.4267

> <Gold.PLP.part.repulsive>
0.4320

> <Gold.PLP.ligand.clash>
0.0000

> <Gold.PLP.ligand.torsion>
1.7680

> <Gold.PLP.Chemscore.Hbond>
2.8380

> <Gold.PLP.Chemscore.CHOScore>
1.0000

> <Gold.PLP.Chemscore.Metal>
0.0000

> <Gold.Chemscore.Hbonds>
donor molecule, donor type, donor heavy atom, donor atom, acceptor molecule, acceptor atom, score
      P1  H  7989  7998       L1     5  0.49
      P1  H  7997  8009       L1     3  1.92
      L1  C     6    39       P1  7957  0.71

> <Gold.PLP.Chemscore.Internal.Correction>
0.5964

> <Gold.Rescore>
     Score         DG    S(hbond)    S(metal)    S(lipo)     H(rot)  DE(clash)    DE(int)     intcor
     10.77     -17.75       0.69        0.00     131.53       2.11       0.15       6.84       ----

> <Gold.Chemscore.Fitness>
10.7665

> <Gold.Chemscore.DG>
-17.7536

> <Gold.Chemscore.ZeroCoef>
-5.4800

> <Gold.Chemscore.Hbond>
0.6872

> <Gold.Chemscore.Metal>
0.0000

> <Gold.Chemscore.Lipo>
131.5306

> <Gold.Chemscore.Internal_Hbond>
0.0000

> <Gold.Chemscore.DEClash>
0.1484

> <Gold.Chemscore.DEInternal>
6.8387

> <Gold.Chemscore.Rot>
2.1136

> <Gold.Chemscore.Internal.Correction>
   9.000000E+99

> <Gold.Chemscore.Hbonds>
donor molecule, donor type, donor heavy atom, donor atom, acceptor molecule, acceptor atom, score
      P1  H  7989  7998       L1     5  0.07
      P1  H  7997  8009       L1     3  0.63

> <Gold.Chemscore.Hbond.Weighted>
-2.2953

> <Gold.Chemscore.Metal.Weighted>
-0.0000

> <Gold.Chemscore.Lipo.Weighted>
-15.3891

> <Gold.Chemscore.Internal_Hbond.Weighted>
0.0000

> <Gold.Chemscore.DEClash.Weighted>
0.1484

> <Gold.Chemscore.DEInternal.Weighted>
6.8387

> <Gold.Chemscore.Rot.Weighted>
5.4107

> <Gold.Chemscore.Internal.Correction.Weighted>
   9.000000E+99

> <Gold.Protein.RotatedTorsions>
[ 6907 6896 6895 6894 ] final   27.48 input  -60.11 | X-H torsion
[ 7974 7965 7964 7962 ] final -174.15 input  175.53 | X-H torsion
[ 8008 7997 7996 7995 ] final -171.40 input   59.86 | X-H torsion
[ 10167 10162 10161 10158 ] final   64.22 input  -65.29 | X-H torsion
[ 10718 10713 10712 10709 ] final  105.91 input   66.30 | X-H torsion
[ 10763 10752 10751 10750 ] final   71.76 input  -60.55 | X-H torsion
[ 11005 11000 10999 10996 ] final   96.94 input  -57.11 | X-H torsion

> <Gold.Protein.ActiveResidues>
 VAL166  LYS551  ARG553  GLY616  TRP617  ASP618  TYR619  PRO620  LYS621  CYS622 
 ASP623  PHE694  ASN695  SER759  ASP760  ASP761  ALA762  ILE779  LEU786  VAL792 
 PHE793  MET794  SER795  GLU796  ALA797  LYS798  CYS799  TRP800  GLU811  SER814 

> <Gold.Protein.RotatedAtoms>
  152.0029  134.9918  160.0565 H   0  0  0  0  0  0  0  0  0  0  0  0  # atno 6907 bound_to 6896
  152.1502  133.4512  159.4818 H   0  0  0  0  0  0  0  0  0  0  0  0  # atno 6908 bound_to 6896
  150.6874  134.2116  159.4405 H   0  0  0  0  0  0  0  0  0  0  0  0  # atno 6909 bound_to 6896
  144.7133  140.1515  143.6384 H   0  0  0  0  0  0  0  0  0  0  0  0  # atno 7974 bound_to 7965
  155.9310  140.1091  157.1132 H   0  0  0  0  0  0  0  0  0  0  0  0  # atno 8008 bound_to 7997
  154.4071  140.1237  156.4868 H   0  0  0  0  0  0  0  0  0  0  0  0  # atno 8009 bound_to 7997
  155.7080  140.3471  155.4963 H   0  0  0  0  0  0  0  0  0  0  0  0  # atno 8010 bound_to 7997
  140.1245  144.4700  150.6900 H   0  0  0  0  0  0  0  0  0  0  0  0  # atno 10167 bound_to 10162
  157.6688  131.0838  150.5927 H   0  0  0  0  0  0  0  0  0  0  0  0  # atno 10718 bound_to 10713
  153.0418  135.5125  154.7641 H   0  0  0  0  0  0  0  0  0  0  0  0  # atno 10763 bound_to 10752
  154.6573  135.2933  154.9914 H   0  0  0  0  0  0  0  0  0  0  0  0  # atno 10764 bound_to 10752
  154.0777  135.6668  153.4886 H   0  0  0  0  0  0  0  0  0  0  0  0  # atno 10765 bound_to 10752
  139.8778  134.8976  156.4233 H   0  0  0  0  0  0  0  0  0  0  0  0  # atno 11005 bound_to 11000
  145.9112  139.2488  143.1436 LP  0  0  0  0  0  0  0  0  0  0  0  0  # atno 17320 bound_to 7965
  145.9714  140.8757  143.0161 LP  0  0  0  0  0  0  0  0  0  0  0  0  # atno 17321 bound_to 7965
  140.6853  143.2347  151.5278 LP  0  0  0  0  0  0  0  0  0  0  0  0  # atno 17342 bound_to 10162
  139.5551  144.2296  152.1598 LP  0  0  0  0  0  0  0  0  0  0  0  0  # atno 17343 bound_to 10162
  156.6228  130.4410  149.5816 LP  0  0  0  0  0  0  0  0  0  0  0  0  # atno 17370 bound_to 10713
  156.2342  130.6813  151.1493 LP  0  0  0  0  0  0  0  0  0  0  0  0  # atno 17371 bound_to 10713
  140.9118  133.7706  155.9801 LP  0  0  0  0  0  0  0  0  0  0  0  0  # atno 17394 bound_to 11000
  140.8537  134.2923  157.5264 LP  0  0  0  0  0  0  0  0  0  0  0  0  # atno 17395 bound_to 11000

$$$$
