AV-unprocessed.smi:1137|AV-procd|sdf|4863|dock2
  -GOLD-   22720 3433D 1   1.00000     0.00000
 Structure written by MMmdl.
 17 17  0  0  0  0  0  0  0  0  2 V2000
  151.4137  140.1791  155.0411 O   0  0  0  0  0  0  0  0  0  0  0  0
  151.6009  140.1271  156.2768 C   0  0  0  0  0  0  0  0  0  0  0  0
  152.5014  139.4661  156.8421 O   0  5  0  0  0  0  0  0  0  0  0  0
  150.6270  140.9268  157.1556 C   0  0  2  0  0  0  0  0  0  0  0  0
  149.7628  141.7200  156.3613 O   0  0  0  0  0  0  0  0  0  0  0  0
  151.4631  141.7458  158.1300 C   0  0  0  0  0  0  0  0  0  0  0  0
  152.3338  141.1306  159.0568 C   0  0  0  0  0  0  0  0  0  0  0  0
  153.0767  141.9421  159.9357 C   0  0  0  0  0  0  0  0  0  0  0  0
  152.9164  143.3393  159.8544 C   0  0  0  0  0  0  0  0  0  0  0  0
  152.0859  143.9411  158.9763 N   0  0  0  0  0  0  0  0  0  0  0  0
  151.3758  143.1550  158.1383 C   0  0  0  0  0  0  0  0  0  0  0  0
  150.0039  140.2278  157.7154 H   0  0  0  0  0  0  0  0  0  0  0  0
  149.6243  142.5430  156.8029 H   0  0  0  0  0  0  0  0  0  0  0  0
  152.4295  140.0554  159.0980 H   0  0  0  0  0  0  0  0  0  0  0  0
  153.7506  141.5035  160.6563 H   0  0  0  0  0  0  0  0  0  0  0  0
  153.4702  143.9915  160.5133 H   0  0  0  0  0  0  0  0  0  0  0  0
  150.7183  143.6683  157.4521 H   0  0  0  0  0  0  0  0  0  0  0  0
  1  2  2  0  0  0  0
  2  3  1  0  0  0  0
  2  4  1  0  0  0  0
  4  5  1  0  0  0  0
  4  6  1  0  0  0  0
  4 12  1  0  0  0  0
  5 13  1  0  0  0  0
  6 11  1  0  0  0  0
  6  7  2  0  0  0  0
  7  8  1  0  0  0  0
  7 14  1  0  0  0  0
  8  9  2  0  0  0  0
  8 15  1  0  0  0  0
  9 10  1  0  0  0  0
  9 16  1  0  0  0  0
 10 11  2  0  0  0  0
 11 17  1  0  0  0  0
M  CHG  1   3  -1
M  END
> <s_m_source_file>
AV-unprocessed.smi

> <i_m_source_file_index>
1137

> <i_lp_mmshare_version>
43012

> <i_f3d_flags>
0

> <s_epik_input>
Tz1DKFtPSF0pW0NASF0oW09IXSljMVtjSF1bY0hdW2NIXW5bY0hdMQ==

> <s_epik_cmdline>
J2VwaWtfcHl0aG9uJywgJy1waCcsICc3LjAnLCAnLXRuJywgJzgnLCAnLW1hJywgJzIwMCcsICctbWV0YWxfYmluZGluZycsICctaW1hZScsICc8aW5maWxlLm1hZT4nLCAnLW9tYWUnLCAnPG91dGZpbGUubWFlPic=

> <r_epik_Ionization_Penalty>
0.0193563

> <r_epik_Ionization_Penalty_Charging>
9.29916e-05

> <r_epik_Ionization_Penalty_Neutral>
0.0192633

> <r_epik_State_Penalty>
0.0153745

> <r_epik_Charging_Adjusted_Penalty>
0.0154675

> <i_epik_Tot_Q>
-1

> <i_epik_Tot_abs_Q>
1

> <r_epik_Metal_State_Penalty>
1.55756e-05

> <b_epik_Metal_Only>
0

> <s_lp_Force_Field>
OPLS_2005

> <r_lp_Energy>
6.08914

> <b_lp_Chiralities_Consistent>
1

> <s_lp_Variant>
AV-unprocessed.smi:1137-1

> <Gold.Version>
5.8.1

> <Gold.Id.Protein>
6NUR|6NUR_protein|mol2

> <Gold.PLP.Fitness>
39.4505

> <Gold.PLP.PLP>
-24.7256

> <Gold.PLP.part.hbond>
-3.0000

> <Gold.PLP.part.metal>
0.0000

> <Gold.PLP.part.buried>
-2.6467

> <Gold.PLP.part.nonpolar>
-18.6128

> <Gold.PLP.part.repulsive>
0.1386

> <Gold.PLP.ligand.clash>
0.0000

> <Gold.PLP.ligand.torsion>
0.1504

> <Gold.PLP.Chemscore.Hbond>
4.0000

> <Gold.PLP.Chemscore.CHOScore>
1.0000

> <Gold.PLP.Chemscore.Metal>
0.0000

> <Gold.Chemscore.Hbonds>
donor molecule, donor type, donor heavy atom, donor atom, acceptor molecule, acceptor atom, score
      P1  H  7989  7998       L1     1  1.00
      P1  H  7997  8009       L1     3  2.00
      L1  C    11    17       P1  8028  0.45

> <Gold.PLP.Chemscore.Internal.Correction>
0.0258

> <Gold.Rescore>
     Score         DG    S(hbond)    S(metal)    S(lipo)     H(rot)  DE(clash)    DE(int)     intcor
     15.29     -17.00       2.85        0.00      63.05       2.10       0.10       1.60       ----

> <Gold.Chemscore.Fitness>
15.2948

> <Gold.Chemscore.DG>
-16.9977

> <Gold.Chemscore.ZeroCoef>
-5.4800

> <Gold.Chemscore.Hbond>
2.8480

> <Gold.Chemscore.Metal>
0.0000

> <Gold.Chemscore.Lipo>
63.0545

> <Gold.Chemscore.Internal_Hbond>
0.0000

> <Gold.Chemscore.DEClash>
0.1029

> <Gold.Chemscore.DEInternal>
1.6000

> <Gold.Chemscore.Rot>
2.0984

> <Gold.Chemscore.Internal.Correction>
   9.000000E+99

> <Gold.Chemscore.Hbonds>
donor molecule, donor type, donor heavy atom, donor atom, acceptor molecule, acceptor atom, score
      P1  H  7989  7998       L1     1  0.98
      P1  H  7997  8009       L1     3  0.91

> <Gold.Chemscore.Hbond.Weighted>
-9.5123

> <Gold.Chemscore.Metal.Weighted>
-0.0000

> <Gold.Chemscore.Lipo.Weighted>
-7.3774

> <Gold.Chemscore.Internal_Hbond.Weighted>
0.0000

> <Gold.Chemscore.DEClash.Weighted>
0.1029

> <Gold.Chemscore.DEInternal.Weighted>
1.6000

> <Gold.Chemscore.Rot.Weighted>
5.3719

> <Gold.Chemscore.Internal.Correction.Weighted>
   9.000000E+99

> <Gold.Protein.RotatedTorsions>
[ 6907 6896 6895 6894 ] final  148.30 input  -60.11 | X-H torsion
[ 7974 7965 7964 7962 ] final   26.28 input  175.53 | X-H torsion
[ 8008 7997 7996 7995 ] final -174.35 input   59.86 | X-H torsion
[ 10167 10162 10161 10158 ] final    2.77 input  -65.29 | X-H torsion
[ 10718 10713 10712 10709 ] final   -2.00 input   66.30 | X-H torsion
[ 10763 10752 10751 10750 ] final  136.18 input  -60.55 | X-H torsion
[ 11005 11000 10999 10996 ] final   82.08 input  -57.11 | X-H torsion

> <Gold.Protein.ActiveResidues>
 VAL166  LYS551  ARG553  GLY616  TRP617  ASP618  TYR619  PRO620  LYS621  CYS622 
 ASP623  PHE694  ASN695  SER759  ASP760  ASP761  ALA762  ILE779  LEU786  VAL792 
 PHE793  MET794  SER795  GLU796  ALA797  LYS798  CYS799  TRP800  GLU811  SER814 

> <Gold.Protein.RotatedAtoms>
  152.1433  133.4477  159.4777 H   0  0  0  0  0  0  0  0  0  0  0  0  # atno 6907 bound_to 6896
  150.6888  134.2279  159.4431 H   0  0  0  0  0  0  0  0  0  0  0  0  # atno 6908 bound_to 6896
  152.0171  134.9843  160.0620 H   0  0  0  0  0  0  0  0  0  0  0  0  # atno 6909 bound_to 6896
  146.1846  139.7350  142.8876 H   0  0  0  0  0  0  0  0  0  0  0  0  # atno 7974 bound_to 7965
  155.9690  140.1159  157.0829 H   0  0  0  0  0  0  0  0  0  0  0  0  # atno 8008 bound_to 7997
  154.4151  140.1167  156.5348 H   0  0  0  0  0  0  0  0  0  0  0  0  # atno 8009 bound_to 7997
  155.6621  140.3473  155.4789 H   0  0  0  0  0  0  0  0  0  0  0  0  # atno 8010 bound_to 7997
  140.6619  143.7282  150.7754 H   0  0  0  0  0  0  0  0  0  0  0  0  # atno 10167 bound_to 10162
  156.7973  130.5381  149.5727 H   0  0  0  0  0  0  0  0  0  0  0  0  # atno 10718 bound_to 10713
  153.8523  135.3078  155.3433 H   0  0  0  0  0  0  0  0  0  0  0  0  # atno 10763 bound_to 10752
  154.7886  135.4796  154.0004 H   0  0  0  0  0  0  0  0  0  0  0  0  # atno 10764 bound_to 10752
  153.1511  135.6843  153.8974 H   0  0  0  0  0  0  0  0  0  0  0  0  # atno 10765 bound_to 10752
  139.9076  134.8045  156.2127 H   0  0  0  0  0  0  0  0  0  0  0  0  # atno 11005 bound_to 11000
  145.3977  141.0381  143.3088 LP  0  0  0  0  0  0  0  0  0  0  0  0  # atno 17320 bound_to 7965
  144.8374  139.5528  143.6916 LP  0  0  0  0  0  0  0  0  0  0  0  0  # atno 17321 bound_to 7965
  140.0952  143.4840  152.2456 LP  0  0  0  0  0  0  0  0  0  0  0  0  # atno 17342 bound_to 10162
  139.5855  144.7529  151.3530 LP  0  0  0  0  0  0  0  0  0  0  0  0  # atno 17343 bound_to 10162
  156.1123  130.6049  151.0066 LP  0  0  0  0  0  0  0  0  0  0  0  0  # atno 17370 bound_to 10713
  157.6571  131.0887  150.7922 LP  0  0  0  0  0  0  0  0  0  0  0  0  # atno 17371 bound_to 10713
  141.0455  133.6915  156.1675 LP  0  0  0  0  0  0  0  0  0  0  0  0  # atno 17394 bound_to 11000
  140.6890  134.4686  157.5589 LP  0  0  0  0  0  0  0  0  0  0  0  0  # atno 17395 bound_to 11000

$$$$
