AV-unprocessed.smi:287|AV-procd|sdf|2192|dock6
  -GOLD-   2262021593D 1   1.00000     0.00000
 Structure written by MMmdl.
 55 58  0  0  0  0  0  0  0  0  1 V2000
  152.0478  141.5084  158.9029 C   0  0  0  0  0  0  0  0  0  0  0  0
  151.6049  140.9527  157.5930 C   0  0  0  0  0  0  0  0  0  0  0  0
  150.4358  141.0052  156.8918 C   0  0  0  0  0  0  0  0  0  0  0  0
  150.6317  140.2763  155.6807 C   0  0  0  0  0  0  0  0  0  0  0  0
  149.5963  140.0675  154.5837 C   0  0  2  0  0  0  0  0  0  0  0  0
  149.5511  138.5828  154.1871 C   0  0  0  0  0  0  0  0  0  0  0  0
  149.9085  140.7654  153.3936 O   0  0  0  0  0  0  0  0  0  0  0  0
  148.1886  140.5508  155.0016 C   0  0  0  0  0  0  0  0  0  0  0  0
  147.1985  140.3934  153.9411 N   0  0  0  0  0  0  0  0  0  0  0  0
  146.3374  139.3554  153.9647 C   0  0  0  0  0  0  0  0  0  0  0  0
  145.5885  139.0921  155.0671 N   0  0  0  0  0  0  0  0  0  0  0  0
  144.7383  138.0612  155.0638 C   0  0  0  0  0  0  0  0  0  0  0  0
  144.4887  137.1893  154.0849 N   0  0  0  0  0  0  0  0  0  0  0  0
  145.2405  137.4492  152.9755 C   0  0  0  0  0  0  0  0  0  0  0  0
  146.1814  138.5070  152.8387 C   0  0  0  0  0  0  0  0  0  0  0  0
  146.7552  138.4676  151.5746 N   0  0  0  0  0  0  0  0  0  0  0  0
  146.1813  137.4451  150.9995 C   0  0  0  0  0  0  0  0  0  0  0  0
  145.2539  136.7780  151.7685 N   0  0  0  0  0  0  0  0  0  0  0  0
  144.4363  135.5872  151.3780 C   0  0  1  0  0  0  0  0  0  0  0  0
  145.0522  134.9300  150.3197 O   0  0  0  0  0  0  0  0  0  0  0  0
  144.6907  133.5534  150.3489 C   0  0  1  0  0  0  0  0  0  0  0  0
  145.9134  132.6993  149.9659 C   0  0  0  0  0  0  0  0  0  0  0  0
  147.0149  132.9379  150.8176 O   0  0  0  0  0  0  0  0  0  0  0  0
  144.0744  133.2669  151.7355 C   0  0  2  0  0  0  0  0  0  0  0  0
  142.6907  133.0077  151.5893 O   0  0  0  0  0  0  0  0  0  0  0  0
  144.2780  134.5635  152.5110 C   0  0  1  0  0  0  0  0  0  0  0  0
  145.4094  134.4785  153.3580 O   0  0  0  0  0  0  0  0  0  0  0  0
  151.9251  139.8174  155.7537 C   0  0  0  0  0  0  0  0  0  0  0  0
  152.7831  138.9861  154.8579 C   0  0  0  0  0  0  0  0  0  0  0  0
  152.5232  140.2272  156.9070 O   0  0  0  0  0  0  0  0  0  0  0  0
  143.4804  135.9927  151.0429 H   0  0  0  0  0  0  0  0  0  0  0  0
  143.9369  133.4203  149.5709 H   0  0  0  0  0  0  0  0  0  0  0  0
  144.5238  132.4086  152.2368 H   0  0  0  0  0  0  0  0  0  0  0  0
  143.4188  134.8318  153.1274 H   0  0  0  0  0  0  0  0  0  0  0  0
  151.2787  142.1497  159.3336 H   0  0  0  0  0  0  0  0  0  0  0  0
  152.9547  142.1015  158.7848 H   0  0  0  0  0  0  0  0  0  0  0  0
  152.2560  140.7069  159.6118 H   0  0  0  0  0  0  0  0  0  0  0  0
  149.5387  141.5165  157.2083 H   0  0  0  0  0  0  0  0  0  0  0  0
  149.2789  137.9551  155.0364 H   0  0  0  0  0  0  0  0  0  0  0  0
  150.5212  138.2401  153.8243 H   0  0  0  0  0  0  0  0  0  0  0  0
  148.8202  138.4009  153.3985 H   0  0  0  0  0  0  0  0  0  0  0  0
  149.7927  140.1778  152.6626 H   0  0  0  0  0  0  0  0  0  0  0  0
  147.8555  140.0473  155.9106 H   0  0  0  0  0  0  0  0  0  0  0  0
  148.2430  141.6149  155.2366 H   0  0  0  0  0  0  0  0  0  0  0  0
  147.1657  141.1311  153.2517 H   0  0  0  0  0  0  0  0  0  0  0  0
  144.1767  137.9141  155.9744 H   0  0  0  0  0  0  0  0  0  0  0  0
  146.4178  137.1495  149.9877 H   0  0  0  0  0  0  0  0  0  0  0  0
  145.6592  131.6417  150.0391 H   0  0  0  0  0  0  0  0  0  0  0  0
  146.2044  132.8869  148.9321 H   0  0  0  0  0  0  0  0  0  0  0  0
  147.6936  132.3123  150.6156 H   0  0  0  0  0  0  0  0  0  0  0  0
  142.3785  133.4631  150.8226 H   0  0  0  0  0  0  0  0  0  0  0  0
  145.8244  135.3270  153.3891 H   0  0  0  0  0  0  0  0  0  0  0  0
  152.2816  138.0534  154.5990 H   0  0  0  0  0  0  0  0  0  0  0  0
  153.7291  138.7348  155.3383 H   0  0  0  0  0  0  0  0  0  0  0  0
  153.0069  139.5195  153.9340 H   0  0  0  0  0  0  0  0  0  0  0  0
  1  2  1  0  0  0  0
  1 35  1  0  0  0  0
  1 36  1  0  0  0  0
  1 37  1  0  0  0  0
  2 30  1  0  0  0  0
  2  3  2  0  0  0  0
  3  4  1  0  0  0  0
  3 38  1  0  0  0  0
  4  5  1  0  0  0  0
  4 28  2  0  0  0  0
  5  6  1  0  0  0  0
  5  7  1  0  0  0  0
  5  8  1  0  0  0  0
  6 39  1  0  0  0  0
  6 40  1  0  0  0  0
  6 41  1  0  0  0  0
  7 42  1  0  0  0  0
  8  9  1  0  0  0  0
  8 43  1  0  0  0  0
  8 44  1  0  0  0  0
  9 10  1  0  0  0  0
  9 45  1  0  0  0  0
 10 15  1  0  0  0  0
 10 11  2  0  0  0  0
 11 12  1  0  0  0  0
 12 13  2  0  0  0  0
 12 46  1  0  0  0  0
 13 14  1  0  0  0  0
 14 18  1  0  0  0  0
 14 15  2  0  0  0  0
 15 16  1  0  0  0  0
 16 17  2  0  0  0  0
 17 18  1  0  0  0  0
 17 47  1  0  0  0  0
 18 19  1  0  0  0  0
 19 31  1  0  0  0  0
 19 26  1  0  0  0  0
 19 20  1  0  0  0  0
 20 21  1  0  0  0  0
 21 32  1  0  0  0  0
 21 22  1  0  0  0  0
 21 24  1  0  0  0  0
 22 23  1  0  0  0  0
 22 48  1  0  0  0  0
 22 49  1  0  0  0  0
 23 50  1  0  0  0  0
 24 33  1  0  0  0  0
 24 25  1  0  0  0  0
 24 26  1  0  0  0  0
 25 51  1  0  0  0  0
 26 34  1  0  0  0  0
 26 27  1  0  0  0  0
 27 52  1  0  0  0  0
 28 29  1  0  0  0  0
 28 30  1  0  0  0  0
 29 53  1  0  0  0  0
 29 54  1  0  0  0  0
 29 55  1  0  0  0  0
M  END
> <s_m_source_file>
AV-unprocessed.smi

> <i_m_source_file_index>
287

> <i_lp_mmshare_version>
43012

> <i_f3d_flags>
0

> <s_epik_input>
W0NIM11jMVtjSF1jKGMobzEpW0NIM10pW0NAQF0oW0NIM10pKFtPSF0pW0NIMl1bTkhdYyhuW2NIXW4yKWMoYzIzKW5bY0hdbjNbQ0BASF00T1tDQEhdKFtDSDJdW09IXSlbQ0BASF0oW09IXSlbQ0BIXTRbT0hd

> <s_epik_cmdline>
J2VwaWtfcHl0aG9uJywgJy1waCcsICc3LjAnLCAnLXRuJywgJzgnLCAnLW1hJywgJzIwMCcsICctbWV0YWxfYmluZGluZycsICctaW1hZScsICc8aW5maWxlLm1hZT4nLCAnLW9tYWUnLCAnPG91dGZpbGUubWFlPic=

> <r_lp_tautomer_probability>
1

> <r_epik_Ionization_Penalty>
0.000992612

> <r_epik_Ionization_Penalty_Charging>
0

> <r_epik_Ionization_Penalty_Neutral>
0.000992612

> <r_epik_State_Penalty>
-0

> <r_epik_Charging_Adjusted_Penalty>
0

> <i_epik_Tot_Q>
0

> <i_epik_Tot_abs_Q>
0

> <r_epik_Metal_State_Penalty>
-0

> <b_epik_Metal_Only>
0

> <s_epik_Chemistry_Notes>
This compound contains an acetal/aminal-like group ( X-CH(R)-Y where X, Y are N, S, or O) that may be acid/base labile, releasing an aldehyde.

> <s_lp_Force_Field>
OPLS_2005

> <r_lp_Energy>
44.6889

> <b_lp_Chiralities_Consistent>
1

> <s_lp_Variant>
AV-unprocessed.smi:287-16

> <Gold.Version>
5.8.1

> <Gold.Id.Protein>
6NUR|6NUR_protein|mol2

> <Gold.PLP.Fitness>
53.2687

> <Gold.PLP.PLP>
-41.0490

> <Gold.PLP.part.hbond>
-5.1748

> <Gold.PLP.part.metal>
0.0000

> <Gold.PLP.part.buried>
2.1415

> <Gold.PLP.part.nonpolar>
-39.4209

> <Gold.PLP.part.repulsive>
2.5319

> <Gold.PLP.ligand.clash>
0.0012

> <Gold.PLP.ligand.torsion>
1.5144

> <Gold.PLP.Chemscore.Hbond>
5.0480

> <Gold.PLP.Chemscore.CHOScore>
0.0000

> <Gold.PLP.Chemscore.Metal>
0.0000

> <Gold.Chemscore.Hbonds>
donor molecule, donor type, donor heavy atom, donor atom, acceptor molecule, acceptor atom, score
      L1  H     7    42       P1  7957  0.89
      L1  H    23    50       P1 10747  1.00
      L1  H    25    51       P1 10186  0.84
      P1  H  7989  7998       L1     7  0.32
      P1  H  7997  8009       L1    30  1.00
      P1  H  8011  8017       L1     7  0.75

> <Gold.PLP.Chemscore.Internal.Correction>
0.1057

> <Gold.Rescore>
     Score         DG    S(hbond)    S(metal)    S(lipo)     H(rot)  DE(clash)    DE(int)     intcor
     10.47     -14.93       3.63        0.00      92.42       5.27       2.11       2.35       ----

> <Gold.Chemscore.Fitness>
10.4658

> <Gold.Chemscore.DG>
-14.9324

> <Gold.Chemscore.ZeroCoef>
-5.4800

> <Gold.Chemscore.Hbond>
3.6297

> <Gold.Chemscore.Metal>
0.0000

> <Gold.Chemscore.Lipo>
92.4197

> <Gold.Chemscore.Internal_Hbond>
0.0000

> <Gold.Chemscore.DEClash>
2.1141

> <Gold.Chemscore.DEInternal>
2.3525

> <Gold.Chemscore.Rot>
5.2672

> <Gold.Chemscore.Internal.Correction>
   9.000000E+99

> <Gold.Chemscore.Hbonds>
donor molecule, donor type, donor heavy atom, donor atom, acceptor molecule, acceptor atom, score
      L1  H     7    42       P1  7957  0.82
      L1  H    23    50       P1 10747  0.99
      L1  H    25    51       P1 10186  0.74
      P1  H  7989  7998       L1     7  0.04
      P1  H  7997  8009       L1    30  0.58
      P1  H  8011  8017       L1     7  0.09

> <Gold.Chemscore.Hbond.Weighted>
-12.1232

> <Gold.Chemscore.Metal.Weighted>
-0.0000

> <Gold.Chemscore.Lipo.Weighted>
-10.8131

> <Gold.Chemscore.Internal_Hbond.Weighted>
0.0000

> <Gold.Chemscore.DEClash.Weighted>
2.1141

> <Gold.Chemscore.DEInternal.Weighted>
2.3525

> <Gold.Chemscore.Rot.Weighted>
13.4839

> <Gold.Chemscore.Internal.Correction.Weighted>
   9.000000E+99

> <Gold.Protein.RotatedTorsions>
[ 6907 6896 6895 6894 ] final   72.71 input  -60.11 | X-H torsion
[ 7974 7965 7964 7962 ] final  -89.32 input  175.53 | X-H torsion
[ 8008 7997 7996 7995 ] final -179.05 input   59.86 | X-H torsion
[ 10167 10162 10161 10158 ] final  -20.42 input  -65.29 | X-H torsion
[ 10718 10713 10712 10709 ] final  120.65 input   66.30 | X-H torsion
[ 10763 10752 10751 10750 ] final   47.67 input  -60.55 | X-H torsion
[ 11005 11000 10999 10996 ] final   33.24 input  -57.11 | X-H torsion

> <Gold.Protein.ActiveResidues>
 VAL166  LYS551  ARG553  GLY616  TRP617  ASP618  TYR619  PRO620  LYS621  CYS622 
 ASP623  PHE694  ASN695  SER759  ASP760  ASP761  ALA762  ILE779  LEU786  VAL792 
 PHE793  MET794  SER795  GLU796  ALA797  LYS798  CYS799  TRP800  GLU811  SER814 

> <Gold.Protein.RotatedAtoms>
  152.4883  134.4530  159.9580 H   0  0  0  0  0  0  0  0  0  0  0  0  # atno 6907 bound_to 6896
  151.4522  133.3608  159.2805 H   0  0  0  0  0  0  0  0  0  0  0  0  # atno 6908 bound_to 6896
  150.9013  134.8450  159.7422 H   0  0  0  0  0  0  0  0  0  0  0  0  # atno 6909 bound_to 6896
  145.4414  140.9559  143.2073 H   0  0  0  0  0  0  0  0  0  0  0  0  # atno 7974 bound_to 7965
  156.0259  140.1271  157.0308 H   0  0  0  0  0  0  0  0  0  0  0  0  # atno 8008 bound_to 7997
  154.4330  140.1059  156.6101 H   0  0  0  0  0  0  0  0  0  0  0  0  # atno 8009 bound_to 7997
  155.5877  140.3469  155.4560 H   0  0  0  0  0  0  0  0  0  0  0  0  # atno 8010 bound_to 7997
  140.7276  143.4725  151.0228 H   0  0  0  0  0  0  0  0  0  0  0  0  # atno 10167 bound_to 10162
  157.5875  131.1068  150.8065 H   0  0  0  0  0  0  0  0  0  0  0  0  # atno 10718 bound_to 10713
  152.9798  135.5969  154.3800 H   0  0  0  0  0  0  0  0  0  0  0  0  # atno 10763 bound_to 10752
  154.3466  135.2767  155.2396 H   0  0  0  0  0  0  0  0  0  0  0  0  # atno 10764 bound_to 10752
  154.4454  135.6003  153.6212 H   0  0  0  0  0  0  0  0  0  0  0  0  # atno 10765 bound_to 10752
  140.2652  134.3146  155.7845 H   0  0  0  0  0  0  0  0  0  0  0  0  # atno 11005 bound_to 11000
  144.8119  139.5947  143.7026 LP  0  0  0  0  0  0  0  0  0  0  0  0  # atno 17320 bound_to 7965
  146.2554  139.6291  142.9398 LP  0  0  0  0  0  0  0  0  0  0  0  0  # atno 17321 bound_to 7965
  139.8417  143.7554  152.3180 LP  0  0  0  0  0  0  0  0  0  0  0  0  # atno 17342 bound_to 10162
  139.7706  144.7478  151.0231 LP  0  0  0  0  0  0  0  0  0  0  0  0  # atno 17343 bound_to 10162
  156.8496  130.5076  149.5313 LP  0  0  0  0  0  0  0  0  0  0  0  0  # atno 17370 bound_to 10713
  156.0926  130.5907  150.9758 LP  0  0  0  0  0  0  0  0  0  0  0  0  # atno 17371 bound_to 10713
  141.2185  133.7433  156.9249 LP  0  0  0  0  0  0  0  0  0  0  0  0  # atno 17394 bound_to 11000
  140.1426  134.9283  157.2487 LP  0  0  0  0  0  0  0  0  0  0  0  0  # atno 17395 bound_to 11000

$$$$
