AV-unprocessed.smi:175|AV-procd|sdf|1431|dock1
  -GOLD-   2262019213D 1   1.00000     0.00000
 Structure written by MMmdl.
 47 50  0  0  0  0  0  0  0  0  1 V2000
  149.7383  141.8884  155.4468 C   0  0  0  0  0  0  0  0  0  0  0  0
  149.8802  140.3580  155.4070 C   0  0  2  0  0  0  0  0  0  0  0  0
  151.2430  139.9911  155.2417 O   0  0  0  0  0  0  0  0  0  0  0  0
  151.2635  138.6505  154.7863 C   0  0  0  0  0  0  0  0  0  0  0  0
  150.1687  138.6442  153.7274 C   0  0  0  0  0  0  0  0  0  0  0  0
  149.1157  139.6079  154.2826 C   0  0  2  0  0  0  0  0  0  0  0  0
  148.7209  140.4811  153.2374 O   0  0  0  0  0  0  0  0  0  0  0  0
  147.8602  138.8591  154.7955 C   0  0  0  0  0  0  0  0  0  0  0  0
  148.0498  138.2200  156.0891 N   0  0  0  0  0  0  0  0  0  0  0  0
  147.9707  138.8183  157.3276 C   0  0  0  0  0  0  0  0  0  0  0  0
  148.1752  138.0259  158.3447 N   0  0  0  0  0  0  0  0  0  0  0  0
  148.4257  136.7911  157.7613 C   0  0  0  0  0  0  0  0  0  0  0  0
  148.7232  135.5020  158.2728 C   0  0  0  0  0  0  0  0  0  0  0  0
  148.8192  135.2645  159.5997 N   0  0  0  0  0  0  0  0  0  0  0  0
  148.9053  136.4515  160.4510 C   0  0  0  0  0  0  0  0  0  0  0  0
  147.8904  136.1610  161.5385 C   0  0  0  0  0  0  0  0  0  0  0  0
  147.6695  136.9244  162.4772 O   0  0  0  0  0  0  0  0  0  0  0  0
  147.3064  134.9821  161.3171 N   0  0  0  0  0  0  0  0  0  0  0  0
  146.2865  134.3406  162.1437 C   0  0  0  0  0  0  0  0  0  0  0  0
  144.9111  135.0184  162.0094 C   0  0  0  0  0  0  0  0  0  0  0  0
  144.5234  134.9625  160.7359 F   0  0  0  0  0  0  0  0  0  0  0  0
  143.9951  134.4038  162.7572 F   0  0  0  0  0  0  0  0  0  0  0  0
  144.9880  136.2983  162.3739 F   0  0  0  0  0  0  0  0  0  0  0  0
  147.8300  134.3262  160.1308 C   0  0  0  0  0  0  0  0  0  0  0  0
  148.9250  134.4931  157.3844 N   0  0  0  0  0  0  0  0  0  0  0  0
  148.8352  134.7339  156.0727 C   0  0  0  0  0  0  0  0  0  0  0  0
  148.5616  135.8837  155.4510 N   0  0  0  0  0  0  0  0  0  0  0  0
  148.3594  136.8954  156.3443 C   0  0  0  0  0  0  0  0  0  0  0  0
  148.6950  142.1839  155.5615 H   0  0  0  0  0  0  0  0  0  0  0  0
  150.1227  142.3499  154.5369 H   0  0  0  0  0  0  0  0  0  0  0  0
  150.2948  142.3057  156.2861 H   0  0  0  0  0  0  0  0  0  0  0  0
  149.5808  139.9579  156.3765 H   0  0  0  0  0  0  0  0  0  0  0  0
  152.2392  138.3739  154.3865 H   0  0  0  0  0  0  0  0  0  0  0  0
  151.0204  137.9752  155.6082 H   0  0  0  0  0  0  0  0  0  0  0  0
  150.5880  139.0192  152.7919 H   0  0  0  0  0  0  0  0  0  0  0  0
  149.7849  137.6422  153.5327 H   0  0  0  0  0  0  0  0  0  0  0  0
  149.3475  140.4114  152.5336 H   0  0  0  0  0  0  0  0  0  0  0  0
  147.0160  139.5454  154.8746 H   0  0  0  0  0  0  0  0  0  0  0  0
  147.5612  138.0929  154.0788 H   0  0  0  0  0  0  0  0  0  0  0  0
  147.7494  139.8678  157.4559 H   0  0  0  0  0  0  0  0  0  0  0  0
  149.9049  136.5384  160.8773 H   0  0  0  0  0  0  0  0  0  0  0  0
  148.6610  137.3838  159.9391 H   0  0  0  0  0  0  0  0  0  0  0  0
  146.2071  133.2910  161.8572 H   0  0  0  0  0  0  0  0  0  0  0  0
  146.6063  134.3469  163.1870 H   0  0  0  0  0  0  0  0  0  0  0  0
  147.0219  134.1061  159.4303 H   0  0  0  0  0  0  0  0  0  0  0  0
  148.3166  133.3878  160.3986 H   0  0  0  0  0  0  0  0  0  0  0  0
  149.0071  133.8838  155.4291 H   0  0  0  0  0  0  0  0  0  0  0  0
  1  2  1  0  0  0  0
  1 29  1  0  0  0  0
  1 30  1  0  0  0  0
  1 31  1  0  0  0  0
  2  6  1  0  0  0  0
  2  3  1  0  0  0  0
  2 32  1  0  0  0  0
  3  4  1  0  0  0  0
  4  5  1  0  0  0  0
  4 33  1  0  0  0  0
  4 34  1  0  0  0  0
  5  6  1  0  0  0  0
  5 35  1  0  0  0  0
  5 36  1  0  0  0  0
  6  7  1  0  0  0  0
  6  8  1  0  0  0  0
  7 37  1  0  0  0  0
  8  9  1  0  0  0  0
  8 38  1  0  0  0  0
  8 39  1  0  0  0  0
  9 28  1  0  0  0  0
  9 10  1  0  0  0  0
 10 11  2  0  0  0  0
 10 40  1  0  0  0  0
 11 12  1  0  0  0  0
 12 28  2  0  0  0  0
 12 13  1  0  0  0  0
 13 14  1  0  0  0  0
 13 25  2  0  0  0  0
 14 24  1  0  0  0  0
 14 15  1  0  0  0  0
 15 16  1  0  0  0  0
 15 41  1  0  0  0  0
 15 42  1  0  0  0  0
 16 17  2  0  0  0  0
 16 18  1  0  0  0  0
 18 19  1  0  0  0  0
 18 24  1  0  0  0  0
 19 20  1  0  0  0  0
 19 43  1  0  0  0  0
 19 44  1  0  0  0  0
 20 21  1  0  0  0  0
 20 22  1  0  0  0  0
 20 23  1  0  0  0  0
 24 45  1  0  0  0  0
 24 46  1  0  0  0  0
 25 26  1  0  0  0  0
 26 27  2  0  0  0  0
 26 47  1  0  0  0  0
 27 28  1  0  0  0  0
M  END
> <s_m_source_file>
AV-unprocessed.smi

> <i_m_source_file_index>
175

> <i_lp_mmshare_version>
43012

> <i_f3d_flags>
0

> <s_epik_input>
W0NIMl0xW0NIMl1PW0NAQEhdKFtDSDNdKVtDQEBdMShbT0hdKVtDSDJdbihbY0hdbjIpYyhjMjMpbltjSF1uYzNONFtDSDJdQyg9TylOKFtDSDJdNClbQ0gyXUMoRikoRilG

> <s_epik_cmdline>
J2VwaWtfcHl0aG9uJywgJy1waCcsICc3LjAnLCAnLXRuJywgJzgnLCAnLW1hJywgJzIwMCcsICctbWV0YWxfYmluZGluZycsICctaW1hZScsICc8aW5maWxlLm1hZT4nLCAnLW9tYWUnLCAnPG91dGZpbGUubWFlPic=

> <r_lp_tautomer_probability>
1

> <r_epik_Ionization_Penalty>
0.000307802

> <r_epik_Ionization_Penalty_Charging>
0

> <r_epik_Ionization_Penalty_Neutral>
0.000307802

> <r_epik_State_Penalty>
-0

> <r_epik_Charging_Adjusted_Penalty>
0

> <i_epik_Tot_Q>
0

> <i_epik_Tot_abs_Q>
0

> <r_epik_Metal_State_Penalty>
-0

> <b_epik_Metal_Only>
0

> <s_epik_Chemistry_Notes>
This compound contains an acetal/aminal-like group ( X-CH(R)-Y where X, Y are N, S, or O) that may be acid/base labile, releasing an aldehyde.

> <s_lp_Force_Field>
OPLS_2005

> <r_lp_Energy>
38.2687

> <b_lp_Chiralities_Consistent>
1

> <s_lp_Variant>
AV-unprocessed.smi:175-3

> <Gold.Version>
5.8.1

> <Gold.Id.Protein>
6NUR|6NUR_protein|mol2

> <Gold.PLP.Fitness>
42.9620

> <Gold.PLP.PLP>
-33.5400

> <Gold.PLP.part.hbond>
-3.5315

> <Gold.PLP.part.metal>
0.0000

> <Gold.PLP.part.buried>
-2.7703

> <Gold.PLP.part.nonpolar>
-27.8516

> <Gold.PLP.part.repulsive>
0.1184

> <Gold.PLP.ligand.clash>
0.7547

> <Gold.PLP.ligand.torsion>
0.8605

> <Gold.PLP.Chemscore.Hbond>
3.8533

> <Gold.PLP.Chemscore.CHOScore>
0.0000

> <Gold.PLP.Chemscore.Metal>
0.0000

> <Gold.Chemscore.Hbonds>
donor molecule, donor type, donor heavy atom, donor atom, acceptor molecule, acceptor atom, score
      L1  H     7    37       P1  7957  0.75
      P1  H  6896  6909       L1    14  0.67
      P1  H  6931  6943       L1    17  0.73
      P1  H  7989  7998       L1     3  0.90

> <Gold.PLP.Chemscore.Internal.Correction>
0.3380

> <Gold.Rescore>
     Score         DG    S(hbond)    S(metal)    S(lipo)     H(rot)  DE(clash)    DE(int)     intcor
      7.60     -14.15       2.78        0.00      61.52       3.05       3.00       3.55       ----

> <Gold.Chemscore.Fitness>
7.5980

> <Gold.Chemscore.DG>
-14.1459

> <Gold.Chemscore.ZeroCoef>
-5.4800

> <Gold.Chemscore.Hbond>
2.7763

> <Gold.Chemscore.Metal>
0.0000

> <Gold.Chemscore.Lipo>
61.5190

> <Gold.Chemscore.Internal_Hbond>
0.0000

> <Gold.Chemscore.DEClash>
3.0029

> <Gold.Chemscore.DEInternal>
3.5451

> <Gold.Chemscore.Rot>
3.0487

> <Gold.Chemscore.Internal.Correction>
   9.000000E+99

> <Gold.Chemscore.Hbonds>
donor molecule, donor type, donor heavy atom, donor atom, acceptor molecule, acceptor atom, score
      L1  H     7    37       P1  7957  0.71
      P1  H  6896  6909       L1    14  0.04
      P1  H  6931  6943       L1    17  0.09
      P1  H  7989  7998       L1     3  0.05

> <Gold.Chemscore.Hbond.Weighted>
-9.2728

> <Gold.Chemscore.Metal.Weighted>
-0.0000

> <Gold.Chemscore.Lipo.Weighted>
-7.1977

> <Gold.Chemscore.Internal_Hbond.Weighted>
0.0000

> <Gold.Chemscore.DEClash.Weighted>
3.0029

> <Gold.Chemscore.DEInternal.Weighted>
3.5451

> <Gold.Chemscore.Rot.Weighted>
7.8046

> <Gold.Chemscore.Internal.Correction.Weighted>
   9.000000E+99

> <Gold.Protein.RotatedTorsions>
[ 6907 6896 6895 6894 ] final   32.99 input  -60.11 | X-H torsion
[ 7974 7965 7964 7962 ] final  -38.23 input  175.53 | X-H torsion
[ 8008 7997 7996 7995 ] final   56.43 input   59.86 | X-H torsion
[ 10167 10162 10161 10158 ] final  105.76 input  -65.29 | X-H torsion
[ 10718 10713 10712 10709 ] final   42.25 input   66.30 | X-H torsion
[ 10763 10752 10751 10750 ] final   40.60 input  -60.55 | X-H torsion
[ 11005 11000 10999 10996 ] final   36.79 input  -57.11 | X-H torsion

> <Gold.Protein.ActiveResidues>
 VAL166  LYS551  ARG553  GLY616  TRP617  ASP618  TYR619  PRO620  LYS621  CYS622 
 ASP623  PHE694  ASN695  SER759  ASP760  ASP761  ALA762  ILE779  LEU786  VAL792 
 PHE793  MET794  SER795  GLU796  ALA797  LYS798  CYS799  TRP800  GLU811  SER814 

> <Gold.Protein.RotatedAtoms>
  152.0823  134.9463  160.0573 H   0  0  0  0  0  0  0  0  0  0  0  0  # atno 6907 bound_to 6896
  152.0747  133.4118  159.4483 H   0  0  0  0  0  0  0  0  0  0  0  0  # atno 6908 bound_to 6896
  150.6836  134.2971  159.4734 H   0  0  0  0  0  0  0  0  0  0  0  0  # atno 6909 bound_to 6896
  146.0505  140.6487  142.9044 H   0  0  0  0  0  0  0  0  0  0  0  0  # atno 7974 bound_to 7965
  155.5173  140.3479  155.4400 H   0  0  0  0  0  0  0  0  0  0  0  0  # atno 8008 bound_to 7997
  156.0809  140.1386  156.9741 H   0  0  0  0  0  0  0  0  0  0  0  0  # atno 8009 bound_to 7997
  154.4579  140.0946  156.6786 H   0  0  0  0  0  0  0  0  0  0  0  0  # atno 8010 bound_to 7997
  139.7065  144.7085  151.1097 H   0  0  0  0  0  0  0  0  0  0  0  0  # atno 10167 bound_to 10162
  157.4027  130.7869  149.7362 H   0  0  0  0  0  0  0  0  0  0  0  0  # atno 10718 bound_to 10713
  152.9932  135.6186  154.2652 H   0  0  0  0  0  0  0  0  0  0  0  0  # atno 10763 bound_to 10752
  154.2387  135.2789  155.2864 H   0  0  0  0  0  0  0  0  0  0  0  0  # atno 10764 bound_to 10752
  154.5388  135.5767  153.6879 H   0  0  0  0  0  0  0  0  0  0  0  0  # atno 10765 bound_to 10752
  140.2291  134.3549  155.7972 H   0  0  0  0  0  0  0  0  0  0  0  0  # atno 11005 bound_to 11000
  144.7120  140.4074  143.7073 LP  0  0  0  0  0  0  0  0  0  0  0  0  # atno 17320 bound_to 7965
  145.6732  139.1603  143.2743 LP  0  0  0  0  0  0  0  0  0  0  0  0  # atno 17321 bound_to 7965
  140.7723  143.5351  150.9378 LP  0  0  0  0  0  0  0  0  0  0  0  0  # atno 17342 bound_to 10162
  139.9034  143.6807  152.3127 LP  0  0  0  0  0  0  0  0  0  0  0  0  # atno 17343 bound_to 10162
  155.9828  130.4006  150.3398 LP  0  0  0  0  0  0  0  0  0  0  0  0  # atno 17370 bound_to 10713
  157.1528  131.0325  151.2877 LP  0  0  0  0  0  0  0  0  0  0  0  0  # atno 17371 bound_to 10713
  141.2219  133.7235  156.8701 LP  0  0  0  0  0  0  0  0  0  0  0  0  # atno 17394 bound_to 11000
  140.1770  134.9060  157.2902 LP  0  0  0  0  0  0  0  0  0  0  0  0  # atno 17395 bound_to 11000

$$$$
