AV-unprocessed.smi:2563|AV-procd|sdf|10061|dock1
  -GOLD-   2272014103D 1   1.00000     0.00000
 Structure written by MMmdl.
 34 35  0  0  0  0  0  0  0  0  1 V2000
  152.0097  139.2981  157.9686 C   0  0  0  0  0  0  0  0  0  0  0  0
  152.0306  140.6648  157.2711 C   0  0  0  0  0  0  0  0  0  0  0  0
  150.8721  141.4863  157.6253 N   0  0  0  0  0  0  0  0  0  0  0  0
  149.5423  141.0212  157.2323 C   0  0  0  0  0  0  0  0  0  0  0  0
  149.1506  141.4808  155.8164 C   0  0  1  0  0  0  0  0  0  0  0  0
  149.6764  140.5057  154.7432 C   0  0  0  0  0  0  0  0  0  0  0  0
  149.2409  140.9244  153.4117 N   0  0  0  0  0  0  0  0  0  0  0  0
  147.7878  141.0673  153.3484 C   0  0  0  0  0  0  0  0  0  0  0  0
  147.2977  142.0145  154.4564 C   0  0  0  0  0  0  0  0  0  0  0  0
  147.7291  141.5227  155.7201 O   0  0  0  0  0  0  0  0  0  0  0  0
  151.0372  142.6561  158.4079 C   0  0  0  0  0  0  0  0  0  0  0  0
  152.2033  143.4572  158.3286 C   0  0  0  0  0  0  0  0  0  0  0  0
  152.2814  144.6002  159.1422 C   0  0  0  0  0  0  0  0  0  0  0  0
  151.1897  144.8715  159.9832 C   0  0  0  0  0  0  0  0  0  0  0  0
  150.0968  144.0808  160.0283 N   0  0  0  0  0  0  0  0  0  0  0  0
  150.0275  142.9938  159.2528 N   0  0  0  0  0  0  0  0  0  0  0  0
  152.8806  138.7076  157.6841 H   0  0  0  0  0  0  0  0  0  0  0  0
  151.1205  138.7278  157.6993 H   0  0  0  0  0  0  0  0  0  0  0  0
  152.0232  139.4052  159.0535 H   0  0  0  0  0  0  0  0  0  0  0  0
  152.9615  141.1892  157.4882 H   0  0  0  0  0  0  0  0  0  0  0  0
  152.0319  140.5101  156.1919 H   0  0  0  0  0  0  0  0  0  0  0  0
  149.5652  139.9311  157.2458 H   0  0  0  0  0  0  0  0  0  0  0  0
  148.7803  141.2925  157.9616 H   0  0  0  0  0  0  0  0  0  0  0  0
  149.5614  142.4756  155.6330 H   0  0  0  0  0  0  0  0  0  0  0  0
  150.7651  140.4604  154.7791 H   0  0  0  0  0  0  0  0  0  0  0  0
  149.3142  139.4981  154.9509 H   0  0  0  0  0  0  0  0  0  0  0  0
  149.5461  140.2433  152.7238 H   0  0  0  0  0  0  0  0  0  0  0  0
  147.4902  141.4466  152.3707 H   0  0  0  0  0  0  0  0  0  0  0  0
  147.3134  140.0920  153.4649 H   0  0  0  0  0  0  0  0  0  0  0  0
  147.6662  143.0294  154.2982 H   0  0  0  0  0  0  0  0  0  0  0  0
  146.2089  142.0670  154.4511 H   0  0  0  0  0  0  0  0  0  0  0  0
  153.0322  143.2214  157.6800 H   0  0  0  0  0  0  0  0  0  0  0  0
  153.1479  145.2444  159.1233 H   0  0  0  0  0  0  0  0  0  0  0  0
  151.1920  145.7349  160.6318 H   0  0  0  0  0  0  0  0  0  0  0  0
  1  2  1  0  0  0  0
  1 17  1  0  0  0  0
  1 18  1  0  0  0  0
  1 19  1  0  0  0  0
  2  3  1  0  0  0  0
  2 20  1  0  0  0  0
  2 21  1  0  0  0  0
  3  4  1  0  0  0  0
  3 11  1  0  0  0  0
  4  5  1  0  0  0  0
  4 22  1  0  0  0  0
  4 23  1  0  0  0  0
  5 10  1  0  0  0  0
  5  6  1  0  0  0  0
  5 24  1  0  0  0  0
  6  7  1  0  0  0  0
  6 25  1  0  0  0  0
  6 26  1  0  0  0  0
  7  8  1  0  0  0  0
  7 27  1  0  0  0  0
  8  9  1  0  0  0  0
  8 28  1  0  0  0  0
  8 29  1  0  0  0  0
  9 10  1  0  0  0  0
  9 30  1  0  0  0  0
  9 31  1  0  0  0  0
 11 16  1  0  0  0  0
 11 12  2  0  0  0  0
 12 13  1  0  0  0  0
 12 32  1  0  0  0  0
 13 14  2  0  0  0  0
 13 33  1  0  0  0  0
 14 15  1  0  0  0  0
 14 34  1  0  0  0  0
 15 16  2  0  0  0  0
M  END
> <s_m_source_file>
AV-unprocessed.smi

> <i_m_source_file_index>
2563

> <i_lp_mmshare_version>
43012

> <i_f3d_flags>
0

> <s_epik_input>
bjFuW2NIXVtjSF1bY0hdYzFOKFtDSDJdW0NIM10pW0NIMl1bQ0BASF0yW0NIMl1bTkhdW0NIMl1bQ0gyXU8y

> <s_epik_cmdline>
J2VwaWtfcHl0aG9uJywgJy1waCcsICc3LjAnLCAnLXRuJywgJzgnLCAnLW1hJywgJzIwMCcsICctbWV0YWxfYmluZGluZycsICctaW1hZScsICc8aW5maWxlLm1hZT4nLCAnLW9tYWUnLCAnPG91dGZpbGUubWFlPic=

> <r_lp_tautomer_probability>
1

> <r_epik_Ionization_Penalty>
2.34719

> <r_epik_Ionization_Penalty_Charging>
0

> <r_epik_Ionization_Penalty_Neutral>
2.34719

> <r_epik_State_Penalty>
2.60452

> <r_epik_Charging_Adjusted_Penalty>
2.60452

> <i_epik_Tot_Q>
0

> <i_epik_Tot_abs_Q>
0

> <r_epik_Metal_State_Penalty>
2.56937

> <b_epik_Metal_Only>
0

> <s_lp_Force_Field>
OPLS_2005

> <r_lp_Energy>
25.3459

> <b_lp_Chiralities_Consistent>
1

> <s_lp_Variant>
AV-unprocessed.smi:2563-6

> <Gold.Version>
5.8.1

> <Gold.Id.Protein>
6NUR|6NUR_protein|mol2

> <Gold.PLP.Fitness>
36.9417

> <Gold.PLP.PLP>
-34.5687

> <Gold.PLP.part.hbond>
-4.0569

> <Gold.PLP.part.metal>
0.0000

> <Gold.PLP.part.buried>
-3.7851

> <Gold.PLP.part.nonpolar>
-27.1884

> <Gold.PLP.part.repulsive>
0.3543

> <Gold.PLP.ligand.clash>
0.0000

> <Gold.PLP.ligand.torsion>
1.0645

> <Gold.PLP.Chemscore.Hbond>
1.4840

> <Gold.PLP.Chemscore.CHOScore>
0.0000

> <Gold.PLP.Chemscore.Metal>
0.0000

> <Gold.Chemscore.Hbonds>
donor molecule, donor type, donor heavy atom, donor atom, acceptor molecule, acceptor atom, score
      L1  H     7    27       P1  7957  0.80
      P1  H  8011  8017       L1     7  0.65

> <Gold.PLP.Chemscore.Internal.Correction>
0.0500

> <Gold.Rescore>
     Score         DG    S(hbond)    S(metal)    S(lipo)     H(rot)  DE(clash)    DE(int)     intcor
     13.18     -14.15       0.87        0.00      78.90       1.36       0.06       0.91       ----

> <Gold.Chemscore.Fitness>
13.1786

> <Gold.Chemscore.DG>
-14.1480

> <Gold.Chemscore.ZeroCoef>
-5.4800

> <Gold.Chemscore.Hbond>
0.8750

> <Gold.Chemscore.Metal>
0.0000

> <Gold.Chemscore.Lipo>
78.9029

> <Gold.Chemscore.Internal_Hbond>
0.0000

> <Gold.Chemscore.DEClash>
0.0605

> <Gold.Chemscore.DEInternal>
0.9089

> <Gold.Chemscore.Rot>
1.3618

> <Gold.Chemscore.Internal.Correction>
   9.000000E+99

> <Gold.Chemscore.Hbonds>
donor molecule, donor type, donor heavy atom, donor atom, acceptor molecule, acceptor atom, score
      L1  H     7    27       P1  7957  0.77
      P1  H  8011  8017       L1     7  0.02

> <Gold.Chemscore.Hbond.Weighted>
-2.9225

> <Gold.Chemscore.Metal.Weighted>
-0.0000

> <Gold.Chemscore.Lipo.Weighted>
-9.2316

> <Gold.Chemscore.Internal_Hbond.Weighted>
0.0000

> <Gold.Chemscore.DEClash.Weighted>
0.0605

> <Gold.Chemscore.DEInternal.Weighted>
0.9089

> <Gold.Chemscore.Rot.Weighted>
3.4861

> <Gold.Chemscore.Internal.Correction.Weighted>
   9.000000E+99

> <Gold.Protein.RotatedTorsions>
[ 6907 6896 6895 6894 ] final   54.93 input  -60.11 | X-H torsion
[ 7974 7965 7964 7962 ] final -157.11 input  175.53 | X-H torsion
[ 8008 7997 7996 7995 ] final  -14.48 input   59.86 | X-H torsion
[ 10167 10162 10161 10158 ] final  178.58 input  -65.29 | X-H torsion
[ 10718 10713 10712 10709 ] final  -44.24 input   66.30 | X-H torsion
[ 10763 10752 10751 10750 ] final  174.57 input  -60.55 | X-H torsion
[ 11005 11000 10999 10996 ] final  155.97 input  -57.11 | X-H torsion

> <Gold.Protein.ActiveResidues>
 VAL166  LYS551  ARG553  GLY616  TRP617  ASP618  TYR619  PRO620  LYS621  CYS622 
 ASP623  PHE694  ASN695  SER759  ASP760  ASP761  ALA762  ILE779  LEU786  VAL792 
 PHE793  MET794  SER795  GLU796  ALA797  LYS798  CYS799  TRP800  GLU811  SER814 

> <Gold.Protein.RotatedAtoms>
  152.3488  134.7035  160.0242 H   0  0  0  0  0  0  0  0  0  0  0  0  # atno 6907 bound_to 6896
  151.7395  133.3316  159.3370 H   0  0  0  0  0  0  0  0  0  0  0  0  # atno 6908 bound_to 6896
  150.7526  134.6224  159.6187 H   0  0  0  0  0  0  0  0  0  0  0  0  # atno 6909 bound_to 6896
  144.7563  140.4015  143.6010 H   0  0  0  0  0  0  0  0  0  0  0  0  # atno 7974 bound_to 7965
  154.5207  140.2222  155.8982 H   0  0  0  0  0  0  0  0  0  0  0  0  # atno 8008 bound_to 7997
  156.1658  140.3132  155.8851 H   0  0  0  0  0  0  0  0  0  0  0  0  # atno 8009 bound_to 7997
  155.3659  140.0464  157.3036 H   0  0  0  0  0  0  0  0  0  0  0  0  # atno 8010 bound_to 7997
  139.5300  144.2663  152.0665 H   0  0  0  0  0  0  0  0  0  0  0  0  # atno 10167 bound_to 10162
  156.2406  130.4179  149.8765 H   0  0  0  0  0  0  0  0  0  0  0  0  # atno 10718 bound_to 10713
  154.4558  135.2766  155.1748 H   0  0  0  0  0  0  0  0  0  0  0  0  # atno 10763 bound_to 10752
  154.3557  135.6140  153.5668 H   0  0  0  0  0  0  0  0  0  0  0  0  # atno 10764 bound_to 10752
  152.9850  135.5822  154.4911 H   0  0  0  0  0  0  0  0  0  0  0  0  # atno 10765 bound_to 10752
  140.1631  134.8596  157.2599 H   0  0  0  0  0  0  0  0  0  0  0  0  # atno 11005 bound_to 11000
  145.6770  139.1610  143.2722 LP  0  0  0  0  0  0  0  0  0  0  0  0  # atno 17320 bound_to 7965
  146.1576  140.6835  142.9293 LP  0  0  0  0  0  0  0  0  0  0  0  0  # atno 17321 bound_to 7965
  140.2125  144.4548  150.6379 LP  0  0  0  0  0  0  0  0  0  0  0  0  # atno 17342 bound_to 10162
  140.6471  143.2216  151.6161 LP  0  0  0  0  0  0  0  0  0  0  0  0  # atno 17343 bound_to 10162
  156.6347  130.8680  151.3502 LP  0  0  0  0  0  0  0  0  0  0  0  0  # atno 17370 bound_to 10713
  157.7174  130.9514  150.1305 LP  0  0  0  0  0  0  0  0  0  0  0  0  # atno 17371 bound_to 10713
  140.2466  134.3732  155.7459 LP  0  0  0  0  0  0  0  0  0  0  0  0  # atno 17394 bound_to 11000
  141.2211  133.7294  156.8871 LP  0  0  0  0  0  0  0  0  0  0  0  0  # atno 17395 bound_to 11000

$$$$
