#       Name:                AV-unprocessed.smi:2376
#       Creating user name   scv26
#       Creation time:       Fri Mar 27 13:07:34 2020


#       File generated by GOLD software.
#

@<TRIPOS>MOLECULE
AV-unprocessed.smi:2376
    33    34     1
SMALL
NO_CHARGES


@<TRIPOS>ATOM
      1 ****        -2.3246   4.6998   0.3385 N.pl3          1 S1                 0.0000
      2 ****        -1.7892   3.5506   0.7727 C.ar           1 S1                 0.0000
      3 ****        -1.2637   3.5161   2.0204 N.ar           1 S1                 0.0000
      4 ****        -0.7196   2.3825   2.4766 C.ar           1 S1                 0.0000
      5 ****        -0.6042   1.2024   1.8602 N.ar           1 S1                 0.0000
      6 ****        -1.1378   1.2440   0.6047 C.ar           1 S1                 0.0000
      7 ****        -1.7457   2.3716  -0.0135 C.ar           1 S1                 0.0000
      8 ****        -2.1713   2.0457  -1.2947 N.2            1 S1                 0.0000
      9 ****        -1.8329   0.7915  -1.4281 C.2            1 S1                 0.0000
     10 ****        -1.2071   0.2318  -0.3357 N.pl3          1 S1                 0.0000
     11 ****        -0.7209  -1.1294  -0.2131 C.3            1 S1                 0.0000
     12 ****         0.7849  -1.2121  -0.4897 C.3            1 S1                 0.0000
     13 ****         1.2006  -2.5630  -0.3842 O.3            1 S1                 0.0000
     14 ****         2.5911  -2.7264  -0.6158 C.3            1 S1                 0.0000
     15 ****         2.9622  -4.2098  -0.5014 C.3            1 S1                 0.0000
     16 ****         4.2714  -4.3516  -0.7043 F              1 S1                 0.0000
     17 ****         2.6657  -4.6672   0.7148 F              1 S1                 0.0000
     18 ****         2.3077  -4.9208  -1.4193 F              1 S1                 0.0000
     19 ****        -2.7212   4.7504  -0.5889 H              1 S1                 0.0000
     20 ****        -2.3276   5.5127   0.9372 H              1 S1                 0.0000
     21 ****        -0.3197   2.4271   3.4789 H              1 S1                 0.0000
     22 ****        -2.0293   0.2375  -2.3346 H              1 S1                 0.0000
     23 ****        -0.9451  -1.4925   0.7908 H              1 S1                 0.0000
     24 ****        -1.2708  -1.7645  -0.9090 H              1 S1                 0.0000
     25 ****         1.0036  -0.8319  -1.4890 H              1 S1                 0.0000
     26 ****         1.3322  -0.5956   0.2254 H              1 S1                 0.0000
     27 ****         2.8504  -2.3560  -1.6089 H              1 S1                 0.0000
     28 ****         3.1609  -2.1436   0.1098 H              1 S1                 0.0000
     29 ****        -1.2823   4.3329   2.5970 LP             1 S1                 0.0000
     30 ****        -0.1811   0.3927   2.2668 LP             1 S1                 0.0000
     31 ****        -2.6301   2.6345  -1.9602 LP             1 S1                 0.0000
     32 ****         0.6980  -3.1061  -1.0568 LP             1 S1                 0.0000
     33 ****         0.9884  -2.8923   0.5359 LP             1 S1                 0.0000
@<TRIPOS>BOND
    1    1    2 1     
    2    1   19 1     
    3    1   20 1     
    4    2    7 ar    
    5    2    3 ar    
    6    3    4 ar    
    7    4    5 ar    
    8    4   21 1     
    9    5    6 ar    
   10    6   10 1     
   11    6    7 ar    
   12    7    8 1     
   13    8    9 2     
   14    9   10 1     
   15    9   22 1     
   16   10   11 1     
   17   11   12 1     
   18   11   23 1     
   19   11   24 1     
   20   12   13 1     
   21   12   25 1     
   22   12   26 1     
   23   13   14 1     
   24   14   15 1     
   25   14   27 1     
   26   14   28 1     
   27   15   16 1     
   28   15   17 1     
   29   15   18 1     
   30    3   29 1     
   31    5   30 1     
   32    8   31 1     
   33   13   32 1     
   34   13   33 1     
@<TRIPOS>SUBSTRUCTURE
      1 S1             1
@<TRIPOS>SET
LONE_PAIRS      STATIC     ATOMS    <user>   **** ""
5 29 30 31 32 33
DONOR_HYDROGENS      STATIC     ATOMS    <user>   **** ""
2 19 20
ATOM$BLUE        STATIC     ATOMS    COLORGROUP SYSTEM
5 29 30 31 32 33
ATOM$RED        STATIC     ATOMS    COLORGROUP SYSTEM
2 19 20
