AV-unprocessed.smi:82|AV-procd|sdf|799|dock6
  -GOLD-   2262017183D 1   1.00000     0.00000
 Structure written by MMmdl.
 58 61  0  0  0  0  0  0  0  0  1 V2000
  148.3089  145.0681  161.5363 C   0  0  0  0  0  0  0  0  0  0  0  0
  149.3610  144.2857  160.9989 O   0  0  0  0  0  0  0  0  0  0  0  0
  150.1889  145.0213  160.1138 C   0  0  0  0  0  0  0  0  0  0  0  0
  151.5454  144.3058  160.0026 C   0  0  0  0  0  0  0  0  0  0  0  0
  151.4797  142.8539  159.7877 N   0  0  0  0  0  0  0  0  0  0  0  0
  150.7938  142.5475  158.5257 C   0  0  0  0  0  0  0  0  0  0  0  0
  150.6679  141.0400  158.2654 C   0  0  0  0  0  0  0  0  0  0  0  0
  151.9919  140.4265  158.2767 N   0  0  0  0  0  0  0  0  0  0  0  0
  152.1137  139.1576  157.8100 C   0  0  0  0  0  0  0  0  0  0  0  0
  153.3476  138.6185  157.6171 N   0  0  0  0  0  0  0  0  0  0  0  0
  153.4757  137.3748  157.1457 C   0  0  0  0  0  0  0  0  0  0  0  0
  152.5194  136.5058  156.8142 N   0  0  0  0  0  0  0  0  0  0  0  0
  151.2786  137.0338  157.0183 C   0  0  0  0  0  0  0  0  0  0  0  0
  150.9887  138.3407  157.5037 C   0  0  0  0  0  0  0  0  0  0  0  0
  149.6124  138.5223  157.5757 N   0  0  0  0  0  0  0  0  0  0  0  0
  149.1181  137.3951  157.1425 C   0  0  0  0  0  0  0  0  0  0  0  0
  150.0477  136.4344  156.8144 N   0  0  0  0  0  0  0  0  0  0  0  0
  149.7802  135.1301  156.2834 C   0  0  0  0  0  0  0  0  0  0  0  0
  149.1490  134.0381  157.1493 C   0  0  0  0  0  0  0  0  0  0  0  0
  149.9447  132.9682  156.3672 C   0  0  0  0  0  0  0  0  0  0  0  0
  150.5714  131.8395  157.2041 C   0  0  0  0  0  0  0  0  0  0  0  0
  151.4223  132.3412  158.2139 O   0  0  0  0  0  0  0  0  0  0  0  0
  149.2507  132.3606  155.1296 C   0  0  0  0  0  0  0  0  0  0  0  0
  148.2263  131.4534  155.4813 O   0  0  0  0  0  0  0  0  0  0  0  0
  150.9103  134.1281  156.0345 C   0  0  0  0  0  0  0  0  0  0  0  0
  152.7269  140.7055  159.5067 C   0  0  0  0  0  0  0  0  0  0  0  0
  152.8184  142.2268  159.7679 C   0  0  2  0  0  0  0  0  0  0  0  0
  153.6366  142.4321  161.0587 C   0  0  0  0  0  0  0  0  0  0  0  0
  147.6979  144.4554  162.1989 H   0  0  0  0  0  0  0  0  0  0  0  0
  147.6637  145.4566  160.7475 H   0  0  0  0  0  0  0  0  0  0  0  0
  148.6972  145.9066  162.1160 H   0  0  0  0  0  0  0  0  0  0  0  0
  149.7176  145.0855  159.1316 H   0  0  0  0  0  0  0  0  0  0  0  0
  150.3087  146.0357  160.4953 H   0  0  0  0  0  0  0  0  0  0  0  0
  152.1422  144.7723  159.2175 H   0  0  0  0  0  0  0  0  0  0  0  0
  152.0635  144.5102  160.9377 H   0  0  0  0  0  0  0  0  0  0  0  0
  149.7875  142.9636  158.5301 H   0  0  0  0  0  0  0  0  0  0  0  0
  151.3207  143.0167  157.6931 H   0  0  0  0  0  0  0  0  0  0  0  0
  150.0400  140.5776  159.0284 H   0  0  0  0  0  0  0  0  0  0  0  0
  150.1861  140.8754  157.3006 H   0  0  0  0  0  0  0  0  0  0  0  0
  154.4896  137.0257  157.0171 H   0  0  0  0  0  0  0  0  0  0  0  0
  148.0536  137.2308  157.0586 H   0  0  0  0  0  0  0  0  0  0  0  0
  149.1951  135.2888  155.3759 H   0  0  0  0  0  0  0  0  0  0  0  0
  149.4528  134.1056  158.1958 H   0  0  0  0  0  0  0  0  0  0  0  0
  148.0645  133.9650  157.0638 H   0  0  0  0  0  0  0  0  0  0  0  0
  149.8059  131.2138  157.6637 H   0  0  0  0  0  0  0  0  0  0  0  0
  151.1693  131.1784  156.5759 H   0  0  0  0  0  0  0  0  0  0  0  0
  152.1916  131.7945  158.2591 H   0  0  0  0  0  0  0  0  0  0  0  0
  148.7996  133.1368  154.5113 H   0  0  0  0  0  0  0  0  0  0  0  0
  149.9683  131.8462  154.4897 H   0  0  0  0  0  0  0  0  0  0  0  0
  147.4255  131.9381  155.6090 H   0  0  0  0  0  0  0  0  0  0  0  0
  151.2956  134.1278  155.0143 H   0  0  0  0  0  0  0  0  0  0  0  0
  151.7230  134.2346  156.7556 H   0  0  0  0  0  0  0  0  0  0  0  0
  152.2203  140.2120  160.3378 H   0  0  0  0  0  0  0  0  0  0  0  0
  153.7308  140.2850  159.4617 H   0  0  0  0  0  0  0  0  0  0  0  0
  153.3919  142.6631  158.9483 H   0  0  0  0  0  0  0  0  0  0  0  0
  154.5523  141.8404  161.0395 H   0  0  0  0  0  0  0  0  0  0  0  0
  153.0695  142.1315  161.9402 H   0  0  0  0  0  0  0  0  0  0  0  0
  153.9474  143.4680  161.1910 H   0  0  0  0  0  0  0  0  0  0  0  0
  1  2  1  0  0  0  0
  1 29  1  0  0  0  0
  1 30  1  0  0  0  0
  1 31  1  0  0  0  0
  2  3  1  0  0  0  0
  3  4  1  0  0  0  0
  3 32  1  0  0  0  0
  3 33  1  0  0  0  0
  4  5  1  0  0  0  0
  4 34  1  0  0  0  0
  4 35  1  0  0  0  0
  5 27  1  0  0  0  0
  5  6  1  0  0  0  0
  6  7  1  0  0  0  0
  6 36  1  0  0  0  0
  6 37  1  0  0  0  0
  7  8  1  0  0  0  0
  7 38  1  0  0  0  0
  7 39  1  0  0  0  0
  8  9  1  0  0  0  0
  8 26  1  0  0  0  0
  9 14  1  0  0  0  0
  9 10  2  0  0  0  0
 10 11  1  0  0  0  0
 11 12  2  0  0  0  0
 11 40  1  0  0  0  0
 12 13  1  0  0  0  0
 13 17  1  0  0  0  0
 13 14  2  0  0  0  0
 14 15  1  0  0  0  0
 15 16  2  0  0  0  0
 16 17  1  0  0  0  0
 16 41  1  0  0  0  0
 17 18  1  0  0  0  0
 18 25  1  0  0  0  0
 18 19  1  0  0  0  0
 18 42  1  0  0  0  0
 19 20  1  0  0  0  0
 19 43  1  0  0  0  0
 19 44  1  0  0  0  0
 20 21  1  0  0  0  0
 20 23  1  0  0  0  0
 20 25  1  0  0  0  0
 21 22  1  0  0  0  0
 21 45  1  0  0  0  0
 21 46  1  0  0  0  0
 22 47  1  0  0  0  0
 23 24  1  0  0  0  0
 23 48  1  0  0  0  0
 23 49  1  0  0  0  0
 24 50  1  0  0  0  0
 25 51  1  0  0  0  0
 25 52  1  0  0  0  0
 26 27  1  0  0  0  0
 26 53  1  0  0  0  0
 26 54  1  0  0  0  0
 27 28  1  0  0  0  0
 27 55  1  0  0  0  0
 28 56  1  0  0  0  0
 28 57  1  0  0  0  0
 28 58  1  0  0  0  0
M  END
> <s_m_source_file>
AV-unprocessed.smi

> <i_m_source_file_index>
82

> <i_lp_mmshare_version>
43012

> <i_f3d_flags>
0

> <s_epik_input>
W0NIM11PW0NIMl1bQ0gyXU4xW0NIMl1bQ0gyXU4oW0NIMl1bQ0BIXTFbQ0gzXSljKG5bY0hdbjIpYyhjMjMpbltjSF1uM1tDSF0oW0NIMl00KVtDSDJdQzQoW0NIMl1bT0hdKVtDSDJdW09IXQ==

> <s_epik_cmdline>
J2VwaWtfcHl0aG9uJywgJy1waCcsICc3LjAnLCAnLXRuJywgJzgnLCAnLW1hJywgJzIwMCcsICctbWV0YWxfYmluZGluZycsICctaW1hZScsICc8aW5maWxlLm1hZT4nLCAnLW9tYWUnLCAnPG91dGZpbGUubWFlPic=

> <r_lp_tautomer_probability>
1

> <r_epik_Ionization_Penalty>
0.549054

> <r_epik_Ionization_Penalty_Charging>
0

> <r_epik_Ionization_Penalty_Neutral>
0.549054

> <r_epik_State_Penalty>
0.552556

> <r_epik_Charging_Adjusted_Penalty>
0.552556

> <i_epik_Tot_Q>
0

> <i_epik_Tot_abs_Q>
0

> <r_epik_Metal_State_Penalty>
0.545162

> <b_epik_Metal_Only>
0

> <s_lp_Force_Field>
OPLS_2005

> <r_lp_Energy>
68.3354

> <b_lp_Chiralities_Consistent>
1

> <s_lp_Variant>
AV-unprocessed.smi:82-6

> <Gold.Version>
5.8.1

> <Gold.Id.Protein>
6NUR|6NUR_protein|mol2

> <Gold.PLP.Fitness>
51.4331

> <Gold.PLP.PLP>
-41.3194

> <Gold.PLP.part.hbond>
-4.3779

> <Gold.PLP.part.metal>
0.0000

> <Gold.PLP.part.buried>
-8.3938

> <Gold.PLP.part.nonpolar>
-28.7034

> <Gold.PLP.part.repulsive>
0.2009

> <Gold.PLP.ligand.clash>
0.0000

> <Gold.PLP.ligand.torsion>
0.5943

> <Gold.PLP.Chemscore.Hbond>
3.4597

> <Gold.PLP.Chemscore.CHOScore>
0.0000

> <Gold.PLP.Chemscore.Metal>
0.0000

> <Gold.Chemscore.Hbonds>
donor molecule, donor type, donor heavy atom, donor atom, acceptor molecule, acceptor atom, score
      P1  H  6896  6907       L1    22  0.73
      P1  H  6933  6944       L1     2  0.33
      P1  H  7997  8008       L1    10  1.00
      P1  H 10752 10764       L1    12  0.83

> <Gold.PLP.Chemscore.Internal.Correction>
0.9232

> <Gold.Rescore>
     Score         DG    S(hbond)    S(metal)    S(lipo)     H(rot)  DE(clash)    DE(int)     intcor
     12.70     -16.50       2.91        0.00      95.25       3.84       0.46       3.35       ----

> <Gold.Chemscore.Fitness>
12.6984

> <Gold.Chemscore.DG>
-16.5019

> <Gold.Chemscore.ZeroCoef>
-5.4800

> <Gold.Chemscore.Hbond>
2.9092

> <Gold.Chemscore.Metal>
0.0000

> <Gold.Chemscore.Lipo>
95.2514

> <Gold.Chemscore.Internal_Hbond>
0.0000

> <Gold.Chemscore.DEClash>
0.4571

> <Gold.Chemscore.DEInternal>
3.3464

> <Gold.Chemscore.Rot>
3.8434

> <Gold.Chemscore.Internal.Correction>
   9.000000E+99

> <Gold.Chemscore.Hbonds>
donor molecule, donor type, donor heavy atom, donor atom, acceptor molecule, acceptor atom, score
      P1  H  6896  6907       L1    22  0.64
      P1  H  6933  6944       L1     2  0.06
      P1  H  7997  8008       L1    10  0.62
      P1  H 10752 10764       L1    12  0.24

> <Gold.Chemscore.Hbond.Weighted>
-9.7166

> <Gold.Chemscore.Metal.Weighted>
-0.0000

> <Gold.Chemscore.Lipo.Weighted>
-11.1444

> <Gold.Chemscore.Internal_Hbond.Weighted>
0.0000

> <Gold.Chemscore.DEClash.Weighted>
0.4571

> <Gold.Chemscore.DEInternal.Weighted>
3.3464

> <Gold.Chemscore.Rot.Weighted>
9.8391

> <Gold.Chemscore.Internal.Correction.Weighted>
   9.000000E+99

> <Gold.Protein.RotatedTorsions>
[ 6907 6896 6895 6894 ] final -160.44 input  -60.11 | X-H torsion
[ 7974 7965 7964 7962 ] final -168.61 input  175.53 | X-H torsion
[ 8008 7997 7996 7995 ] final  -79.13 input   59.86 | X-H torsion
[ 10167 10162 10161 10158 ] final  112.27 input  -65.29 | X-H torsion
[ 10718 10713 10712 10709 ] final  179.16 input   66.30 | X-H torsion
[ 10763 10752 10751 10750 ] final   -4.36 input  -60.55 | X-H torsion
[ 11005 11000 10999 10996 ] final  148.95 input  -57.11 | X-H torsion

> <Gold.Protein.ActiveResidues>
 VAL166  LYS551  ARG553  GLY616  TRP617  ASP618  TYR619  PRO620  LYS621  CYS622 
 ASP623  PHE694  ASN695  SER759  ASP760  ASP761  ALA762  ILE779  LEU786  VAL792 
 PHE793  MET794  SER795  GLU796  ALA797  LYS798  CYS799  TRP800  GLU811  SER814 

> <Gold.Protein.RotatedAtoms>
  151.3491  133.3932  159.2678 H   0  0  0  0  0  0  0  0  0  0  0  0  # atno 6907 bound_to 6896
  150.9816  134.9171  159.7858 H   0  0  0  0  0  0  0  0  0  0  0  0  # atno 6908 bound_to 6896
  152.5219  134.3455  159.9284 H   0  0  0  0  0  0  0  0  0  0  0  0  # atno 6909 bound_to 6896
  144.7200  140.2345  143.6300 H   0  0  0  0  0  0  0  0  0  0  0  0  # atno 7974 bound_to 7965
  154.5755  140.0683  156.9028 H   0  0  0  0  0  0  0  0  0  0  0  0  # atno 8008 bound_to 7997
  155.2556  140.3355  155.4260 H   0  0  0  0  0  0  0  0  0  0  0  0  # atno 8009 bound_to 7997
  156.2151  140.1775  156.7593 H   0  0  0  0  0  0  0  0  0  0  0  0  # atno 8010 bound_to 7997
  139.6548  144.7129  151.1977 H   0  0  0  0  0  0  0  0  0  0  0  0  # atno 10167 bound_to 10162
  156.8799  130.9812  151.3063 H   0  0  0  0  0  0  0  0  0  0  0  0  # atno 10718 bound_to 10713
  153.3839  135.6999  153.6545 H   0  0  0  0  0  0  0  0  0  0  0  0  # atno 10763 bound_to 10752
  153.5145  135.3625  155.2603 H   0  0  0  0  0  0  0  0  0  0  0  0  # atno 10764 bound_to 10752
  154.8695  135.4143  154.3142 H   0  0  0  0  0  0  0  0  0  0  0  0  # atno 10765 bound_to 10752
  140.1003  134.8987  157.1785 H   0  0  0  0  0  0  0  0  0  0  0  0  # atno 11005 bound_to 11000
  145.8379  139.2116  143.1844 LP  0  0  0  0  0  0  0  0  0  0  0  0  # atno 17320 bound_to 7965
  146.0373  140.8200  142.9846 LP  0  0  0  0  0  0  0  0  0  0  0  0  # atno 17321 bound_to 7965
  140.7554  143.6090  150.8624 LP  0  0  0  0  0  0  0  0  0  0  0  0  # atno 17342 bound_to 10162
  139.9741  143.6023  152.2964 LP  0  0  0  0  0  0  0  0  0  0  0  0  # atno 17343 bound_to 10162
  157.6146  130.8609  149.9007 LP  0  0  0  0  0  0  0  0  0  0  0  0  # atno 17370 bound_to 10713
  156.0682  130.3689  150.0832 LP  0  0  0  0  0  0  0  0  0  0  0  0  # atno 17371 bound_to 10713
  140.3229  134.2896  155.7242 LP  0  0  0  0  0  0  0  0  0  0  0  0  # atno 17394 bound_to 11000
  141.2104  133.7721  156.9936 LP  0  0  0  0  0  0  0  0  0  0  0  0  # atno 17395 bound_to 11000

$$$$
