#       Name:                AV-unprocessed.smi:2136
#       Creating user name   scv26
#       Creation time:       Fri Mar 27 11:46:21 2020


#       File generated by GOLD software.
#

@<TRIPOS>MOLECULE
AV-unprocessed.smi:2136
    46    47     1
SMALL
NO_CHARGES


@<TRIPOS>ATOM
      1 ****        -2.2832   1.3284  -3.6134 C.3            1 S1                 0.0000
      2 ****        -1.8520   2.1343  -2.0162 S.o2           1 S1                 0.0000
      3 ****        -0.3873   2.2356  -1.9372 O.2            1 S1                 0.0000
      4 ****        -2.6584   3.3581  -1.8897 O.2            1 S1                 0.0000
      5 ****        -2.4317   0.9821  -0.8266 N.3            1 S1                 0.0000
      6 ****        -3.9006   1.0115  -0.6179 C.3            1 S1                 0.0000
      7 ****        -4.3560   0.2088   0.6064 C.3            1 S1                 0.0000
      8 ****        -3.8710  -1.2323   0.5114 C.3            1 S1                 0.0000
      9 ****        -2.3478  -1.2147   0.4371 C.3            1 S1                 0.0000
     10 ****        -1.8173  -0.3845  -0.7581 C.3            1 S1                 0.0000
     11 ****        -0.2832  -0.4493  -0.7215 C.2            1 S1                 0.0000
     12 ****         0.3191  -1.1577  -1.5280 O.2            1 S1                 0.0000
     13 ****         0.3339   0.2896   0.2151 N.am           1 S1                 0.0000
     14 ****         1.7767   0.3730   0.3986 C.3            1 S1                 0.0000
     15 ****         2.3229  -0.8501   1.1527 C.3            1 S1                 0.0000
     16 ****         3.8218  -0.7671   1.3599 C.ar           1 S1                 0.0000
     17 ****         4.3622  -0.2575   2.5584 C.ar           1 S1                 0.0000
     18 ****         5.7621  -0.1966   2.6984 C.ar           1 S1                 0.0000
     19 ****         6.5632  -0.6490   1.6307 C.ar           1 S1                 0.0000
     20 ****         6.0564  -1.1384   0.4786 N.ar           1 S1                 0.0000
     21 ****         4.7130  -1.1936   0.3525 C.ar           1 S1                 0.0000
     22 ****        -2.0042   1.9874  -4.4350 H              1 S1                 0.0000
     23 ****        -3.3548   1.1375  -3.6542 H              1 S1                 0.0000
     24 ****        -1.7397   0.3888  -3.7092 H              1 S1                 0.0000
     25 ****        -4.2357   2.0411  -0.4948 H              1 S1                 0.0000
     26 ****        -4.3910   0.6269  -1.5127 H              1 S1                 0.0000
     27 ****        -3.9761   0.6735   1.5172 H              1 S1                 0.0000
     28 ****        -5.4438   0.2301   0.6781 H              1 S1                 0.0000
     29 ****        -4.2009  -1.8017   1.3809 H              1 S1                 0.0000
     30 ****        -4.2905  -1.7202  -0.3694 H              1 S1                 0.0000
     31 ****        -1.9573  -0.8156   1.3750 H              1 S1                 0.0000
     32 ****        -1.9831  -2.2410   0.3706 H              1 S1                 0.0000
     33 ****        -2.1264  -0.9048  -1.6659 H              1 S1                 0.0000
     34 ****        -0.2393   0.8495   0.8296 H              1 S1                 0.0000
     35 ****         2.2680   0.4801  -0.5702 H              1 S1                 0.0000
     36 ****         1.9937   1.2829   0.9589 H              1 S1                 0.0000
     37 ****         1.8312  -0.9433   2.1221 H              1 S1                 0.0000
     38 ****         2.0983  -1.7663   0.6048 H              1 S1                 0.0000
     39 ****         3.7177   0.0825   3.3558 H              1 S1                 0.0000
     40 ****         6.2115   0.1879   3.6020 H              1 S1                 0.0000
     41 ****         7.6401  -0.6165   1.7039 H              1 S1                 0.0000
     42 ****         4.3382  -1.5877  -0.5807 H              1 S1                 0.0000
     43 ****        -2.0148   1.3736  -0.0062 LP             1 S1                 0.0000
     44 ****        -0.1903  -1.6892  -2.2047 LP             1 S1                 0.0000
     45 ****         1.3179  -1.2018  -1.5064 LP             1 S1                 0.0000
     46 ****         6.6569  -1.4501  -0.2578 LP             1 S1                 0.0000
@<TRIPOS>BOND
    1    1    2 1     
    2    1   22 1     
    3    1   23 1     
    4    1   24 1     
    5    2    3 2     
    6    2    4 2     
    7    2    5 1     
    8    5   10 1     
    9    5    6 1     
   10    6    7 1     
   11    6   25 1     
   12    6   26 1     
   13    7    8 1     
   14    7   27 1     
   15    7   28 1     
   16    8    9 1     
   17    8   29 1     
   18    8   30 1     
   19    9   10 1     
   20    9   31 1     
   21    9   32 1     
   22   10   11 1     
   23   10   33 1     
   24   11   12 2     
   25   11   13 am    
   26   13   14 1     
   27   13   34 1     
   28   14   15 1     
   29   14   35 1     
   30   14   36 1     
   31   15   16 1     
   32   15   37 1     
   33   15   38 1     
   34   16   21 ar    
   35   16   17 ar    
   36   17   18 ar    
   37   17   39 1     
   38   18   19 ar    
   39   18   40 1     
   40   19   20 ar    
   41   19   41 1     
   42   20   21 ar    
   43   21   42 1     
   44    5   43 1     
   45   12   44 1     
   46   12   45 1     
   47   20   46 1     
@<TRIPOS>SUBSTRUCTURE
      1 S1             1
@<TRIPOS>SET
LONE_PAIRS      STATIC     ATOMS    <user>   **** ""
6 3 4 43 44 45 46
DONOR_HYDROGENS      STATIC     ATOMS    <user>   **** ""
1 34
ATOM$BLUE        STATIC     ATOMS    COLORGROUP SYSTEM
6 3 4 43 44 45 46
ATOM$RED        STATIC     ATOMS    COLORGROUP SYSTEM
1 34
