AV-unprocessed.smi:2803|AV-procd|sdf|10807|dock8
  -GOLD-   2272015243D 1   1.00000     0.00000
 Structure written by MMmdl.
 42 43  0  0  0  0  0  0  0  0  1 V2000
  152.3961  138.5305  159.1878 C   0  0  0  0  0  0  0  0  0  0  0  0
  151.5618  139.2822  158.1322 C   0  0  1  0  0  0  0  0  0  0  0  0
  152.2750  139.2845  156.8412 C   0  0  0  0  0  0  0  0  0  0  0  0
  152.8360  139.2859  155.8290 N   0  0  0  0  0  0  0  0  0  0  0  0
  150.2567  138.6333  157.9896 N   0  0  0  0  0  0  0  0  0  0  0  0
  149.9578  137.3250  158.0755 C   0  0  0  0  0  0  0  0  0  0  0  0
  150.7960  136.4598  158.3220 O   0  0  0  0  0  0  0  0  0  0  0  0
  148.4964  136.9059  157.8369 C   0  0  0  0  0  0  0  0  0  0  0  0
  147.9407  136.0077  158.8558 N   0  0  0  0  0  0  0  0  0  0  0  0
  147.6149  134.6973  158.6027 C   0  0  0  0  0  0  0  0  0  0  0  0
  147.0943  134.1273  159.6327 N   0  0  0  0  0  0  0  0  0  0  0  0
  147.0907  135.1119  160.5799 N   0  0  0  0  0  0  0  0  0  0  0  0
  146.5336  134.8442  161.9307 C   0  0  0  0  0  0  0  0  0  0  0  0
  145.2034  135.6085  162.1043 C   0  0  0  0  0  0  0  0  0  0  0  0
  147.4949  135.3034  163.0552 C   0  0  0  0  0  0  0  0  0  0  0  0
  146.2941  133.3285  162.1036 C   0  0  0  0  0  0  0  0  0  0  0  0
  147.6095  136.2661  160.1179 C   0  0  0  0  0  0  0  0  0  0  0  0
  147.7325  137.3390  160.7078 O   0  0  0  0  0  0  0  0  0  0  0  0
  151.4312  140.7419  158.5592 C   0  0  0  0  0  0  0  0  0  0  0  0
  151.5279  141.8865  157.5747 C   0  0  0  0  0  0  0  0  0  0  0  0
  152.6198  141.6781  158.6007 C   0  0  0  0  0  0  0  0  0  0  0  0
  153.3631  139.0113  159.3390 H   0  0  0  0  0  0  0  0  0  0  0  0
  152.5953  137.4998  158.8936 H   0  0  0  0  0  0  0  0  0  0  0  0
  151.8861  138.5070  160.1515 H   0  0  0  0  0  0  0  0  0  0  0  0
  149.4881  139.2555  157.7867 H   0  0  0  0  0  0  0  0  0  0  0  0
  147.8846  137.8062  157.7584 H   0  0  0  0  0  0  0  0  0  0  0  0
  148.4364  136.4158  156.8642 H   0  0  0  0  0  0  0  0  0  0  0  0
  147.8033  134.2728  157.6152 H   0  0  0  0  0  0  0  0  0  0  0  0
  144.7981  135.4723  163.1076 H   0  0  0  0  0  0  0  0  0  0  0  0
  144.4381  135.2708  161.4056 H   0  0  0  0  0  0  0  0  0  0  0  0
  145.3412  136.6794  161.9501 H   0  0  0  0  0  0  0  0  0  0  0  0
  147.6929  136.3749  163.0054 H   0  0  0  0  0  0  0  0  0  0  0  0
  148.4521  134.7822  163.0073 H   0  0  0  0  0  0  0  0  0  0  0  0
  147.0729  135.1030  164.0405 H   0  0  0  0  0  0  0  0  0  0  0  0
  145.9252  133.0999  163.1041 H   0  0  0  0  0  0  0  0  0  0  0  0
  147.2164  132.7648  161.9590 H   0  0  0  0  0  0  0  0  0  0  0  0
  145.5573  132.9424  161.3995 H   0  0  0  0  0  0  0  0  0  0  0  0
  150.7098  140.8840  159.3624 H   0  0  0  0  0  0  0  0  0  0  0  0
  151.7606  141.6552  156.5373 H   0  0  0  0  0  0  0  0  0  0  0  0
  150.8569  142.7304  157.7208 H   0  0  0  0  0  0  0  0  0  0  0  0
  152.6722  142.3835  159.4274 H   0  0  0  0  0  0  0  0  0  0  0  0
  153.5804  141.3140  158.2416 H   0  0  0  0  0  0  0  0  0  0  0  0
  1  2  1  0  0  0  0
  1 22  1  0  0  0  0
  1 23  1  0  0  0  0
  1 24  1  0  0  0  0
  2  3  1  0  0  0  0
  2  5  1  0  0  0  0
  2 19  1  0  0  0  0
  3  4  3  0  0  0  0
  5  6  1  0  0  0  0
  5 25  1  0  0  0  0
  6  7  2  0  0  0  0
  6  8  1  0  0  0  0
  8  9  1  0  0  0  0
  8 26  1  0  0  0  0
  8 27  1  0  0  0  0
  9 17  1  0  0  0  0
  9 10  1  0  0  0  0
 10 11  2  0  0  0  0
 10 28  1  0  0  0  0
 11 12  1  0  0  0  0
 12 13  1  0  0  0  0
 12 17  1  0  0  0  0
 13 14  1  0  0  0  0
 13 15  1  0  0  0  0
 13 16  1  0  0  0  0
 14 29  1  0  0  0  0
 14 30  1  0  0  0  0
 14 31  1  0  0  0  0
 15 32  1  0  0  0  0
 15 33  1  0  0  0  0
 15 34  1  0  0  0  0
 16 35  1  0  0  0  0
 16 36  1  0  0  0  0
 16 37  1  0  0  0  0
 17 18  2  0  0  0  0
 19 21  1  0  0  0  0
 19 20  1  0  0  0  0
 19 38  1  0  0  0  0
 20 21  1  0  0  0  0
 20 39  1  0  0  0  0
 20 40  1  0  0  0  0
 21 41  1  0  0  0  0
 21 42  1  0  0  0  0
M  END
> <s_m_source_file>
AV-unprocessed.smi

> <i_m_source_file_index>
2803

> <i_lp_mmshare_version>
43012

> <i_f3d_flags>
0

> <s_epik_input>
W0NIMl0xW0NIMl1bQ0hdMVtDQF0oW0NIM10pKEMjTilbTkhdQyg9TylbQ0gyXW4yW2NIXW5uKGMyPU8pQyhbQ0gzXSkoW0NIM10pW0NIM10=

> <s_epik_cmdline>
J2VwaWtfcHl0aG9uJywgJy1waCcsICc3LjAnLCAnLXRuJywgJzgnLCAnLW1hJywgJzIwMCcsICctbWV0YWxfYmluZGluZycsICctaW1hZScsICc8aW5maWxlLm1hZT4nLCAnLW9tYWUnLCAnPG91dGZpbGUubWFlPic=

> <r_lp_tautomer_probability>
1

> <r_epik_Ionization_Penalty>
4.88615e-06

> <r_epik_Ionization_Penalty_Charging>
4.80261e-08

> <r_epik_Ionization_Penalty_Neutral>
4.83813e-06

> <r_epik_State_Penalty>
-0

> <r_epik_Charging_Adjusted_Penalty>
4.80261e-08

> <i_epik_Tot_Q>
0

> <i_epik_Tot_abs_Q>
0

> <r_epik_Metal_State_Penalty>
-0

> <b_epik_Metal_Only>
0

> <s_lp_Force_Field>
OPLS_2005

> <r_lp_Energy>
32.3619

> <b_lp_Chiralities_Consistent>
1

> <s_lp_Variant>
AV-unprocessed.smi:2803-1

> <Gold.Version>
5.8.1

> <Gold.Id.Protein>
6NUR|6NUR_protein|mol2

> <Gold.PLP.Fitness>
41.3799

> <Gold.PLP.PLP>
-33.0226

> <Gold.PLP.part.hbond>
-4.0000

> <Gold.PLP.part.metal>
0.0000

> <Gold.PLP.part.buried>
-4.7912

> <Gold.PLP.part.nonpolar>
-24.8309

> <Gold.PLP.part.repulsive>
0.1075

> <Gold.PLP.ligand.clash>
0.0000

> <Gold.PLP.ligand.torsion>
1.9099

> <Gold.PLP.Chemscore.Hbond>
3.5440

> <Gold.PLP.Chemscore.CHOScore>
0.0000

> <Gold.PLP.Chemscore.Metal>
0.0000

> <Gold.Chemscore.Hbonds>
donor molecule, donor type, donor heavy atom, donor atom, acceptor molecule, acceptor atom, score
      P1  H  6896  6908       L1     7  0.73
      P1  H  6931  6943       L1    18  0.75
      P1  H  6934  6947       L1    18  0.88
      P1  H  7997  8009       L1     4  1.00

> <Gold.PLP.Chemscore.Internal.Correction>
1.5450

> <Gold.Rescore>
     Score         DG    S(hbond)    S(metal)    S(lipo)     H(rot)  DE(clash)    DE(int)     intcor
     16.90     -20.16       3.67        0.00      65.41       2.05       0.03       3.23       ----

> <Gold.Chemscore.Fitness>
16.9043

> <Gold.Chemscore.DG>
-20.1580

> <Gold.Chemscore.ZeroCoef>
-5.4800

> <Gold.Chemscore.Hbond>
3.6713

> <Gold.Chemscore.Metal>
0.0000

> <Gold.Chemscore.Lipo>
65.4098

> <Gold.Chemscore.Internal_Hbond>
0.0000

> <Gold.Chemscore.DEClash>
0.0272

> <Gold.Chemscore.DEInternal>
3.2265

> <Gold.Chemscore.Rot>
2.0457

> <Gold.Chemscore.Internal.Correction>
   9.000000E+99

> <Gold.Chemscore.Hbonds>
donor molecule, donor type, donor heavy atom, donor atom, acceptor molecule, acceptor atom, score
      P1  H  6896  6908       L1     7  0.70
      P1  H  6931  6943       L1    18  0.72
      P1  H  6934  6947       L1    18  0.87
      P1  H  7997  8009       L1     4  0.45

> <Gold.Chemscore.Hbond.Weighted>
-12.2621

> <Gold.Chemscore.Metal.Weighted>
-0.0000

> <Gold.Chemscore.Lipo.Weighted>
-7.6529

> <Gold.Chemscore.Internal_Hbond.Weighted>
0.0000

> <Gold.Chemscore.DEClash.Weighted>
0.0272

> <Gold.Chemscore.DEInternal.Weighted>
3.2265

> <Gold.Chemscore.Rot.Weighted>
5.2370

> <Gold.Chemscore.Internal.Correction.Weighted>
   9.000000E+99

> <Gold.Protein.RotatedTorsions>
[ 6907 6896 6895 6894 ] final -153.94 input  -60.11 | X-H torsion
[ 7974 7965 7964 7962 ] final  -65.73 input  175.53 | X-H torsion
[ 8008 7997 7996 7995 ] final -153.01 input   59.86 | X-H torsion
[ 10167 10162 10161 10158 ] final  173.82 input  -65.29 | X-H torsion
[ 10718 10713 10712 10709 ] final   89.75 input   66.30 | X-H torsion
[ 10763 10752 10751 10750 ] final  135.22 input  -60.55 | X-H torsion
[ 11005 11000 10999 10996 ] final -105.94 input  -57.11 | X-H torsion

> <Gold.Protein.ActiveResidues>
 VAL166  LYS551  ARG553  GLY616  TRP617  ASP618  TYR619  PRO620  LYS621  CYS622 
 ASP623  PHE694  ASN695  SER759  ASP760  ASP761  ALA762  ILE779  LEU786  VAL792 
 PHE793  MET794  SER795  GLU796  ALA797  LYS798  CYS799  TRP800  GLU811  SER814 

> <Gold.Protein.RotatedAtoms>
  151.2500  133.4355  159.2610 H   0  0  0  0  0  0  0  0  0  0  0  0  # atno 6907 bound_to 6896
  151.0626  134.9747  159.8278 H   0  0  0  0  0  0  0  0  0  0  0  0  # atno 6908 bound_to 6896
  152.5400  134.2449  159.8929 H   0  0  0  0  0  0  0  0  0  0  0  0  # atno 6909 bound_to 6896
  145.7506  140.8910  143.0482 H   0  0  0  0  0  0  0  0  0  0  0  0  # atno 7974 bound_to 7965
  155.6641  140.0726  157.2544 H   0  0  0  0  0  0  0  0  0  0  0  0  # atno 8008 bound_to 7997
  154.4136  140.1711  156.1859 H   0  0  0  0  0  0  0  0  0  0  0  0  # atno 8009 bound_to 7997
  155.9673  140.3365  155.6546 H   0  0  0  0  0  0  0  0  0  0  0  0  # atno 8010 bound_to 7997
  139.5121  144.3217  152.0196 H   0  0  0  0  0  0  0  0  0  0  0  0  # atno 10167 bound_to 10162
  157.6956  131.0345  150.3473 H   0  0  0  0  0  0  0  0  0  0  0  0  # atno 10718 bound_to 10713
  153.8364  135.3097  155.3423 H   0  0  0  0  0  0  0  0  0  0  0  0  # atno 10763 bound_to 10752
  154.7951  135.4760  154.0145 H   0  0  0  0  0  0  0  0  0  0  0  0  # atno 10764 bound_to 10752
  153.1602  135.6859  153.8845 H   0  0  0  0  0  0  0  0  0  0  0  0  # atno 10765 bound_to 10752
  141.1029  133.8851  157.1796 H   0  0  0  0  0  0  0  0  0  0  0  0  # atno 11005 bound_to 11000
  144.6850  139.9586  143.7480 LP  0  0  0  0  0  0  0  0  0  0  0  0  # atno 17320 bound_to 7965
  146.0360  139.3378  143.0726 LP  0  0  0  0  0  0  0  0  0  0  0  0  # atno 17321 bound_to 7965
  140.2659  144.4017  150.6169 LP  0  0  0  0  0  0  0  0  0  0  0  0  # atno 17342 bound_to 10162
  140.6124  143.2170  151.6860 LP  0  0  0  0  0  0  0  0  0  0  0  0  # atno 17343 bound_to 10162
  156.3926  130.3901  149.7018 LP  0  0  0  0  0  0  0  0  0  0  0  0  # atno 17370 bound_to 10713
  156.4363  130.7839  151.2860 LP  0  0  0  0  0  0  0  0  0  0  0  0  # atno 17371 bound_to 10713
  139.9887  135.0072  156.9924 LP  0  0  0  0  0  0  0  0  0  0  0  0  # atno 17394 bound_to 11000
  140.4977  134.1129  155.7244 LP  0  0  0  0  0  0  0  0  0  0  0  0  # atno 17395 bound_to 11000

$$$$
