AV-unprocessed.smi:2591|AV-procd|sdf|10157|dock6
  -GOLD-   2272014173D 1   1.00000     0.00000
 Structure written by MMmdl.
 34 35  0  0  0  0  0  0  0  0  1 V2000
  150.9802  141.2870  156.9958 C   0  0  0  0  0  0  0  0  0  0  0  0
  150.3525  140.0688  156.5067 N   0  0  0  0  0  0  0  0  0  0  0  0
  151.1773  139.3998  155.5101 C   0  0  0  0  0  0  0  0  0  0  0  0
  150.5120  138.1110  154.9989 C   0  0  0  0  0  0  0  0  0  0  0  0
  150.2296  137.2499  156.0980 O   0  0  0  0  0  0  0  0  0  0  0  0
  149.3850  137.8498  157.0818 C   0  0  1  0  0  0  0  0  0  0  0  0
  149.1214  136.8296  158.1987 C   0  0  0  0  0  0  0  0  0  0  0  0
  149.6631  135.7235  158.1658 O   0  0  0  0  0  0  0  0  0  0  0  0
  148.3002  137.2432  159.1831 N   0  0  0  0  0  0  0  0  0  0  0  0
  147.8837  136.5349  160.3411 C   0  0  0  0  0  0  0  0  0  0  0  0
  147.7789  135.1352  160.1809 C   0  0  0  0  0  0  0  0  0  0  0  0
  147.3632  134.3352  161.2672 C   0  0  0  0  0  0  0  0  0  0  0  0
  147.2449  132.8256  161.1246 C   0  0  0  0  0  0  0  0  0  0  0  0
  146.0356  132.4069  161.4990 F   0  0  0  0  0  0  0  0  0  0  0  0
  147.4434  132.4523  159.8598 F   0  0  0  0  0  0  0  0  0  0  0  0
  148.1602  132.2386  161.8945 F   0  0  0  0  0  0  0  0  0  0  0  0
  147.0775  134.9700  162.4930 C   0  0  0  0  0  0  0  0  0  0  0  0
  147.2109  136.3680  162.5684 C   0  0  0  0  0  0  0  0  0  0  0  0
  147.5999  137.1302  161.5258 N   0  0  0  0  0  0  0  0  0  0  0  0
  150.0535  139.1463  157.5945 C   0  0  0  0  0  0  0  0  0  0  0  0
  151.1685  141.9808  156.1759 H   0  0  0  0  0  0  0  0  0  0  0  0
  151.9311  141.0715  157.4850 H   0  0  0  0  0  0  0  0  0  0  0  0
  150.3344  141.7911  157.7155 H   0  0  0  0  0  0  0  0  0  0  0  0
  151.3622  140.0711  154.6708 H   0  0  0  0  0  0  0  0  0  0  0  0
  152.1517  139.1576  155.9376 H   0  0  0  0  0  0  0  0  0  0  0  0
  149.5908  138.3390  154.4608 H   0  0  0  0  0  0  0  0  0  0  0  0
  151.1712  137.5946  154.3012 H   0  0  0  0  0  0  0  0  0  0  0  0
  148.4242  138.0911  156.6233 H   0  0  0  0  0  0  0  0  0  0  0  0
  147.9302  138.1775  159.0866 H   0  0  0  0  0  0  0  0  0  0  0  0
  148.0145  134.6782  159.2305 H   0  0  0  0  0  0  0  0  0  0  0  0
  146.7654  134.4034  163.3581 H   0  0  0  0  0  0  0  0  0  0  0  0
  147.0012  136.8888  163.4910 H   0  0  0  0  0  0  0  0  0  0  0  0
  150.9725  138.8978  158.1286 H   0  0  0  0  0  0  0  0  0  0  0  0
  149.3974  139.6372  158.3147 H   0  0  0  0  0  0  0  0  0  0  0  0
  1  2  1  0  0  0  0
  1 21  1  0  0  0  0
  1 22  1  0  0  0  0
  1 23  1  0  0  0  0
  2 20  1  0  0  0  0
  2  3  1  0  0  0  0
  3  4  1  0  0  0  0
  3 24  1  0  0  0  0
  3 25  1  0  0  0  0
  4  5  1  0  0  0  0
  4 26  1  0  0  0  0
  4 27  1  0  0  0  0
  5  6  1  0  0  0  0
  6  7  1  0  0  0  0
  6 20  1  0  0  0  0
  6 28  1  0  0  0  0
  7  8  2  0  0  0  0
  7  9  1  0  0  0  0
  9 10  1  0  0  0  0
  9 29  1  0  0  0  0
 10 19  1  0  0  0  0
 10 11  2  0  0  0  0
 11 12  1  0  0  0  0
 11 30  1  0  0  0  0
 12 13  1  0  0  0  0
 12 17  2  0  0  0  0
 13 14  1  0  0  0  0
 13 15  1  0  0  0  0
 13 16  1  0  0  0  0
 17 18  1  0  0  0  0
 17 31  1  0  0  0  0
 18 19  2  0  0  0  0
 18 32  1  0  0  0  0
 20 33  1  0  0  0  0
 20 34  1  0  0  0  0
M  END
> <s_m_source_file>
AV-unprocessed.smi

> <i_m_source_file_index>
2591

> <i_lp_mmshare_version>
43012

> <i_f3d_flags>
0

> <s_epik_input>
W0NIM11OMVtDSDJdW0NIMl1PW0NASF0oW0NIMl0xKUMoPU8pW05IXWMyW2NIXWMoQyhGKShGKUYpW2NIXVtjSF1uMg==

> <s_epik_cmdline>
J2VwaWtfcHl0aG9uJywgJy1waCcsICc3LjAnLCAnLXRuJywgJzgnLCAnLW1hJywgJzIwMCcsICctbWV0YWxfYmluZGluZycsICctaW1hZScsICc8aW5maWxlLm1hZT4nLCAnLW9tYWUnLCAnPG91dGZpbGUubWFlPic=

> <r_epik_Ionization_Penalty>
0.526245

> <r_epik_Ionization_Penalty_Charging>
0

> <r_epik_Ionization_Penalty_Neutral>
0.526245

> <r_epik_State_Penalty>
0.534659

> <r_epik_Charging_Adjusted_Penalty>
0.534659

> <i_epik_Tot_Q>
0

> <i_epik_Tot_abs_Q>
0

> <r_epik_Metal_State_Penalty>
0.534657

> <b_epik_Metal_Only>
0

> <s_lp_Force_Field>
OPLS_2005

> <r_lp_Energy>
21.9247

> <b_lp_Chiralities_Consistent>
1

> <s_lp_Variant>
AV-unprocessed.smi:2591-5

> <Gold.Version>
5.8.1

> <Gold.Id.Protein>
6NUR|6NUR_protein|mol2

> <Gold.PLP.Fitness>
41.8392

> <Gold.PLP.PLP>
-34.2272

> <Gold.PLP.part.hbond>
-3.0000

> <Gold.PLP.part.metal>
0.0000

> <Gold.PLP.part.buried>
-4.5717

> <Gold.PLP.part.nonpolar>
-26.6336

> <Gold.PLP.part.repulsive>
0.2188

> <Gold.PLP.ligand.clash>
0.9838

> <Gold.PLP.ligand.torsion>
0.3251

> <Gold.PLP.Chemscore.Hbond>
2.7200

> <Gold.PLP.Chemscore.CHOScore>
0.0000

> <Gold.PLP.Chemscore.Metal>
0.0000

> <Gold.Chemscore.Hbonds>
donor molecule, donor type, donor heavy atom, donor atom, acceptor molecule, acceptor atom, score
      P1  H  6896  6909       L1     8  0.94
      P1  H  6931  6943       L1    19  1.00
      P1  H  6934  6947       L1    19  0.82

> <Gold.PLP.Chemscore.Internal.Correction>
1.0861

> <Gold.Rescore>
     Score         DG    S(hbond)    S(metal)    S(lipo)     H(rot)  DE(clash)    DE(int)     intcor
     15.33     -17.14       2.10        0.00      61.49       1.00       0.16       1.66       ----

> <Gold.Chemscore.Fitness>
15.3266

> <Gold.Chemscore.DG>
-17.1400

> <Gold.Chemscore.ZeroCoef>
-5.4800

> <Gold.Chemscore.Hbond>
2.1036

> <Gold.Chemscore.Metal>
0.0000

> <Gold.Chemscore.Lipo>
61.4862

> <Gold.Chemscore.Internal_Hbond>
0.0000

> <Gold.Chemscore.DEClash>
0.1578

> <Gold.Chemscore.DEInternal>
1.6556

> <Gold.Chemscore.Rot>
1.0000

> <Gold.Chemscore.Internal.Correction>
   9.000000E+99

> <Gold.Chemscore.Hbonds>
donor molecule, donor type, donor heavy atom, donor atom, acceptor molecule, acceptor atom, score
      P1  H  6896  6909       L1     8  0.88
      P1  H  6931  6943       L1    19  0.50
      P1  H  6934  6947       L1    19  0.27

> <Gold.Chemscore.Hbond.Weighted>
-7.0261

> <Gold.Chemscore.Metal.Weighted>
-0.0000

> <Gold.Chemscore.Lipo.Weighted>
-7.1939

> <Gold.Chemscore.Internal_Hbond.Weighted>
0.0000

> <Gold.Chemscore.DEClash.Weighted>
0.1578

> <Gold.Chemscore.DEInternal.Weighted>
1.6556

> <Gold.Chemscore.Rot.Weighted>
2.5600

> <Gold.Chemscore.Internal.Correction.Weighted>
   9.000000E+99

> <Gold.Protein.RotatedTorsions>
[ 6907 6896 6895 6894 ] final   50.86 input  -60.11 | X-H torsion
[ 7974 7965 7964 7962 ] final  -67.72 input  175.53 | X-H torsion
[ 8008 7997 7996 7995 ] final -177.15 input   59.86 | X-H torsion
[ 10167 10162 10161 10158 ] final  111.86 input  -65.29 | X-H torsion
[ 10718 10713 10712 10709 ] final   13.82 input   66.30 | X-H torsion
[ 10763 10752 10751 10750 ] final  -21.35 input  -60.55 | X-H torsion
[ 11005 11000 10999 10996 ] final -104.92 input  -57.11 | X-H torsion

> <Gold.Protein.ActiveResidues>
 VAL166  LYS551  ARG553  GLY616  TRP617  ASP618  TYR619  PRO620  LYS621  CYS622 
 ASP623  PHE694  ASN695  SER759  ASP760  ASP761  ALA762  ILE779  LEU786  VAL792 
 PHE793  MET794  SER795  GLU796  ALA797  LYS798  CYS799  TRP800  GLU811  SER814 

> <Gold.Protein.RotatedAtoms>
  152.3064  134.7550  160.0346 H   0  0  0  0  0  0  0  0  0  0  0  0  # atno 6907 bound_to 6896
  151.8046  133.3369  159.3545 H   0  0  0  0  0  0  0  0  0  0  0  0  # atno 6908 bound_to 6896
  150.7298  134.5652  159.5906 H   0  0  0  0  0  0  0  0  0  0  0  0  # atno 6909 bound_to 6896
  145.7255  140.9020  143.0607 H   0  0  0  0  0  0  0  0  0  0  0  0  # atno 7974 bound_to 7965
  156.0035  140.1225  157.0524 H   0  0  0  0  0  0  0  0  0  0  0  0  # atno 8008 bound_to 7997
  154.4250  140.1102  156.5799 H   0  0  0  0  0  0  0  0  0  0  0  0  # atno 8009 bound_to 7997
  155.6179  140.3472  155.4645 H   0  0  0  0  0  0  0  0  0  0  0  0  # atno 8010 bound_to 7997
  139.6579  144.7129  151.1921 H   0  0  0  0  0  0  0  0  0  0  0  0  # atno 10167 bound_to 10162
  157.0302  130.6190  149.5734 H   0  0  0  0  0  0  0  0  0  0  0  0  # atno 10718 bound_to 10713
  153.6348  135.6987  153.5262 H   0  0  0  0  0  0  0  0  0  0  0  0  # atno 10763 bound_to 10752
  153.2830  135.4180  155.1096 H   0  0  0  0  0  0  0  0  0  0  0  0  # atno 10764 bound_to 10752
  154.8513  135.3606  154.5891 H   0  0  0  0  0  0  0  0  0  0  0  0  # atno 10765 bound_to 10752
  141.1078  133.8764  157.1671 H   0  0  0  0  0  0  0  0  0  0  0  0  # atno 11005 bound_to 11000
  144.6906  139.9260  143.7470 LP  0  0  0  0  0  0  0  0  0  0  0  0  # atno 17320 bound_to 7965
  146.0586  139.3581  143.0595 LP  0  0  0  0  0  0  0  0  0  0  0  0  # atno 17321 bound_to 7965
  140.7567  143.6042  150.8670 LP  0  0  0  0  0  0  0  0  0  0  0  0  # atno 17342 bound_to 10162
  139.9696  143.6071  152.2977 LP  0  0  0  0  0  0  0  0  0  0  0  0  # atno 17343 bound_to 10162
  156.0072  130.5160  150.7870 LP  0  0  0  0  0  0  0  0  0  0  0  0  # atno 17370 bound_to 10713
  157.5183  131.0930  151.0110 LP  0  0  0  0  0  0  0  0  0  0  0  0  # atno 17371 bound_to 10713
  139.9956  135.0048  157.0075 LP  0  0  0  0  0  0  0  0  0  0  0  0  # atno 17394 bound_to 11000
  140.4857  134.1244  155.7224 LP  0  0  0  0  0  0  0  0  0  0  0  0  # atno 17395 bound_to 11000

$$$$
