AV-unprocessed.smi:1635|AV-procd|sdf|6541|dock1
  -GOLD-   22720 7223D 1   1.00000     0.00000
 Structure written by MMmdl.
 37 38  0  0  0  0  0  0  0  0  1 V2000
  150.9026  145.0031  159.2964 C   0  0  0  0  0  0  0  0  0  0  0  0
  151.6860  143.7626  159.6943 C   0  0  0  0  0  0  0  0  0  0  0  0
  152.4870  143.7949  160.8557 C   0  0  0  0  0  0  0  0  0  0  0  0
  153.2097  142.6470  161.2227 C   0  0  0  0  0  0  0  0  0  0  0  0
  153.1002  141.5078  160.4070 C   0  0  0  0  0  0  0  0  0  0  0  0
  152.3369  141.4678  159.2960 N   0  0  0  0  0  0  0  0  0  0  0  0
  151.6322  142.5672  158.9279 C   0  0  0  0  0  0  0  0  0  0  0  0
  150.8086  142.5986  157.7673 N   0  0  0  0  0  0  0  0  0  0  0  0
  150.2094  141.5727  157.1374 C   0  0  0  0  0  0  0  0  0  0  0  0
  150.2684  140.3912  157.4798 O   0  0  0  0  0  0  0  0  0  0  0  0
  149.5179  142.0002  156.0707 N   0  0  0  0  0  0  0  0  0  0  0  0
  148.7524  141.1559  155.1518 C   0  0  1  0  0  0  0  0  0  0  0  0
  147.9913  142.0354  154.1346 C   0  0  0  0  0  0  0  0  0  0  0  0
  146.7750  141.3448  153.4974 C   0  0  0  0  0  0  0  0  0  0  0  0
  147.1065  140.1060  152.6522 C   0  0  0  0  0  0  0  0  0  0  0  0
  147.6857  138.9384  153.4693 C   0  0  0  0  0  0  0  0  0  0  0  0
  149.1005  139.1145  153.7729 N   0  0  0  0  0  0  0  0  0  0  0  0
  149.6579  140.0866  154.5113 C   0  0  0  0  0  0  0  0  0  0  0  0
  150.8779  140.1278  154.6695 O   0  0  0  0  0  0  0  0  0  0  0  0
  151.0553  145.8147  160.0084 H   0  0  0  0  0  0  0  0  0  0  0  0
  149.8347  144.7850  159.2611 H   0  0  0  0  0  0  0  0  0  0  0  0
  151.2178  145.3551  158.3137 H   0  0  0  0  0  0  0  0  0  0  0  0
  152.5490  144.6877  161.4606 H   0  0  0  0  0  0  0  0  0  0  0  0
  153.8318  142.6396  162.1054 H   0  0  0  0  0  0  0  0  0  0  0  0
  153.6395  140.6046  160.6516 H   0  0  0  0  0  0  0  0  0  0  0  0
  150.6554  143.5145  157.3724 H   0  0  0  0  0  0  0  0  0  0  0  0
  149.5299  142.9880  155.8620 H   0  0  0  0  0  0  0  0  0  0  0  0
  148.0211  140.6129  155.7539 H   0  0  0  0  0  0  0  0  0  0  0  0
  147.6269  142.9355  154.6317 H   0  0  0  0  0  0  0  0  0  0  0  0
  148.6728  142.3847  153.3577 H   0  0  0  0  0  0  0  0  0  0  0  0
  146.0610  141.0746  154.2765 H   0  0  0  0  0  0  0  0  0  0  0  0
  146.2613  142.0682  152.8635 H   0  0  0  0  0  0  0  0  0  0  0  0
  146.1848  139.7670  152.1780 H   0  0  0  0  0  0  0  0  0  0  0  0
  147.7811  140.3709  151.8368 H   0  0  0  0  0  0  0  0  0  0  0  0
  147.1165  138.7763  154.3857 H   0  0  0  0  0  0  0  0  0  0  0  0
  147.5975  138.0197  152.8888 H   0  0  0  0  0  0  0  0  0  0  0  0
  149.7269  138.4315  153.3722 H   0  0  0  0  0  0  0  0  0  0  0  0
  1  2  1  0  0  0  0
  1 20  1  0  0  0  0
  1 21  1  0  0  0  0
  1 22  1  0  0  0  0
  2  7  1  0  0  0  0
  2  3  2  0  0  0  0
  3  4  1  0  0  0  0
  3 23  1  0  0  0  0
  4  5  2  0  0  0  0
  4 24  1  0  0  0  0
  5  6  1  0  0  0  0
  5 25  1  0  0  0  0
  6  7  2  0  0  0  0
  7  8  1  0  0  0  0
  8  9  1  0  0  0  0
  8 26  1  0  0  0  0
  9 10  2  0  0  0  0
  9 11  1  0  0  0  0
 11 12  1  0  0  0  0
 11 27  1  0  0  0  0
 12 18  1  0  0  0  0
 12 13  1  0  0  0  0
 12 28  1  0  0  0  0
 13 14  1  0  0  0  0
 13 29  1  0  0  0  0
 13 30  1  0  0  0  0
 14 15  1  0  0  0  0
 14 31  1  0  0  0  0
 14 32  1  0  0  0  0
 15 16  1  0  0  0  0
 15 33  1  0  0  0  0
 15 34  1  0  0  0  0
 16 17  1  0  0  0  0
 16 35  1  0  0  0  0
 16 36  1  0  0  0  0
 17 18  1  0  0  0  0
 17 37  1  0  0  0  0
 18 19  2  0  0  0  0
M  END
> <s_m_source_file>
AV-unprocessed.smi

> <i_m_source_file_index>
1635

> <i_lp_mmshare_version>
43012

> <i_f3d_flags>
0

> <s_epik_input>
W0NIM11jMVtjSF1bY0hdW2NIXW5jMVtOSF1DKD1PKVtOSF1bQ0BASF0yW0NIMl1bQ0gyXVtDSDJdW0NIMl1bTkhdQzI9Tw==

> <s_epik_cmdline>
J2VwaWtfcHl0aG9uJywgJy1waCcsICc3LjAnLCAnLXRuJywgJzgnLCAnLW1hJywgJzIwMCcsICctbWV0YWxfYmluZGluZycsICctaW1hZScsICc8aW5maWxlLm1hZT4nLCAnLW9tYWUnLCAnPG91dGZpbGUubWFlPic=

> <r_lp_tautomer_probability>
1

> <r_epik_Ionization_Penalty>
5.14862e-05

> <r_epik_Ionization_Penalty_Charging>
0

> <r_epik_Ionization_Penalty_Neutral>
5.14862e-05

> <r_epik_State_Penalty>
-0

> <r_epik_Charging_Adjusted_Penalty>
0

> <i_epik_Tot_Q>
0

> <i_epik_Tot_abs_Q>
0

> <r_epik_Metal_State_Penalty>
-0

> <b_epik_Metal_Only>
0

> <s_lp_Force_Field>
OPLS_2005

> <r_lp_Energy>
13.1322

> <b_lp_Chiralities_Consistent>
1

> <s_lp_Variant>
AV-unprocessed.smi:1635-2

> <Gold.Version>
5.8.1

> <Gold.Id.Protein>
6NUR|6NUR_protein|mol2

> <Gold.PLP.Fitness>
46.0172

> <Gold.PLP.PLP>
-40.2954

> <Gold.PLP.part.hbond>
-3.0000

> <Gold.PLP.part.metal>
0.0000

> <Gold.PLP.part.buried>
-3.2107

> <Gold.PLP.part.nonpolar>
-33.0196

> <Gold.PLP.part.repulsive>
0.2770

> <Gold.PLP.ligand.clash>
0.0000

> <Gold.PLP.ligand.torsion>
0.1526

> <Gold.PLP.Chemscore.Hbond>
2.0000

> <Gold.PLP.Chemscore.CHOScore>
0.0000

> <Gold.PLP.Chemscore.Metal>
0.0000

> <Gold.Chemscore.Hbonds>
donor molecule, donor type, donor heavy atom, donor atom, acceptor molecule, acceptor atom, score
      L1  H    11    27       P1  8028  1.00
      P1  H  7989  7998       L1    19  1.00

> <Gold.PLP.Chemscore.Internal.Correction>
0.0271

> <Gold.Rescore>
     Score         DG    S(hbond)    S(metal)    S(lipo)     H(rot)  DE(clash)    DE(int)     intcor
     16.84     -19.94       1.95        0.00      89.73       1.00       0.10       3.00       ----

> <Gold.Chemscore.Fitness>
16.8430

> <Gold.Chemscore.DG>
-19.9380

> <Gold.Chemscore.ZeroCoef>
-5.4800

> <Gold.Chemscore.Hbond>
1.9521

> <Gold.Chemscore.Metal>
0.0000

> <Gold.Chemscore.Lipo>
89.7261

> <Gold.Chemscore.Internal_Hbond>
0.0000

> <Gold.Chemscore.DEClash>
0.0993

> <Gold.Chemscore.DEInternal>
2.9957

> <Gold.Chemscore.Rot>
1.0000

> <Gold.Chemscore.Internal.Correction>
   9.000000E+99

> <Gold.Chemscore.Hbonds>
donor molecule, donor type, donor heavy atom, donor atom, acceptor molecule, acceptor atom, score
      L1  H    11    27       P1  8028  0.99
      P1  H  7989  7998       L1    19  0.83

> <Gold.Chemscore.Hbond.Weighted>
-6.5200

> <Gold.Chemscore.Metal.Weighted>
-0.0000

> <Gold.Chemscore.Lipo.Weighted>
-10.4980

> <Gold.Chemscore.Internal_Hbond.Weighted>
0.0000

> <Gold.Chemscore.DEClash.Weighted>
0.0993

> <Gold.Chemscore.DEInternal.Weighted>
2.9957

> <Gold.Chemscore.Rot.Weighted>
2.5600

> <Gold.Chemscore.Internal.Correction.Weighted>
   9.000000E+99

> <Gold.Protein.RotatedTorsions>
[ 6907 6896 6895 6894 ] final  -51.04 input  -60.11 | X-H torsion
[ 7974 7965 7964 7962 ] final -108.05 input  175.53 | X-H torsion
[ 8008 7997 7996 7995 ] final  -55.57 input   59.86 | X-H torsion
[ 10167 10162 10161 10158 ] final -170.44 input  -65.29 | X-H torsion
[ 10718 10713 10712 10709 ] final  163.53 input   66.30 | X-H torsion
[ 10763 10752 10751 10750 ] final   65.43 input  -60.55 | X-H torsion
[ 11005 11000 10999 10996 ] final  171.20 input  -57.11 | X-H torsion

> <Gold.Protein.ActiveResidues>
 VAL166  LYS551  ARG553  GLY616  TRP617  ASP618  TYR619  PRO620  LYS621  CYS622 
 ASP623  PHE694  ASN695  SER759  ASP760  ASP761  ALA762  ILE779  LEU786  VAL792 
 PHE793  MET794  SER795  GLU796  ALA797  LYS798  CYS799  TRP800  GLU811  SER814 

> <Gold.Protein.RotatedAtoms>
  150.8649  134.8010  159.7110 H   0  0  0  0  0  0  0  0  0  0  0  0  # atno 6907 bound_to 6896
  152.4674  134.5040  159.9743 H   0  0  0  0  0  0  0  0  0  0  0  0  # atno 6908 bound_to 6896
  151.5137  133.3441  159.2925 H   0  0  0  0  0  0  0  0  0  0  0  0  # atno 6909 bound_to 6896
  145.1977  140.9043  143.3387 H   0  0  0  0  0  0  0  0  0  0  0  0  # atno 7974 bound_to 7965
  154.4199  140.1150  156.5498 H   0  0  0  0  0  0  0  0  0  0  0  0  # atno 8008 bound_to 7997
  155.6421  140.3496  155.4699 H   0  0  0  0  0  0  0  0  0  0  0  0  # atno 8009 bound_to 7997
  155.9862  140.1170  157.0671 H   0  0  0  0  0  0  0  0  0  0  0  0  # atno 8010 bound_to 7997
  139.5862  144.1314  152.1578 H   0  0  0  0  0  0  0  0  0  0  0  0  # atno 10167 bound_to 10162
  157.1072  131.0458  151.2473 H   0  0  0  0  0  0  0  0  0  0  0  0  # atno 10718 bound_to 10713
  153.0096  135.5357  154.6665 H   0  0  0  0  0  0  0  0  0  0  0  0  # atno 10763 bound_to 10752
  154.5861  135.2854  155.0686 H   0  0  0  0  0  0  0  0  0  0  0  0  # atno 10764 bound_to 10752
  154.1796  135.6518  153.5083 H   0  0  0  0  0  0  0  0  0  0  0  0  # atno 10765 bound_to 10752
  140.3165  134.7473  157.4031 H   0  0  0  0  0  0  0  0  0  0  0  0  # atno 11005 bound_to 11000
  144.9978  139.3627  143.6182 LP  0  0  0  0  0  0  0  0  0  0  0  0  # atno 17320 bound_to 7965
  146.3424  139.9189  142.8769 LP  0  0  0  0  0  0  0  0  0  0  0  0  # atno 17321 bound_to 7965
  140.0878  144.5646  150.7076 LP  0  0  0  0  0  0  0  0  0  0  0  0  # atno 17342 bound_to 10162
  140.7133  143.2523  151.4513 LP  0  0  0  0  0  0  0  0  0  0  0  0  # atno 17343 bound_to 10162
  157.4590  130.7642  149.7219 LP  0  0  0  0  0  0  0  0  0  0  0  0  # atno 17370 bound_to 10713
  155.9859  130.3979  150.3238 LP  0  0  0  0  0  0  0  0  0  0  0  0  # atno 17371 bound_to 10713
  140.0979  134.5512  155.8381 LP  0  0  0  0  0  0  0  0  0  0  0  0  # atno 17394 bound_to 11000
  141.2096  133.6686  156.6453 LP  0  0  0  0  0  0  0  0  0  0  0  0  # atno 17395 bound_to 11000

$$$$
