AV-unprocessed.smi:2928|AV-procd|sdf|11232|dock1
  -GOLD-   2272016123D 1   1.00000     0.00000
 Structure written by MMmdl.
 55 58  0  0  0  0  0  0  0  0  2 V2000
  145.5933  142.4557  154.8210 C   0  0  0  0  0  0  0  0  0  0  0  0
  145.8518  141.0767  154.3421 N   0  3  2  0  0  0  0  0  0  0  0  0
  145.7915  140.0303  155.3916 C   0  0  1  0  0  0  0  0  0  0  0  0
  145.6392  138.6493  154.7124 C   0  0  0  0  0  0  0  0  0  0  0  0
  146.7162  138.3578  153.6478 C   0  0  0  0  0  0  0  0  0  0  0  0
  147.0090  139.5826  152.7570 C   0  0  0  0  0  0  0  0  0  0  0  0
  147.0852  140.9183  153.5338 C   0  0  2  0  0  0  0  0  0  0  0  0
  148.3535  141.0910  154.4054 C   0  0  0  0  0  0  0  0  0  0  0  0
  148.3745  140.2333  155.6913 C   0  0  1  0  0  0  0  0  0  0  0  0
  149.3359  140.8090  156.6295 N   0  0  0  0  0  0  0  0  0  0  0  0
  150.4505  140.2162  157.0812 C   0  0  0  0  0  0  0  0  0  0  0  0
  150.8035  139.0827  156.7563 O   0  0  0  0  0  0  0  0  0  0  0  0
  151.1031  141.0150  157.9412 N   0  0  0  0  0  0  0  0  0  0  0  0
  152.3288  140.7693  158.6218 C   0  0  0  0  0  0  0  0  0  0  0  0
  153.0547  139.5613  158.4835 C   0  0  0  0  0  0  0  0  0  0  0  0
  154.2728  139.4113  159.1713 C   0  0  0  0  0  0  0  0  0  0  0  0
  154.7275  140.4785  159.9663 C   0  0  0  0  0  0  0  0  0  0  0  0
  154.0561  141.6409  160.0964 N   0  0  0  0  0  0  0  0  0  0  0  0
  152.8816  141.7905  159.4365 C   0  0  0  0  0  0  0  0  0  0  0  0
  152.1975  143.0101  159.5880 N   0  0  0  0  0  0  0  0  0  0  0  0
  152.2940  143.6214  160.9030 C   0  0  0  0  0  0  0  0  0  0  0  0
  151.8138  145.0629  160.7171 C   0  0  0  0  0  0  0  0  0  0  0  0
  151.9887  145.3471  159.2201 C   0  0  0  0  0  0  0  0  0  0  0  0
  152.5506  144.0487  158.6348 C   0  0  0  0  0  0  0  0  0  0  0  0
  146.9873  140.1442  156.3705 C   0  0  0  0  0  0  0  0  0  0  0  0
  146.3527  142.8005  155.5222 H   0  0  0  0  0  0  0  0  0  0  0  0
  144.6253  142.5091  155.3198 H   0  0  0  0  0  0  0  0  0  0  0  0
  145.5694  143.1509  153.9814 H   0  0  0  0  0  0  0  0  0  0  0  0
  144.8810  140.1916  155.9707 H   0  0  0  0  0  0  0  0  0  0  0  0
  145.6271  137.8553  155.4600 H   0  0  0  0  0  0  0  0  0  0  0  0
  144.6630  138.6148  154.2267 H   0  0  0  0  0  0  0  0  0  0  0  0
  147.6289  138.0039  154.1196 H   0  0  0  0  0  0  0  0  0  0  0  0
  146.3924  137.5244  153.0233 H   0  0  0  0  0  0  0  0  0  0  0  0
  147.9242  139.4199  152.1867 H   0  0  0  0  0  0  0  0  0  0  0  0
  146.2101  139.6642  152.0188 H   0  0  0  0  0  0  0  0  0  0  0  0
  147.0966  141.7111  152.7843 H   0  0  0  0  0  0  0  0  0  0  0  0
  149.2452  140.8853  153.8119 H   0  0  0  0  0  0  0  0  0  0  0  0
  148.4310  142.1435  154.6809 H   0  0  0  0  0  0  0  0  0  0  0  0
  148.7012  139.2310  155.4257 H   0  0  0  0  0  0  0  0  0  0  0  0
  149.1361  141.7401  156.9647 H   0  0  0  0  0  0  0  0  0  0  0  0
  150.6365  141.8733  158.1958 H   0  0  0  0  0  0  0  0  0  0  0  0
  152.7091  138.7568  157.8527 H   0  0  0  0  0  0  0  0  0  0  0  0
  154.8475  138.5010  159.0864 H   0  0  0  0  0  0  0  0  0  0  0  0
  155.6586  140.3997  160.5077 H   0  0  0  0  0  0  0  0  0  0  0  0
  151.6852  143.0849  161.6313 H   0  0  0  0  0  0  0  0  0  0  0  0
  153.3264  143.6138  161.2559 H   0  0  0  0  0  0  0  0  0  0  0  0
  150.7616  145.1505  160.9911 H   0  0  0  0  0  0  0  0  0  0  0  0
  152.3782  145.7569  161.3406 H   0  0  0  0  0  0  0  0  0  0  0  0
  151.0223  145.5795  158.7711 H   0  0  0  0  0  0  0  0  0  0  0  0
  152.6538  146.1908  159.0333 H   0  0  0  0  0  0  0  0  0  0  0  0
  153.6340  144.1219  158.5309 H   0  0  0  0  0  0  0  0  0  0  0  0
  152.1313  143.8369  157.6509 H   0  0  0  0  0  0  0  0  0  0  0  0
  146.8356  141.0349  156.9817 H   0  0  0  0  0  0  0  0  0  0  0  0
  146.9745  139.3107  157.0740 H   0  0  0  0  0  0  0  0  0  0  0  0
  145.0873  140.8759  153.7133 H   0  0  0  0  0  0  0  0  0  0  0  0
  1  2  1  0  0  0  0
  1 26  1  0  0  0  0
  1 27  1  0  0  0  0
  1 28  1  0  0  0  0
  2  7  1  0  0  0  0
  2  3  1  0  0  0  0
  2 55  1  0  0  0  0
  3 25  1  0  0  0  0
  3  4  1  0  0  0  0
  3 29  1  0  0  0  0
  4  5  1  0  0  0  0
  4 30  1  0  0  0  0
  4 31  1  0  0  0  0
  5  6  1  0  0  0  0
  5 32  1  0  0  0  0
  5 33  1  0  0  0  0
  6  7  1  0  0  0  0
  6 34  1  0  0  0  0
  6 35  1  0  0  0  0
  7  8  1  0  0  0  0
  7 36  1  0  0  0  0
  8  9  1  0  0  0  0
  8 37  1  0  0  0  0
  8 38  1  0  0  0  0
  9 10  1  0  0  0  0
  9 25  1  0  0  0  0
  9 39  1  0  0  0  0
 10 11  1  0  0  0  0
 10 40  1  0  0  0  0
 11 12  2  0  0  0  0
 11 13  1  0  0  0  0
 13 14  1  0  0  0  0
 13 41  1  0  0  0  0
 14 19  1  0  0  0  0
 14 15  2  0  0  0  0
 15 16  1  0  0  0  0
 15 42  1  0  0  0  0
 16 17  2  0  0  0  0
 16 43  1  0  0  0  0
 17 18  1  0  0  0  0
 17 44  1  0  0  0  0
 18 19  2  0  0  0  0
 19 20  1  0  0  0  0
 20 24  1  0  0  0  0
 20 21  1  0  0  0  0
 21 22  1  0  0  0  0
 21 45  1  0  0  0  0
 21 46  1  0  0  0  0
 22 23  1  0  0  0  0
 22 47  1  0  0  0  0
 22 48  1  0  0  0  0
 23 24  1  0  0  0  0
 23 49  1  0  0  0  0
 23 50  1  0  0  0  0
 24 51  1  0  0  0  0
 24 52  1  0  0  0  0
 25 53  1  0  0  0  0
 25 54  1  0  0  0  0
M  CHG  1   2   1
M  END
> <s_m_source_file>
AV-unprocessed.smi

> <i_m_source_file_index>
2928

> <i_lp_mmshare_version>
43012

> <i_f3d_flags>
0

> <s_epik_input>
W0NIMl0xW0NIMl1bQ0gyXVtDQEhdKE4oW0NIM10pW0NIXTEyKVtDSDJdW0NASF0oW0NIMl0yKVtOSF1DKD1PKVtOSF1jM1tjSF1bY0hdW2NIXW5jM040W0NIMl1bQ0gyXVtDSDJdW0NIMl00

> <s_epik_cmdline>
J2VwaWtfcHl0aG9uJywgJy1waCcsICc3LjAnLCAnLXRuJywgJzgnLCAnLW1hJywgJzIwMCcsICctbWV0YWxfYmluZGluZycsICctaW1hZScsICc8aW5maWxlLm1hZT4nLCAnLW9tYWUnLCAnPG91dGZpbGUubWFlPic=

> <r_lp_tautomer_probability>
1

> <r_epik_Ionization_Penalty>
0.07954

> <r_epik_Ionization_Penalty_Charging>
0.00089841

> <r_epik_Ionization_Penalty_Neutral>
0.0786416

> <r_epik_State_Penalty>
0.0689917

> <r_epik_Charging_Adjusted_Penalty>
0.0698901

> <i_epik_Tot_Q>
1

> <i_epik_Tot_abs_Q>
1

> <r_epik_Metal_State_Penalty>
0.0608947

> <b_epik_Metal_Only>
0

> <s_lp_Force_Field>
OPLS_2005

> <r_lp_Energy>
65.7965

> <b_lp_Chiralities_Consistent>
1

> <s_lp_Variant>
AV-unprocessed.smi:2928-2

> <Gold.Version>
5.8.1

> <Gold.Id.Protein>
6NUR|6NUR_protein|mol2

> <Gold.PLP.Fitness>
48.9488

> <Gold.PLP.PLP>
-44.3648

> <Gold.PLP.part.hbond>
-1.0000

> <Gold.PLP.part.metal>
0.0000

> <Gold.PLP.part.buried>
-6.9768

> <Gold.PLP.part.nonpolar>
-37.1734

> <Gold.PLP.part.repulsive>
0.1166

> <Gold.PLP.ligand.clash>
0.0000

> <Gold.PLP.ligand.torsion>
0.7230

> <Gold.PLP.Chemscore.Hbond>
2.0000

> <Gold.PLP.Chemscore.CHOScore>
0.0000

> <Gold.PLP.Chemscore.Metal>
0.0000

> <Gold.Chemscore.Hbonds>
donor molecule, donor type, donor heavy atom, donor atom, acceptor molecule, acceptor atom, score
      L1  H     2    55       P1 10175  2.00

> <Gold.PLP.Chemscore.Internal.Correction>
0.0301

> <Gold.Rescore>
     Score         DG    S(hbond)    S(metal)    S(lipo)     H(rot)  DE(clash)    DE(int)     intcor
     17.45     -19.27       1.00        0.00     115.20       1.18       0.02       1.80       ----

> <Gold.Chemscore.Fitness>
17.4454

> <Gold.Chemscore.DG>
-19.2666

> <Gold.Chemscore.ZeroCoef>
-5.4800

> <Gold.Chemscore.Hbond>
0.9951

> <Gold.Chemscore.Metal>
0.0000

> <Gold.Chemscore.Lipo>
115.1953

> <Gold.Chemscore.Internal_Hbond>
0.0000

> <Gold.Chemscore.DEClash>
0.0217

> <Gold.Chemscore.DEInternal>
1.7994

> <Gold.Chemscore.Rot>
1.1776

> <Gold.Chemscore.Internal.Correction>
   9.000000E+99

> <Gold.Chemscore.Hbonds>
donor molecule, donor type, donor heavy atom, donor atom, acceptor molecule, acceptor atom, score
      L1  H     2    55       P1 10175  0.88

> <Gold.Chemscore.Hbond.Weighted>
-3.3235

> <Gold.Chemscore.Metal.Weighted>
-0.0000

> <Gold.Chemscore.Lipo.Weighted>
-13.4778

> <Gold.Chemscore.Internal_Hbond.Weighted>
0.0000

> <Gold.Chemscore.DEClash.Weighted>
0.0217

> <Gold.Chemscore.DEInternal.Weighted>
1.7994

> <Gold.Chemscore.Rot.Weighted>
3.0147

> <Gold.Chemscore.Internal.Correction.Weighted>
   9.000000E+99

> <Gold.Protein.RotatedTorsions>
[ 6907 6896 6895 6894 ] final    2.19 input  -60.11 | X-H torsion
[ 7974 7965 7964 7962 ] final -112.85 input  175.53 | X-H torsion
[ 8008 7997 7996 7995 ] final -133.53 input   59.86 | X-H torsion
[ 10167 10162 10161 10158 ] final   -1.89 input  -65.29 | X-H torsion
[ 10718 10713 10712 10709 ] final  132.05 input   66.30 | X-H torsion
[ 10763 10752 10751 10750 ] final  -65.42 input  -60.55 | X-H torsion
[ 11005 11000 10999 10996 ] final   57.02 input  -57.11 | X-H torsion

> <Gold.Protein.ActiveResidues>
 VAL166  LYS551  ARG553  GLY616  TRP617  ASP618  TYR619  PRO620  LYS621  CYS622 
 ASP623  PHE694  ASN695  SER759  ASP760  ASP761  ALA762  ILE779  LEU786  VAL792 
 PHE793  MET794  SER795  GLU796  ALA797  LYS798  CYS799  TRP800  GLU811  SER814 

> <Gold.Protein.RotatedAtoms>
  151.6048  135.1044  160.0067 H   0  0  0  0  0  0  0  0  0  0  0  0  # atno 6907 bound_to 6896
  152.4239  133.7158  159.6516 H   0  0  0  0  0  0  0  0  0  0  0  0  # atno 6908 bound_to 6896
  150.8127  133.8320  159.3197 H   0  0  0  0  0  0  0  0  0  0  0  0  # atno 6909 bound_to 6896
  145.1390  140.8767  143.3713 H   0  0  0  0  0  0  0  0  0  0  0  0  # atno 7974 bound_to 7965
  155.3471  140.0475  157.3045 H   0  0  0  0  0  0  0  0  0  0  0  0  # atno 8008 bound_to 7997
  154.5247  140.2237  155.8877 H   0  0  0  0  0  0  0  0  0  0  0  0  # atno 8009 bound_to 7997
  156.1726  140.3092  155.9007 H   0  0  0  0  0  0  0  0  0  0  0  0  # atno 8010 bound_to 7997
  140.6829  143.6722  150.8175 H   0  0  0  0  0  0  0  0  0  0  0  0  # atno 10167 bound_to 10162
  157.4909  131.1090  150.9558 H   0  0  0  0  0  0  0  0  0  0  0  0  # atno 10718 bound_to 10713
  154.3447  135.6149  153.5613 H   0  0  0  0  0  0  0  0  0  0  0  0  # atno 10763 bound_to 10752
  152.9802  135.5778  154.4812 H   0  0  0  0  0  0  0  0  0  0  0  0  # atno 10764 bound_to 10752
  154.4522  135.2853  155.1750 H   0  0  0  0  0  0  0  0  0  0  0  0  # atno 10765 bound_to 10752
  140.0484  134.5772  155.9293 H   0  0  0  0  0  0  0  0  0  0  0  0  # atno 11005 bound_to 11000
  145.0552  139.3149  143.5908 LP  0  0  0  0  0  0  0  0  0  0  0  0  # atno 17320 bound_to 7965
  146.3507  139.9975  142.8679 LP  0  0  0  0  0  0  0  0  0  0  0  0  # atno 17321 bound_to 7965
  140.0425  143.5332  152.2711 LP  0  0  0  0  0  0  0  0  0  0  0  0  # atno 17342 bound_to 10162
  139.6164  144.7620  151.2837 LP  0  0  0  0  0  0  0  0  0  0  0  0  # atno 17343 bound_to 10162
  157.0260  130.5692  149.5337 LP  0  0  0  0  0  0  0  0  0  0  0  0  # atno 17370 bound_to 10713
  156.0173  130.5267  150.8172 LP  0  0  0  0  0  0  0  0  0  0  0  0  # atno 17371 bound_to 10713
  141.1918  133.6573  156.5475 LP  0  0  0  0  0  0  0  0  0  0  0  0  # atno 17394 bound_to 11000
  140.3956  134.7402  157.4748 LP  0  0  0  0  0  0  0  0  0  0  0  0  # atno 17395 bound_to 11000

$$$$
