AV-unprocessed.smi:1395|AV-procd|sdf|5670|dock2
  -GOLD-   22720 5293D 1   1.00000     0.00000
 Structure written by MMmdl.
 43 44  0  0  0  0  0  0  0  0  2 V2000
  150.6003  141.9291  158.1891 C   0  0  0  0  0  0  0  0  0  0  0  0
  151.9259  141.4945  158.7932 C   0  0  0  0  0  0  0  0  0  0  0  0
  152.5117  142.2802  159.8088 C   0  0  0  0  0  0  0  0  0  0  0  0
  153.7376  141.8786  160.3661 C   0  0  0  0  0  0  0  0  0  0  0  0
  154.3297  140.7001  159.8812 C   0  0  0  0  0  0  0  0  0  0  0  0
  153.7768  139.9430  158.9118 N   0  0  0  0  0  0  0  0  0  0  0  0
  152.5939  140.3167  158.3625 C   0  0  0  0  0  0  0  0  0  0  0  0
  151.9522  139.5647  157.3376 N   0  0  0  0  0  0  0  0  0  0  0  0
  151.1434  138.4976  157.4667 C   0  0  0  0  0  0  0  0  0  0  0  0
  150.8314  137.9628  158.5310 O   0  0  0  0  0  0  0  0  0  0  0  0
  150.7029  138.0727  156.2730 N   0  0  0  0  0  0  0  0  0  0  0  0
  149.8047  136.9398  156.0684 C   0  0  2  0  0  0  0  0  0  0  0  0
  150.5298  135.8267  155.2945 C   0  0  0  0  0  0  0  0  0  0  0  0
  149.5828  134.6539  154.9870 C   0  0  0  0  0  0  0  0  0  0  0  0
  148.3842  135.1142  154.2401 N   0  3  1  0  0  0  0  0  0  0  0  0
  147.5190  133.9891  153.8013 C   0  0  0  0  0  0  0  0  0  0  0  0
  148.2921  132.8950  153.0571 C   0  0  0  0  0  0  0  0  0  0  0  0
  147.9682  132.6926  151.7782 N   0  0  0  0  0  0  0  0  0  0  0  0
  149.1566  132.2314  153.6269 O   0  0  0  0  0  0  0  0  0  0  0  0
  147.6425  136.1615  154.9917 C   0  0  0  0  0  0  0  0  0  0  0  0
  148.5447  137.3684  155.2931 C   0  0  0  0  0  0  0  0  0  0  0  0
  150.2385  142.8504  158.6469 H   0  0  0  0  0  0  0  0  0  0  0  0
  149.8418  141.1603  158.3392 H   0  0  0  0  0  0  0  0  0  0  0  0
  150.7086  142.1069  157.1187 H   0  0  0  0  0  0  0  0  0  0  0  0
  152.0295  143.1810  160.1590 H   0  0  0  0  0  0  0  0  0  0  0  0
  154.2113  142.4582  161.1447 H   0  0  0  0  0  0  0  0  0  0  0  0
  155.2714  140.3551  160.2817 H   0  0  0  0  0  0  0  0  0  0  0  0
  152.1238  139.8860  156.3967 H   0  0  0  0  0  0  0  0  0  0  0  0
  151.0100  138.5678  155.4486 H   0  0  0  0  0  0  0  0  0  0  0  0
  149.5078  136.5421  157.0413 H   0  0  0  0  0  0  0  0  0  0  0  0
  150.9295  136.2228  154.3596 H   0  0  0  0  0  0  0  0  0  0  0  0
  151.3850  135.4678  155.8686 H   0  0  0  0  0  0  0  0  0  0  0  0
  150.1192  133.9078  154.3995 H   0  0  0  0  0  0  0  0  0  0  0  0
  149.2713  134.1663  155.9122 H   0  0  0  0  0  0  0  0  0  0  0  0
  147.0659  133.5122  154.6716 H   0  0  0  0  0  0  0  0  0  0  0  0
  146.6985  134.3644  153.1873 H   0  0  0  0  0  0  0  0  0  0  0  0
  148.4476  131.9879  151.2364 H   0  0  0  0  0  0  0  0  0  0  0  0
  147.2430  133.2518  151.3516 H   0  0  0  0  0  0  0  0  0  0  0  0
  146.7785  136.4972  154.4177 H   0  0  0  0  0  0  0  0  0  0  0  0
  147.2577  135.7407  155.9220 H   0  0  0  0  0  0  0  0  0  0  0  0
  147.9822  138.1091  155.8629 H   0  0  0  0  0  0  0  0  0  0  0  0
  148.8294  137.8507  154.3567 H   0  0  0  0  0  0  0  0  0  0  0  0
  148.7268  135.5476  153.3940 H   0  0  0  0  0  0  0  0  0  0  0  0
  1  2  1  0  0  0  0
  1 22  1  0  0  0  0
  1 23  1  0  0  0  0
  1 24  1  0  0  0  0
  2  7  1  0  0  0  0
  2  3  2  0  0  0  0
  3  4  1  0  0  0  0
  3 25  1  0  0  0  0
  4  5  2  0  0  0  0
  4 26  1  0  0  0  0
  5  6  1  0  0  0  0
  5 27  1  0  0  0  0
  6  7  2  0  0  0  0
  7  8  1  0  0  0  0
  8  9  1  0  0  0  0
  8 28  1  0  0  0  0
  9 10  2  0  0  0  0
  9 11  1  0  0  0  0
 11 12  1  0  0  0  0
 11 29  1  0  0  0  0
 12 21  1  0  0  0  0
 12 13  1  0  0  0  0
 12 30  1  0  0  0  0
 13 14  1  0  0  0  0
 13 31  1  0  0  0  0
 13 32  1  0  0  0  0
 14 15  1  0  0  0  0
 14 33  1  0  0  0  0
 14 34  1  0  0  0  0
 15 16  1  0  0  0  0
 15 20  1  0  0  0  0
 15 43  1  0  0  0  0
 16 17  1  0  0  0  0
 16 35  1  0  0  0  0
 16 36  1  0  0  0  0
 17 18  1  0  0  0  0
 17 19  2  0  0  0  0
 18 37  1  0  0  0  0
 18 38  1  0  0  0  0
 20 21  1  0  0  0  0
 20 39  1  0  0  0  0
 20 40  1  0  0  0  0
 21 41  1  0  0  0  0
 21 42  1  0  0  0  0
M  CHG  1  15   1
M  END
> <s_m_source_file>
AV-unprocessed.smi

> <i_m_source_file_index>
1395

> <i_lp_mmshare_version>
43012

> <i_f3d_flags>
0

> <s_epik_input>
W0NIM11jMVtjSF1bY0hdW2NIXW5jMVtOSF1DKD1PKVtOSF1bQ0hdMltDSDJdW0NIMl1OKFtDSDJdW0NIMl0yKVtDSDJdQyg9TylbTkgyXQ==

> <s_epik_cmdline>
J2VwaWtfcHl0aG9uJywgJy1waCcsICc3LjAnLCAnLXRuJywgJzgnLCAnLW1hJywgJzIwMCcsICctbWV0YWxfYmluZGluZycsICctaW1hZScsICc8aW5maWxlLm1hZT4nLCAnLW9tYWUnLCAnPG91dGZpbGUubWFlPic=

> <r_epik_Ionization_Penalty>
0.83893

> <r_epik_Ionization_Penalty_Charging>
0.838844

> <r_epik_Ionization_Penalty_Neutral>
8.62421e-05

> <r_epik_State_Penalty>
0.8734

> <r_epik_Charging_Adjusted_Penalty>
1.71224

> <i_epik_Tot_Q>
1

> <i_epik_Tot_abs_Q>
1

> <r_epik_Metal_State_Penalty>
0.890705

> <b_epik_Metal_Only>
0

> <s_lp_Force_Field>
OPLS_2005

> <r_lp_Energy>
13.5717

> <b_lp_Chiralities_Consistent>
1

> <s_lp_Variant>
AV-unprocessed.smi:1395-2

> <Gold.Version>
5.8.1

> <Gold.Id.Protein>
6NUR|6NUR_protein|mol2

> <Gold.PLP.Fitness>
40.5534

> <Gold.PLP.PLP>
-30.2393

> <Gold.PLP.part.hbond>
-3.0000

> <Gold.PLP.part.metal>
0.0000

> <Gold.PLP.part.buried>
-3.9622

> <Gold.PLP.part.nonpolar>
-22.6677

> <Gold.PLP.part.repulsive>
0.2669

> <Gold.PLP.ligand.clash>
0.0000

> <Gold.PLP.ligand.torsion>
0.7996

> <Gold.PLP.Chemscore.Hbond>
3.9600

> <Gold.PLP.Chemscore.CHOScore>
0.0000

> <Gold.PLP.Chemscore.Metal>
0.0000

> <Gold.Chemscore.Hbonds>
donor molecule, donor type, donor heavy atom, donor atom, acceptor molecule, acceptor atom, score
      L1  H    15    43       P1  7948  2.00
      L1  H    18    37       P1 10747  1.00
      P1  H  7997  8008       L1     6  0.94

> <Gold.PLP.Chemscore.Internal.Correction>
0.0333

> <Gold.Rescore>
     Score         DG    S(hbond)    S(metal)    S(lipo)     H(rot)  DE(clash)    DE(int)     intcor
     13.52     -15.74       2.29        0.00      65.31       1.96       0.25       1.97       ----

> <Gold.Chemscore.Fitness>
13.5203

> <Gold.Chemscore.DG>
-15.7351

> <Gold.Chemscore.ZeroCoef>
-5.4800

> <Gold.Chemscore.Hbond>
2.2866

> <Gold.Chemscore.Metal>
0.0000

> <Gold.Chemscore.Lipo>
65.3080

> <Gold.Chemscore.Internal_Hbond>
0.0000

> <Gold.Chemscore.DEClash>
0.2489

> <Gold.Chemscore.DEInternal>
1.9659

> <Gold.Chemscore.Rot>
1.9622

> <Gold.Chemscore.Internal.Correction>
   9.000000E+99

> <Gold.Chemscore.Hbonds>
donor molecule, donor type, donor heavy atom, donor atom, acceptor molecule, acceptor atom, score
      L1  H    15    43       P1  7948  0.94
      L1  H    18    37       P1 10747  0.97
      P1  H  7997  8008       L1     6  0.18

> <Gold.Chemscore.Hbond.Weighted>
-7.6373

> <Gold.Chemscore.Metal.Weighted>
-0.0000

> <Gold.Chemscore.Lipo.Weighted>
-7.6410

> <Gold.Chemscore.Internal_Hbond.Weighted>
0.0000

> <Gold.Chemscore.DEClash.Weighted>
0.2489

> <Gold.Chemscore.DEInternal.Weighted>
1.9659

> <Gold.Chemscore.Rot.Weighted>
5.0232

> <Gold.Chemscore.Internal.Correction.Weighted>
   9.000000E+99

> <Gold.Protein.RotatedTorsions>
[ 6907 6896 6895 6894 ] final -105.81 input  -60.11 | X-H torsion
[ 7974 7965 7964 7962 ] final  126.12 input  175.53 | X-H torsion
[ 8008 7997 7996 7995 ] final -116.77 input   59.86 | X-H torsion
[ 10167 10162 10161 10158 ] final   59.59 input  -65.29 | X-H torsion
[ 10718 10713 10712 10709 ] final   48.48 input   66.30 | X-H torsion
[ 10763 10752 10751 10750 ] final   24.68 input  -60.55 | X-H torsion
[ 11005 11000 10999 10996 ] final  109.48 input  -57.11 | X-H torsion

> <Gold.Protein.ActiveResidues>
 VAL166  LYS551  ARG553  GLY616  TRP617  ASP618  TYR619  PRO620  LYS621  CYS622 
 ASP623  PHE694  ASN695  SER759  ASP760  ASP761  ALA762  ILE779  LEU786  VAL792 
 PHE793  MET794  SER795  GLU796  ALA797  LYS798  CYS799  TRP800  GLU811  SER814 

> <Gold.Protein.RotatedAtoms>
  150.7356  134.0071  159.3657 H   0  0  0  0  0  0  0  0  0  0  0  0  # atno 6907 bound_to 6896
  151.8029  135.0701  160.0412 H   0  0  0  0  0  0  0  0  0  0  0  0  # atno 6908 bound_to 6896
  152.3128  133.5734  159.5728 H   0  0  0  0  0  0  0  0  0  0  0  0  # atno 6909 bound_to 6896
  145.0653  139.3773  143.4985 H   0  0  0  0  0  0  0  0  0  0  0  0  # atno 7974 bound_to 7965
  155.0732  140.0393  157.2615 H   0  0  0  0  0  0  0  0  0  0  0  0  # atno 8008 bound_to 7997
  154.6966  140.2664  155.6735 H   0  0  0  0  0  0  0  0  0  0  0  0  # atno 8009 bound_to 7997
  156.2746  140.2749  156.1562 H   0  0  0  0  0  0  0  0  0  0  0  0  # atno 8010 bound_to 7997
  140.1747  144.4241  150.6644 H   0  0  0  0  0  0  0  0  0  0  0  0  # atno 10167 bound_to 10162
  157.4691  130.8244  149.7968 H   0  0  0  0  0  0  0  0  0  0  0  0  # atno 10718 bound_to 10713
  153.0746  135.6600  154.0173 H   0  0  0  0  0  0  0  0  0  0  0  0  # atno 10763 bound_to 10752
  153.9810  135.2955  155.3421 H   0  0  0  0  0  0  0  0  0  0  0  0  # atno 10764 bound_to 10752
  154.7131  135.5197  153.8766 H   0  0  0  0  0  0  0  0  0  0  0  0  # atno 10765 bound_to 10752
  139.8863  134.9459  156.6131 H   0  0  0  0  0  0  0  0  0  0  0  0  # atno 11005 bound_to 11000
  146.3526  140.0371  142.8646 LP  0  0  0  0  0  0  0  0  0  0  0  0  # atno 17320 bound_to 7965
  145.1359  140.9544  143.4517 LP  0  0  0  0  0  0  0  0  0  0  0  0  # atno 17321 bound_to 7965
  140.6559  143.2237  151.5970 LP  0  0  0  0  0  0  0  0  0  0  0  0  # atno 17342 bound_to 10162
  139.5322  144.2883  152.1173 LP  0  0  0  0  0  0  0  0  0  0  0  0  # atno 17343 bound_to 10162
  156.0065  130.3853  150.2415 LP  0  0  0  0  0  0  0  0  0  0  0  0  # atno 17370 bound_to 10713
  157.0596  131.0086  151.3227 LP  0  0  0  0  0  0  0  0  0  0  0  0  # atno 17371 bound_to 10713
  140.7796  133.8671  155.8557 LP  0  0  0  0  0  0  0  0  0  0  0  0  # atno 17394 bound_to 11000
  140.9772  134.1454  157.4526 LP  0  0  0  0  0  0  0  0  0  0  0  0  # atno 17395 bound_to 11000

$$$$
