AV-unprocessed.smi:1585|AV-procd|sdf|6371|dock1
  -GOLD-   22720 6593D 1   1.00000     0.00000
 Structure written by MMmdl.
 42 43  0  0  0  0  0  0  0  0  3 V2000
  151.6772  142.1643  159.0604 C   0  0  0  0  0  0  0  0  0  0  0  0
  151.3960  141.6429  157.6927 C   0  0  0  0  0  0  0  0  0  0  0  0
  150.4259  141.9246  156.7730 C   0  0  0  0  0  0  0  0  0  0  0  0
  150.7429  141.0586  155.6911 C   0  0  0  0  0  0  0  0  0  0  0  0
  150.0766  140.9681  154.5295 N   0  5  0  0  0  0  0  0  0  0  0  0
  148.7999  140.5222  154.5114 C   0  0  0  0  0  0  0  0  0  0  0  0
  148.0971  140.2690  155.4925 O   0  0  0  0  0  0  0  0  0  0  0  0
  148.3059  140.3553  153.2780 N   0  0  0  0  0  0  0  0  0  0  0  0
  146.9678  139.8668  152.9719 C   0  0  0  0  0  0  0  0  0  0  0  0
  147.0311  138.5062  152.2574 C   0  0  2  0  0  0  0  0  0  0  0  0
  146.7840  138.7202  150.8812 O   0  0  0  0  0  0  0  0  0  0  0  0
  145.9456  137.5458  152.7844 C   0  0  0  0  0  0  0  0  0  0  0  0
  146.2853  136.1162  152.5660 N   0  3  0  0  0  0  0  0  0  0  0  0
  145.5115  135.5213  151.4452 C   0  0  0  0  0  0  0  0  0  0  0  0
  145.9836  134.0899  151.1399 C   0  0  0  0  0  0  0  0  0  0  0  0
  145.9008  133.2044  152.3897 C   0  0  0  0  0  0  0  0  0  0  0  0
  146.6768  133.8535  153.5430 C   0  0  0  0  0  0  0  0  0  0  0  0
  146.1863  135.2885  153.7986 C   0  0  0  0  0  0  0  0  0  0  0  0
  151.8208  140.3290  155.9262 N   0  0  0  0  0  0  0  0  0  0  0  0
  152.2416  140.6924  157.2111 O   0  0  0  0  0  0  0  0  0  0  0  0
  151.4683  143.2326  159.1170 H   0  0  0  0  0  0  0  0  0  0  0  0
  152.7220  142.0104  159.3313 H   0  0  0  0  0  0  0  0  0  0  0  0
  151.0573  141.6580  159.8002 H   0  0  0  0  0  0  0  0  0  0  0  0
  149.6152  142.6319  156.8611 H   0  0  0  0  0  0  0  0  0  0  0  0
  148.9107  140.5736  152.4998 H   0  0  0  0  0  0  0  0  0  0  0  0
  146.4325  139.7553  153.9164 H   0  0  0  0  0  0  0  0  0  0  0  0
  146.4168  140.6018  152.3824 H   0  0  0  0  0  0  0  0  0  0  0  0
  148.0227  138.0728  152.3859 H   0  0  0  0  0  0  0  0  0  0  0  0
  146.9798  139.6235  150.6798 H   0  0  0  0  0  0  0  0  0  0  0  0
  145.7695  137.7115  153.8483 H   0  0  0  0  0  0  0  0  0  0  0  0
  145.0059  137.7826  152.2824 H   0  0  0  0  0  0  0  0  0  0  0  0
  144.4489  135.5240  151.6938 H   0  0  0  0  0  0  0  0  0  0  0  0
  145.6295  136.1325  150.5496 H   0  0  0  0  0  0  0  0  0  0  0  0
  145.3808  133.6613  150.3389 H   0  0  0  0  0  0  0  0  0  0  0  0
  147.0113  134.1138  150.7748 H   0  0  0  0  0  0  0  0  0  0  0  0
  144.8574  133.0680  152.6773 H   0  0  0  0  0  0  0  0  0  0  0  0
  146.2996  132.2120  152.1769 H   0  0  0  0  0  0  0  0  0  0  0  0
  146.5677  133.2548  154.4478 H   0  0  0  0  0  0  0  0  0  0  0  0
  147.7418  133.8670  153.3072 H   0  0  0  0  0  0  0  0  0  0  0  0
  146.7807  135.7236  154.6009 H   0  0  0  0  0  0  0  0  0  0  0  0
  145.1522  135.2735  154.1463 H   0  0  0  0  0  0  0  0  0  0  0  0
  147.2534  136.1021  152.2768 H   0  0  0  0  0  0  0  0  0  0  0  0
  1  2  1  0  0  0  0
  1 21  1  0  0  0  0
  1 22  1  0  0  0  0
  1 23  1  0  0  0  0
  2 20  1  0  0  0  0
  2  3  2  0  0  0  0
  3  4  1  0  0  0  0
  3 24  1  0  0  0  0
  4  5  1  0  0  0  0
  4 19  2  0  0  0  0
  5  6  1  0  0  0  0
  6  7  2  0  0  0  0
  6  8  1  0  0  0  0
  8  9  1  0  0  0  0
  8 25  1  0  0  0  0
  9 10  1  0  0  0  0
  9 26  1  0  0  0  0
  9 27  1  0  0  0  0
 10 11  1  0  0  0  0
 10 12  1  0  0  0  0
 10 28  1  0  0  0  0
 11 29  1  0  0  0  0
 12 13  1  0  0  0  0
 12 30  1  0  0  0  0
 12 31  1  0  0  0  0
 13 18  1  0  0  0  0
 13 14  1  0  0  0  0
 13 42  1  0  0  0  0
 14 15  1  0  0  0  0
 14 32  1  0  0  0  0
 14 33  1  0  0  0  0
 15 16  1  0  0  0  0
 15 34  1  0  0  0  0
 15 35  1  0  0  0  0
 16 17  1  0  0  0  0
 16 36  1  0  0  0  0
 16 37  1  0  0  0  0
 17 18  1  0  0  0  0
 17 38  1  0  0  0  0
 17 39  1  0  0  0  0
 18 40  1  0  0  0  0
 18 41  1  0  0  0  0
 19 20  1  0  0  0  0
M  CHG  1   5  -1
M  CHG  1  13   1
M  END
> <s_m_source_file>
AV-unprocessed.smi

> <i_m_source_file_index>
1585

> <i_lp_mmshare_version>
43012

> <i_f3d_flags>
0

> <s_epik_input>
W0NIM11jMVtjSF1jKG5vMSlbTkhdQyg9TylbTkhdW0NIMl1bQ0BIXShbT0hdKVtDSDJdTjJbQ0gyXVtDSDJdW0NIMl1bQ0gyXVtDSDJdMg==

> <s_epik_cmdline>
J2VwaWtfcHl0aG9uJywgJy1waCcsICc3LjAnLCAnLXRuJywgJzgnLCAnLW1hJywgJzIwMCcsICctbWV0YWxfYmluZGluZycsICctaW1hZScsICc8aW5maWxlLm1hZT4nLCAnLW9tYWUnLCAnPG91dGZpbGUubWFlPic=

> <r_epik_Ionization_Penalty>
6.29903

> <r_epik_Ionization_Penalty_Charging>
6.29893

> <r_epik_Ionization_Penalty_Neutral>
0.000107719

> <r_epik_State_Penalty>
6.29786

> <r_epik_Charging_Adjusted_Penalty>
12.5968

> <i_epik_Tot_Q>
0

> <i_epik_Tot_abs_Q>
2

> <r_epik_Metal_State_Penalty>
2.22942

> <b_epik_Metal_Only>
1

> <s_lp_Force_Field>
OPLS_2005

> <r_lp_Energy>
8.76377

> <b_lp_Chiralities_Consistent>
1

> <s_lp_Variant>
AV-unprocessed.smi:1585-3

> <Gold.Version>
5.8.1

> <Gold.Id.Protein>
6NUR|6NUR_protein|mol2

> <Gold.PLP.Fitness>
47.7657

> <Gold.PLP.PLP>
-34.5020

> <Gold.PLP.part.hbond>
-6.7535

> <Gold.PLP.part.metal>
0.0000

> <Gold.PLP.part.buried>
-2.7834

> <Gold.PLP.part.nonpolar>
-25.0609

> <Gold.PLP.part.repulsive>
0.2629

> <Gold.PLP.ligand.clash>
0.0000

> <Gold.PLP.ligand.torsion>
2.1676

> <Gold.PLP.Chemscore.Hbond>
5.7360

> <Gold.PLP.Chemscore.CHOScore>
0.0000

> <Gold.PLP.Chemscore.Metal>
0.0000

> <Gold.Chemscore.Hbonds>
donor molecule, donor type, donor heavy atom, donor atom, acceptor molecule, acceptor atom, score
      L1  H     8    25       P1  7957  0.94
      L1  H    13    42       P1  7948  2.00
      P1  H  7954  7966       L1    11  0.85
      P1  H  7989  7998       L1     5  0.48
      P1  H  7997  8008       L1    20  0.12

> <Gold.PLP.Chemscore.Internal.Correction>
0.3908

> <Gold.Rescore>
     Score         DG    S(hbond)    S(metal)    S(lipo)     H(rot)  DE(clash)    DE(int)     intcor
     13.82     -16.26       3.00        0.00      60.12       2.45       0.12       2.32       ----

> <Gold.Chemscore.Fitness>
13.8203

> <Gold.Chemscore.DG>
-16.2597

> <Gold.Chemscore.ZeroCoef>
-5.4800

> <Gold.Chemscore.Hbond>
2.9960

> <Gold.Chemscore.Metal>
0.0000

> <Gold.Chemscore.Lipo>
60.1242

> <Gold.Chemscore.Internal_Hbond>
0.0000

> <Gold.Chemscore.DEClash>
0.1191

> <Gold.Chemscore.DEInternal>
2.3204

> <Gold.Chemscore.Rot>
2.4459

> <Gold.Chemscore.Internal.Correction>
   9.000000E+99

> <Gold.Chemscore.Hbonds>
donor molecule, donor type, donor heavy atom, donor atom, acceptor molecule, acceptor atom, score
      L1  H     8    25       P1  7957  0.89
      L1  H    13    42       P1  7948  1.00
      P1  H  7954  7966       L1    11  0.13
      P1  H  7989  7998       L1     5  0.06
      P1  H  7997  8008       L1    20  0.01

> <Gold.Chemscore.Hbond.Weighted>
-10.0068

> <Gold.Chemscore.Metal.Weighted>
-0.0000

> <Gold.Chemscore.Lipo.Weighted>
-7.0345

> <Gold.Chemscore.Internal_Hbond.Weighted>
0.0000

> <Gold.Chemscore.DEClash.Weighted>
0.1191

> <Gold.Chemscore.DEInternal.Weighted>
2.3204

> <Gold.Chemscore.Rot.Weighted>
6.2615

> <Gold.Chemscore.Internal.Correction.Weighted>
   9.000000E+99

> <Gold.Protein.RotatedTorsions>
[ 6907 6896 6895 6894 ] final -128.76 input  -60.11 | X-H torsion
[ 7974 7965 7964 7962 ] final  169.59 input  175.53 | X-H torsion
[ 8008 7997 7996 7995 ] final  -75.37 input   59.86 | X-H torsion
[ 10167 10162 10161 10158 ] final  149.84 input  -65.29 | X-H torsion
[ 10718 10713 10712 10709 ] final  -71.53 input   66.30 | X-H torsion
[ 10763 10752 10751 10750 ] final -122.46 input  -60.55 | X-H torsion
[ 11005 11000 10999 10996 ] final -133.69 input  -57.11 | X-H torsion

> <Gold.Protein.ActiveResidues>
 VAL166  LYS551  ARG553  GLY616  TRP617  ASP618  TYR619  PRO620  LYS621  CYS622 
 ASP623  PHE694  ASN695  SER759  ASP760  ASP761  ALA762  ILE779  LEU786  VAL792 
 PHE793  MET794  SER795  GLU796  ALA797  LYS798  CYS799  TRP800  GLU811  SER814 

> <Gold.Protein.RotatedAtoms>
  150.9213  133.6877  159.2831 H   0  0  0  0  0  0  0  0  0  0  0  0  # atno 6907 bound_to 6896
  151.4330  135.1010  159.9657 H   0  0  0  0  0  0  0  0  0  0  0  0  # atno 6908 bound_to 6896
  152.4981  133.8639  159.7319 H   0  0  0  0  0  0  0  0  0  0  0  0  # atno 6909 bound_to 6896
  144.7350  139.9076  143.6413 H   0  0  0  0  0  0  0  0  0  0  0  0  # atno 7974 bound_to 7965
  154.5411  140.0745  156.8511 H   0  0  0  0  0  0  0  0  0  0  0  0  # atno 8008 bound_to 7997
  155.3179  140.3394  155.4224 H   0  0  0  0  0  0  0  0  0  0  0  0  # atno 8009 bound_to 7997
  156.1875  140.1674  156.8143 H   0  0  0  0  0  0  0  0  0  0  0  0  # atno 8010 bound_to 7997
  139.4857  144.5570  151.7300 H   0  0  0  0  0  0  0  0  0  0  0  0  # atno 10167 bound_to 10162
  156.0359  130.4353  150.2458 H   0  0  0  0  0  0  0  0  0  0  0  0  # atno 10718 bound_to 10713
  154.8690  135.4132  154.2785 H   0  0  0  0  0  0  0  0  0  0  0  0  # atno 10763 bound_to 10752
  153.3682  135.7006  153.6664 H   0  0  0  0  0  0  0  0  0  0  0  0  # atno 10764 bound_to 10752
  153.5537  135.3624  155.2742 H   0  0  0  0  0  0  0  0  0  0  0  0  # atno 10765 bound_to 10752
  140.9057  134.1632  157.4427 H   0  0  0  0  0  0  0  0  0  0  0  0  # atno 11005 bound_to 11000
  146.1025  139.4022  143.0338 LP  0  0  0  0  0  0  0  0  0  0  0  0  # atno 17320 bound_to 7965
  145.7558  140.9954  143.1226 LP  0  0  0  0  0  0  0  0  0  0  0  0  # atno 17321 bound_to 7965
  140.5133  144.0991  150.6001 LP  0  0  0  0  0  0  0  0  0  0  0  0  # atno 17342 bound_to 10162
  140.3925  143.2745  152.0044 LP  0  0  0  0  0  0  0  0  0  0  0  0  # atno 17343 bound_to 10162
  157.0557  131.0075  151.3239 LP  0  0  0  0  0  0  0  0  0  0  0  0  # atno 17370 bound_to 10713
  157.5107  130.7937  149.7702 LP  0  0  0  0  0  0  0  0  0  0  0  0  # atno 17371 bound_to 10713
  139.8749  134.9916  156.5557 LP  0  0  0  0  0  0  0  0  0  0  0  0  # atno 17394 bound_to 11000
  140.8173  133.8381  155.8864 LP  0  0  0  0  0  0  0  0  0  0  0  0  # atno 17395 bound_to 11000

$$$$
