AV-unprocessed.smi:1423|AV-procd|sdf|5795|dock8
  -GOLD-   22720 5443D 1   1.00000     0.00000
 Structure written by MMmdl.
 44 45  0  0  0  0  0  0  0  0  2 V2000
  152.1848  143.0990  162.1974 C   0  0  0  0  0  0  0  0  0  0  0  0
  152.4598  143.9160  161.0648 O   0  0  0  0  0  0  0  0  0  0  0  0
  151.9758  143.5165  159.8359 C   0  0  0  0  0  0  0  0  0  0  0  0
  152.2234  144.3338  158.7153 C   0  0  0  0  0  0  0  0  0  0  0  0
  151.7282  143.9367  157.4585 C   0  0  0  0  0  0  0  0  0  0  0  0
  151.0039  142.7242  157.3599 C   0  0  0  0  0  0  0  0  0  0  0  0
  150.4312  142.2211  156.1596 N   0  0  0  0  0  0  0  0  0  0  0  0
  149.2493  141.6061  155.9810 C   0  0  0  0  0  0  0  0  0  0  0  0
  148.3976  141.4264  156.8509 O   0  0  0  0  0  0  0  0  0  0  0  0
  149.0951  141.2133  154.7081 N   0  0  0  0  0  0  0  0  0  0  0  0
  147.9274  140.5126  154.1807 C   0  0  2  0  0  0  0  0  0  0  0  0
  147.6792  139.2007  154.9493 C   0  0  0  0  0  0  0  0  0  0  0  0
  146.5191  138.4023  154.3314 C   0  0  0  0  0  0  0  0  0  0  0  0
  146.7672  138.1266  152.8936 N   0  3  1  0  0  0  0  0  0  0  0  0
  145.7421  137.2313  152.2985 C   0  0  0  0  0  0  0  0  0  0  0  0
  144.3303  137.5138  152.8222 C   0  0  0  0  0  0  0  0  0  0  0  0
  143.4835  138.1127  151.9820 N   0  0  0  0  0  0  0  0  0  0  0  0
  144.0102  137.2120  153.9707 O   0  0  0  0  0  0  0  0  0  0  0  0
  146.9617  139.3841  152.1236 C   0  0  0  0  0  0  0  0  0  0  0  0
  148.1337  140.2033  152.6891 C   0  0  0  0  0  0  0  0  0  0  0  0
  150.8048  141.9832  158.5435 C   0  0  0  0  0  0  0  0  0  0  0  0
  151.2755  142.3586  159.7512 N   0  0  0  0  0  0  0  0  0  0  0  0
  152.6323  143.5486  163.0835 H   0  0  0  0  0  0  0  0  0  0  0  0
  152.6091  142.1005  162.0829 H   0  0  0  0  0  0  0  0  0  0  0  0
  151.1119  143.0142  162.3762 H   0  0  0  0  0  0  0  0  0  0  0  0
  152.7787  145.2545  158.8184 H   0  0  0  0  0  0  0  0  0  0  0  0
  151.9029  144.5768  156.6085 H   0  0  0  0  0  0  0  0  0  0  0  0
  150.9852  142.3654  155.3283 H   0  0  0  0  0  0  0  0  0  0  0  0
  149.8415  141.4104  154.0576 H   0  0  0  0  0  0  0  0  0  0  0  0
  147.0510  141.1563  154.2794 H   0  0  0  0  0  0  0  0  0  0  0  0
  148.5827  138.5894  154.9409 H   0  0  0  0  0  0  0  0  0  0  0  0
  147.4590  139.4108  155.9966 H   0  0  0  0  0  0  0  0  0  0  0  0
  146.4057  137.4626  154.8732 H   0  0  0  0  0  0  0  0  0  0  0  0
  145.5816  138.9493  154.4429 H   0  0  0  0  0  0  0  0  0  0  0  0
  145.7077  137.3779  151.2180 H   0  0  0  0  0  0  0  0  0  0  0  0
  146.0135  136.1874  152.4646 H   0  0  0  0  0  0  0  0  0  0  0  0
  142.5388  138.3201  152.2726 H   0  0  0  0  0  0  0  0  0  0  0  0
  143.7915  138.3550  151.0509 H   0  0  0  0  0  0  0  0  0  0  0  0
  147.1582  139.1568  151.0756 H   0  0  0  0  0  0  0  0  0  0  0  0
  146.0443  139.9743  152.1509 H   0  0  0  0  0  0  0  0  0  0  0  0
  148.2399  141.1314  152.1257 H   0  0  0  0  0  0  0  0  0  0  0  0
  149.0625  139.6481  152.5484 H   0  0  0  0  0  0  0  0  0  0  0  0
  150.2492  141.0567  158.5227 H   0  0  0  0  0  0  0  0  0  0  0  0
  147.6385  137.6168  152.8494 H   0  0  0  0  0  0  0  0  0  0  0  0
  1  2  1  0  0  0  0
  1 23  1  0  0  0  0
  1 24  1  0  0  0  0
  1 25  1  0  0  0  0
  2  3  1  0  0  0  0
  3 22  1  0  0  0  0
  3  4  2  0  0  0  0
  4  5  1  0  0  0  0
  4 26  1  0  0  0  0
  5  6  2  0  0  0  0
  5 27  1  0  0  0  0
  6  7  1  0  0  0  0
  6 21  1  0  0  0  0
  7  8  1  0  0  0  0
  7 28  1  0  0  0  0
  8  9  2  0  0  0  0
  8 10  1  0  0  0  0
 10 11  1  0  0  0  0
 10 29  1  0  0  0  0
 11 20  1  0  0  0  0
 11 12  1  0  0  0  0
 11 30  1  0  0  0  0
 12 13  1  0  0  0  0
 12 31  1  0  0  0  0
 12 32  1  0  0  0  0
 13 14  1  0  0  0  0
 13 33  1  0  0  0  0
 13 34  1  0  0  0  0
 14 15  1  0  0  0  0
 14 19  1  0  0  0  0
 14 44  1  0  0  0  0
 15 16  1  0  0  0  0
 15 35  1  0  0  0  0
 15 36  1  0  0  0  0
 16 17  1  0  0  0  0
 16 18  2  0  0  0  0
 17 37  1  0  0  0  0
 17 38  1  0  0  0  0
 19 20  1  0  0  0  0
 19 39  1  0  0  0  0
 19 40  1  0  0  0  0
 20 41  1  0  0  0  0
 20 42  1  0  0  0  0
 21 22  2  0  0  0  0
 21 43  1  0  0  0  0
M  CHG  1  14   1
M  END
> <s_m_source_file>
AV-unprocessed.smi

> <i_m_source_file_index>
1423

> <i_lp_mmshare_version>
43012

> <i_f3d_flags>
0

> <s_epik_input>
W0NIM11PYzFbY0hdW2NIXWMoW2NIXW4xKVtOSF1DKD1PKVtOSF1bQ0hdMltDSDJdW0NIMl1OKFtDSDJdW0NIMl0yKVtDSDJdQyg9TylbTkgyXQ==

> <s_epik_cmdline>
J2VwaWtfcHl0aG9uJywgJy1waCcsICc3LjAnLCAnLXRuJywgJzgnLCAnLW1hJywgJzIwMCcsICctbWV0YWxfYmluZGluZycsICctaW1hZScsICc8aW5maWxlLm1hZT4nLCAnLW9tYWUnLCAnPG91dGZpbGUubWFlPic=

> <r_lp_tautomer_probability>
1

> <r_epik_Ionization_Penalty>
0.838963

> <r_epik_Ionization_Penalty_Charging>
0.838844

> <r_epik_Ionization_Penalty_Neutral>
0.0001192

> <r_epik_State_Penalty>
0.8734

> <r_epik_Charging_Adjusted_Penalty>
1.71224

> <i_epik_Tot_Q>
1

> <i_epik_Tot_abs_Q>
1

> <r_epik_Metal_State_Penalty>
0.890706

> <b_epik_Metal_Only>
0

> <s_lp_Force_Field>
OPLS_2005

> <r_lp_Energy>
16.4152

> <b_lp_Chiralities_Consistent>
1

> <s_lp_Variant>
AV-unprocessed.smi:1423-2

> <Gold.Version>
5.8.1

> <Gold.Id.Protein>
6NUR|6NUR_protein|mol2

> <Gold.PLP.Fitness>
44.2346

> <Gold.PLP.PLP>
-36.6633

> <Gold.PLP.part.hbond>
-4.1023

> <Gold.PLP.part.metal>
0.0000

> <Gold.PLP.part.buried>
1.6424

> <Gold.PLP.part.nonpolar>
-34.2499

> <Gold.PLP.part.repulsive>
0.5438

> <Gold.PLP.ligand.clash>
0.0000

> <Gold.PLP.ligand.torsion>
0.7243

> <Gold.PLP.Chemscore.Hbond>
3.0000

> <Gold.PLP.Chemscore.CHOScore>
0.0000

> <Gold.PLP.Chemscore.Metal>
0.0000

> <Gold.Chemscore.Hbonds>
donor molecule, donor type, donor heavy atom, donor atom, acceptor molecule, acceptor atom, score
      L1  H    14    44       P1  7948  1.43
      L1  H    17    38       P1 10171  0.29

> <Gold.PLP.Chemscore.Internal.Correction>
0.0199

> <Gold.Rescore>
     Score         DG    S(hbond)    S(metal)    S(lipo)     H(rot)  DE(clash)    DE(int)     intcor
     11.25     -16.58       1.95        0.00      90.23       2.33       2.15       3.19       ----

> <Gold.Chemscore.Fitness>
11.2489

> <Gold.Chemscore.DG>
-16.5818

> <Gold.Chemscore.ZeroCoef>
-5.4800

> <Gold.Chemscore.Hbond>
1.9467

> <Gold.Chemscore.Metal>
0.0000

> <Gold.Chemscore.Lipo>
90.2332

> <Gold.Chemscore.Internal_Hbond>
0.0000

> <Gold.Chemscore.DEClash>
2.1463

> <Gold.Chemscore.DEInternal>
3.1866

> <Gold.Chemscore.Rot>
2.3271

> <Gold.Chemscore.Internal.Correction>
   9.000000E+99

> <Gold.Chemscore.Hbonds>
donor molecule, donor type, donor heavy atom, donor atom, acceptor molecule, acceptor atom, score
      L1  H    14    44       P1  7948  0.69
      L1  H    17    38       P1 10171  0.28

> <Gold.Chemscore.Hbond.Weighted>
-6.5019

> <Gold.Chemscore.Metal.Weighted>
-0.0000

> <Gold.Chemscore.Lipo.Weighted>
-10.5573

> <Gold.Chemscore.Internal_Hbond.Weighted>
0.0000

> <Gold.Chemscore.DEClash.Weighted>
2.1463

> <Gold.Chemscore.DEInternal.Weighted>
3.1866

> <Gold.Chemscore.Rot.Weighted>
5.9573

> <Gold.Chemscore.Internal.Correction.Weighted>
   9.000000E+99

> <Gold.Protein.RotatedTorsions>
[ 6907 6896 6895 6894 ] final -172.51 input  -60.11 | X-H torsion
[ 7974 7965 7964 7962 ] final   81.59 input  175.53 | X-H torsion
[ 8008 7997 7996 7995 ] final -177.68 input   59.86 | X-H torsion
[ 10167 10162 10161 10158 ] final   47.24 input  -65.29 | X-H torsion
[ 10718 10713 10712 10709 ] final  147.72 input   66.30 | X-H torsion
[ 10763 10752 10751 10750 ] final  154.70 input  -60.55 | X-H torsion
[ 11005 11000 10999 10996 ] final  172.94 input  -57.11 | X-H torsion

> <Gold.Protein.ActiveResidues>
 VAL166  LYS551  ARG553  GLY616  TRP617  ASP618  TYR619  PRO620  LYS621  CYS622 
 ASP623  PHE694  ASN695  SER759  ASP760  ASP761  ALA762  ILE779  LEU786  VAL792 
 PHE793  MET794  SER795  GLU796  ALA797  LYS798  CYS799  TRP800  GLU811  SER814 

> <Gold.Protein.RotatedAtoms>
  151.5412  133.3432  159.2935 H   0  0  0  0  0  0  0  0  0  0  0  0  # atno 6907 bound_to 6896
  150.8535  134.7869  159.7038 H   0  0  0  0  0  0  0  0  0  0  0  0  # atno 6908 bound_to 6896
  152.4575  134.5268  159.9850 H   0  0  0  0  0  0  0  0  0  0  0  0  # atno 6909 bound_to 6896
  145.6362  139.2415  143.2057 H   0  0  0  0  0  0  0  0  0  0  0  0  # atno 7974 bound_to 7965
  156.0099  140.1238  157.0464 H   0  0  0  0  0  0  0  0  0  0  0  0  # atno 8008 bound_to 7997
  154.4272  140.1090  156.5884 H   0  0  0  0  0  0  0  0  0  0  0  0  # atno 8009 bound_to 7997
  155.6095  140.3471  155.4620 H   0  0  0  0  0  0  0  0  0  0  0  0  # atno 8010 bound_to 7997
  140.3057  144.2881  150.6210 H   0  0  0  0  0  0  0  0  0  0  0  0  # atno 10167 bound_to 10162
  157.3175  131.0898  151.1267 H   0  0  0  0  0  0  0  0  0  0  0  0  # atno 10718 bound_to 10713
  154.1565  135.2812  155.3120 H   0  0  0  0  0  0  0  0  0  0  0  0  # atno 10763 bound_to 10752
  154.6178  135.5477  153.7546 H   0  0  0  0  0  0  0  0  0  0  0  0  # atno 10764 bound_to 10752
  153.0205  135.6431  154.1708 H   0  0  0  0  0  0  0  0  0  0  0  0  # atno 10765 bound_to 10752
  140.3351  134.7324  157.4163 H   0  0  0  0  0  0  0  0  0  0  0  0  # atno 11005 bound_to 11000
  146.1318  140.7176  142.9409 LP  0  0  0  0  0  0  0  0  0  0  0  0  # atno 17320 bound_to 7965
  144.7175  140.4259  143.7033 LP  0  0  0  0  0  0  0  0  0  0  0  0  # atno 17321 bound_to 7965
  140.5612  143.2192  151.7762 LP  0  0  0  0  0  0  0  0  0  0  0  0  # atno 17342 bound_to 10162
  139.4905  144.4346  151.9834 LP  0  0  0  0  0  0  0  0  0  0  0  0  # atno 17343 bound_to 10162
  157.2565  130.6638  149.5955 LP  0  0  0  0  0  0  0  0  0  0  0  0  # atno 17370 bound_to 10713
  155.9683  130.4522  150.5765 LP  0  0  0  0  0  0  0  0  0  0  0  0  # atno 17371 bound_to 10713
  140.0827  134.5708  155.8523 LP  0  0  0  0  0  0  0  0  0  0  0  0  # atno 17394 bound_to 11000
  141.2053  133.6646  156.6173 LP  0  0  0  0  0  0  0  0  0  0  0  0  # atno 17395 bound_to 11000

$$$$
