#       Name:                AV-unprocessed.smi:1802
#       Creating user name   scv26
#       Creation time:       Fri Mar 27 08:53:25 2020


#       File generated by GOLD software.
#

@<TRIPOS>MOLECULE
AV-unprocessed.smi:1802
    45    46     1
SMALL
NO_CHARGES


@<TRIPOS>ATOM
      1 ****        -1.9052   3.9616   2.2773 C.3            1 S1                 0.0000
      2 ****        -2.0048   3.2440   0.9237 C.3            1 S1                 0.0000
      3 ****        -3.4053   3.3993   0.3075 C.3            1 S1                 0.0000
      4 ****        -3.4834   2.6514  -1.0290 C.3            1 S1                 0.0000
      5 ****        -3.0807   1.1780  -0.8590 C.3            1 S1                 0.0000
      6 ****        -1.7235   1.0583  -0.2665 N.4            1 S1                 1.0000
      7 ****        -1.2553  -0.3501  -0.2186 C.3            1 S1                 0.0000
      8 ****         0.2778  -0.4569  -0.1624 C.3            1 S1                 0.0000
      9 ****         0.7631  -1.9098  -0.2428 C.3            1 S1                 0.0000
     10 ****         2.2179  -1.9632  -0.2034 N.am           1 S1                 0.0000
     11 ****         2.9564  -3.0611  -0.4113 C.2            1 S1                 0.0000
     12 ****         2.4031  -4.1366  -0.6507 O.2            1 S1                 0.0000
     13 ****         4.2883  -2.8426  -0.3325 N.pl3          1 S1                -1.0000
     14 ****         5.1481  -3.8543  -0.5372 C.2            1 S1                 0.0000
     15 ****         5.6978  -4.5468   0.4734 N.2            1 S1                 0.0000
     16 ****         6.5619  -5.5453   0.0444 N.2            1 S1                 0.0000
     17 ****         6.6484  -5.5746  -1.2852 C.2            1 S1                 0.0000
     18 ****         5.6842  -4.3847  -2.1339 S.3            1 S1                 0.0000
     19 ****        -1.6380   1.7512   1.0474 C.3            1 S1                 0.0000
     20 ****        -2.6004   3.5383   3.0030 H              1 S1                 0.0000
     21 ****        -2.1347   5.0228   2.1770 H              1 S1                 0.0000
     22 ****        -0.9003   3.8810   2.6926 H              1 S1                 0.0000
     23 ****        -1.2852   3.7130   0.2505 H              1 S1                 0.0000
     24 ****        -4.1599   3.0076   0.9913 H              1 S1                 0.0000
     25 ****        -3.6386   4.4539   0.1561 H              1 S1                 0.0000
     26 ****        -4.4936   2.7177  -1.4341 H              1 S1                 0.0000
     27 ****        -2.8264   3.1301  -1.7562 H              1 S1                 0.0000
     28 ****        -3.8027   0.6592  -0.2264 H              1 S1                 0.0000
     29 ****        -3.1031   0.6893  -1.8338 H              1 S1                 0.0000
     30 ****        -1.7131  -0.8686   0.6252 H              1 S1                 0.0000
     31 ****        -1.5931  -0.8680  -1.1173 H              1 S1                 0.0000
     32 ****         0.7106   0.1124  -0.9864 H              1 S1                 0.0000
     33 ****         0.6579  -0.0105   0.7564 H              1 S1                 0.0000
     34 ****         0.3614  -2.4904   0.5889 H              1 S1                 0.0000
     35 ****         0.4055  -2.3721  -1.1643 H              1 S1                 0.0000
     36 ****         2.7079  -1.1028  -0.0068 H              1 S1                 0.0000
     37 ****         7.2859  -6.2992  -1.7692 H              1 S1                 0.0000
     38 ****        -0.6282   1.6694   1.4478 H              1 S1                 0.0000
     39 ****        -2.2995   1.2573   1.7612 H              1 S1                 0.0000
     40 ****        -1.1002   1.5428  -0.8966 H              1 S1                 0.0000
     41 ****         1.4051  -4.1878  -0.6893 LP             1 S1                 0.0000
     42 ****         2.9523  -4.9577  -0.8063 LP             1 S1                 0.0000
     43 ****         4.6334  -1.9280  -0.1219 LP             1 S1                 0.0000
     44 ****         5.5045  -4.3622   1.4370 LP             1 S1                 0.0000
     45 ****         7.0563  -6.1637   0.6552 LP             1 S1                 0.0000
@<TRIPOS>BOND
    1    1    2 1     
    2    1   20 1     
    3    1   21 1     
    4    1   22 1     
    5    2   19 1     
    6    2    3 1     
    7    2   23 1     
    8    3    4 1     
    9    3   24 1     
   10    3   25 1     
   11    4    5 1     
   12    4   26 1     
   13    4   27 1     
   14    5    6 1     
   15    5   28 1     
   16    5   29 1     
   17    6    7 1     
   18    6   19 1     
   19    6   40 1     
   20    7    8 1     
   21    7   30 1     
   22    7   31 1     
   23    8    9 1     
   24    8   32 1     
   25    8   33 1     
   26    9   10 1     
   27    9   34 1     
   28    9   35 1     
   29   10   11 am    
   30   10   36 1     
   31   11   12 2     
   32   11   13 1     
   33   13   14 1     
   34   14   18 1     
   35   14   15 2     
   36   15   16 1     
   37   16   17 2     
   38   17   18 1     
   39   17   37 1     
   40   19   38 1     
   41   19   39 1     
   42   12   41 1     
   43   12   42 1     
   44   13   43 1     
   45   15   44 1     
   46   16   45 1     
@<TRIPOS>SUBSTRUCTURE
      1 S1             1
@<TRIPOS>SET
LONE_PAIRS      STATIC     ATOMS    <user>   **** ""
5 41 42 43 44 45
DONOR_HYDROGENS      STATIC     ATOMS    <user>   **** ""
2 40 36
ATOM$BLUE        STATIC     ATOMS    COLORGROUP SYSTEM
5 41 42 43 44 45
ATOM$RED        STATIC     ATOMS    COLORGROUP SYSTEM
2 40 36
