AV-unprocessed.smi:1631|AV-procd|sdf|6526|dock6
  -GOLD-   22720 7203D 1   1.00000     0.00000
 Structure written by MMmdl.
 38 39  0  0  0  0  0  0  0  0  1 V2000
  148.9158  132.4218  153.1608 C   0  0  0  0  0  0  0  0  0  0  0  0
  149.6456  132.9640  154.3625 C   0  0  0  0  0  0  0  0  0  0  0  0
  149.3927  134.1981  154.6506 N   0  0  0  0  0  0  0  0  0  0  0  0
  149.9841  134.8256  155.7283 N   0  0  0  0  0  0  0  0  0  0  0  0
  149.5662  136.2228  155.9051 C   0  0  0  0  0  0  0  0  0  0  0  0
  149.9779  137.1159  154.7118 C   0  0  2  0  0  0  0  0  0  0  0  0
  151.1970  136.6263  154.1869 O   0  0  0  0  0  0  0  0  0  0  0  0
  150.1173  138.5775  155.1382 C   0  0  0  0  0  0  0  0  0  0  0  0
  151.4049  139.0450  155.4910 C   0  0  0  0  0  0  0  0  0  0  0  0
  151.6064  140.3747  155.9000 C   0  0  0  0  0  0  0  0  0  0  0  0
  150.5164  141.2577  155.9607 C   0  0  0  0  0  0  0  0  0  0  0  0
  149.2303  140.8085  155.6113 C   0  0  0  0  0  0  0  0  0  0  0  0
  149.0107  139.4729  155.1970 C   0  0  0  0  0  0  0  0  0  0  0  0
  147.5933  139.0387  154.8213 C   0  0  0  0  0  0  0  0  0  0  0  0
  146.7241  140.0460  154.9126 F   0  0  0  0  0  0  0  0  0  0  0  0
  147.5668  138.5973  153.5634 F   0  0  0  0  0  0  0  0  0  0  0  0
  147.1753  138.0734  155.6390 F   0  0  0  0  0  0  0  0  0  0  0  0
  150.8746  134.2361  156.5753 C   0  0  0  0  0  0  0  0  0  0  0  0
  151.3826  134.8338  157.5244 O   0  0  0  0  0  0  0  0  0  0  0  0
  151.1597  132.8378  156.2467 C   0  0  0  0  0  0  0  0  0  0  0  0
  152.0851  132.1836  157.1148 C   0  0  0  0  0  0  0  0  0  0  0  0
  152.8228  131.6561  157.8344 N   0  0  0  0  0  0  0  0  0  0  0  0
  150.5839  132.2081  155.1914 C   0  0  0  0  0  0  0  0  0  0  0  0
  150.8563  130.7568  154.8198 C   0  0  0  0  0  0  0  0  0  0  0  0
  149.1692  131.3868  152.9393 H   0  0  0  0  0  0  0  0  0  0  0  0
  149.1485  133.0095  152.2721 H   0  0  0  0  0  0  0  0  0  0  0  0
  147.8372  132.4657  153.3152 H   0  0  0  0  0  0  0  0  0  0  0  0
  148.4811  136.2521  156.0223 H   0  0  0  0  0  0  0  0  0  0  0  0
  149.9590  136.6261  156.8407 H   0  0  0  0  0  0  0  0  0  0  0  0
  149.2414  137.0140  153.9197 H   0  0  0  0  0  0  0  0  0  0  0  0
  151.0987  136.5209  153.2529 H   0  0  0  0  0  0  0  0  0  0  0  0
  152.2528  138.3771  155.4492 H   0  0  0  0  0  0  0  0  0  0  0  0
  152.5958  140.7162  156.1666 H   0  0  0  0  0  0  0  0  0  0  0  0
  150.6659  142.2802  156.2745 H   0  0  0  0  0  0  0  0  0  0  0  0
  148.4121  141.5107  155.6664 H   0  0  0  0  0  0  0  0  0  0  0  0
  151.5715  130.2837  155.4919 H   0  0  0  0  0  0  0  0  0  0  0  0
  151.2661  130.6902  153.8113 H   0  0  0  0  0  0  0  0  0  0  0  0
  149.9359  130.1732  154.8602 H   0  0  0  0  0  0  0  0  0  0  0  0
  1  2  1  0  0  0  0
  1 25  1  0  0  0  0
  1 26  1  0  0  0  0
  1 27  1  0  0  0  0
  2 23  1  0  0  0  0
  2  3  2  0  0  0  0
  3  4  1  0  0  0  0
  4  5  1  0  0  0  0
  4 18  1  0  0  0  0
  5  6  1  0  0  0  0
  5 28  1  0  0  0  0
  5 29  1  0  0  0  0
  6  7  1  0  0  0  0
  6  8  1  0  0  0  0
  6 30  1  0  0  0  0
  7 31  1  0  0  0  0
  8 13  1  0  0  0  0
  8  9  2  0  0  0  0
  9 10  1  0  0  0  0
  9 32  1  0  0  0  0
 10 11  2  0  0  0  0
 10 33  1  0  0  0  0
 11 12  1  0  0  0  0
 11 34  1  0  0  0  0
 12 13  2  0  0  0  0
 12 35  1  0  0  0  0
 13 14  1  0  0  0  0
 14 15  1  0  0  0  0
 14 16  1  0  0  0  0
 14 17  1  0  0  0  0
 18 19  2  0  0  0  0
 18 20  1  0  0  0  0
 20 21  1  0  0  0  0
 20 23  2  0  0  0  0
 21 22  3  0  0  0  0
 23 24  1  0  0  0  0
 24 36  1  0  0  0  0
 24 37  1  0  0  0  0
 24 38  1  0  0  0  0
M  END
> <s_m_source_file>
AV-unprocessed.smi

> <i_m_source_file_index>
1631

> <i_lp_mmshare_version>
43012

> <i_f3d_flags>
0

> <s_epik_input>
TiNDYyhjMVtDSDNdKWMoPU8pbihuYzFbQ0gzXSlbQ0gyXVtDQEhdKFtPSF0pYzJbY0hdW2NIXVtjSF1bY0hdYzJDKEYpKEYpRg==

> <s_epik_cmdline>
J2VwaWtfcHl0aG9uJywgJy1waCcsICc3LjAnLCAnLXRuJywgJzgnLCAnLW1hJywgJzIwMCcsICctbWV0YWxfYmluZGluZycsICctaW1hZScsICc8aW5maWxlLm1hZT4nLCAnLW9tYWUnLCAnPG91dGZpbGUubWFlPic=

> <r_lp_tautomer_probability>
1

> <r_epik_Ionization_Penalty>
7.1854e-08

> <r_epik_Ionization_Penalty_Charging>
1.40848e-10

> <r_epik_Ionization_Penalty_Neutral>
7.17131e-08

> <r_epik_State_Penalty>
-0

> <r_epik_Charging_Adjusted_Penalty>
1.40848e-10

> <i_epik_Tot_Q>
0

> <i_epik_Tot_abs_Q>
0

> <r_epik_Metal_State_Penalty>
-0

> <b_epik_Metal_Only>
0

> <s_lp_Force_Field>
OPLS_2005

> <r_lp_Energy>
30.0509

> <b_lp_Chiralities_Consistent>
1

> <s_lp_Variant>
AV-unprocessed.smi:1631-1

> <Gold.Version>
5.8.1

> <Gold.Id.Protein>
6NUR|6NUR_protein|mol2

> <Gold.PLP.Fitness>
42.0540

> <Gold.PLP.PLP>
-37.5028

> <Gold.PLP.part.hbond>
-3.5197

> <Gold.PLP.part.metal>
0.0000

> <Gold.PLP.part.buried>
-2.8630

> <Gold.PLP.part.nonpolar>
-31.3473

> <Gold.PLP.part.repulsive>
0.1576

> <Gold.PLP.ligand.clash>
1.3985

> <Gold.PLP.ligand.torsion>
1.0269

> <Gold.PLP.Chemscore.Hbond>
2.1924

> <Gold.PLP.Chemscore.CHOScore>
0.0000

> <Gold.PLP.Chemscore.Metal>
0.0000

> <Gold.Chemscore.Hbonds>
donor molecule, donor type, donor heavy atom, donor atom, acceptor molecule, acceptor atom, score
      L1  H     7    31       P1  7949  1.00
      P1  H  6896  6909       L1    19  0.01
      P1  H 10752 10764       L1     7  0.95

> <Gold.PLP.Chemscore.Internal.Correction>
1.4263

> <Gold.Rescore>
     Score         DG    S(hbond)    S(metal)    S(lipo)     H(rot)  DE(clash)    DE(int)     intcor
     10.51     -13.78       1.22        0.00      82.47       2.11       1.32       1.95       ----

> <Gold.Chemscore.Fitness>
10.5148

> <Gold.Chemscore.DG>
-13.7789

> <Gold.Chemscore.ZeroCoef>
-5.4800

> <Gold.Chemscore.Hbond>
1.2150

> <Gold.Chemscore.Metal>
0.0000

> <Gold.Chemscore.Lipo>
82.4658

> <Gold.Chemscore.Internal_Hbond>
0.0000

> <Gold.Chemscore.DEClash>
1.3187

> <Gold.Chemscore.DEInternal>
1.9454

> <Gold.Chemscore.Rot>
2.1124

> <Gold.Chemscore.Internal.Correction>
   9.000000E+99

> <Gold.Chemscore.Hbonds>
donor molecule, donor type, donor heavy atom, donor atom, acceptor molecule, acceptor atom, score
      L1  H     7    31       P1  7949  0.35
      P1  H  6896  6909       L1    19  0.05
      P1  H 10752 10764       L1     7  0.21

> <Gold.Chemscore.Hbond.Weighted>
-4.0581

> <Gold.Chemscore.Metal.Weighted>
-0.0000

> <Gold.Chemscore.Lipo.Weighted>
-9.6485

> <Gold.Chemscore.Internal_Hbond.Weighted>
0.0000

> <Gold.Chemscore.DEClash.Weighted>
1.3187

> <Gold.Chemscore.DEInternal.Weighted>
1.9454

> <Gold.Chemscore.Rot.Weighted>
5.4078

> <Gold.Chemscore.Internal.Correction.Weighted>
   9.000000E+99

> <Gold.Protein.RotatedTorsions>
[ 6907 6896 6895 6894 ] final   45.30 input  -60.11 | X-H torsion
[ 7974 7965 7964 7962 ] final   87.80 input  175.53 | X-H torsion
[ 8008 7997 7996 7995 ] final   28.86 input   59.86 | X-H torsion
[ 10167 10162 10161 10158 ] final   56.79 input  -65.29 | X-H torsion
[ 10718 10713 10712 10709 ] final  151.92 input   66.30 | X-H torsion
[ 10763 10752 10751 10750 ] final  -68.10 input  -60.55 | X-H torsion
[ 11005 11000 10999 10996 ] final   34.04 input  -57.11 | X-H torsion

> <Gold.Protein.ActiveResidues>
 VAL166  LYS551  ARG553  GLY616  TRP617  ASP618  TYR619  PRO620  LYS621  CYS622 
 ASP623  PHE694  ASN695  SER759  ASP760  ASP761  ALA762  ILE779  LEU786  VAL792 
 PHE793  MET794  SER795  GLU796  ALA797  LYS798  CYS799  TRP800  GLU811  SER814 

> <Gold.Protein.RotatedAtoms>
  152.2429  134.8211  160.0457 H   0  0  0  0  0  0  0  0  0  0  0  0  # atno 6907 bound_to 6896
  151.8919  133.3513  159.3809 H   0  0  0  0  0  0  0  0  0  0  0  0  # atno 6908 bound_to 6896
  150.7059  134.4842  159.5529 H   0  0  0  0  0  0  0  0  0  0  0  0  # atno 6909 bound_to 6896
  145.5542  139.2298  143.2495 H   0  0  0  0  0  0  0  0  0  0  0  0  # atno 7974 bound_to 7965
  155.0654  140.3194  155.4647 H   0  0  0  0  0  0  0  0  0  0  0  0  # atno 8008 bound_to 7997
  156.2803  140.2121  156.5726 H   0  0  0  0  0  0  0  0  0  0  0  0  # atno 8009 bound_to 7997
  154.7098  140.0499  157.0527 H   0  0  0  0  0  0  0  0  0  0  0  0  # atno 8010 bound_to 7997
  140.2049  144.3949  150.6513 H   0  0  0  0  0  0  0  0  0  0  0  0  # atno 10167 bound_to 10162
  157.2644  131.0804  151.1643 H   0  0  0  0  0  0  0  0  0  0  0  0  # atno 10718 bound_to 10713
  154.3841  135.6067  153.5807 H   0  0  0  0  0  0  0  0  0  0  0  0  # atno 10763 bound_to 10752
  152.9788  135.5868  154.4375 H   0  0  0  0  0  0  0  0  0  0  0  0  # atno 10764 bound_to 10752
  154.4149  135.2845  155.1991 H   0  0  0  0  0  0  0  0  0  0  0  0  # atno 10765 bound_to 10752
  140.2570  134.3237  155.7870 H   0  0  0  0  0  0  0  0  0  0  0  0  # atno 11005 bound_to 11000
  146.1896  140.6366  142.9152 LP  0  0  0  0  0  0  0  0  0  0  0  0  # atno 17320 bound_to 7965
  144.7514  140.5201  143.6799 LP  0  0  0  0  0  0  0  0  0  0  0  0  # atno 17321 bound_to 7965
  140.6364  143.2195  151.6385 LP  0  0  0  0  0  0  0  0  0  0  0  0  # atno 17342 bound_to 10162
  139.5202  144.3229  152.0895 LP  0  0  0  0  0  0  0  0  0  0  0  0  # atno 17343 bound_to 10162
  157.3140  130.6904  149.6231 LP  0  0  0  0  0  0  0  0  0  0  0  0  # atno 17370 bound_to 10713
  155.9663  130.4355  150.5095 LP  0  0  0  0  0  0  0  0  0  0  0  0  # atno 17371 bound_to 10713
  141.2195  133.7387  156.9126 LP  0  0  0  0  0  0  0  0  0  0  0  0  # atno 17394 bound_to 11000
  140.1502  134.9235  157.2583 LP  0  0  0  0  0  0  0  0  0  0  0  0  # atno 17395 bound_to 11000

$$$$
