AV-unprocessed.smi:2928|AV-procd|sdf|11237|dock10
  -GOLD-   2272016133D 1   1.00000     0.00000
 Structure written by MMmdl.
 56 59  0  0  0  0  0  0  0  0  3 V2000
  149.6613  140.0292  157.7286 C   0  0  0  0  0  0  0  0  0  0  0  0
  149.9135  138.9757  156.7164 N   0  3  2  0  0  0  0  0  0  0  0  0
  150.3657  137.6761  157.2700 C   0  0  2  0  0  0  0  0  0  0  0  0
  151.8081  137.7735  157.8299 C   0  0  0  0  0  0  0  0  0  0  0  0
  152.8266  138.3780  156.8443 C   0  0  0  0  0  0  0  0  0  0  0  0
  152.2552  139.5797  156.0681 C   0  0  0  0  0  0  0  0  0  0  0  0
  150.7928  139.3855  155.5943 C   0  0  1  0  0  0  0  0  0  0  0  0
  150.6179  138.3842  154.4282 C   0  0  0  0  0  0  0  0  0  0  0  0
  150.7945  136.8961  154.8263 C   0  0  2  0  0  0  0  0  0  0  0  0
  150.2010  136.0277  153.8115 N   0  0  0  0  0  0  0  0  0  0  0  0
  150.5742  134.7641  153.5616 C   0  0  0  0  0  0  0  0  0  0  0  0
  151.4875  134.1927  154.1568 O   0  0  0  0  0  0  0  0  0  0  0  0
  149.8407  134.2239  152.5741 N   0  0  0  0  0  0  0  0  0  0  0  0
  149.9587  132.9203  152.0139 C   0  0  0  0  0  0  0  0  0  0  0  0
  151.0337  132.0655  152.3701 C   0  0  0  0  0  0  0  0  0  0  0  0
  151.0872  130.7541  151.8617 C   0  0  0  0  0  0  0  0  0  0  0  0
  150.0557  130.3098  151.0171 C   0  0  0  0  0  0  0  0  0  0  0  0
  149.0410  131.1422  150.7059 N   0  3  0  0  0  0  0  0  0  0  0  0
  148.9411  132.4203  151.1502 C   0  0  0  0  0  0  0  0  0  0  0  0
  147.8273  133.1813  150.7276 N   0  0  0  0  0  0  0  0  0  0  0  0
  146.9818  133.8586  151.7042 C   0  0  0  0  0  0  0  0  0  0  0  0
  145.7214  134.2462  150.9360 C   0  0  0  0  0  0  0  0  0  0  0  0
  145.5575  133.0806  149.9652 C   0  0  0  0  0  0  0  0  0  0  0  0
  146.9983  132.6741  149.6383 C   0  0  0  0  0  0  0  0  0  0  0  0
  150.1569  136.5792  156.2000 C   0  0  0  0  0  0  0  0  0  0  0  0
  150.5662  140.3164  158.2631 H   0  0  0  0  0  0  0  0  0  0  0  0
  148.9325  139.6831  158.4619 H   0  0  0  0  0  0  0  0  0  0  0  0
  149.2518  140.9216  157.2546 H   0  0  0  0  0  0  0  0  0  0  0  0
  149.7104  137.4227  158.1048 H   0  0  0  0  0  0  0  0  0  0  0  0
  151.7941  138.3895  158.7294 H   0  0  0  0  0  0  0  0  0  0  0  0
  152.1509  136.7919  158.1586 H   0  0  0  0  0  0  0  0  0  0  0  0
  153.7179  138.6892  157.3899 H   0  0  0  0  0  0  0  0  0  0  0  0
  153.1852  137.6185  156.1548 H   0  0  0  0  0  0  0  0  0  0  0  0
  152.3028  140.4590  156.7112 H   0  0  0  0  0  0  0  0  0  0  0  0
  152.8984  139.8095  155.2179 H   0  0  0  0  0  0  0  0  0  0  0  0
  150.4394  140.3511  155.2292 H   0  0  0  0  0  0  0  0  0  0  0  0
  149.6112  138.5189  154.0289 H   0  0  0  0  0  0  0  0  0  0  0  0
  151.2947  138.6376  153.6111 H   0  0  0  0  0  0  0  0  0  0  0  0
  151.8537  136.6554  154.8744 H   0  0  0  0  0  0  0  0  0  0  0  0
  149.4419  136.4147  153.2699 H   0  0  0  0  0  0  0  0  0  0  0  0
  149.1940  134.8425  152.1066 H   0  0  0  0  0  0  0  0  0  0  0  0
  151.8096  132.3892  153.0474 H   0  0  0  0  0  0  0  0  0  0  0  0
  151.9011  130.0956  152.1277 H   0  0  0  0  0  0  0  0  0  0  0  0
  150.0085  129.3199  150.5866 H   0  0  0  0  0  0  0  0  0  0  0  0
  146.7197  133.1809  152.5178 H   0  0  0  0  0  0  0  0  0  0  0  0
  147.4812  134.7301  152.1286 H   0  0  0  0  0  0  0  0  0  0  0  0
  144.8556  134.3895  151.5831 H   0  0  0  0  0  0  0  0  0  0  0  0
  145.8893  135.1711  150.3824 H   0  0  0  0  0  0  0  0  0  0  0  0
  145.0477  132.2562  150.4660 H   0  0  0  0  0  0  0  0  0  0  0  0
  144.9801  133.3428  149.0781 H   0  0  0  0  0  0  0  0  0  0  0  0
  147.3152  133.1458  148.7080 H   0  0  0  0  0  0  0  0  0  0  0  0
  147.0880  131.5932  149.5201 H   0  0  0  0  0  0  0  0  0  0  0  0
  150.5192  135.6185  156.5680 H   0  0  0  0  0  0  0  0  0  0  0  0
  149.0808  136.4567  156.0646 H   0  0  0  0  0  0  0  0  0  0  0  0
  149.0089  138.7975  156.3041 H   0  0  0  0  0  0  0  0  0  0  0  0
  148.3074  130.7901  150.0908 H   0  0  0  0  0  0  0  0  0  0  0  0
  1  2  1  0  0  0  0
  1 26  1  0  0  0  0
  1 27  1  0  0  0  0
  1 28  1  0  0  0  0
  2  7  1  0  0  0  0
  2  3  1  0  0  0  0
  2 55  1  0  0  0  0
  3 25  1  0  0  0  0
  3  4  1  0  0  0  0
  3 29  1  0  0  0  0
  4  5  1  0  0  0  0
  4 30  1  0  0  0  0
  4 31  1  0  0  0  0
  5  6  1  0  0  0  0
  5 32  1  0  0  0  0
  5 33  1  0  0  0  0
  6  7  1  0  0  0  0
  6 34  1  0  0  0  0
  6 35  1  0  0  0  0
  7  8  1  0  0  0  0
  7 36  1  0  0  0  0
  8  9  1  0  0  0  0
  8 37  1  0  0  0  0
  8 38  1  0  0  0  0
  9 10  1  0  0  0  0
  9 25  1  0  0  0  0
  9 39  1  0  0  0  0
 10 11  1  0  0  0  0
 10 40  1  0  0  0  0
 11 12  2  0  0  0  0
 11 13  1  0  0  0  0
 13 14  1  0  0  0  0
 13 41  1  0  0  0  0
 14 19  1  0  0  0  0
 14 15  2  0  0  0  0
 15 16  1  0  0  0  0
 15 42  1  0  0  0  0
 16 17  2  0  0  0  0
 16 43  1  0  0  0  0
 17 18  1  0  0  0  0
 17 44  1  0  0  0  0
 18 19  2  0  0  0  0
 18 56  1  0  0  0  0
 19 20  1  0  0  0  0
 20 24  1  0  0  0  0
 20 21  1  0  0  0  0
 21 22  1  0  0  0  0
 21 45  1  0  0  0  0
 21 46  1  0  0  0  0
 22 23  1  0  0  0  0
 22 47  1  0  0  0  0
 22 48  1  0  0  0  0
 23 24  1  0  0  0  0
 23 49  1  0  0  0  0
 23 50  1  0  0  0  0
 24 51  1  0  0  0  0
 24 52  1  0  0  0  0
 25 53  1  0  0  0  0
 25 54  1  0  0  0  0
M  CHG  1   2   1
M  CHG  1  18   1
M  END
> <s_m_source_file>
AV-unprocessed.smi

> <i_m_source_file_index>
2928

> <i_lp_mmshare_version>
43012

> <i_f3d_flags>
0

> <s_epik_input>
W0NIMl0xW0NIMl1bQ0gyXVtDQEhdKE4oW0NIM10pW0NIXTEyKVtDSDJdW0NASF0oW0NIMl0yKVtOSF1DKD1PKVtOSF1jM1tjSF1bY0hdW2NIXW5jM040W0NIMl1bQ0gyXVtDSDJdW0NIMl00

> <s_epik_cmdline>
J2VwaWtfcHl0aG9uJywgJy1waCcsICc3LjAnLCAnLXRuJywgJzgnLCAnLW1hJywgJzIwMCcsICctbWV0YWxfYmluZGluZycsICctaW1hZScsICc8aW5maWxlLm1hZT4nLCAnLW9tYWUnLCAnPG91dGZpbGUubWFlPic=

> <r_lp_tautomer_probability>
0.999994

> <r_epik_Ionization_Penalty>
1.2404

> <r_epik_Ionization_Penalty_Charging>
1.24038

> <r_epik_Ionization_Penalty_Neutral>
1.86539e-05

> <r_epik_State_Penalty>
1.30821

> <r_epik_Charging_Adjusted_Penalty>
2.54859

> <i_epik_Tot_Q>
2

> <i_epik_Tot_abs_Q>
2

> <r_epik_Metal_State_Penalty>
1.3782

> <b_epik_Metal_Only>
0

> <s_lp_Force_Field>
OPLS_2005

> <r_lp_Energy>
72.5254

> <b_lp_Chiralities_Consistent>
1

> <s_lp_Variant>
AV-unprocessed.smi:2928-7

> <Gold.Version>
5.8.1

> <Gold.Id.Protein>
6NUR|6NUR_protein|mol2

> <Gold.PLP.Fitness>
42.8500

> <Gold.PLP.PLP>
-39.0173

> <Gold.PLP.part.hbond>
-3.0000

> <Gold.PLP.part.metal>
0.0000

> <Gold.PLP.part.buried>
-2.0699

> <Gold.PLP.part.nonpolar>
-32.9384

> <Gold.PLP.part.repulsive>
0.2821

> <Gold.PLP.ligand.clash>
0.0000

> <Gold.PLP.ligand.torsion>
0.5530

> <Gold.PLP.Chemscore.Hbond>
1.5200

> <Gold.PLP.Chemscore.CHOScore>
0.0000

> <Gold.PLP.Chemscore.Metal>
0.0000

> <Gold.Chemscore.Hbonds>
donor molecule, donor type, donor heavy atom, donor atom, acceptor molecule, acceptor atom, score
      L1  H    10    40       P1  7948  0.55

> <Gold.PLP.Chemscore.Internal.Correction>
0.3787

> <Gold.Rescore>
     Score         DG    S(hbond)    S(metal)    S(lipo)     H(rot)  DE(clash)    DE(int)     intcor
     14.27     -18.00       1.37        0.00      93.90       1.19       1.13       2.59       ----

> <Gold.Chemscore.Fitness>
14.2704

> <Gold.Chemscore.DG>
-17.9994

> <Gold.Chemscore.ZeroCoef>
-5.4800

> <Gold.Chemscore.Hbond>
1.3695

> <Gold.Chemscore.Metal>
0.0000

> <Gold.Chemscore.Lipo>
93.9009

> <Gold.Chemscore.Internal_Hbond>
0.0000

> <Gold.Chemscore.DEClash>
1.1343

> <Gold.Chemscore.DEInternal>
2.5948

> <Gold.Chemscore.Rot>
1.1879

> <Gold.Chemscore.Internal.Correction>
   9.000000E+99

> <Gold.Chemscore.Hbonds>
donor molecule, donor type, donor heavy atom, donor atom, acceptor molecule, acceptor atom, score
      L1  H    10    40       P1  7948  0.36

> <Gold.Chemscore.Hbond.Weighted>
-4.5741

> <Gold.Chemscore.Metal.Weighted>
-0.0000

> <Gold.Chemscore.Lipo.Weighted>
-10.9864

> <Gold.Chemscore.Internal_Hbond.Weighted>
0.0000

> <Gold.Chemscore.DEClash.Weighted>
1.1343

> <Gold.Chemscore.DEInternal.Weighted>
2.5948

> <Gold.Chemscore.Rot.Weighted>
3.0410

> <Gold.Chemscore.Internal.Correction.Weighted>
   9.000000E+99

> <Gold.Protein.RotatedTorsions>
[ 6907 6896 6895 6894 ] final  -51.67 input  -60.11 | X-H torsion
[ 7974 7965 7964 7962 ] final   11.53 input  175.53 | X-H torsion
[ 8008 7997 7996 7995 ] final  -42.63 input   59.86 | X-H torsion
[ 10167 10162 10161 10158 ] final  -90.58 input  -65.29 | X-H torsion
[ 10718 10713 10712 10709 ] final  -65.20 input   66.30 | X-H torsion
[ 10763 10752 10751 10750 ] final  112.45 input  -60.55 | X-H torsion
[ 11005 11000 10999 10996 ] final  -99.26 input  -57.11 | X-H torsion

> <Gold.Protein.ActiveResidues>
 VAL166  LYS551  ARG553  GLY616  TRP617  ASP618  TYR619  PRO620  LYS621  CYS622 
 ASP623  PHE694  ASN695  SER759  ASP760  ASP761  ALA762  ILE779  LEU786  VAL792 
 PHE793  MET794  SER795  GLU796  ALA797  LYS798  CYS799  TRP800  GLU811  SER814 

> <Gold.Protein.RotatedAtoms>
  150.8589  134.7936  159.7067 H   0  0  0  0  0  0  0  0  0  0  0  0  # atno 6907 bound_to 6896
  152.4632  134.5132  159.9770 H   0  0  0  0  0  0  0  0  0  0  0  0  # atno 6908 bound_to 6896
  151.5239  133.3423  159.2942 H   0  0  0  0  0  0  0  0  0  0  0  0  # atno 6909 bound_to 6896
  146.2369  139.9472  142.8475 H   0  0  0  0  0  0  0  0  0  0  0  0  # atno 7974 bound_to 7965
  154.3998  140.1468  156.3386 H   0  0  0  0  0  0  0  0  0  0  0  0  # atno 8008 bound_to 7997
  155.8377  140.3463  155.5591 H   0  0  0  0  0  0  0  0  0  0  0  0  # atno 8009 bound_to 7997
  155.8120  140.0885  157.1889 H   0  0  0  0  0  0  0  0  0  0  0  0  # atno 8010 bound_to 7997
  140.3535  143.2879  151.9698 H   0  0  0  0  0  0  0  0  0  0  0  0  # atno 10167 bound_to 10162
  156.0683  130.4244  150.1530 H   0  0  0  0  0  0  0  0  0  0  0  0  # atno 10718 bound_to 10713
  153.4780  135.3686  155.2427 H   0  0  0  0  0  0  0  0  0  0  0  0  # atno 10763 bound_to 10752
  154.8756  135.3947  154.3733 H   0  0  0  0  0  0  0  0  0  0  0  0  # atno 10764 bound_to 10752
  153.4332  135.7083  153.6282 H   0  0  0  0  0  0  0  0  0  0  0  0  # atno 10765 bound_to 10752
  141.1315  133.8307  157.0948 H   0  0  0  0  0  0  0  0  0  0  0  0  # atno 11005 bound_to 11000
  145.1896  140.9805  143.4218 LP  0  0  0  0  0  0  0  0  0  0  0  0  # atno 17320 bound_to 7965
  144.9869  139.3728  143.6234 LP  0  0  0  0  0  0  0  0  0  0  0  0  # atno 17321 bound_to 7965
  139.4823  144.6055  151.7529 LP  0  0  0  0  0  0  0  0  0  0  0  0  # atno 17342 bound_to 10162
  140.5196  144.0899  150.6018 LP  0  0  0  0  0  0  0  0  0  0  0  0  # atno 17343 bound_to 10162
  156.9585  130.9797  151.3484 LP  0  0  0  0  0  0  0  0  0  0  0  0  # atno 17370 bound_to 10713
  157.5739  130.8329  149.8429 LP  0  0  0  0  0  0  0  0  0  0  0  0  # atno 17371 bound_to 10713
  140.0370  134.9873  157.0890 LP  0  0  0  0  0  0  0  0  0  0  0  0  # atno 17394 bound_to 11000
  140.4195  134.1896  155.7164 LP  0  0  0  0  0  0  0  0  0  0  0  0  # atno 17395 bound_to 11000

$$$$
