AV-unprocessed.smi:3256|AV-procd|sdf|12465|dock1
  -GOLD-   2272018363D 1   1.00000     0.00000
 Structure written by MMmdl.
 36 37  0  0  0  0  0  0  0  0  1 V2000
  145.3927  138.3635  153.4465 O   0  0  0  0  0  0  0  0  0  0  0  0
  146.3900  137.7668  153.0429 C   0  0  0  0  0  0  0  0  0  0  0  0
  146.3419  136.5746  152.4314 N   0  0  0  0  0  0  0  0  0  0  0  0
  145.1295  135.8074  152.1645 C   0  0  0  0  0  0  0  0  0  0  0  0
  145.0685  135.3336  150.6993 C   0  0  0  0  0  0  0  0  0  0  0  0
  145.1378  133.8861  150.4981 N   0  0  0  0  0  0  0  0  0  0  0  0
  143.8470  133.2576  150.7553 C   0  0  0  0  0  0  0  0  0  0  0  0
  143.8972  131.7348  150.5420 C   0  0  0  0  0  0  0  0  0  0  0  0
  144.9064  131.1708  151.3727 O   0  0  0  0  0  0  0  0  0  0  0  0
  146.1941  131.7260  151.1256 C   0  0  0  0  0  0  0  0  0  0  0  0
  146.1499  133.2491  151.3381 C   0  0  0  0  0  0  0  0  0  0  0  0
  147.6588  138.1968  153.1549 N   0  0  0  0  0  0  0  0  0  0  0  0
  148.1599  139.4030  153.7181 C   0  0  0  0  0  0  0  0  0  0  0  0
  147.4315  140.6135  153.8253 C   0  0  0  0  0  0  0  0  0  0  0  0
  148.0596  141.7367  154.3976 C   0  0  0  0  0  0  0  0  0  0  0  0
  149.3916  141.6131  154.8369 C   0  0  0  0  0  0  0  0  0  0  0  0
  150.0998  140.4691  154.7362 N   0  0  0  0  0  0  0  0  0  0  0  0
  149.4909  139.3965  154.1876 C   0  0  0  0  0  0  0  0  0  0  0  0
  147.2132  136.1581  152.1378 H   0  0  0  0  0  0  0  0  0  0  0  0
  145.0145  134.9817  152.8671 H   0  0  0  0  0  0  0  0  0  0  0  0
  144.2848  136.4704  152.3527 H   0  0  0  0  0  0  0  0  0  0  0  0
  144.1569  135.7177  150.2394 H   0  0  0  0  0  0  0  0  0  0  0  0
  145.8909  135.8088  150.1626 H   0  0  0  0  0  0  0  0  0  0  0  0
  143.5296  133.4684  151.7777 H   0  0  0  0  0  0  0  0  0  0  0  0
  143.0893  133.6868  150.0986 H   0  0  0  0  0  0  0  0  0  0  0  0
  142.9364  131.2849  150.7920 H   0  0  0  0  0  0  0  0  0  0  0  0
  144.1016  131.4974  149.4968 H   0  0  0  0  0  0  0  0  0  0  0  0
  146.9151  131.2693  151.8037 H   0  0  0  0  0  0  0  0  0  0  0  0
  146.5125  131.4875  150.1097 H   0  0  0  0  0  0  0  0  0  0  0  0
  147.1366  133.6577  151.1232 H   0  0  0  0  0  0  0  0  0  0  0  0
  145.9459  133.4609  152.3888 H   0  0  0  0  0  0  0  0  0  0  0  0
  148.3654  137.5647  152.8082 H   0  0  0  0  0  0  0  0  0  0  0  0
  146.4160  140.7147  153.4785 H   0  0  0  0  0  0  0  0  0  0  0  0
  147.5320  142.6740  154.4944 H   0  0  0  0  0  0  0  0  0  0  0  0
  149.9028  142.4559  155.2778 H   0  0  0  0  0  0  0  0  0  0  0  0
  150.0898  138.4996  154.1221 H   0  0  0  0  0  0  0  0  0  0  0  0
  1  2  2  0  0  0  0
  2  3  1  0  0  0  0
  2 12  1  0  0  0  0
  3  4  1  0  0  0  0
  3 19  1  0  0  0  0
  4  5  1  0  0  0  0
  4 20  1  0  0  0  0
  4 21  1  0  0  0  0
  5  6  1  0  0  0  0
  5 22  1  0  0  0  0
  5 23  1  0  0  0  0
  6 11  1  0  0  0  0
  6  7  1  0  0  0  0
  7  8  1  0  0  0  0
  7 24  1  0  0  0  0
  7 25  1  0  0  0  0
  8  9  1  0  0  0  0
  8 26  1  0  0  0  0
  8 27  1  0  0  0  0
  9 10  1  0  0  0  0
 10 11  1  0  0  0  0
 10 28  1  0  0  0  0
 10 29  1  0  0  0  0
 11 30  1  0  0  0  0
 11 31  1  0  0  0  0
 12 13  1  0  0  0  0
 12 32  1  0  0  0  0
 13 18  1  0  0  0  0
 13 14  2  0  0  0  0
 14 15  1  0  0  0  0
 14 33  1  0  0  0  0
 15 16  2  0  0  0  0
 15 34  1  0  0  0  0
 16 17  1  0  0  0  0
 16 35  1  0  0  0  0
 17 18  2  0  0  0  0
 18 36  1  0  0  0  0
M  END
> <s_m_source_file>
AV-unprocessed.smi

> <i_m_source_file_index>
3256

> <i_lp_mmshare_version>
43012

> <i_f3d_flags>
0

> <s_epik_input>
W2NIXTFuW2NIXVtjSF1bY0hdYzFbTkhdQyg9TylbTkhdW0NIMl1bQ0gyXU4yW0NIMl1bQ0gyXU9bQ0gyXVtDSDJdMg==

> <s_epik_cmdline>
J2VwaWtfcHl0aG9uJywgJy1waCcsICc3LjAnLCAnLXRuJywgJzgnLCAnLW1hJywgJzIwMCcsICctbWV0YWxfYmluZGluZycsICctaW1hZScsICc8aW5maWxlLm1hZT4nLCAnLW9tYWUnLCAnPG91dGZpbGUubWFlPic=

> <r_epik_Ionization_Penalty>
0.270703

> <r_epik_Ionization_Penalty_Charging>
0

> <r_epik_Ionization_Penalty_Neutral>
0.270703

> <r_epik_State_Penalty>
0.268226

> <r_epik_Charging_Adjusted_Penalty>
0.268226

> <i_epik_Tot_Q>
0

> <i_epik_Tot_abs_Q>
0

> <r_epik_Metal_State_Penalty>
0.26483

> <b_epik_Metal_Only>
0

> <s_lp_Force_Field>
OPLS_2005

> <r_lp_Energy>
28.1533

> <b_lp_Chiralities_Consistent>
1

> <s_lp_Variant>
AV-unprocessed.smi:3256-1

> <Gold.Version>
5.8.1

> <Gold.Id.Protein>
6NUR|6NUR_protein|mol2

> <Gold.PLP.Fitness>
39.5838

> <Gold.PLP.PLP>
-29.4818

> <Gold.PLP.part.hbond>
-3.0550

> <Gold.PLP.part.metal>
0.0000

> <Gold.PLP.part.buried>
-0.5466

> <Gold.PLP.part.nonpolar>
-28.3061

> <Gold.PLP.part.repulsive>
2.6456

> <Gold.PLP.ligand.clash>
0.0000

> <Gold.PLP.ligand.torsion>
0.7107

> <Gold.PLP.Chemscore.Hbond>
2.9440

> <Gold.PLP.Chemscore.CHOScore>
0.8911

> <Gold.PLP.Chemscore.Metal>
0.0000

> <Gold.Chemscore.Hbonds>
donor molecule, donor type, donor heavy atom, donor atom, acceptor molecule, acceptor atom, score
      L1  H     3    19       P1  7948  1.00
      L1  H    12    32       P1  7948  1.00
      P1  H  7989  7998       L1    17  0.94
      L1  C    16    35       P1  8028  0.90

> <Gold.PLP.Chemscore.Internal.Correction>
0.0180

> <Gold.Rescore>
     Score         DG    S(hbond)    S(metal)    S(lipo)     H(rot)  DE(clash)    DE(int)     intcor
     16.31     -18.51       2.29        0.00      78.54       1.49       0.57       1.62       ----

> <Gold.Chemscore.Fitness>
16.3113

> <Gold.Chemscore.DG>
-18.5066

> <Gold.Chemscore.ZeroCoef>
-5.4800

> <Gold.Chemscore.Hbond>
2.2948

> <Gold.Chemscore.Metal>
0.0000

> <Gold.Chemscore.Lipo>
78.5366

> <Gold.Chemscore.Internal_Hbond>
0.0000

> <Gold.Chemscore.DEClash>
0.5706

> <Gold.Chemscore.DEInternal>
1.6247

> <Gold.Chemscore.Rot>
1.4949

> <Gold.Chemscore.Internal.Correction>
   9.000000E+99

> <Gold.Chemscore.Hbonds>
donor molecule, donor type, donor heavy atom, donor atom, acceptor molecule, acceptor atom, score
      L1  H     3    19       P1  7948  0.97
      L1  H    12    32       P1  7948  0.98
      P1  H  7989  7998       L1    17  0.22

> <Gold.Chemscore.Hbond.Weighted>
-7.6647

> <Gold.Chemscore.Metal.Weighted>
-0.0000

> <Gold.Chemscore.Lipo.Weighted>
-9.1888

> <Gold.Chemscore.Internal_Hbond.Weighted>
0.0000

> <Gold.Chemscore.DEClash.Weighted>
0.5706

> <Gold.Chemscore.DEInternal.Weighted>
1.6247

> <Gold.Chemscore.Rot.Weighted>
3.8269

> <Gold.Chemscore.Internal.Correction.Weighted>
   9.000000E+99

> <Gold.Protein.RotatedTorsions>
[ 6907 6896 6895 6894 ] final -113.56 input  -60.11 | X-H torsion
[ 7974 7965 7964 7962 ] final  142.35 input  175.53 | X-H torsion
[ 8008 7997 7996 7995 ] final  -42.13 input   59.86 | X-H torsion
[ 10167 10162 10161 10158 ] final -129.08 input  -65.29 | X-H torsion
[ 10718 10713 10712 10709 ] final -121.48 input   66.30 | X-H torsion
[ 10763 10752 10751 10750 ] final  128.60 input  -60.55 | X-H torsion
[ 11005 11000 10999 10996 ] final  124.56 input  -57.11 | X-H torsion

> <Gold.Protein.ActiveResidues>
 VAL166  LYS551  ARG553  GLY616  TRP617  ASP618  TYR619  PRO620  LYS621  CYS622 
 ASP623  PHE694  ASN695  SER759  ASP760  ASP761  ALA762  ILE779  LEU786  VAL792 
 PHE793  MET794  SER795  GLU796  ALA797  LYS798  CYS799  TRP800  GLU811  SER814 

> <Gold.Protein.RotatedAtoms>
  150.7838  133.8927  159.3317 H   0  0  0  0  0  0  0  0  0  0  0  0  # atno 6907 bound_to 6896
  151.6783  135.0964  160.0220 H   0  0  0  0  0  0  0  0  0  0  0  0  # atno 6908 bound_to 6896
  152.3896  133.6622  159.6262 H   0  0  0  0  0  0  0  0  0  0  0  0  # atno 6909 bound_to 6896
  144.9015  139.5416  143.5751 H   0  0  0  0  0  0  0  0  0  0  0  0  # atno 7974 bound_to 7965
  154.4000  140.1481  156.3305 H   0  0  0  0  0  0  0  0  0  0  0  0  # atno 8008 bound_to 7997
  155.8448  140.3460  155.5634 H   0  0  0  0  0  0  0  0  0  0  0  0  # atno 8009 bound_to 7997
  155.8048  140.0875  157.1927 H   0  0  0  0  0  0  0  0  0  0  0  0  # atno 8010 bound_to 7997
  139.9435  143.6136  152.2496 H   0  0  0  0  0  0  0  0  0  0  0  0  # atno 10167 bound_to 10162
  156.1340  130.6417  150.9667 H   0  0  0  0  0  0  0  0  0  0  0  0  # atno 10718 bound_to 10713
  153.7281  135.3243  155.3280 H   0  0  0  0  0  0  0  0  0  0  0  0  # atno 10763 bound_to 10752
  154.8334  135.4515  154.1149 H   0  0  0  0  0  0  0  0  0  0  0  0  # atno 10764 bound_to 10752
  153.2289  135.6957  153.7994 H   0  0  0  0  0  0  0  0  0  0  0  0  # atno 10765 bound_to 10752
  139.9364  134.9639  156.8428 H   0  0  0  0  0  0  0  0  0  0  0  0  # atno 11005 bound_to 11000
  146.3111  139.7749  142.9019 LP  0  0  0  0  0  0  0  0  0  0  0  0  # atno 17320 bound_to 7965
  145.3608  141.0325  143.3286 LP  0  0  0  0  0  0  0  0  0  0  0  0  # atno 17321 bound_to 7965
  139.6685  144.7661  151.1827 LP  0  0  0  0  0  0  0  0  0  0  0  0  # atno 17342 bound_to 10162
  140.7604  143.5900  150.8805 LP  0  0  0  0  0  0  0  0  0  0  0  0  # atno 17343 bound_to 10162
  157.6515  131.0896  150.8040 LP  0  0  0  0  0  0  0  0  0  0  0  0  # atno 17370 bound_to 10713
  156.8122  130.4956  149.5354 LP  0  0  0  0  0  0  0  0  0  0  0  0  # atno 17371 bound_to 10713
  140.6063  134.0124  155.7558 LP  0  0  0  0  0  0  0  0  0  0  0  0  # atno 17394 bound_to 11000
  141.0980  133.9813  157.3127 LP  0  0  0  0  0  0  0  0  0  0  0  0  # atno 17395 bound_to 11000

$$$$
