AV-unprocessed.smi:3232|AV-procd|sdf|12345|dock9
  -GOLD-   2272018203D 1   1.00000     0.00000
 Structure written by MMmdl.
 40 41  0  0  0  0  0  0  0  0  2 V2000
  145.9127  134.8744  151.9633 C   0  0  0  0  0  0  0  0  0  0  0  0
  146.4947  134.9583  153.3814 C   0  0  0  0  0  0  0  0  0  0  0  0
  147.8363  134.3309  153.4776 N   0  3  2  0  0  0  0  0  0  0  0  0
  147.8636  132.8801  153.1831 C   0  0  0  0  0  0  0  0  0  0  0  0
  149.0530  132.2974  153.9600 C   0  0  0  0  0  0  0  0  0  0  0  0
  149.7503  133.5097  154.5756 C   0  0  0  0  0  0  0  0  0  0  0  0
  148.6290  134.5480  154.7145 C   0  0  2  0  0  0  0  0  0  0  0  0
  147.7960  134.3902  156.0143 C   0  0  0  0  0  0  0  0  0  0  0  0
  148.3662  135.1509  157.1213 N   0  0  0  0  0  0  0  0  0  0  0  0
  147.8354  135.2512  158.3512 C   0  0  0  0  0  0  0  0  0  0  0  0
  146.7563  134.7444  158.6600 O   0  0  0  0  0  0  0  0  0  0  0  0
  148.6703  136.0200  159.3884 C   0  0  1  0  0  0  0  0  0  0  0  0
  148.9224  137.4884  158.9922 C   0  0  0  0  0  0  0  0  0  0  0  0
  148.0554  135.9148  160.7064 N   0  0  0  0  0  0  0  0  0  0  0  0
  147.6883  134.8351  161.3998 C   0  0  0  0  0  0  0  0  0  0  0  0
  147.1128  135.1117  162.5615 N   0  0  0  0  0  0  0  0  0  0  0  0
  147.1581  136.4764  162.5201 C   0  0  0  0  0  0  0  0  0  0  0  0
  147.7046  137.0091  161.4276 N   0  0  0  0  0  0  0  0  0  0  0  0
  144.9044  135.2882  151.9364 H   0  0  0  0  0  0  0  0  0  0  0  0
  145.8546  133.8401  151.6226 H   0  0  0  0  0  0  0  0  0  0  0  0
  146.5131  135.4312  151.2441 H   0  0  0  0  0  0  0  0  0  0  0  0
  146.5188  135.9901  153.7324 H   0  0  0  0  0  0  0  0  0  0  0  0
  145.8249  134.4266  154.0584 H   0  0  0  0  0  0  0  0  0  0  0  0
  146.9377  132.4009  153.5054 H   0  0  0  0  0  0  0  0  0  0  0  0
  147.9643  132.7236  152.1086 H   0  0  0  0  0  0  0  0  0  0  0  0
  148.6919  131.6365  154.7491 H   0  0  0  0  0  0  0  0  0  0  0  0
  149.7234  131.7176  153.3250 H   0  0  0  0  0  0  0  0  0  0  0  0
  150.2725  133.2742  155.5022 H   0  0  0  0  0  0  0  0  0  0  0  0
  150.4999  133.8836  153.8768 H   0  0  0  0  0  0  0  0  0  0  0  0
  149.0549  135.5522  154.6940 H   0  0  0  0  0  0  0  0  0  0  0  0
  146.7879  134.7773  155.8691 H   0  0  0  0  0  0  0  0  0  0  0  0
  147.6803  133.3368  156.2749 H   0  0  0  0  0  0  0  0  0  0  0  0
  149.2530  135.6035  156.9530 H   0  0  0  0  0  0  0  0  0  0  0  0
  149.6423  135.5273  159.4451 H   0  0  0  0  0  0  0  0  0  0  0  0
  149.4309  137.5551  158.0295 H   0  0  0  0  0  0  0  0  0  0  0  0
  149.5544  137.9854  159.7287 H   0  0  0  0  0  0  0  0  0  0  0  0
  147.9949  138.0575  158.9171 H   0  0  0  0  0  0  0  0  0  0  0  0
  147.8403  133.8261  161.0455 H   0  0  0  0  0  0  0  0  0  0  0  0
  146.7704  137.0957  163.3153 H   0  0  0  0  0  0  0  0  0  0  0  0
  148.3894  134.7490  152.7430 H   0  0  0  0  0  0  0  0  0  0  0  0
  1  2  1  0  0  0  0
  1 19  1  0  0  0  0
  1 20  1  0  0  0  0
  1 21  1  0  0  0  0
  2  3  1  0  0  0  0
  2 22  1  0  0  0  0
  2 23  1  0  0  0  0
  3  7  1  0  0  0  0
  3  4  1  0  0  0  0
  3 40  1  0  0  0  0
  4  5  1  0  0  0  0
  4 24  1  0  0  0  0
  4 25  1  0  0  0  0
  5  6  1  0  0  0  0
  5 26  1  0  0  0  0
  5 27  1  0  0  0  0
  6  7  1  0  0  0  0
  6 28  1  0  0  0  0
  6 29  1  0  0  0  0
  7  8  1  0  0  0  0
  7 30  1  0  0  0  0
  8  9  1  0  0  0  0
  8 31  1  0  0  0  0
  8 32  1  0  0  0  0
  9 10  1  0  0  0  0
  9 33  1  0  0  0  0
 10 11  2  0  0  0  0
 10 12  1  0  0  0  0
 12 13  1  0  0  0  0
 12 14  1  0  0  0  0
 12 34  1  0  0  0  0
 13 35  1  0  0  0  0
 13 36  1  0  0  0  0
 13 37  1  0  0  0  0
 14 18  1  0  0  0  0
 14 15  1  0  0  0  0
 15 16  2  0  0  0  0
 15 38  1  0  0  0  0
 16 17  1  0  0  0  0
 17 18  2  0  0  0  0
 17 39  1  0  0  0  0
M  CHG  1   3   1
M  END
> <s_m_source_file>
AV-unprocessed.smi

> <i_m_source_file_index>
3232

> <i_lp_mmshare_version>
43012

> <i_f3d_flags>
0

> <s_epik_input>
W0NIM11bQ0gyXU4xW0NIMl1bQ0gyXVtDSDJdW0NASF0xW0NIMl1bTkhdQyg9TylbQ0BIXShbQ0gzXSluMltjSF1uW2NIXW4y

> <s_epik_cmdline>
J2VwaWtfcHl0aG9uJywgJy1waCcsICc3LjAnLCAnLXRuJywgJzgnLCAnLW1hJywgJzIwMCcsICctbWV0YWxfYmluZGluZycsICctaW1hZScsICc8aW5maWxlLm1hZT4nLCAnLW9tYWUnLCAnPG91dGZpbGUubWFlPic=

> <r_lp_tautomer_probability>
1

> <r_epik_Ionization_Penalty>
0.00177695

> <r_epik_Ionization_Penalty_Charging>
0.00176881

> <r_epik_Ionization_Penalty_Neutral>
8.13528e-06

> <r_epik_State_Penalty>
0.00119827

> <r_epik_Charging_Adjusted_Penalty>
0.00296709

> <i_epik_Tot_Q>
1

> <i_epik_Tot_abs_Q>
1

> <r_epik_Metal_State_Penalty>
-0

> <b_epik_Metal_Only>
0

> <s_lp_Force_Field>
OPLS_2005

> <r_lp_Energy>
36.5981

> <b_lp_Chiralities_Consistent>
1

> <s_lp_Variant>
AV-unprocessed.smi:3232-7

> <Gold.Version>
5.8.1

> <Gold.Id.Protein>
6NUR|6NUR_protein|mol2

> <Gold.PLP.Fitness>
39.7746

> <Gold.PLP.PLP>
-28.8599

> <Gold.PLP.part.hbond>
-3.0000

> <Gold.PLP.part.metal>
0.0000

> <Gold.PLP.part.buried>
-4.5023

> <Gold.PLP.part.nonpolar>
-21.6173

> <Gold.PLP.part.repulsive>
0.0333

> <Gold.PLP.ligand.clash>
0.0000

> <Gold.PLP.ligand.torsion>
0.4270

> <Gold.PLP.Chemscore.Hbond>
3.8800

> <Gold.PLP.Chemscore.CHOScore>
0.0000

> <Gold.PLP.Chemscore.Metal>
0.0000

> <Gold.Chemscore.Hbonds>
donor molecule, donor type, donor heavy atom, donor atom, acceptor molecule, acceptor atom, score
      L1  H     3    40       P1  7948  2.00
      P1  H  6931  6943       L1    18  1.00
      P1  H  6934  6947       L1    18  0.61

> <Gold.PLP.Chemscore.Internal.Correction>
0.1287

> <Gold.Rescore>
     Score         DG    S(hbond)    S(metal)    S(lipo)     H(rot)  DE(clash)    DE(int)     intcor
     10.07     -11.77       2.61        0.00      33.60       2.49       0.02       1.68       ----

> <Gold.Chemscore.Fitness>
10.0709

> <Gold.Chemscore.DG>
-11.7674

> <Gold.Chemscore.ZeroCoef>
-5.4800

> <Gold.Chemscore.Hbond>
2.6127

> <Gold.Chemscore.Metal>
0.0000

> <Gold.Chemscore.Lipo>
33.5953

> <Gold.Chemscore.Internal_Hbond>
0.0000

> <Gold.Chemscore.DEClash>
0.0174

> <Gold.Chemscore.DEInternal>
1.6791

> <Gold.Chemscore.Rot>
2.4882

> <Gold.Chemscore.Internal.Correction>
   9.000000E+99

> <Gold.Chemscore.Hbonds>
donor molecule, donor type, donor heavy atom, donor atom, acceptor molecule, acceptor atom, score
      L1  H     3    40       P1  7948  0.38
      P1  H  6931  6943       L1    18  0.70
      P1  H  6934  6947       L1    18  0.57

> <Gold.Chemscore.Hbond.Weighted>
-8.7265

> <Gold.Chemscore.Metal.Weighted>
-0.0000

> <Gold.Chemscore.Lipo.Weighted>
-3.9307

> <Gold.Chemscore.Internal_Hbond.Weighted>
0.0000

> <Gold.Chemscore.DEClash.Weighted>
0.0174

> <Gold.Chemscore.DEInternal.Weighted>
1.6791

> <Gold.Chemscore.Rot.Weighted>
6.3697

> <Gold.Chemscore.Internal.Correction.Weighted>
   9.000000E+99

> <Gold.Protein.RotatedTorsions>
[ 6907 6896 6895 6894 ] final   79.41 input  -60.11 | X-H torsion
[ 7974 7965 7964 7962 ] final  110.36 input  175.53 | X-H torsion
[ 8008 7997 7996 7995 ] final   20.26 input   59.86 | X-H torsion
[ 10167 10162 10161 10158 ] final   82.63 input  -65.29 | X-H torsion
[ 10718 10713 10712 10709 ] final  170.10 input   66.30 | X-H torsion
[ 10763 10752 10751 10750 ] final  123.61 input  -60.55 | X-H torsion
[ 11005 11000 10999 10996 ] final  -49.81 input  -57.11 | X-H torsion

> <Gold.Protein.ActiveResidues>
 VAL166  LYS551  ARG553  GLY616  TRP617  ASP618  TYR619  PRO620  LYS621  CYS622 
 ASP623  PHE694  ASN695  SER759  ASP760  ASP761  ALA762  ILE779  LEU786  VAL792 
 PHE793  MET794  SER795  GLU796  ALA797  LYS798  CYS799  TRP800  GLU811  SER814 

> <Gold.Protein.RotatedAtoms>
  152.5197  134.3515  159.9252 H   0  0  0  0  0  0  0  0  0  0  0  0  # atno 6907 bound_to 6896
  151.3465  133.3935  159.2684 H   0  0  0  0  0  0  0  0  0  0  0  0  # atno 6908 bound_to 6896
  150.9761  134.9143  159.7874 H   0  0  0  0  0  0  0  0  0  0  0  0  # atno 6909 bound_to 6896
  145.2559  139.2721  143.4042 H   0  0  0  0  0  0  0  0  0  0  0  0  # atno 7974 bound_to 7965
  154.9330  140.3043  155.5158 H   0  0  0  0  0  0  0  0  0  0  0  0  # atno 8008 bound_to 7997
  156.3002  140.2350  156.4328 H   0  0  0  0  0  0  0  0  0  0  0  0  # atno 8009 bound_to 7997
  154.8219  140.0423  157.1405 H   0  0  0  0  0  0  0  0  0  0  0  0  # atno 8010 bound_to 7997
  139.9268  144.6177  150.8384 H   0  0  0  0  0  0  0  0  0  0  0  0  # atno 10167 bound_to 10162
  157.0131  131.0210  151.2797 H   0  0  0  0  0  0  0  0  0  0  0  0  # atno 10718 bound_to 10713
  153.6483  135.3367  155.3092 H   0  0  0  0  0  0  0  0  0  0  0  0  # atno 10763 bound_to 10752
  154.8543  135.4335  154.1931 H   0  0  0  0  0  0  0  0  0  0  0  0  # atno 10764 bound_to 10752
  153.2867  135.7013  153.7407 H   0  0  0  0  0  0  0  0  0  0  0  0  # atno 10765 bound_to 10752
  141.0780  133.6660  156.3639 H   0  0  0  0  0  0  0  0  0  0  0  0  # atno 11005 bound_to 11000
  146.3289  140.2963  142.8618 LP  0  0  0  0  0  0  0  0  0  0  0  0  # atno 17320 bound_to 7965
  144.9461  140.8129  143.5600 LP  0  0  0  0  0  0  0  0  0  0  0  0  # atno 17321 bound_to 7965
  140.7648  143.3258  151.2520 LP  0  0  0  0  0  0  0  0  0  0  0  0  # atno 17342 bound_to 10162
  139.6815  143.9846  152.2811 LP  0  0  0  0  0  0  0  0  0  0  0  0  # atno 17343 bound_to 10162
  157.5306  130.8056  149.7912 LP  0  0  0  0  0  0  0  0  0  0  0  0  # atno 17370 bound_to 10713
  156.0129  130.3825  150.2205 LP  0  0  0  0  0  0  0  0  0  0  0  0  # atno 17371 bound_to 10713
  140.5530  134.6009  157.5413 LP  0  0  0  0  0  0  0  0  0  0  0  0  # atno 17394 bound_to 11000
  139.9593  134.7480  156.0272 LP  0  0  0  0  0  0  0  0  0  0  0  0  # atno 17395 bound_to 11000

$$$$
