AV-unprocessed.smi:2149|AV-procd|sdf|8752|dock10
  -GOLD-   2272011533D 1   1.00000     0.00000
 Structure written by MMmdl.
 42 43  0  0  0  0  0  0  0  0  1 V2000
  150.8400  140.7087  156.8754 C   0  0  0  0  0  0  0  0  0  0  0  0
  150.5720  139.6373  155.4046 S   0  0  0  0  0  0  0  0  0  0  0  0
  151.8454  139.5312  154.6760 O   0  0  0  0  0  0  0  0  0  0  0  0
  149.8817  138.4166  155.8482 O   0  0  0  0  0  0  0  0  0  0  0  0
  149.4655  140.5446  154.4138 N   0  0  0  0  0  0  0  0  0  0  0  0
  148.6781  141.6473  155.0026 C   0  0  0  0  0  0  0  0  0  0  0  0
  147.2260  141.2230  155.2829 C   0  0  0  0  0  0  0  0  0  0  0  0
  146.5669  140.6380  154.0288 C   0  0  0  0  0  0  0  0  0  0  0  0
  147.4036  139.4575  153.5041 C   0  0  1  0  0  0  0  0  0  0  0  0
  146.7726  138.8504  152.2438 C   0  0  0  0  0  0  0  0  0  0  0  0
  146.5341  139.5594  151.2656 O   0  0  0  0  0  0  0  0  0  0  0  0
  146.5048  137.5358  152.2810 N   0  0  0  0  0  0  0  0  0  0  0  0
  145.9019  136.7735  151.1942 C   0  0  0  0  0  0  0  0  0  0  0  0
  144.8418  135.7897  151.7161 C   0  0  0  0  0  0  0  0  0  0  0  0
  145.0776  134.3755  151.2206 C   0  0  0  0  0  0  0  0  0  0  0  0
  144.1116  133.7197  150.4278 C   0  0  0  0  0  0  0  0  0  0  0  0
  144.3759  132.4042  150.0000 C   0  0  0  0  0  0  0  0  0  0  0  0
  145.5890  131.7982  150.3798 C   0  0  0  0  0  0  0  0  0  0  0  0
  146.4876  132.5375  151.1745 C   0  0  0  0  0  0  0  0  0  0  0  0
  146.2431  133.7988  151.5910 N   0  0  0  0  0  0  0  0  0  0  0  0
  148.8532  139.9147  153.2256 C   0  0  0  0  0  0  0  0  0  0  0  0
  151.5518  140.2236  157.5428 H   0  0  0  0  0  0  0  0  0  0  0  0
  149.9004  140.8504  157.4066 H   0  0  0  0  0  0  0  0  0  0  0  0
  151.2449  141.6703  156.5661 H   0  0  0  0  0  0  0  0  0  0  0  0
  149.1509  142.0088  155.9152 H   0  0  0  0  0  0  0  0  0  0  0  0
  148.6832  142.4834  154.3026 H   0  0  0  0  0  0  0  0  0  0  0  0
  147.1972  140.4904  156.0884 H   0  0  0  0  0  0  0  0  0  0  0  0
  146.6538  142.0824  155.6334 H   0  0  0  0  0  0  0  0  0  0  0  0
  145.5520  140.3137  154.2623 H   0  0  0  0  0  0  0  0  0  0  0  0
  146.4812  141.4151  153.2673 H   0  0  0  0  0  0  0  0  0  0  0  0
  147.4204  138.6877  154.2753 H   0  0  0  0  0  0  0  0  0  0  0  0
  146.7332  137.0270  153.1230 H   0  0  0  0  0  0  0  0  0  0  0  0
  145.4686  137.4506  150.4558 H   0  0  0  0  0  0  0  0  0  0  0  0
  146.6954  136.2268  150.6841 H   0  0  0  0  0  0  0  0  0  0  0  0
  144.8365  135.7908  152.8068 H   0  0  0  0  0  0  0  0  0  0  0  0
  143.8456  136.1083  151.4055 H   0  0  0  0  0  0  0  0  0  0  0  0
  143.1890  134.2104  150.1541 H   0  0  0  0  0  0  0  0  0  0  0  0
  143.6611  131.8699  149.3918 H   0  0  0  0  0  0  0  0  0  0  0  0
  145.8256  130.7912  150.0699 H   0  0  0  0  0  0  0  0  0  0  0  0
  147.4271  132.1043  151.4841 H   0  0  0  0  0  0  0  0  0  0  0  0
  148.8684  140.6415  152.4120 H   0  0  0  0  0  0  0  0  0  0  0  0
  149.4618  139.0736  152.8933 H   0  0  0  0  0  0  0  0  0  0  0  0
  1  2  1  0  0  0  0
  1 22  1  0  0  0  0
  1 23  1  0  0  0  0
  1 24  1  0  0  0  0
  2  3  2  0  0  0  0
  2  4  2  0  0  0  0
  2  5  1  0  0  0  0
  5 21  1  0  0  0  0
  5  6  1  0  0  0  0
  6  7  1  0  0  0  0
  6 25  1  0  0  0  0
  6 26  1  0  0  0  0
  7  8  1  0  0  0  0
  7 27  1  0  0  0  0
  7 28  1  0  0  0  0
  8  9  1  0  0  0  0
  8 29  1  0  0  0  0
  8 30  1  0  0  0  0
  9 10  1  0  0  0  0
  9 21  1  0  0  0  0
  9 31  1  0  0  0  0
 10 11  2  0  0  0  0
 10 12  1  0  0  0  0
 12 13  1  0  0  0  0
 12 32  1  0  0  0  0
 13 14  1  0  0  0  0
 13 33  1  0  0  0  0
 13 34  1  0  0  0  0
 14 15  1  0  0  0  0
 14 35  1  0  0  0  0
 14 36  1  0  0  0  0
 15 20  1  0  0  0  0
 15 16  2  0  0  0  0
 16 17  1  0  0  0  0
 16 37  1  0  0  0  0
 17 18  2  0  0  0  0
 17 38  1  0  0  0  0
 18 19  1  0  0  0  0
 18 39  1  0  0  0  0
 19 20  2  0  0  0  0
 19 40  1  0  0  0  0
 21 41  1  0  0  0  0
 21 42  1  0  0  0  0
M  END
> <s_m_source_file>
AV-unprocessed.smi

> <i_m_source_file_index>
2149

> <i_lp_mmshare_version>
43012

> <i_f3d_flags>
0

> <s_epik_input>
W0NIM11TKD1PKSg9TylOMVtDSDJdW0NIMl1bQ0gyXVtDQEhdKFtDSDJdMSlDKD1PKVtOSF1bQ0gyXVtDSDJdYzJbY0hdW2NIXVtjSF1bY0hdbjI=

> <s_epik_cmdline>
J2VwaWtfcHl0aG9uJywgJy1waCcsICc3LjAnLCAnLXRuJywgJzgnLCAnLW1hJywgJzIwMCcsICctbWV0YWxfYmluZGluZycsICctaW1hZScsICc8aW5maWxlLm1hZT4nLCAnLW9tYWUnLCAnPG91dGZpbGUubWFlPic=

> <r_epik_Ionization_Penalty>
0.0273806

> <r_epik_Ionization_Penalty_Charging>
0

> <r_epik_Ionization_Penalty_Neutral>
0.0273806

> <r_epik_State_Penalty>
0.0224071

> <r_epik_Charging_Adjusted_Penalty>
0.0224071

> <i_epik_Tot_Q>
0

> <i_epik_Tot_abs_Q>
0

> <r_epik_Metal_State_Penalty>
0.0214134

> <b_epik_Metal_Only>
0

> <s_lp_Force_Field>
OPLS_2005

> <r_lp_Energy>
-0.402048

> <b_lp_Chiralities_Consistent>
1

> <s_lp_Variant>
AV-unprocessed.smi:2149-1

> <Gold.Version>
5.8.1

> <Gold.Id.Protein>
6NUR|6NUR_protein|mol2

> <Gold.PLP.Fitness>
38.7647

> <Gold.PLP.PLP>
-34.2348

> <Gold.PLP.part.hbond>
-2.0000

> <Gold.PLP.part.metal>
0.0000

> <Gold.PLP.part.buried>
5.2687

> <Gold.PLP.part.nonpolar>
-38.0503

> <Gold.PLP.part.repulsive>
1.1040

> <Gold.PLP.ligand.clash>
0.0000

> <Gold.PLP.ligand.torsion>
1.7782

> <Gold.PLP.Chemscore.Hbond>
1.0000

> <Gold.PLP.Chemscore.CHOScore>
1.0000

> <Gold.PLP.Chemscore.Metal>
0.0000

> <Gold.Chemscore.Hbonds>
donor molecule, donor type, donor heavy atom, donor atom, acceptor molecule, acceptor atom, score
      P1  H  7989  7998       L1     3  1.00
      L1  C    19    40       P1 10747  1.00

> <Gold.PLP.Chemscore.Internal.Correction>
2.0862

> <Gold.Rescore>
     Score         DG    S(hbond)    S(metal)    S(lipo)     H(rot)  DE(clash)    DE(int)     intcor
      9.90     -14.31       0.87        0.00      84.87       1.56       2.62       1.79       ----

> <Gold.Chemscore.Fitness>
9.8979

> <Gold.Chemscore.DG>
-14.3073

> <Gold.Chemscore.ZeroCoef>
-5.4800

> <Gold.Chemscore.Hbond>
0.8688

> <Gold.Chemscore.Metal>
0.0000

> <Gold.Chemscore.Lipo>
84.8732

> <Gold.Chemscore.Internal_Hbond>
0.0000

> <Gold.Chemscore.DEClash>
2.6156

> <Gold.Chemscore.DEInternal>
1.7937

> <Gold.Chemscore.Rot>
1.5643

> <Gold.Chemscore.Internal.Correction>
   9.000000E+99

> <Gold.Chemscore.Hbonds>
donor molecule, donor type, donor heavy atom, donor atom, acceptor molecule, acceptor atom, score
      P1  H  7989  7998       L1     3  0.28

> <Gold.Chemscore.Hbond.Weighted>
-2.9017

> <Gold.Chemscore.Metal.Weighted>
-0.0000

> <Gold.Chemscore.Lipo.Weighted>
-9.9302

> <Gold.Chemscore.Internal_Hbond.Weighted>
0.0000

> <Gold.Chemscore.DEClash.Weighted>
2.6156

> <Gold.Chemscore.DEInternal.Weighted>
1.7937

> <Gold.Chemscore.Rot.Weighted>
4.0046

> <Gold.Chemscore.Internal.Correction.Weighted>
   9.000000E+99

> <Gold.Protein.RotatedTorsions>
[ 6907 6896 6895 6894 ] final  -14.03 input  -60.11 | X-H torsion
[ 7974 7965 7964 7962 ] final   -4.01 input  175.53 | X-H torsion
[ 8008 7997 7996 7995 ] final -118.72 input   59.86 | X-H torsion
[ 10167 10162 10161 10158 ] final  176.56 input  -65.29 | X-H torsion
[ 10718 10713 10712 10709 ] final  -78.90 input   66.30 | X-H torsion
[ 10763 10752 10751 10750 ] final   33.27 input  -60.55 | X-H torsion
[ 11005 11000 10999 10996 ] final  137.98 input  -57.11 | X-H torsion

> <Gold.Protein.ActiveResidues>
 VAL166  LYS551  ARG553  GLY616  TRP617  ASP618  TYR619  PRO620  LYS621  CYS622 
 ASP623  PHE694  ASN695  SER759  ASP760  ASP761  ALA762  ILE779  LEU786  VAL792 
 PHE793  MET794  SER795  GLU796  ALA797  LYS798  CYS799  TRP800  GLU811  SER814 

> <Gold.Protein.RotatedAtoms>
  151.3457  135.0873  159.9385 H   0  0  0  0  0  0  0  0  0  0  0  0  # atno 6907 bound_to 6896
  152.5200  133.9403  159.7633 H   0  0  0  0  0  0  0  0  0  0  0  0  # atno 6908 bound_to 6896
  150.9768  133.6233  159.2758 H   0  0  0  0  0  0  0  0  0  0  0  0  # atno 6909 bound_to 6896
  146.2380  140.1807  142.8332 H   0  0  0  0  0  0  0  0  0  0  0  0  # atno 7974 bound_to 7965
  155.1043  140.0396  157.2706 H   0  0  0  0  0  0  0  0  0  0  0  0  # atno 8008 bound_to 7997
  154.6734  140.2617  155.6958 H   0  0  0  0  0  0  0  0  0  0  0  0  # atno 8009 bound_to 7997
  156.2667  140.2793  156.1252 H   0  0  0  0  0  0  0  0  0  0  0  0  # atno 8010 bound_to 7997
  139.5219  144.2900  152.0472 H   0  0  0  0  0  0  0  0  0  0  0  0  # atno 10167 bound_to 10162
  156.0106  130.4530  150.3566 H   0  0  0  0  0  0  0  0  0  0  0  0  # atno 10718 bound_to 10713
  153.0220  135.6391  154.1485 H   0  0  0  0  0  0  0  0  0  0  0  0  # atno 10763 bound_to 10752
  154.1219  135.2846  155.3208 H   0  0  0  0  0  0  0  0  0  0  0  0  # atno 10764 bound_to 10752
  154.6257  135.5509  153.7687 H   0  0  0  0  0  0  0  0  0  0  0  0  # atno 10765 bound_to 10752
  140.0151  134.9421  157.0360 H   0  0  0  0  0  0  0  0  0  0  0  0  # atno 11005 bound_to 11000
  144.9936  140.8569  143.5324 LP  0  0  0  0  0  0  0  0  0  0  0  0  # atno 17320 bound_to 7965
  145.1817  139.2348  143.5289 LP  0  0  0  0  0  0  0  0  0  0  0  0  # atno 17321 bound_to 7965
  140.2352  144.4327  150.6283 LP  0  0  0  0  0  0  0  0  0  0  0  0  # atno 17342 bound_to 10162
  140.6328  143.2190  151.6459 LP  0  0  0  0  0  0  0  0  0  0  0  0  # atno 17343 bound_to 10162
  157.1656  131.0356  151.2820 LP  0  0  0  0  0  0  0  0  0  0  0  0  # atno 17370 bound_to 10713
  157.4273  130.7471  149.6961 LP  0  0  0  0  0  0  0  0  0  0  0  0  # atno 17371 bound_to 10713
  140.4484  134.1607  155.7179 LP  0  0  0  0  0  0  0  0  0  0  0  0  # atno 17394 bound_to 11000
  141.1737  133.8556  157.1488 LP  0  0  0  0  0  0  0  0  0  0  0  0  # atno 17395 bound_to 11000

$$$$
