AV-unprocessed.smi:127|AV-procd|sdf|1153|dock4
  -GOLD-   2262018293D 1   1.00000     0.00000
 Structure written by MMmdl.
 28 29  0  0  0  0  0  0  0  0  2 V2000
  152.9273  139.1053  156.1095 O   0  0  0  0  0  0  0  0  0  0  0  0
  152.4443  138.0964  156.6682 C   0  0  0  0  0  0  0  0  0  0  0  0
  152.2944  136.9733  156.1397 O   0  5  0  0  0  0  0  0  0  0  0  0
  152.0017  138.2481  158.1267 C   0  0  0  0  0  0  0  0  0  0  0  0
  152.3265  139.5554  158.6802 N   0  0  0  0  0  0  0  0  0  0  0  0
  153.2734  139.6088  159.7348 C   0  0  0  0  0  0  0  0  0  0  0  0
  153.9091  138.6177  160.0986 O   0  0  0  0  0  0  0  0  0  0  0  0
  153.4352  140.9257  160.3414 C   0  0  0  0  0  0  0  0  0  0  0  0
  154.3295  141.0974  161.3300 F   0  0  0  0  0  0  0  0  0  0  0  0
  152.7025  141.9806  159.9258 C   0  0  0  0  0  0  0  0  0  0  0  0
  151.7575  141.8931  158.9180 N   0  0  0  0  0  0  0  0  0  0  0  0
  150.9574  143.1001  158.4807 C   0  0  2  0  0  0  0  0  0  0  0  0
  151.8911  144.1810  157.9243 C   0  0  0  0  0  0  0  0  0  0  0  0
  152.1380  145.0373  159.1472 C   0  0  0  0  0  0  0  0  0  0  0  0
  150.7902  144.9561  159.8550 C   0  0  0  0  0  0  0  0  0  0  0  0
  150.3012  143.6431  159.5908 O   0  0  0  0  0  0  0  0  0  0  0  0
  151.5470  140.6612  158.2603 C   0  0  0  0  0  0  0  0  0  0  0  0
  150.7205  140.5691  157.3492 O   0  0  0  0  0  0  0  0  0  0  0  0
  150.9273  138.0865  158.2270 H   0  0  0  0  0  0  0  0  0  0  0  0
  152.4582  137.4828  158.7565 H   0  0  0  0  0  0  0  0  0  0  0  0
  152.8737  142.9300  160.4107 H   0  0  0  0  0  0  0  0  0  0  0  0
  150.2222  142.7346  157.7621 H   0  0  0  0  0  0  0  0  0  0  0  0
  152.7966  143.7638  157.4817 H   0  0  0  0  0  0  0  0  0  0  0  0
  151.3532  144.7472  157.1629 H   0  0  0  0  0  0  0  0  0  0  0  0
  152.9191  144.5946  159.7663 H   0  0  0  0  0  0  0  0  0  0  0  0
  152.4321  146.0584  158.9039 H   0  0  0  0  0  0  0  0  0  0  0  0
  150.8656  145.1473  160.9256 H   0  0  0  0  0  0  0  0  0  0  0  0
  150.0935  145.6788  159.4284 H   0  0  0  0  0  0  0  0  0  0  0  0
  1  2  2  0  0  0  0
  2  3  1  0  0  0  0
  2  4  1  0  0  0  0
  4  5  1  0  0  0  0
  4 19  1  0  0  0  0
  4 20  1  0  0  0  0
  5 17  1  0  0  0  0
  5  6  1  0  0  0  0
  6  7  2  0  0  0  0
  6  8  1  0  0  0  0
  8  9  1  0  0  0  0
  8 10  2  0  0  0  0
 10 11  1  0  0  0  0
 10 21  1  0  0  0  0
 11 12  1  0  0  0  0
 11 17  1  0  0  0  0
 12 16  1  0  0  0  0
 12 13  1  0  0  0  0
 12 22  1  0  0  0  0
 13 14  1  0  0  0  0
 13 23  1  0  0  0  0
 13 24  1  0  0  0  0
 14 15  1  0  0  0  0
 14 25  1  0  0  0  0
 14 26  1  0  0  0  0
 15 16  1  0  0  0  0
 15 27  1  0  0  0  0
 15 28  1  0  0  0  0
 17 18  2  0  0  0  0
M  CHG  1   3  -1
M  END
> <s_m_source_file>
AV-unprocessed.smi

> <i_m_source_file_index>
127

> <i_lp_mmshare_version>
43012

> <i_f3d_flags>
0

> <s_epik_input>
Tz1DKFtPSF0pW0NIMl1uMWMoPU8pYyhGKVtjSF1uKGMxPU8pW0NAQEhdMltDSDJdW0NIMl1bQ0gyXU8y

> <s_epik_cmdline>
J2VwaWtfcHl0aG9uJywgJy1waCcsICc3LjAnLCAnLXRuJywgJzgnLCAnLW1hJywgJzIwMCcsICctbWV0YWxfYmluZGluZycsICctaW1hZScsICc8aW5maWxlLm1hZT4nLCAnLW9tYWUnLCAnPG91dGZpbGUubWFlPic=

> <r_lp_tautomer_probability>
1

> <r_epik_Ionization_Penalty>
0.00125813

> <r_epik_Ionization_Penalty_Charging>
0.00125813

> <r_epik_Ionization_Penalty_Neutral>
6.20402e-12

> <r_epik_State_Penalty>
0.000832915

> <r_epik_Charging_Adjusted_Penalty>
0.00209104

> <i_epik_Tot_Q>
-1

> <i_epik_Tot_abs_Q>
1

> <r_epik_Metal_State_Penalty>
-0

> <b_epik_Metal_Only>
0

> <s_epik_Chemistry_Notes>
This compound contains an acetal/aminal-like group ( X-CH(R)-Y where X, Y are N, S, or O) that may be acid/base labile, releasing an aldehyde.

> <s_lp_Force_Field>
OPLS_2005

> <r_lp_Energy>
23.3893

> <b_lp_Chiralities_Consistent>
1

> <s_lp_Variant>
AV-unprocessed.smi:127-1

> <Gold.Version>
5.8.1

> <Gold.Id.Protein>
6NUR|6NUR_protein|mol2

> <Gold.PLP.Fitness>
49.8123

> <Gold.PLP.PLP>
-38.1210

> <Gold.PLP.part.hbond>
-2.2448

> <Gold.PLP.part.metal>
0.0000

> <Gold.PLP.part.buried>
-5.7820

> <Gold.PLP.part.nonpolar>
-30.3683

> <Gold.PLP.part.repulsive>
0.1102

> <Gold.PLP.ligand.clash>
0.0000

> <Gold.PLP.ligand.torsion>
0.1534

> <Gold.PLP.Chemscore.Hbond>
3.9840

> <Gold.PLP.Chemscore.CHOScore>
0.0000

> <Gold.PLP.Chemscore.Metal>
0.0000

> <Gold.Chemscore.Hbonds>
donor molecule, donor type, donor heavy atom, donor atom, acceptor molecule, acceptor atom, score
      P1  H  7997  8009       L1     1  2.00
      P1  H 10752 10763       L1     3  1.95

> <Gold.PLP.Chemscore.Internal.Correction>
0.0461

> <Gold.Rescore>
     Score         DG    S(hbond)    S(metal)    S(lipo)     H(rot)  DE(clash)    DE(int)     intcor
     13.65     -13.94       1.95        0.00      62.00       2.08       0.02       0.27       ----

> <Gold.Chemscore.Fitness>
13.6515

> <Gold.Chemscore.DG>
-13.9402

> <Gold.Chemscore.ZeroCoef>
-5.4800

> <Gold.Chemscore.Hbond>
1.9526

> <Gold.Chemscore.Metal>
0.0000

> <Gold.Chemscore.Lipo>
62.0022

> <Gold.Chemscore.Internal_Hbond>
0.0000

> <Gold.Chemscore.DEClash>
0.0193

> <Gold.Chemscore.DEInternal>
0.2694

> <Gold.Chemscore.Rot>
2.0765

> <Gold.Chemscore.Internal.Correction>
   9.000000E+99

> <Gold.Chemscore.Hbonds>
donor molecule, donor type, donor heavy atom, donor atom, acceptor molecule, acceptor atom, score
      P1  H  7997  8009       L1     1  1.00
      P1  H 10752 10763       L1     3  0.87

> <Gold.Chemscore.Hbond.Weighted>
-6.5218

> <Gold.Chemscore.Metal.Weighted>
-0.0000

> <Gold.Chemscore.Lipo.Weighted>
-7.2543

> <Gold.Chemscore.Internal_Hbond.Weighted>
0.0000

> <Gold.Chemscore.DEClash.Weighted>
0.0193

> <Gold.Chemscore.DEInternal.Weighted>
0.2694

> <Gold.Chemscore.Rot.Weighted>
5.3159

> <Gold.Chemscore.Internal.Correction.Weighted>
   9.000000E+99

> <Gold.Protein.RotatedTorsions>
[ 6907 6896 6895 6894 ] final   99.84 input  -60.11 | X-H torsion
[ 7974 7965 7964 7962 ] final -147.48 input  175.53 | X-H torsion
[ 8008 7997 7996 7995 ] final -151.54 input   59.86 | X-H torsion
[ 10167 10162 10161 10158 ] final -164.39 input  -65.29 | X-H torsion
[ 10718 10713 10712 10709 ] final   -1.61 input   66.30 | X-H torsion
[ 10763 10752 10751 10750 ] final   89.04 input  -60.55 | X-H torsion
[ 11005 11000 10999 10996 ] final   -9.70 input  -57.11 | X-H torsion

> <Gold.Protein.ActiveResidues>
 VAL166  LYS551  ARG553  GLY616  TRP617  ASP618  TYR619  PRO620  LYS621  CYS622 
 ASP623  PHE694  ASN695  SER759  ASP760  ASP761  ALA762  ILE779  LEU786  VAL792 
 PHE793  MET794  SER795  GLU796  ALA797  LYS798  CYS799  TRP800  GLU811  SER814 

> <Gold.Protein.RotatedAtoms>
  152.5384  134.0367  159.8049 H   0  0  0  0  0  0  0  0  0  0  0  0  # atno 6907 bound_to 6896
  151.0530  133.5601  159.2648 H   0  0  0  0  0  0  0  0  0  0  0  0  # atno 6908 bound_to 6896
  151.2528  135.0635  159.9122 H   0  0  0  0  0  0  0  0  0  0  0  0  # atno 6909 bound_to 6896
  144.8091  140.5321  143.5655 H   0  0  0  0  0  0  0  0  0  0  0  0  # atno 7974 bound_to 7965
  155.6410  140.0701  157.2618 H   0  0  0  0  0  0  0  0  0  0  0  0  # atno 8008 bound_to 7997
  154.4184  140.1750  156.1622 H   0  0  0  0  0  0  0  0  0  0  0  0  # atno 8009 bound_to 7997
  155.9855  140.3350  155.6707 H   0  0  0  0  0  0  0  0  0  0  0  0  # atno 8010 bound_to 7997
  139.6254  144.0542  152.1970 H   0  0  0  0  0  0  0  0  0  0  0  0  # atno 10167 bound_to 10162
  156.8031  130.5399  149.5719 H   0  0  0  0  0  0  0  0  0  0  0  0  # atno 10718 bound_to 10713
  153.1829  135.4485  155.0052 H   0  0  0  0  0  0  0  0  0  0  0  0  # atno 10763 bound_to 10752
  154.8042  135.3267  154.7476 H   0  0  0  0  0  0  0  0  0  0  0  0  # atno 10764 bound_to 10752
  153.7939  135.6968  153.4922 H   0  0  0  0  0  0  0  0  0  0  0  0  # atno 10765 bound_to 10752
  140.7369  133.8702  155.8937 H   0  0  0  0  0  0  0  0  0  0  0  0  # atno 11005 bound_to 11000
  145.5368  139.1475  143.3469 LP  0  0  0  0  0  0  0  0  0  0  0  0  # atno 17320 bound_to 7965
  146.2386  140.5508  142.8944 LP  0  0  0  0  0  0  0  0  0  0  0  0  # atno 17321 bound_to 7965
  140.0195  144.6164  150.7579 LP  0  0  0  0  0  0  0  0  0  0  0  0  # atno 17342 bound_to 10162
  140.7408  143.2809  151.3602 LP  0  0  0  0  0  0  0  0  0  0  0  0  # atno 17343 bound_to 10162
  156.1089  130.6025  151.0016 LP  0  0  0  0  0  0  0  0  0  0  0  0  # atno 17370 bound_to 10713
  157.6544  131.0892  150.7980 LP  0  0  0  0  0  0  0  0  0  0  0  0  # atno 17371 bound_to 10713
  140.9871  134.1328  157.4442 LP  0  0  0  0  0  0  0  0  0  0  0  0  # atno 17394 bound_to 11000
  139.8814  135.0029  156.6153 LP  0  0  0  0  0  0  0  0  0  0  0  0  # atno 17395 bound_to 11000

$$$$
