AV-unprocessed.smi:671|AV-procd|sdf|3279|dock2
  -GOLD-   22720 0243D 1   1.00000     0.00000
 Structure written by MMmdl.
 49 50  0  0  0  0  0  0  0  0  1 V2000
  152.6891  138.5516  154.4240 C   0  0  0  0  0  0  0  0  0  0  0  0
  151.9671  139.3979  155.4337 C   0  0  0  0  0  0  0  0  0  0  0  0
  152.6084  139.8144  156.5128 N   0  0  0  0  0  0  0  0  0  0  0  0
  151.6970  140.5345  157.1974 N   0  0  0  0  0  0  0  0  0  0  0  0
  152.0760  141.1486  158.4553 C   0  0  0  0  0  0  0  0  0  0  0  0
  150.4786  140.5769  156.5476 C   0  0  0  0  0  0  0  0  0  0  0  0
  149.3062  141.3196  157.1030 C   0  0  0  0  0  0  0  0  0  0  0  0
  150.6157  139.8493  155.3957 C   0  0  0  0  0  0  0  0  0  0  0  0
  149.6005  139.5709  154.3184 C   0  0  0  0  0  0  0  0  0  0  0  0
  148.4138  138.7311  154.8396 C   0  0  2  0  0  0  0  0  0  0  0  0
  148.8047  137.8385  156.0275 C   0  0  0  0  0  0  0  0  0  0  0  0
  147.8801  137.8880  153.7673 N   0  0  0  0  0  0  0  0  0  0  0  0
  146.5940  137.7162  153.4088 C   0  0  0  0  0  0  0  0  0  0  0  0
  145.6766  138.2919  153.9903 O   0  0  0  0  0  0  0  0  0  0  0  0
  146.4079  136.8736  152.3785 N   0  0  0  0  0  0  0  0  0  0  0  0
  145.1168  136.4803  151.8231 C   0  0  1  0  0  0  0  0  0  0  0  0
  145.3067  135.4441  150.6981 C   0  0  0  0  0  0  0  0  0  0  0  0
  144.6812  134.1414  151.2002 C   0  0  0  0  0  0  0  0  0  0  0  0
  143.6087  134.5929  152.1856 C   0  0  0  0  0  0  0  0  0  0  0  0
  144.2341  135.7986  152.8920 C   0  0  2  0  0  0  0  0  0  0  0  0
  143.2012  136.7337  153.5359 C   0  0  0  0  0  0  0  0  0  0  0  0
  152.9508  139.1359  153.5420 H   0  0  0  0  0  0  0  0  0  0  0  0
  152.0670  137.7187  154.0962 H   0  0  0  0  0  0  0  0  0  0  0  0
  153.6102  138.1330  154.8310 H   0  0  0  0  0  0  0  0  0  0  0  0
  152.1159  142.2316  158.3355 H   0  0  0  0  0  0  0  0  0  0  0  0
  153.0550  140.7916  158.7788 H   0  0  0  0  0  0  0  0  0  0  0  0
  151.3417  140.9013  159.2224 H   0  0  0  0  0  0  0  0  0  0  0  0
  148.4773  141.3395  156.3960 H   0  0  0  0  0  0  0  0  0  0  0  0
  149.5728  142.3522  157.3291 H   0  0  0  0  0  0  0  0  0  0  0  0
  148.9522  140.8514  158.0216 H   0  0  0  0  0  0  0  0  0  0  0  0
  149.2324  140.5168  153.9200 H   0  0  0  0  0  0  0  0  0  0  0  0
  150.0568  139.0682  153.4652 H   0  0  0  0  0  0  0  0  0  0  0  0
  147.6244  139.4008  155.1849 H   0  0  0  0  0  0  0  0  0  0  0  0
  149.1448  138.4326  156.8760 H   0  0  0  0  0  0  0  0  0  0  0  0
  149.6068  137.1496  155.7610 H   0  0  0  0  0  0  0  0  0  0  0  0
  147.9553  137.2453  156.3678 H   0  0  0  0  0  0  0  0  0  0  0  0
  148.5678  137.3958  153.2157 H   0  0  0  0  0  0  0  0  0  0  0  0
  147.2260  136.4542  151.9616 H   0  0  0  0  0  0  0  0  0  0  0  0
  144.6062  137.3485  151.4017 H   0  0  0  0  0  0  0  0  0  0  0  0
  144.7743  135.7802  149.8073 H   0  0  0  0  0  0  0  0  0  0  0  0
  146.3499  135.3040  150.4105 H   0  0  0  0  0  0  0  0  0  0  0  0
  144.2786  133.5309  150.3917 H   0  0  0  0  0  0  0  0  0  0  0  0
  145.4322  133.5477  151.7220 H   0  0  0  0  0  0  0  0  0  0  0  0
  142.7161  134.8976  151.6374 H   0  0  0  0  0  0  0  0  0  0  0  0
  143.3201  133.8034  152.8804 H   0  0  0  0  0  0  0  0  0  0  0  0
  144.8772  135.4056  153.6820 H   0  0  0  0  0  0  0  0  0  0  0  0
  142.5245  137.1524  152.7904 H   0  0  0  0  0  0  0  0  0  0  0  0
  143.6903  137.5642  154.0456 H   0  0  0  0  0  0  0  0  0  0  0  0
  142.5991  136.2017  154.2727 H   0  0  0  0  0  0  0  0  0  0  0  0
  1  2  1  0  0  0  0
  1 22  1  0  0  0  0
  1 23  1  0  0  0  0
  1 24  1  0  0  0  0
  2  8  1  0  0  0  0
  2  3  2  0  0  0  0
  3  4  1  0  0  0  0
  4  5  1  0  0  0  0
  4  6  1  0  0  0  0
  5 25  1  0  0  0  0
  5 26  1  0  0  0  0
  5 27  1  0  0  0  0
  6  7  1  0  0  0  0
  6  8  2  0  0  0  0
  7 28  1  0  0  0  0
  7 29  1  0  0  0  0
  7 30  1  0  0  0  0
  8  9  1  0  0  0  0
  9 10  1  0  0  0  0
  9 31  1  0  0  0  0
  9 32  1  0  0  0  0
 10 11  1  0  0  0  0
 10 12  1  0  0  0  0
 10 33  1  0  0  0  0
 11 34  1  0  0  0  0
 11 35  1  0  0  0  0
 11 36  1  0  0  0  0
 12 13  1  0  0  0  0
 12 37  1  0  0  0  0
 13 14  2  0  0  0  0
 13 15  1  0  0  0  0
 15 16  1  0  0  0  0
 15 38  1  0  0  0  0
 16 20  1  0  0  0  0
 16 17  1  0  0  0  0
 16 39  1  0  0  0  0
 17 18  1  0  0  0  0
 17 40  1  0  0  0  0
 17 41  1  0  0  0  0
 18 19  1  0  0  0  0
 18 42  1  0  0  0  0
 18 43  1  0  0  0  0
 19 20  1  0  0  0  0
 19 44  1  0  0  0  0
 19 45  1  0  0  0  0
 20 21  1  0  0  0  0
 20 46  1  0  0  0  0
 21 47  1  0  0  0  0
 21 48  1  0  0  0  0
 21 49  1  0  0  0  0
M  END
> <s_m_source_file>
AV-unprocessed.smi

> <i_m_source_file_index>
671

> <i_lp_mmshare_version>
43012

> <i_f3d_flags>
0

> <s_epik_input>
W0NIM11jMW5uKFtDSDNdKWMoW0NIM10pYzFbQ0gyXVtDQEhdKFtDSDNdKVtOSF1DKD1PKVtOSF1bQ0BASF0yW0NIMl1bQ0gyXVtDSDJdW0NASF0yW0NIM10=

> <s_epik_cmdline>
J2VwaWtfcHl0aG9uJywgJy1waCcsICc3LjAnLCAnLXRuJywgJzgnLCAnLW1hJywgJzIwMCcsICctbWV0YWxfYmluZGluZycsICctaW1hZScsICc8aW5maWxlLm1hZT4nLCAnLW9tYWUnLCAnPG91dGZpbGUubWFlPic=

> <r_lp_tautomer_probability>
1

> <r_epik_Ionization_Penalty>
0.0126855

> <r_epik_Ionization_Penalty_Charging>
0

> <r_epik_Ionization_Penalty_Neutral>
0.0126855

> <r_epik_State_Penalty>
0.00977547

> <r_epik_Charging_Adjusted_Penalty>
0.00977547

> <i_epik_Tot_Q>
0

> <i_epik_Tot_abs_Q>
0

> <r_epik_Metal_State_Penalty>
0.00957132

> <b_epik_Metal_Only>
0

> <s_lp_Force_Field>
OPLS_2005

> <r_lp_Energy>
21.5891

> <b_lp_Chiralities_Consistent>
1

> <s_lp_Variant>
AV-unprocessed.smi:671-7

> <Gold.Version>
5.8.1

> <Gold.Id.Protein>
6NUR|6NUR_protein|mol2

> <Gold.PLP.Fitness>
42.9721

> <Gold.PLP.PLP>
-35.1967

> <Gold.PLP.part.hbond>
-3.0000

> <Gold.PLP.part.metal>
0.0000

> <Gold.PLP.part.buried>
-2.8263

> <Gold.PLP.part.nonpolar>
-30.3442

> <Gold.PLP.part.repulsive>
0.8485

> <Gold.PLP.ligand.clash>
0.0000

> <Gold.PLP.ligand.torsion>
0.6137

> <Gold.PLP.Chemscore.Hbond>
2.9920

> <Gold.PLP.Chemscore.CHOScore>
0.0000

> <Gold.PLP.Chemscore.Metal>
0.0000

> <Gold.Chemscore.Hbonds>
donor molecule, donor type, donor heavy atom, donor atom, acceptor molecule, acceptor atom, score
      L1  H    12    37       P1  7948  1.00
      L1  H    15    38       P1  7948  1.00
      P1  H  7997  8009       L1     3  1.00

> <Gold.PLP.Chemscore.Internal.Correction>
0.0268

> <Gold.Rescore>
     Score         DG    S(hbond)    S(metal)    S(lipo)     H(rot)  DE(clash)    DE(int)     intcor
     19.93     -21.12       2.93        0.00      81.69       1.45       0.37       0.81       ----

> <Gold.Chemscore.Fitness>
19.9299

> <Gold.Chemscore.DG>
-21.1179

> <Gold.Chemscore.ZeroCoef>
-5.4800

> <Gold.Chemscore.Hbond>
2.9316

> <Gold.Chemscore.Metal>
0.0000

> <Gold.Chemscore.Lipo>
81.6931

> <Gold.Chemscore.Internal_Hbond>
0.0000

> <Gold.Chemscore.DEClash>
0.3730

> <Gold.Chemscore.DEInternal>
0.8149

> <Gold.Chemscore.Rot>
1.4499

> <Gold.Chemscore.Internal.Correction>
   9.000000E+99

> <Gold.Chemscore.Hbonds>
donor molecule, donor type, donor heavy atom, donor atom, acceptor molecule, acceptor atom, score
      L1  H    12    37       P1  7948  0.94
      L1  H    15    38       P1  7948  0.97
      P1  H  7997  8009       L1     3  0.97

> <Gold.Chemscore.Hbond.Weighted>
-9.7917

> <Gold.Chemscore.Metal.Weighted>
-0.0000

> <Gold.Chemscore.Lipo.Weighted>
-9.5581

> <Gold.Chemscore.Internal_Hbond.Weighted>
0.0000

> <Gold.Chemscore.DEClash.Weighted>
0.3730

> <Gold.Chemscore.DEInternal.Weighted>
0.8149

> <Gold.Chemscore.Rot.Weighted>
3.7118

> <Gold.Chemscore.Internal.Correction.Weighted>
   9.000000E+99

> <Gold.Protein.RotatedTorsions>
[ 6907 6896 6895 6894 ] final  103.79 input  -60.11 | X-H torsion
[ 7974 7965 7964 7962 ] final  -20.20 input  175.53 | X-H torsion
[ 8008 7997 7996 7995 ] final -165.55 input   59.86 | X-H torsion
[ 10167 10162 10161 10158 ] final   97.78 input  -65.29 | X-H torsion
[ 10718 10713 10712 10709 ] final -162.53 input   66.30 | X-H torsion
[ 10763 10752 10751 10750 ] final  -16.87 input  -60.55 | X-H torsion
[ 11005 11000 10999 10996 ] final  -13.41 input  -57.11 | X-H torsion

> <Gold.Protein.ActiveResidues>
 VAL166  LYS551  ARG553  GLY616  TRP617  ASP618  TYR619  PRO620  LYS621  CYS622 
 ASP623  PHE694  ASN695  SER759  ASP760  ASP761  ALA762  ILE779  LEU786  VAL792 
 PHE793  MET794  SER795  GLU796  ALA797  LYS798  CYS799  TRP800  GLU811  SER814 

> <Gold.Protein.RotatedAtoms>
  152.5285  133.9774  159.7790 H   0  0  0  0  0  0  0  0  0  0  0  0  # atno 6907 bound_to 6896
  151.0034  133.6026  159.2699 H   0  0  0  0  0  0  0  0  0  0  0  0  # atno 6908 bound_to 6896
  151.3127  135.0805  159.9331 H   0  0  0  0  0  0  0  0  0  0  0  0  # atno 6909 bound_to 6896
  146.1801  140.4169  142.8498 H   0  0  0  0  0  0  0  0  0  0  0  0  # atno 7974 bound_to 7965
  155.8513  140.0963  157.1673 H   0  0  0  0  0  0  0  0  0  0  0  0  # atno 8008 bound_to 7997
  154.3985  140.1382  156.3910 H   0  0  0  0  0  0  0  0  0  0  0  0  # atno 8009 bound_to 7997
  155.7958  140.3454  155.5377 H   0  0  0  0  0  0  0  0  0  0  0  0  # atno 8010 bound_to 7997
  139.7769  144.6902  151.0077 H   0  0  0  0  0  0  0  0  0  0  0  0  # atno 10167 bound_to 10162
  156.6118  130.8853  151.2938 H   0  0  0  0  0  0  0  0  0  0  0  0  # atno 10718 bound_to 10713
  153.5651  135.7009  153.5529 H   0  0  0  0  0  0  0  0  0  0  0  0  # atno 10763 bound_to 10752
  153.3394  135.4025  155.1559 H   0  0  0  0  0  0  0  0  0  0  0  0  # atno 10764 bound_to 10752
  154.8642  135.3738  154.5171 H   0  0  0  0  0  0  0  0  0  0  0  0  # atno 10765 bound_to 10752
  140.7758  133.8402  155.9247 H   0  0  0  0  0  0  0  0  0  0  0  0  # atno 11005 bound_to 11000
  144.8300  140.6692  143.6297 LP  0  0  0  0  0  0  0  0  0  0  0  0  # atno 17320 bound_to 7965
  145.4101  139.1581  143.4130 LP  0  0  0  0  0  0  0  0  0  0  0  0  # atno 17321 bound_to 7965
  140.7817  143.4526  151.0391 LP  0  0  0  0  0  0  0  0  0  0  0  0  # atno 17342 bound_to 10162
  139.8208  143.7823  152.3176 LP  0  0  0  0  0  0  0  0  0  0  0  0  # atno 17343 bound_to 10162
  157.7252  130.9613  150.1605 LP  0  0  0  0  0  0  0  0  0  0  0  0  # atno 17370 bound_to 10713
  156.2384  130.3688  149.8365 LP  0  0  0  0  0  0  0  0  0  0  0  0  # atno 17371 bound_to 10713
  140.9530  134.1754  157.4713 LP  0  0  0  0  0  0  0  0  0  0  0  0  # atno 17394 bound_to 11000
  139.8749  134.9916  156.5558 LP  0  0  0  0  0  0  0  0  0  0  0  0  # atno 17395 bound_to 11000

$$$$
