AV-unprocessed.smi:281|AV-procd|sdf|2112|dock2
  -GOLD-   2262021403D 1   1.00000     0.00000
 Structure written by MMmdl.
 55 59  0  0  0  0  0  0  0  0  1 V2000
  154.5065  141.2948  160.6551 C   0  0  0  0  0  0  0  0  0  0  0  0
  153.5048  141.8214  159.6227 C   0  0  1  0  0  0  0  0  0  0  0  0
  152.7158  140.6856  158.9566 C   0  0  0  0  0  0  0  0  0  0  0  0
  151.7173  141.2366  158.0461 N   0  0  0  0  0  0  0  0  0  0  0  0
  151.0967  140.3751  157.1979 C   0  0  0  0  0  0  0  0  0  0  0  0
  151.0450  140.6527  155.8668 N   0  0  0  0  0  0  0  0  0  0  0  0
  150.4471  139.8096  155.0205 C   0  0  0  0  0  0  0  0  0  0  0  0
  149.8441  138.6501  155.2858 N   0  0  0  0  0  0  0  0  0  0  0  0
  149.8871  138.3646  156.6183 C   0  0  0  0  0  0  0  0  0  0  0  0
  150.4830  139.1655  157.6341 C   0  0  0  0  0  0  0  0  0  0  0  0
  150.3076  138.5589  158.8722 N   0  0  0  0  0  0  0  0  0  0  0  0
  149.6558  137.4613  158.6035 C   0  0  0  0  0  0  0  0  0  0  0  0
  149.3727  137.2582  157.2722 N   0  0  0  0  0  0  0  0  0  0  0  0
  148.6626  136.1285  156.6927 C   0  0  0  0  0  0  0  0  0  0  0  0
  149.4601  134.7993  156.7281 C   0  0  2  0  0  0  0  0  0  0  0  0
  149.7740  134.4628  158.0663 O   0  0  0  0  0  0  0  0  0  0  0  0
  150.7423  134.8799  155.9156 C   0  0  0  0  0  0  0  0  0  0  0  0
  150.2686  134.5466  154.5035 C   0  0  0  0  0  0  0  0  0  0  0  0
  149.1484  133.6816  154.6630 O   0  0  0  0  0  0  0  0  0  0  0  0
  148.7592  133.6241  156.0324 C   0  0  0  0  0  0  0  0  0  0  0  0
  150.8268  142.1950  158.6943 C   0  0  0  0  0  0  0  0  0  0  0  0
  151.6127  143.3013  159.4465 C   0  0  2  0  0  0  0  0  0  0  0  0
  150.6795  144.0798  160.3696 C   0  0  0  0  0  0  0  0  0  0  0  0
  151.3027  145.4643  160.4208 C   0  0  0  0  0  0  0  0  0  0  0  0
  151.6938  145.6555  159.0752 O   0  0  0  0  0  0  0  0  0  0  0  0
  152.2641  144.4398  158.6028 C   0  0  2  0  0  0  0  0  0  0  0  0
  152.0812  144.3810  157.0796 C   0  0  0  0  0  0  0  0  0  0  0  0
  152.5947  142.6930  160.2927 O   0  0  0  0  0  0  0  0  0  0  0  0
  155.2332  140.6272  160.1911 H   0  0  0  0  0  0  0  0  0  0  0  0
  154.0025  140.7419  161.4484 H   0  0  0  0  0  0  0  0  0  0  0  0
  155.0565  142.1145  161.1176 H   0  0  0  0  0  0  0  0  0  0  0  0
  154.0575  142.3704  158.8597 H   0  0  0  0  0  0  0  0  0  0  0  0
  153.4015  140.0354  158.4117 H   0  0  0  0  0  0  0  0  0  0  0  0
  152.2210  140.0775  159.7156 H   0  0  0  0  0  0  0  0  0  0  0  0
  150.4541  140.1060  153.9820 H   0  0  0  0  0  0  0  0  0  0  0  0
  149.3649  136.7630  159.3749 H   0  0  0  0  0  0  0  0  0  0  0  0
  147.7147  136.0201  157.2211 H   0  0  0  0  0  0  0  0  0  0  0  0
  148.4070  136.3830  155.6631 H   0  0  0  0  0  0  0  0  0  0  0  0
  149.1117  133.8721  158.3911 H   0  0  0  0  0  0  0  0  0  0  0  0
  151.2433  135.8463  155.9821 H   0  0  0  0  0  0  0  0  0  0  0  0
  151.4501  134.1160  156.2421 H   0  0  0  0  0  0  0  0  0  0  0  0
  149.9408  135.4481  153.9848 H   0  0  0  0  0  0  0  0  0  0  0  0
  151.0501  134.0792  153.9042 H   0  0  0  0  0  0  0  0  0  0  0  0
  149.1237  132.6750  156.4287 H   0  0  0  0  0  0  0  0  0  0  0  0
  147.6760  133.6222  156.1433 H   0  0  0  0  0  0  0  0  0  0  0  0
  150.1276  142.6428  157.9896 H   0  0  0  0  0  0  0  0  0  0  0  0
  150.2172  141.6405  159.4091 H   0  0  0  0  0  0  0  0  0  0  0  0
  149.6857  144.1582  159.9260 H   0  0  0  0  0  0  0  0  0  0  0  0
  150.5672  143.6261  161.3551 H   0  0  0  0  0  0  0  0  0  0  0  0
  150.6033  146.2322  160.7518 H   0  0  0  0  0  0  0  0  0  0  0  0
  152.1780  145.4821  161.0723 H   0  0  0  0  0  0  0  0  0  0  0  0
  153.3307  144.4990  158.8226 H   0  0  0  0  0  0  0  0  0  0  0  0
  152.5245  143.4791  156.6584 H   0  0  0  0  0  0  0  0  0  0  0  0
  152.5651  145.2332  156.6023 H   0  0  0  0  0  0  0  0  0  0  0  0
  151.0275  144.4093  156.8029 H   0  0  0  0  0  0  0  0  0  0  0  0
  1  2  1  0  0  0  0
  1 29  1  0  0  0  0
  1 30  1  0  0  0  0
  1 31  1  0  0  0  0
  2 28  1  0  0  0  0
  2  3  1  0  0  0  0
  2 32  1  0  0  0  0
  3  4  1  0  0  0  0
  3 33  1  0  0  0  0
  3 34  1  0  0  0  0
  4  5  1  0  0  0  0
  4 21  1  0  0  0  0
  5 10  1  0  0  0  0
  5  6  2  0  0  0  0
  6  7  1  0  0  0  0
  7  8  2  0  0  0  0
  7 35  1  0  0  0  0
  8  9  1  0  0  0  0
  9 13  1  0  0  0  0
  9 10  2  0  0  0  0
 10 11  1  0  0  0  0
 11 12  2  0  0  0  0
 12 13  1  0  0  0  0
 12 36  1  0  0  0  0
 13 14  1  0  0  0  0
 14 15  1  0  0  0  0
 14 37  1  0  0  0  0
 14 38  1  0  0  0  0
 15 20  1  0  0  0  0
 15 16  1  0  0  0  0
 15 17  1  0  0  0  0
 16 39  1  0  0  0  0
 17 18  1  0  0  0  0
 17 40  1  0  0  0  0
 17 41  1  0  0  0  0
 18 19  1  0  0  0  0
 18 42  1  0  0  0  0
 18 43  1  0  0  0  0
 19 20  1  0  0  0  0
 20 44  1  0  0  0  0
 20 45  1  0  0  0  0
 21 22  1  0  0  0  0
 21 46  1  0  0  0  0
 21 47  1  0  0  0  0
 22 26  1  0  0  0  0
 22 23  1  0  0  0  0
 22 28  1  0  0  0  0
 23 24  1  0  0  0  0
 23 48  1  0  0  0  0
 23 49  1  0  0  0  0
 24 25  1  0  0  0  0
 24 50  1  0  0  0  0
 24 51  1  0  0  0  0
 25 26  1  0  0  0  0
 26 27  1  0  0  0  0
 26 52  1  0  0  0  0
 27 53  1  0  0  0  0
 27 54  1  0  0  0  0
 27 55  1  0  0  0  0
M  END
> <s_m_source_file>
AV-unprocessed.smi

> <i_m_source_file_index>
281

> <i_lp_mmshare_version>
43012

> <i_f3d_flags>
0

> <s_epik_input>
W0NIM11bQ0BASF0xT1tDSDJdW0NIMl1bQ0BAXTEyW0NIMl1OKFtDSDJdW0NASF0oTzIpW0NIM10pYyhuW2NIXW4zKWMoYzM0KW5bY0hdbjRbQ0gyXVtDQEBdNShbT0hdKVtDSDJdW0NIMl1PW0NIMl01

> <s_epik_cmdline>
J2VwaWtfcHl0aG9uJywgJy1waCcsICc3LjAnLCAnLXRuJywgJzgnLCAnLW1hJywgJzIwMCcsICctbWV0YWxfYmluZGluZycsICctaW1hZScsICc8aW5maWxlLm1hZT4nLCAnLW9tYWUnLCAnPG91dGZpbGUubWFlPic=

> <r_lp_tautomer_probability>
1

> <r_epik_Ionization_Penalty>
0.00571331

> <r_epik_Ionization_Penalty_Charging>
0

> <r_epik_Ionization_Penalty_Neutral>
0.00571331

> <r_epik_State_Penalty>
0.00399586

> <r_epik_Charging_Adjusted_Penalty>
0.00399586

> <i_epik_Tot_Q>
0

> <i_epik_Tot_abs_Q>
0

> <r_epik_Metal_State_Penalty>
-0

> <b_epik_Metal_Only>
0

> <s_lp_Force_Field>
OPLS_2005

> <r_lp_Energy>
53.9998

> <b_lp_Chiralities_Consistent>
1

> <s_lp_Variant>
AV-unprocessed.smi:281-12

> <Gold.Version>
5.8.1

> <Gold.Id.Protein>
6NUR|6NUR_protein|mol2

> <Gold.PLP.Fitness>
44.3436

> <Gold.PLP.PLP>
-42.1160

> <Gold.PLP.part.hbond>
-2.7862

> <Gold.PLP.part.metal>
0.0000

> <Gold.PLP.part.buried>
-7.3153

> <Gold.PLP.part.nonpolar>
-32.8145

> <Gold.PLP.part.repulsive>
0.2733

> <Gold.PLP.ligand.clash>
0.0000

> <Gold.PLP.ligand.torsion>
0.5226

> <Gold.PLP.Chemscore.Hbond>
1.0000

> <Gold.PLP.Chemscore.CHOScore>
0.0000

> <Gold.PLP.Chemscore.Metal>
0.0000

> <Gold.Chemscore.Hbonds>
donor molecule, donor type, donor heavy atom, donor atom, acceptor molecule, acceptor atom, score
      P1  H  6896  6908       L1    16  0.40

> <Gold.PLP.Chemscore.Internal.Correction>
0.2728

> <Gold.Rescore>
     Score         DG    S(hbond)    S(metal)    S(lipo)     H(rot)  DE(clash)    DE(int)     intcor
     15.17     -16.96       0.97        0.00     116.10       2.09       1.41       0.38       ----

> <Gold.Chemscore.Fitness>
15.1654

> <Gold.Chemscore.DG>
-16.9565

> <Gold.Chemscore.ZeroCoef>
-5.4800

> <Gold.Chemscore.Hbond>
0.9730

> <Gold.Chemscore.Metal>
0.0000

> <Gold.Chemscore.Lipo>
116.1038

> <Gold.Chemscore.Internal_Hbond>
0.0000

> <Gold.Chemscore.DEClash>
1.4084

> <Gold.Chemscore.DEInternal>
0.3826

> <Gold.Chemscore.Rot>
2.0927

> <Gold.Chemscore.Internal.Correction>
   9.000000E+99

> <Gold.Chemscore.Hbonds>
donor molecule, donor type, donor heavy atom, donor atom, acceptor molecule, acceptor atom, score
      P1  H  6896  6908       L1    16  0.01

> <Gold.Chemscore.Hbond.Weighted>
-3.2497

> <Gold.Chemscore.Metal.Weighted>
-0.0000

> <Gold.Chemscore.Lipo.Weighted>
-13.5841

> <Gold.Chemscore.Internal_Hbond.Weighted>
0.0000

> <Gold.Chemscore.DEClash.Weighted>
1.4084

> <Gold.Chemscore.DEInternal.Weighted>
0.3826

> <Gold.Chemscore.Rot.Weighted>
5.3573

> <Gold.Chemscore.Internal.Correction.Weighted>
   9.000000E+99

> <Gold.Protein.RotatedTorsions>
[ 6907 6896 6895 6894 ] final  132.96 input  -60.11 | X-H torsion
[ 7974 7965 7964 7962 ] final -114.21 input  175.53 | X-H torsion
[ 8008 7997 7996 7995 ] final  169.27 input   59.86 | X-H torsion
[ 10167 10162 10161 10158 ] final -112.37 input  -65.29 | X-H torsion
[ 10718 10713 10712 10709 ] final   27.69 input   66.30 | X-H torsion
[ 10763 10752 10751 10750 ] final   14.17 input  -60.55 | X-H torsion
[ 11005 11000 10999 10996 ] final -168.38 input  -57.11 | X-H torsion

> <Gold.Protein.ActiveResidues>
 VAL166  LYS551  ARG553  GLY616  TRP617  ASP618  TYR619  PRO620  LYS621  CYS622 
 ASP623  PHE694  ASN695  SER759  ASP760  ASP761  ALA762  ILE779  LEU786  VAL792 
 PHE793  MET794  SER795  GLU796  ALA797  LYS798  CYS799  TRP800  GLU811  SER814 

> <Gold.Protein.RotatedAtoms>
  152.3270  133.5916  159.5783 H   0  0  0  0  0  0  0  0  0  0  0  0  # atno 6907 bound_to 6896
  150.7402  133.9926  159.3621 H   0  0  0  0  0  0  0  0  0  0  0  0  # atno 6908 bound_to 6896
  151.7804  135.0763  160.0424 H   0  0  0  0  0  0  0  0  0  0  0  0  # atno 6909 bound_to 6896
  145.1228  140.8679  143.3803 H   0  0  0  0  0  0  0  0  0  0  0  0  # atno 7974 bound_to 7965
  156.1472  140.1568  156.8827 H   0  0  0  0  0  0  0  0  0  0  0  0  # atno 8008 bound_to 7997
  154.5039  140.0818  156.7892 H   0  0  0  0  0  0  0  0  0  0  0  0  # atno 8009 bound_to 7997
  155.3965  140.3412  155.4256 H   0  0  0  0  0  0  0  0  0  0  0  0  # atno 8010 bound_to 7997
  140.1235  143.4423  152.1675 H   0  0  0  0  0  0  0  0  0  0  0  0  # atno 10167 bound_to 10162
  157.2235  130.6990  149.6281 H   0  0  0  0  0  0  0  0  0  0  0  0  # atno 10718 bound_to 10713
  153.1648  135.6802  153.8691 H   0  0  0  0  0  0  0  0  0  0  0  0  # atno 10763 bound_to 10752
  153.8074  135.3147  155.3398 H   0  0  0  0  0  0  0  0  0  0  0  0  # atno 10764 bound_to 10752
  154.7958  135.4808  154.0247 H   0  0  0  0  0  0  0  0  0  0  0  0  # atno 10765 bound_to 10752
  140.5426  134.5507  157.5103 H   0  0  0  0  0  0  0  0  0  0  0  0  # atno 11005 bound_to 11000
  145.0721  139.3023  143.5827 LP  0  0  0  0  0  0  0  0  0  0  0  0  # atno 17320 bound_to 7965
  146.3520  140.0199  142.8659 LP  0  0  0  0  0  0  0  0  0  0  0  0  # atno 17321 bound_to 7965
  139.5556  144.7370  151.4303 LP  0  0  0  0  0  0  0  0  0  0  0  0  # atno 17342 bound_to 10162
  140.6858  143.7976  150.7185 LP  0  0  0  0  0  0  0  0  0  0  0  0  # atno 17343 bound_to 10162
  155.9680  130.4512  150.5727 LP  0  0  0  0  0  0  0  0  0  0  0  0  # atno 17370 bound_to 10713
  157.3552  131.0740  151.1681 LP  0  0  0  0  0  0  0  0  0  0  0  0  # atno 17371 bound_to 10713
  139.9496  134.7640  156.0480 LP  0  0  0  0  0  0  0  0  0  0  0  0  # atno 17394 bound_to 11000
  141.1218  133.6610  156.3235 LP  0  0  0  0  0  0  0  0  0  0  0  0  # atno 17395 bound_to 11000

$$$$
