AV-unprocessed.smi:3150|AV-procd|sdf|12010|dock9
  -GOLD-   2272017423D 1   1.00000     0.00000
 Structure written by MMmdl.
 33 34  0  0  0  0  0  0  0  0  3 V2000
  151.9527  144.9827  158.6071 C   0  0  0  0  0  0  0  0  0  0  0  0
  152.2566  143.5729  159.1365 C   0  0  1  0  0  0  0  0  0  0  0  0
  152.0272  143.5864  160.5430 O   0  0  0  0  0  0  0  0  0  0  0  0
  152.6167  142.5142  161.2682 C   0  0  0  0  0  0  0  0  0  0  0  0
  153.6073  143.0860  162.2592 C   0  0  0  0  0  0  0  0  0  0  0  0
  153.9660  142.3161  163.5099 C   0  0  0  0  0  0  0  0  0  0  0  0
  153.1477  143.5779  163.6133 C   0  0  0  0  0  0  0  0  0  0  0  0
  151.3690  142.5143  158.4617 C   0  0  0  0  0  0  0  0  0  0  0  0
  150.7588  141.6974  159.1534 O   0  0  0  0  0  0  0  0  0  0  0  0
  151.3370  142.5518  157.1163 N   0  0  0  0  0  0  0  0  0  0  0  0
  150.6282  141.7064  156.2182 C   0  0  0  0  0  0  0  0  0  0  0  0
  149.4824  142.1004  155.6079 N   0  3  0  0  0  0  0  0  0  0  0  0
  148.7865  141.3230  154.7508 C   0  0  0  0  0  0  0  0  0  0  0  0
  149.2465  140.0266  154.4503 C   0  0  0  0  0  0  0  0  0  0  0  0
  150.4321  139.5660  155.0563 C   0  0  0  0  0  0  0  0  0  0  0  0
  151.1294  140.4099  155.9472 C   0  0  0  0  0  0  0  0  0  0  0  0
  152.2791  139.9621  156.5356 O   0  5  0  0  0  0  0  0  0  0  0  0
  152.0984  145.0421  157.5280 H   0  0  0  0  0  0  0  0  0  0  0  0
  152.6122  145.7179  159.0686 H   0  0  0  0  0  0  0  0  0  0  0  0
  150.9269  145.2823  158.8252 H   0  0  0  0  0  0  0  0  0  0  0  0
  153.3088  143.3555  158.9424 H   0  0  0  0  0  0  0  0  0  0  0  0
  151.8670  141.9281  161.8012 H   0  0  0  0  0  0  0  0  0  0  0  0
  153.1454  141.8443  160.5891 H   0  0  0  0  0  0  0  0  0  0  0  0
  154.4238  143.6371  161.7965 H   0  0  0  0  0  0  0  0  0  0  0  0
  153.4561  141.3714  163.6887 H   0  0  0  0  0  0  0  0  0  0  0  0
  155.0003  142.3583  163.8449 H   0  0  0  0  0  0  0  0  0  0  0  0
  153.6350  144.4626  164.0179 H   0  0  0  0  0  0  0  0  0  0  0  0
  152.0926  143.4740  163.8594 H   0  0  0  0  0  0  0  0  0  0  0  0
  151.8926  143.2695  156.6728 H   0  0  0  0  0  0  0  0  0  0  0  0
  147.8902  141.7594  154.3351 H   0  0  0  0  0  0  0  0  0  0  0  0
  148.6999  139.3946  153.7662 H   0  0  0  0  0  0  0  0  0  0  0  0
  150.8018  138.5744  154.8388 H   0  0  0  0  0  0  0  0  0  0  0  0
  149.1286  143.0361  155.8096 H   0  0  0  0  0  0  0  0  0  0  0  0
  1  2  1  0  0  0  0
  1 18  1  0  0  0  0
  1 19  1  0  0  0  0
  1 20  1  0  0  0  0
  2  3  1  0  0  0  0
  2  8  1  0  0  0  0
  2 21  1  0  0  0  0
  3  4  1  0  0  0  0
  4  5  1  0  0  0  0
  4 22  1  0  0  0  0
  4 23  1  0  0  0  0
  5  7  1  0  0  0  0
  5  6  1  0  0  0  0
  5 24  1  0  0  0  0
  6  7  1  0  0  0  0
  6 25  1  0  0  0  0
  6 26  1  0  0  0  0
  7 27  1  0  0  0  0
  7 28  1  0  0  0  0
  8  9  2  0  0  0  0
  8 10  1  0  0  0  0
 10 29  1  0  0  0  0
 10 11  1  0  0  0  0
 11 16  2  0  0  0  0
 11 12  1  0  0  0  0
 12 33  1  0  0  0  0
 12 13  2  0  0  0  0
 13 30  1  0  0  0  0
 13 14  1  0  0  0  0
 14 31  1  0  0  0  0
 14 15  2  0  0  0  0
 15 16  1  0  0  0  0
 15 32  1  0  0  0  0
 16 17  1  0  0  0  0
M  CHG  1  12   1
M  CHG  1  17  -1
M  END
> <s_m_source_file>
AV-unprocessed.smi

> <i_m_source_file_index>
3150

> <i_lp_mmshare_version>
43012

> <i_f3d_flags>
0

> <s_epik_input>
W0NIMl0xW0NIMl1bQ0hdMVtDSDJdT1tDQEBIXShbQ0gzXSlDKD1PKVtOSF1jMm5bY0hdW2NIXVtjSF1jMltPSF0=

> <s_epik_cmdline>
J2VwaWtfcHl0aG9uJywgJy1waCcsICc3LjAnLCAnLXRuJywgJzgnLCAnLW1hJywgJzIwMCcsICctbWV0YWxfYmluZGluZycsICctaW1hZScsICc8aW5maWxlLm1hZT4nLCAnLW9tYWUnLCAnPG91dGZpbGUubWFlPic=

> <r_lp_tautomer_probability>
0.56342

> <r_epik_Ionization_Penalty>
0.213151

> <r_epik_Ionization_Penalty_Charging>
0.0249427

> <r_epik_Ionization_Penalty_Neutral>
0.188209

> <r_epik_State_Penalty>
0.538305

> <r_epik_Charging_Adjusted_Penalty>
0.563248

> <i_epik_Tot_Q>
0

> <i_epik_Tot_abs_Q>
2

> <r_epik_Metal_State_Penalty>
2.57454

> <b_epik_Metal_Only>
0

> <s_lp_Force_Field>
OPLS_2005

> <r_lp_Energy>
15.4349

> <b_lp_Chiralities_Consistent>
1

> <s_lp_Variant>
AV-unprocessed.smi:3150-4

> <Gold.Version>
5.8.1

> <Gold.Id.Protein>
6NUR|6NUR_protein|mol2

> <Gold.PLP.Fitness>
46.5526

> <Gold.PLP.PLP>
-36.8724

> <Gold.PLP.part.hbond>
-2.8170

> <Gold.PLP.part.metal>
0.0000

> <Gold.PLP.part.buried>
-1.9027

> <Gold.PLP.part.nonpolar>
-32.3812

> <Gold.PLP.part.repulsive>
0.2948

> <Gold.PLP.ligand.clash>
0.0000

> <Gold.PLP.ligand.torsion>
1.6939

> <Gold.PLP.Chemscore.Hbond>
4.0000

> <Gold.PLP.Chemscore.CHOScore>
0.0000

> <Gold.PLP.Chemscore.Metal>
0.0000

> <Gold.Chemscore.Hbonds>
donor molecule, donor type, donor heavy atom, donor atom, acceptor molecule, acceptor atom, score
      L1  H    12    33       P1  8028  2.00
      P1  H  7997  8010       L1    17  1.82

> <Gold.PLP.Chemscore.Internal.Correction>
1.0681

> <Gold.Rescore>
     Score         DG    S(hbond)    S(metal)    S(lipo)     H(rot)  DE(clash)    DE(int)     intcor
     14.15     -20.03       1.99        0.00     104.36       1.68       3.00       2.88       ----

> <Gold.Chemscore.Fitness>
14.1517

> <Gold.Chemscore.DG>
-20.0298

> <Gold.Chemscore.ZeroCoef>
-5.4800

> <Gold.Chemscore.Hbond>
1.9909

> <Gold.Chemscore.Metal>
0.0000

> <Gold.Chemscore.Lipo>
104.3562

> <Gold.Chemscore.Internal_Hbond>
0.0000

> <Gold.Chemscore.DEClash>
3.0005

> <Gold.Chemscore.DEInternal>
2.8776

> <Gold.Chemscore.Rot>
1.6833

> <Gold.Chemscore.Internal.Correction>
   9.000000E+99

> <Gold.Chemscore.Hbonds>
donor molecule, donor type, donor heavy atom, donor atom, acceptor molecule, acceptor atom, score
      L1  H    12    33       P1  8028  0.99
      P1  H  7997  8010       L1    17  0.87

> <Gold.Chemscore.Hbond.Weighted>
-6.6495

> <Gold.Chemscore.Metal.Weighted>
-0.0000

> <Gold.Chemscore.Lipo.Weighted>
-12.2097

> <Gold.Chemscore.Internal_Hbond.Weighted>
0.0000

> <Gold.Chemscore.DEClash.Weighted>
3.0005

> <Gold.Chemscore.DEInternal.Weighted>
2.8776

> <Gold.Chemscore.Rot.Weighted>
4.3094

> <Gold.Chemscore.Internal.Correction.Weighted>
   9.000000E+99

> <Gold.Protein.RotatedTorsions>
[ 6907 6896 6895 6894 ] final -155.18 input  -60.11 | X-H torsion
[ 7974 7965 7964 7962 ] final   41.61 input  175.53 | X-H torsion
[ 8008 7997 7996 7995 ] final   67.45 input   59.86 | X-H torsion
[ 10167 10162 10161 10158 ] final  145.96 input  -65.29 | X-H torsion
[ 10718 10713 10712 10709 ] final  -51.05 input   66.30 | X-H torsion
[ 10763 10752 10751 10750 ] final  159.61 input  -60.55 | X-H torsion
[ 11005 11000 10999 10996 ] final  -86.73 input  -57.11 | X-H torsion

> <Gold.Protein.ActiveResidues>
 VAL166  LYS551  ARG553  GLY616  TRP617  ASP618  TYR619  PRO620  LYS621  CYS622 
 ASP623  PHE694  ASN695  SER759  ASP760  ASP761  ALA762  ILE779  LEU786  VAL792 
 PHE793  MET794  SER795  GLU796  ALA797  LYS798  CYS799  TRP800  GLU811  SER814 

> <Gold.Protein.RotatedAtoms>
  151.2686  133.4266  159.2619 H   0  0  0  0  0  0  0  0  0  0  0  0  # atno 6907 bound_to 6896
  151.0466  134.9644  159.8200 H   0  0  0  0  0  0  0  0  0  0  0  0  # atno 6908 bound_to 6896
  152.5375  134.2642  159.8999 H   0  0  0  0  0  0  0  0  0  0  0  0  # atno 6909 bound_to 6896
  146.0809  139.5396  142.9537 H   0  0  0  0  0  0  0  0  0  0  0  0  # atno 7974 bound_to 7965
  155.6931  140.3496  155.4901 H   0  0  0  0  0  0  0  0  0  0  0  0  # atno 8008 bound_to 7997
  155.9507  140.1118  157.1001 H   0  0  0  0  0  0  0  0  0  0  0  0  # atno 8009 bound_to 7997
  154.4121  140.1195  156.5035 H   0  0  0  0  0  0  0  0  0  0  0  0  # atno 8010 bound_to 7997
  139.4916  144.5864  151.6770 H   0  0  0  0  0  0  0  0  0  0  0  0  # atno 10167 bound_to 10162
  156.1745  130.4149  149.9597 H   0  0  0  0  0  0  0  0  0  0  0  0  # atno 10718 bound_to 10713
  154.2345  135.2777  155.2877 H   0  0  0  0  0  0  0  0  0  0  0  0  # atno 10763 bound_to 10752
  154.5597  135.5651  153.6999 H   0  0  0  0  0  0  0  0  0  0  0  0  # atno 10764 bound_to 10752
  153.0013  135.6294  154.2487 H   0  0  0  0  0  0  0  0  0  0  0  0  # atno 10765 bound_to 10752
  141.1626  133.7471  156.9204 H   0  0  0  0  0  0  0  0  0  0  0  0  # atno 11005 bound_to 11000
  145.6219  141.0321  143.1910 LP  0  0  0  0  0  0  0  0  0  0  0  0  # atno 17320 bound_to 7965
  144.7293  139.7776  143.7353 LP  0  0  0  0  0  0  0  0  0  0  0  0  # atno 17321 bound_to 7965
  140.5481  144.0470  150.6115 LP  0  0  0  0  0  0  0  0  0  0  0  0  # atno 17342 bound_to 10162
  140.3515  143.2960  152.0482 LP  0  0  0  0  0  0  0  0  0  0  0  0  # atno 17343 bound_to 10162
  156.7387  130.9071  151.3631 LP  0  0  0  0  0  0  0  0  0  0  0  0  # atno 17370 bound_to 10713
  157.6826  130.9154  150.0305 LP  0  0  0  0  0  0  0  0  0  0  0  0  # atno 17371 bound_to 10713
  140.1455  134.9265  157.2524 LP  0  0  0  0  0  0  0  0  0  0  0  0  # atno 17394 bound_to 11000
  140.2785  134.3377  155.7350 LP  0  0  0  0  0  0  0  0  0  0  0  0  # atno 17395 bound_to 11000

$$$$
