AV-unprocessed.smi:438|AV-procd|sdf|2564|dock3
  -GOLD-   2262022533D 1   1.00000     0.00000
 Structure written by MMmdl.
 48 49  0  0  0  0  0  0  0  0  1 V2000
  146.4585  132.5764  152.7686 C   0  0  0  0  0  0  0  0  0  0  0  0
  145.6546  133.6589  153.4672 C   0  0  0  0  0  0  0  0  0  0  0  0
  146.0598  133.9658  154.7716 N   0  0  0  0  0  0  0  0  0  0  0  0
  145.4394  134.8788  155.4485 C   0  0  0  0  0  0  0  0  0  0  0  0
  145.7625  135.4908  157.1309 S   0  0  0  0  0  0  0  0  0  0  0  0
  147.1458  134.4396  157.6700 C   0  0  0  0  0  0  0  0  0  0  0  0
  147.7160  134.8792  159.0180 C   0  0  0  0  0  0  0  0  0  0  0  0
  148.9173  135.1215  159.1283 O   0  0  0  0  0  0  0  0  0  0  0  0
  146.8454  134.9504  160.0369 N   0  0  0  0  0  0  0  0  0  0  0  0
  147.1621  135.2352  161.4363 C   0  0  1  0  0  0  0  0  0  0  0  0
  146.4081  136.4990  161.8952 C   0  0  0  0  0  0  0  0  0  0  0  0
  144.8919  136.2631  162.0022 C   0  0  0  0  0  0  0  0  0  0  0  0
  144.5768  135.0730  162.9199 C   0  0  0  0  0  0  0  0  0  0  0  0
  145.3090  133.8017  162.4631 C   0  0  0  0  0  0  0  0  0  0  0  0
  146.8314  134.0274  162.3522 C   0  0  1  0  0  0  0  0  0  0  0  0
  147.5586  132.7365  161.9385 C   0  0  0  0  0  0  0  0  0  0  0  0
  144.3606  135.5620  154.8878 N   0  0  0  0  0  0  0  0  0  0  0  0
  143.9030  135.3533  153.6336 C   0  0  0  0  0  0  0  0  0  0  0  0
  142.9623  136.0151  153.1982 O   0  0  0  0  0  0  0  0  0  0  0  0
  144.6093  134.3044  152.8781 C   0  0  0  0  0  0  0  0  0  0  0  0
  144.1527  134.0153  151.4485 C   0  0  0  0  0  0  0  0  0  0  0  0
  144.5740  135.1009  150.4425 C   0  0  0  0  0  0  0  0  0  0  0  0
  144.1041  134.8060  149.1445 O   0  0  0  0  0  0  0  0  0  0  0  0
  145.8067  131.7904  152.3886 H   0  0  0  0  0  0  0  0  0  0  0  0
  147.1724  132.1128  153.4505 H   0  0  0  0  0  0  0  0  0  0  0  0
  147.0185  132.9973  151.9335 H   0  0  0  0  0  0  0  0  0  0  0  0
  147.9288  134.4145  156.9115 H   0  0  0  0  0  0  0  0  0  0  0  0
  146.7753  133.4184  157.7649 H   0  0  0  0  0  0  0  0  0  0  0  0
  145.8795  134.7344  159.8353 H   0  0  0  0  0  0  0  0  0  0  0  0
  148.2292  135.4458  161.5261 H   0  0  0  0  0  0  0  0  0  0  0  0
  146.7896  136.8092  162.8688 H   0  0  0  0  0  0  0  0  0  0  0  0
  146.6097  137.3268  161.2140 H   0  0  0  0  0  0  0  0  0  0  0  0
  144.4021  137.1612  162.3790 H   0  0  0  0  0  0  0  0  0  0  0  0
  144.4780  136.0818  161.0104 H   0  0  0  0  0  0  0  0  0  0  0  0
  144.8696  135.3142  163.9425 H   0  0  0  0  0  0  0  0  0  0  0  0
  143.5013  134.8943  162.9406 H   0  0  0  0  0  0  0  0  0  0  0  0
  145.1035  132.9938  163.1660 H   0  0  0  0  0  0  0  0  0  0  0  0
  144.9099  133.4753  161.5031 H   0  0  0  0  0  0  0  0  0  0  0  0
  147.1913  134.2806  163.3505 H   0  0  0  0  0  0  0  0  0  0  0  0
  147.2021  132.3618  160.9785 H   0  0  0  0  0  0  0  0  0  0  0  0
  147.4025  131.9477  162.6746 H   0  0  0  0  0  0  0  0  0  0  0  0
  148.6330  132.9011  161.8549 H   0  0  0  0  0  0  0  0  0  0  0  0
  143.8993  136.2697  155.4406 H   0  0  0  0  0  0  0  0  0  0  0  0
  143.0667  133.9256  151.4345 H   0  0  0  0  0  0  0  0  0  0  0  0
  144.5158  133.0398  151.1225 H   0  0  0  0  0  0  0  0  0  0  0  0
  144.1659  136.0657  150.7443 H   0  0  0  0  0  0  0  0  0  0  0  0
  145.6583  135.2080  150.4128 H   0  0  0  0  0  0  0  0  0  0  0  0
  143.1609  134.7549  149.1702 H   0  0  0  0  0  0  0  0  0  0  0  0
  1 24  1  0  0  0  0
  1 25  1  0  0  0  0
  1 26  1  0  0  0  0
  1  2  1  0  0  0  0
  2 20  2  0  0  0  0
  2  3  1  0  0  0  0
  3  4  2  0  0  0  0
  4  5  1  0  0  0  0
  4 17  1  0  0  0  0
  5  6  1  0  0  0  0
  6  7  1  0  0  0  0
  6 27  1  0  0  0  0
  6 28  1  0  0  0  0
  7  8  2  0  0  0  0
  7  9  1  0  0  0  0
  9 10  1  0  0  0  0
  9 29  1  0  0  0  0
 10 15  1  0  0  0  0
 10 11  1  0  0  0  0
 10 30  1  0  0  0  0
 11 12  1  0  0  0  0
 11 31  1  0  0  0  0
 11 32  1  0  0  0  0
 12 13  1  0  0  0  0
 12 33  1  0  0  0  0
 12 34  1  0  0  0  0
 13 14  1  0  0  0  0
 13 35  1  0  0  0  0
 13 36  1  0  0  0  0
 14 15  1  0  0  0  0
 14 37  1  0  0  0  0
 14 38  1  0  0  0  0
 15 16  1  0  0  0  0
 15 39  1  0  0  0  0
 16 40  1  0  0  0  0
 16 41  1  0  0  0  0
 16 42  1  0  0  0  0
 17 43  1  0  0  0  0
 17 18  1  0  0  0  0
 18 19  2  0  0  0  0
 18 20  1  0  0  0  0
 20 21  1  0  0  0  0
 21 22  1  0  0  0  0
 21 44  1  0  0  0  0
 21 45  1  0  0  0  0
 22 23  1  0  0  0  0
 22 46  1  0  0  0  0
 22 47  1  0  0  0  0
 23 48  1  0  0  0  0
M  END
> <s_m_source_file>
AV-unprocessed.smi

> <i_m_source_file_index>
438

> <i_lp_mmshare_version>
43012

> <i_f3d_flags>
0

> <s_epik_input>
W09IXVtDSDJdW0NIMl1jMWMoW09IXSluYyhuYzFbQ0gzXSlTW0NIMl1DKD1PKVtOSF1bQ0BASF0yW0NIMl1bQ0gyXVtDSDJdW0NIMl1bQ0BIXTJbQ0gzXQ==

> <s_epik_cmdline>
J2VwaWtfcHl0aG9uJywgJy1waCcsICc3LjAnLCAnLXRuJywgJzgnLCAnLW1hJywgJzIwMCcsICctbWV0YWxfYmluZGluZycsICctaW1hZScsICc8aW5maWxlLm1hZT4nLCAnLW9tYWUnLCAnPG91dGZpbGUubWFlPic=

> <r_lp_tautomer_probability>
0.660323

> <r_epik_Ionization_Penalty>
0.00860626

> <r_epik_Ionization_Penalty_Charging>
0.00860522

> <r_epik_Ionization_Penalty_Neutral>
1.04215e-06

> <r_epik_State_Penalty>
0.156825

> <r_epik_Charging_Adjusted_Penalty>
0.16543

> <i_epik_Tot_Q>
0

> <i_epik_Tot_abs_Q>
0

> <r_epik_Metal_State_Penalty>
0.752038

> <b_epik_Metal_Only>
0

> <s_lp_Force_Field>
OPLS_2005

> <r_lp_Energy>
10.8925

> <b_lp_Chiralities_Consistent>
1

> <s_lp_Variant>
AV-unprocessed.smi:438-2

> <Gold.Version>
5.8.1

> <Gold.Id.Protein>
6NUR|6NUR_protein|mol2

> <Gold.PLP.Fitness>
38.5101

> <Gold.PLP.PLP>
-32.9118

> <Gold.PLP.part.hbond>
-3.0000

> <Gold.PLP.part.metal>
0.0000

> <Gold.PLP.part.buried>
-6.0984

> <Gold.PLP.part.nonpolar>
-24.8102

> <Gold.PLP.part.repulsive>
0.2002

> <Gold.PLP.ligand.clash>
0.0000

> <Gold.PLP.ligand.torsion>
0.2331

> <Gold.PLP.Chemscore.Hbond>
2.0000

> <Gold.PLP.Chemscore.CHOScore>
0.0000

> <Gold.PLP.Chemscore.Metal>
0.0000

> <Gold.Chemscore.Hbonds>
donor molecule, donor type, donor heavy atom, donor atom, acceptor molecule, acceptor atom, score
      L1  H    23    48       P1 10186  0.59
      P1  H  6896  6907       L1     8  1.00

> <Gold.PLP.Chemscore.Internal.Correction>
0.0646

> <Gold.Rescore>
     Score         DG    S(hbond)    S(metal)    S(lipo)     H(rot)  DE(clash)    DE(int)     intcor
     13.24     -13.67       2.00        0.00      75.65       2.86       0.05       0.39       ----

> <Gold.Chemscore.Fitness>
13.2356

> <Gold.Chemscore.DG>
-13.6700

> <Gold.Chemscore.ZeroCoef>
-5.4800

> <Gold.Chemscore.Hbond>
1.9978

> <Gold.Chemscore.Metal>
0.0000

> <Gold.Chemscore.Lipo>
75.6456

> <Gold.Chemscore.Internal_Hbond>
0.0000

> <Gold.Chemscore.DEClash>
0.0456

> <Gold.Chemscore.DEInternal>
0.3887

> <Gold.Chemscore.Rot>
2.8645

> <Gold.Chemscore.Internal.Correction>
   9.000000E+99

> <Gold.Chemscore.Hbonds>
donor molecule, donor type, donor heavy atom, donor atom, acceptor molecule, acceptor atom, score
      L1  H    23    48       P1 10186  0.57
      P1  H  6896  6907       L1     8  1.00

> <Gold.Chemscore.Hbond.Weighted>
-6.6726

> <Gold.Chemscore.Metal.Weighted>
-0.0000

> <Gold.Chemscore.Lipo.Weighted>
-8.8505

> <Gold.Chemscore.Internal_Hbond.Weighted>
0.0000

> <Gold.Chemscore.DEClash.Weighted>
0.0456

> <Gold.Chemscore.DEInternal.Weighted>
0.3887

> <Gold.Chemscore.Rot.Weighted>
7.3331

> <Gold.Chemscore.Internal.Correction.Weighted>
   9.000000E+99

> <Gold.Protein.RotatedTorsions>
[ 6907 6896 6895 6894 ] final  -73.27 input  -60.11 | X-H torsion
[ 7974 7965 7964 7962 ] final  -47.26 input  175.53 | X-H torsion
[ 8008 7997 7996 7995 ] final -116.21 input   59.86 | X-H torsion
[ 10167 10162 10161 10158 ] final -150.83 input  -65.29 | X-H torsion
[ 10718 10713 10712 10709 ] final  164.54 input   66.30 | X-H torsion
[ 10763 10752 10751 10750 ] final -104.37 input  -60.55 | X-H torsion
[ 11005 11000 10999 10996 ] final  102.81 input  -57.11 | X-H torsion

> <Gold.Protein.ActiveResidues>
 VAL166  LYS551  ARG553  GLY616  TRP617  ASP618  TYR619  PRO620  LYS621  CYS622 
 ASP623  PHE694  ASN695  SER759  ASP760  ASP761  ALA762  ILE779  LEU786  VAL792 
 PHE793  MET794  SER795  GLU796  ALA797  LYS798  CYS799  TRP800  GLU811  SER814 

> <Gold.Protein.RotatedAtoms>
  150.7137  134.5041  159.5575 H   0  0  0  0  0  0  0  0  0  0  0  0  # atno 6907 bound_to 6896
  152.2632  134.8009  160.0436 H   0  0  0  0  0  0  0  0  0  0  0  0  # atno 6908 bound_to 6896
  151.8715  133.3441  159.3773 H   0  0  0  0  0  0  0  0  0  0  0  0  # atno 6909 bound_to 6896
  145.9634  140.7456  142.9446 H   0  0  0  0  0  0  0  0  0  0  0  0  # atno 7974 bound_to 7965
  155.0642  140.0393  157.2587 H   0  0  0  0  0  0  0  0  0  0  0  0  # atno 8008 bound_to 7997
  154.7035  140.2678  155.6673 H   0  0  0  0  0  0  0  0  0  0  0  0  # atno 8009 bound_to 7997
  156.2767  140.2736  156.1653 H   0  0  0  0  0  0  0  0  0  0  0  0  # atno 8010 bound_to 7997
  139.7320  143.8794  152.2537 H   0  0  0  0  0  0  0  0  0  0  0  0  # atno 10167 bound_to 10162
  157.0929  131.0422  151.2530 H   0  0  0  0  0  0  0  0  0  0  0  0  # atno 10718 bound_to 10713
  154.7874  135.4788  153.9975 H   0  0  0  0  0  0  0  0  0  0  0  0  # atno 10763 bound_to 10752
  153.1580  135.6803  153.8792 H   0  0  0  0  0  0  0  0  0  0  0  0  # atno 10764 bound_to 10752
  153.8415  135.3179  155.3404 H   0  0  0  0  0  0  0  0  0  0  0  0  # atno 10765 bound_to 10752
  139.8780  134.9239  156.5114 H   0  0  0  0  0  0  0  0  0  0  0  0  # atno 11005 bound_to 11000
  144.6820  140.2629  143.7316 LP  0  0  0  0  0  0  0  0  0  0  0  0  # atno 17320 bound_to 7965
  145.8007  139.1963  143.2049 LP  0  0  0  0  0  0  0  0  0  0  0  0  # atno 17321 bound_to 7965
  139.8720  144.7063  150.8977 LP  0  0  0  0  0  0  0  0  0  0  0  0  # atno 17342 bound_to 10162
  140.7773  143.3731  151.1613 LP  0  0  0  0  0  0  0  0  0  0  0  0  # atno 17343 bound_to 10162
  157.4706  130.7706  149.7320 LP  0  0  0  0  0  0  0  0  0  0  0  0  # atno 17370 bound_to 10713
  155.9893  130.3952  150.3078 LP  0  0  0  0  0  0  0  0  0  0  0  0  # atno 17371 bound_to 10713
  140.8517  133.8127  155.9175 LP  0  0  0  0  0  0  0  0  0  0  0  0  # atno 17394 bound_to 11000
  140.9138  134.2228  157.4970 LP  0  0  0  0  0  0  0  0  0  0  0  0  # atno 17395 bound_to 11000

$$$$
