AV-unprocessed.smi:1|AV-procd|sdf|24|dock4
  -GOLD-   2262015133D 1   1.00000     0.00000
 Structure written by MMmdl.
 56 61  0  0  0  0  0  0  0  0  2 V2000
  152.5920  139.9846  159.2433 O   0  0  0  0  0  0  0  0  0  0  0  0
  152.3731  140.6956  158.2600 C   0  0  0  0  0  0  0  0  0  0  0  0
  152.3789  140.3344  156.9518 N   0  5  0  0  0  0  0  0  0  0  0  0
  151.3325  139.6725  156.4353 C   0  0  0  0  0  0  0  0  0  0  0  0
  150.9291  139.9118  155.1614 N   0  0  0  0  0  0  0  0  0  0  0  0
  149.8787  139.2584  154.6513 C   0  0  0  0  0  0  0  0  0  0  0  0
  149.0951  138.3449  155.2317 N   0  0  0  0  0  0  0  0  0  0  0  0
  149.4870  138.0981  156.5162 C   0  0  0  0  0  0  0  0  0  0  0  0
  150.5840  138.7206  157.1804 C   0  0  0  0  0  0  0  0  0  0  0  0
  150.7064  138.2488  158.4790 N   0  0  0  0  0  0  0  0  0  0  0  0
  149.7042  137.3755  158.5427 C   0  0  0  0  0  0  0  0  0  0  0  0
  148.9423  137.2212  157.4421 N   0  0  0  0  0  0  0  0  0  0  0  0
  147.7806  136.2955  157.2733 C   0  0  1  0  0  0  0  0  0  0  0  0
  148.2261  134.9836  157.4188 O   0  0  0  0  0  0  0  0  0  0  0  0
  147.1922  134.1813  157.9758 C   0  0  2  0  0  0  0  0  0  0  0  0
  146.2823  133.6688  156.8480 C   0  0  0  0  0  0  0  0  0  0  0  0
  145.4768  132.6133  157.3455 O   0  0  0  0  0  0  0  0  0  0  0  0
  144.2891  132.8830  157.9211 C   0  0  0  0  0  0  0  0  0  0  0  0
  143.8720  134.0256  158.1219 O   0  0  0  0  0  0  0  0  0  0  0  0
  143.5312  131.6526  158.2902 C   0  0  0  0  0  0  0  0  0  0  0  0
  142.2738  131.7777  158.9257 C   0  0  0  0  0  0  0  0  0  0  0  0
  141.5358  130.6339  159.2875 C   0  0  0  0  0  0  0  0  0  0  0  0
  142.0466  129.3508  159.0187 C   0  0  0  0  0  0  0  0  0  0  0  0
  143.2958  129.2128  158.3860 C   0  0  0  0  0  0  0  0  0  0  0  0
  144.0349  130.3555  158.0228 C   0  0  0  0  0  0  0  0  0  0  0  0
  146.4709  135.1352  158.9293 C   0  0  1  0  0  0  0  0  0  0  0  0
  147.0774  135.0909  160.2084 O   0  0  0  0  0  0  0  0  0  0  0  0
  147.1935  136.6515  160.7868 S   0  0  0  0  0  0  0  0  0  0  0  0
  145.9839  136.9352  161.5744 O   0  0  0  0  0  0  0  0  0  0  0  0
  148.5479  136.8571  161.3209 O   0  0  0  0  0  0  0  0  0  0  0  0
  147.0614  137.4588  159.3311 O   0  0  0  0  0  0  0  0  0  0  0  0
  146.6795  136.5332  158.3223 C   0  0  1  0  0  0  0  0  0  0  0  0
  152.1260  142.1658  158.4684 C   0  0  0  0  0  0  0  0  0  0  0  0
  152.4017  142.7513  159.7253 C   0  0  0  0  0  0  0  0  0  0  0  0
  152.1538  144.1200  159.9480 C   0  0  0  0  0  0  0  0  0  0  0  0
  151.6185  144.9164  158.9184 C   0  0  0  0  0  0  0  0  0  0  0  0
  151.3266  144.3418  157.6672 C   0  0  0  0  0  0  0  0  0  0  0  0
  151.5745  142.9733  157.4436 C   0  0  0  0  0  0  0  0  0  0  0  0
  149.6293  139.5044  153.6301 H   0  0  0  0  0  0  0  0  0  0  0  0
  149.5153  136.8086  159.4426 H   0  0  0  0  0  0  0  0  0  0  0  0
  147.4350  136.4625  156.2519 H   0  0  0  0  0  0  0  0  0  0  0  0
  147.6153  133.3342  158.5176 H   0  0  0  0  0  0  0  0  0  0  0  0
  145.6287  134.4705  156.5018 H   0  0  0  0  0  0  0  0  0  0  0  0
  146.8739  133.3376  155.9933 H   0  0  0  0  0  0  0  0  0  0  0  0
  141.8614  132.7527  159.1429 H   0  0  0  0  0  0  0  0  0  0  0  0
  140.5766  130.7419  159.7719 H   0  0  0  0  0  0  0  0  0  0  0  0
  141.4810  128.4738  159.2973 H   0  0  0  0  0  0  0  0  0  0  0  0
  143.6888  128.2283  158.1786 H   0  0  0  0  0  0  0  0  0  0  0  0
  144.9900  130.2138  157.5380 H   0  0  0  0  0  0  0  0  0  0  0  0
  145.4145  134.8901  159.0442 H   0  0  0  0  0  0  0  0  0  0  0  0
  145.7821  136.8838  157.8120 H   0  0  0  0  0  0  0  0  0  0  0  0
  152.8116  142.1535  160.5266 H   0  0  0  0  0  0  0  0  0  0  0  0
  152.3740  144.5578  160.9103 H   0  0  0  0  0  0  0  0  0  0  0  0
  151.4282  145.9655  159.0890 H   0  0  0  0  0  0  0  0  0  0  0  0
  150.9096  144.9498  156.8780 H   0  0  0  0  0  0  0  0  0  0  0  0
  151.3338  142.5499  156.4790 H   0  0  0  0  0  0  0  0  0  0  0  0
  1  2  2  0  0  0  0
  2  3  1  0  0  0  0
  2 33  1  0  0  0  0
  3  4  1  0  0  0  0
  4  9  1  0  0  0  0
  4  5  2  0  0  0  0
  5  6  1  0  0  0  0
  6  7  2  0  0  0  0
  6 39  1  0  0  0  0
  7  8  1  0  0  0  0
  8 12  1  0  0  0  0
  8  9  2  0  0  0  0
  9 10  1  0  0  0  0
 10 11  2  0  0  0  0
 11 12  1  0  0  0  0
 11 40  1  0  0  0  0
 12 13  1  0  0  0  0
 13 32  1  0  0  0  0
 13 14  1  0  0  0  0
 13 41  1  0  0  0  0
 14 15  1  0  0  0  0
 15 16  1  0  0  0  0
 15 26  1  0  0  0  0
 15 42  1  0  0  0  0
 16 17  1  0  0  0  0
 16 43  1  0  0  0  0
 16 44  1  0  0  0  0
 17 18  1  0  0  0  0
 18 19  2  0  0  0  0
 18 20  1  0  0  0  0
 20 25  1  0  0  0  0
 20 21  2  0  0  0  0
 21 22  1  0  0  0  0
 21 45  1  0  0  0  0
 22 23  2  0  0  0  0
 22 46  1  0  0  0  0
 23 24  1  0  0  0  0
 23 47  1  0  0  0  0
 24 25  2  0  0  0  0
 24 48  1  0  0  0  0
 25 49  1  0  0  0  0
 26 32  1  0  0  0  0
 26 27  1  0  0  0  0
 26 50  1  0  0  0  0
 27 28  1  0  0  0  0
 28 29  2  0  0  0  0
 28 30  2  0  0  0  0
 28 31  1  0  0  0  0
 31 32  1  0  0  0  0
 32 51  1  0  0  0  0
 33 38  1  0  0  0  0
 33 34  2  0  0  0  0
 34 35  1  0  0  0  0
 34 52  1  0  0  0  0
 35 36  2  0  0  0  0
 35 53  1  0  0  0  0
 36 37  1  0  0  0  0
 36 54  1  0  0  0  0
 37 38  2  0  0  0  0
 37 55  1  0  0  0  0
 38 56  1  0  0  0  0
M  CHG  1   3  -1
M  END
> <s_m_source_file>
AV-unprocessed.smi

> <i_m_source_file_index>
1

> <i_lp_mmshare_version>
43012

> <i_f3d_flags>
0

> <s_epik_input>
W2NIXTFbY0hdW2NIXVtjSF1bY0hdYzFDKD1PKVtOSF1jKG5bY0hdbjIpYyhjMjMpbltjSF1uM1tDQEBIXShbQ0BIXShbQ0BIXTQ1KU9TKE81KSg9Tyk9TylPW0NASF00W0NIMl1PQyg9TyljNltjSF1bY0hdW2NIXVtjSF1bY0hdNg==

> <s_epik_cmdline>
J2VwaWtfcHl0aG9uJywgJy1waCcsICc3LjAnLCAnLXRuJywgJzgnLCAnLW1hJywgJzIwMCcsICctbWV0YWxfYmluZGluZycsICctaW1hZScsICc8aW5maWxlLm1hZT4nLCAnLW9tYWUnLCAnPG91dGZpbGUubWFlPic=

> <r_lp_tautomer_probability>
1

> <r_epik_Ionization_Penalty>
4.39121

> <r_epik_Ionization_Penalty_Charging>
3.39398

> <r_epik_Ionization_Penalty_Neutral>
0.997232

> <r_epik_State_Penalty>
3.39839

> <r_epik_Charging_Adjusted_Penalty>
6.79237

> <i_epik_Tot_Q>
-1

> <i_epik_Tot_abs_Q>
1

> <r_epik_Metal_State_Penalty>
0.497663

> <b_epik_Metal_Only>
1

> <s_epik_Chemistry_Notes>
This compound has an ester and may undergo hydrolysis at high or low pH. This compound contains an acetal/aminal-like group ( X-CH(R)-Y where X, Y are N, S, or O) that may be acid/base labile, releasing an aldehyde.

> <s_lp_Force_Field>
OPLS_2005

> <r_lp_Energy>
44.7553

> <b_lp_Chiralities_Consistent>
1

> <s_lp_Variant>
AV-unprocessed.smi:1-24

> <Gold.Version>
5.8.1

> <Gold.Id.Protein>
6NUR|6NUR_protein|mol2

> <Gold.PLP.Fitness>
60.0267

> <Gold.PLP.PLP>
-47.4852

> <Gold.PLP.part.hbond>
-4.3133

> <Gold.PLP.part.metal>
0.0000

> <Gold.PLP.part.buried>
-6.9270

> <Gold.PLP.part.nonpolar>
-35.5017

> <Gold.PLP.part.repulsive>
0.2298

> <Gold.PLP.ligand.clash>
0.0000

> <Gold.PLP.ligand.torsion>
1.4158

> <Gold.PLP.Chemscore.Hbond>
4.0000

> <Gold.PLP.Chemscore.CHOScore>
0.9550

> <Gold.PLP.Chemscore.Metal>
0.0000

> <Gold.Chemscore.Hbonds>
donor molecule, donor type, donor heavy atom, donor atom, acceptor molecule, acceptor atom, score
      P1  H  6931  6943       L1    30  1.00
      P1  H  7989  7998       L1     5  0.98
      P1  H  7997  8008       L1     3  1.98
      L1  C     6    39       P1  7957  1.00

> <Gold.PLP.Chemscore.Internal.Correction>
0.5082

> <Gold.Rescore>
     Score         DG    S(hbond)    S(metal)    S(lipo)     H(rot)  DE(clash)    DE(int)     intcor
     10.07     -17.80       1.72        0.00     102.42       2.11       1.46       6.27       ----

> <Gold.Chemscore.Fitness>
10.0724

> <Gold.Chemscore.DG>
-17.8040

> <Gold.Chemscore.ZeroCoef>
-5.4800

> <Gold.Chemscore.Hbond>
1.7221

> <Gold.Chemscore.Metal>
0.0000

> <Gold.Chemscore.Lipo>
102.4167

> <Gold.Chemscore.Internal_Hbond>
0.0000

> <Gold.Chemscore.DEClash>
1.4567

> <Gold.Chemscore.DEInternal>
6.2749

> <Gold.Chemscore.Rot>
2.1136

> <Gold.Chemscore.Internal.Correction>
   9.000000E+99

> <Gold.Chemscore.Hbonds>
donor molecule, donor type, donor heavy atom, donor atom, acceptor molecule, acceptor atom, score
      P1  H  6931  6943       L1    30  0.97
      P1  H  7989  7998       L1     5  0.27
      P1  H  7997  8008       L1     3  0.31

> <Gold.Chemscore.Hbond.Weighted>
-5.7520

> <Gold.Chemscore.Metal.Weighted>
-0.0000

> <Gold.Chemscore.Lipo.Weighted>
-11.9828

> <Gold.Chemscore.Internal_Hbond.Weighted>
0.0000

> <Gold.Chemscore.DEClash.Weighted>
1.4567

> <Gold.Chemscore.DEInternal.Weighted>
6.2749

> <Gold.Chemscore.Rot.Weighted>
5.4107

> <Gold.Chemscore.Internal.Correction.Weighted>
   9.000000E+99

> <Gold.Protein.RotatedTorsions>
[ 6907 6896 6895 6894 ] final  -45.94 input  -60.11 | X-H torsion
[ 7974 7965 7964 7962 ] final  175.40 input  175.53 | X-H torsion
[ 8008 7997 7996 7995 ] final  -56.90 input   59.86 | X-H torsion
[ 10167 10162 10161 10158 ] final  -76.59 input  -65.29 | X-H torsion
[ 10718 10713 10712 10709 ] final  -37.56 input   66.30 | X-H torsion
[ 10763 10752 10751 10750 ] final  106.61 input  -60.55 | X-H torsion
[ 11005 11000 10999 10996 ] final   34.28 input  -57.11 | X-H torsion

> <Gold.Protein.ActiveResidues>
 VAL166  LYS551  ARG553  GLY616  TRP617  ASP618  TYR619  PRO620  LYS621  CYS622 
 ASP623  PHE694  ASN695  SER759  ASP760  ASP761  ALA762  ILE779  LEU786  VAL792 
 PHE793  MET794  SER795  GLU796  ALA797  LYS798  CYS799  TRP800  GLU811  SER814 

> <Gold.Protein.RotatedAtoms>
  150.9166  134.8583  159.7460 H   0  0  0  0  0  0  0  0  0  0  0  0  # atno 6907 bound_to 6896
  152.4971  134.4281  159.9513 H   0  0  0  0  0  0  0  0  0  0  0  0  # atno 6908 bound_to 6896
  151.4318  133.3628  159.2805 H   0  0  0  0  0  0  0  0  0  0  0  0  # atno 6909 bound_to 6896
  144.7202  139.9940  143.6440 H   0  0  0  0  0  0  0  0  0  0  0  0  # atno 7974 bound_to 7965
  154.4247  140.1119  156.5712 H   0  0  0  0  0  0  0  0  0  0  0  0  # atno 8008 bound_to 7997
  155.6210  140.3495  155.4633 H   0  0  0  0  0  0  0  0  0  0  0  0  # atno 8009 bound_to 7997
  156.0024  140.1202  157.0524 H   0  0  0  0  0  0  0  0  0  0  0  0  # atno 8010 bound_to 7997
  140.4844  143.2394  151.8007 H   0  0  0  0  0  0  0  0  0  0  0  0  # atno 10167 bound_to 10162
  156.3138  130.4256  149.8025 H   0  0  0  0  0  0  0  0  0  0  0  0  # atno 10718 bound_to 10713
  153.3953  135.3871  155.1951 H   0  0  0  0  0  0  0  0  0  0  0  0  # atno 10763 bound_to 10752
  154.8724  135.3758  154.4686 H   0  0  0  0  0  0  0  0  0  0  0  0  # atno 10764 bound_to 10752
  153.5178  135.7087  153.5809 H   0  0  0  0  0  0  0  0  0  0  0  0  # atno 10765 bound_to 10752
  140.2545  134.3265  155.7879 H   0  0  0  0  0  0  0  0  0  0  0  0  # atno 11005 bound_to 11000
  146.0389  139.3403  143.0710 LP  0  0  0  0  0  0  0  0  0  0  0  0  # atno 17320 bound_to 7965
  145.8360  140.9606  143.0824 LP  0  0  0  0  0  0  0  0  0  0  0  0  # atno 17321 bound_to 7965
  139.4839  144.4731  151.9400 LP  0  0  0  0  0  0  0  0  0  0  0  0  # atno 17342 bound_to 10162
  140.3817  144.2728  150.5908 LP  0  0  0  0  0  0  0  0  0  0  0  0  # atno 17343 bound_to 10162
  156.5358  130.8278  151.3252 LP  0  0  0  0  0  0  0  0  0  0  0  0  # atno 17370 bound_to 10713
  157.7397  130.9836  150.2330 LP  0  0  0  0  0  0  0  0  0  0  0  0  # atno 17371 bound_to 10713
  141.2197  133.7373  156.9089 LP  0  0  0  0  0  0  0  0  0  0  0  0  # atno 17394 bound_to 11000
  140.1525  134.9220  157.2612 LP  0  0  0  0  0  0  0  0  0  0  0  0  # atno 17395 bound_to 11000

$$$$
