AV-unprocessed.smi:1873|AV-procd|sdf|7607|dock9
  -GOLD-   22720 9323D 1   1.00000     0.00000
 Structure written by MMmdl.
 36 38  0  0  0  0  0  0  0  0  1 V2000
  153.5996  140.1844  158.6018 O   0  0  0  0  0  0  0  0  0  0  0  0
  153.3723  139.9115  159.9717 C   0  0  2  0  0  0  0  0  0  0  0  0
  154.1541  140.9157  160.8405 C   0  0  0  0  0  0  0  0  0  0  0  0
  153.4329  142.1606  161.0340 N   0  0  0  0  0  0  0  0  0  0  0  0
  152.9693  142.6622  162.1949 C   0  0  0  0  0  0  0  0  0  0  0  0
  152.3320  143.8287  162.1429 N   0  0  0  0  0  0  0  0  0  0  0  0
  152.3884  144.1179  160.7902 C   0  0  0  0  0  0  0  0  0  0  0  0
  151.8924  145.2265  160.0670 C   0  0  0  0  0  0  0  0  0  0  0  0
  152.0720  145.3066  158.6702 C   0  0  0  0  0  0  0  0  0  0  0  0
  152.7479  144.2820  157.9758 C   0  0  0  0  0  0  0  0  0  0  0  0
  153.2507  143.1676  158.6746 C   0  0  0  0  0  0  0  0  0  0  0  0
  153.0698  143.0922  160.0683 C   0  0  0  0  0  0  0  0  0  0  0  0
  153.7168  138.4772  160.3413 C   0  0  0  0  0  0  0  0  0  0  0  0
  154.1295  137.5561  159.3549 C   0  0  0  0  0  0  0  0  0  0  0  0
  154.4577  136.2341  159.7115 C   0  0  0  0  0  0  0  0  0  0  0  0
  154.3753  135.8104  161.0531 C   0  0  0  0  0  0  0  0  0  0  0  0
  154.7257  134.5101  161.3387 O   0  0  0  0  0  0  0  0  0  0  0  0
  154.8733  134.1273  162.6350 C   0  0  0  0  0  0  0  0  0  0  0  0
  153.6557  133.9895  163.2128 F   0  0  0  0  0  0  0  0  0  0  0  0
  155.4978  132.9260  162.7061 F   0  0  0  0  0  0  0  0  0  0  0  0
  153.9745  136.7397  162.0429 C   0  0  0  0  0  0  0  0  0  0  0  0
  153.6460  138.0620  161.6873 C   0  0  0  0  0  0  0  0  0  0  0  0
  152.9804  140.8403  158.3204 H   0  0  0  0  0  0  0  0  0  0  0  0
  152.3048  140.0561  160.1428 H   0  0  0  0  0  0  0  0  0  0  0  0
  154.3541  140.4868  161.8234 H   0  0  0  0  0  0  0  0  0  0  0  0
  155.1241  141.1374  160.3928 H   0  0  0  0  0  0  0  0  0  0  0  0
  153.1104  142.1428  163.1317 H   0  0  0  0  0  0  0  0  0  0  0  0
  151.3735  146.0171  160.5885 H   0  0  0  0  0  0  0  0  0  0  0  0
  151.6888  146.1590  158.1287 H   0  0  0  0  0  0  0  0  0  0  0  0
  152.8805  144.3525  156.9062 H   0  0  0  0  0  0  0  0  0  0  0  0
  153.7696  142.3811  158.1472 H   0  0  0  0  0  0  0  0  0  0  0  0
  154.2006  137.8609  158.3210 H   0  0  0  0  0  0  0  0  0  0  0  0
  154.7748  135.5390  158.9481 H   0  0  0  0  0  0  0  0  0  0  0  0
  155.4337  134.8633  163.2121 H   0  0  0  0  0  0  0  0  0  0  0  0
  153.9224  136.4541  163.0828 H   0  0  0  0  0  0  0  0  0  0  0  0
  153.3444  138.7588  162.4559 H   0  0  0  0  0  0  0  0  0  0  0  0
  1  2  1  0  0  0  0
  1 23  1  0  0  0  0
  2  3  1  0  0  0  0
  2 13  1  0  0  0  0
  2 24  1  0  0  0  0
  3  4  1  0  0  0  0
  3 25  1  0  0  0  0
  3 26  1  0  0  0  0
  4 12  1  0  0  0  0
  4  5  1  0  0  0  0
  5  6  2  0  0  0  0
  5 27  1  0  0  0  0
  6  7  1  0  0  0  0
  7 12  2  0  0  0  0
  7  8  1  0  0  0  0
  8  9  2  0  0  0  0
  8 28  1  0  0  0  0
  9 10  1  0  0  0  0
  9 29  1  0  0  0  0
 10 11  2  0  0  0  0
 10 30  1  0  0  0  0
 11 12  1  0  0  0  0
 11 31  1  0  0  0  0
 13 22  1  0  0  0  0
 13 14  2  0  0  0  0
 14 15  1  0  0  0  0
 14 32  1  0  0  0  0
 15 16  2  0  0  0  0
 15 33  1  0  0  0  0
 16 17  1  0  0  0  0
 16 21  1  0  0  0  0
 17 18  1  0  0  0  0
 18 19  1  0  0  0  0
 18 20  1  0  0  0  0
 18 34  1  0  0  0  0
 21 22  2  0  0  0  0
 21 35  1  0  0  0  0
 22 36  1  0  0  0  0
M  END
> <s_m_source_file>
AV-unprocessed.smi

> <i_m_source_file_index>
1873

> <i_lp_mmshare_version>
43012

> <i_f3d_flags>
0

> <s_epik_input>
RltDSF0oRilPYyhbY0hdW2NIXTEpW2NIXVtjSF1jMVtDQEhdKFtPSF0pW0NIMl1uKFtjSF1uMiljKGMyMylbY0hdW2NIXVtjSF1bY0hdMw==

> <s_epik_cmdline>
J2VwaWtfcHl0aG9uJywgJy1waCcsICc3LjAnLCAnLXRuJywgJzgnLCAnLW1hJywgJzIwMCcsICctbWV0YWxfYmluZGluZycsICctaW1hZScsICc8aW5maWxlLm1hZT4nLCAnLW9tYWUnLCAnPG91dGZpbGUubWFlPic=

> <r_lp_tautomer_probability>
1

> <r_epik_Ionization_Penalty>
0.0696507

> <r_epik_Ionization_Penalty_Charging>
0

> <r_epik_Ionization_Penalty_Neutral>
0.0696507

> <r_epik_State_Penalty>
0.0610247

> <r_epik_Charging_Adjusted_Penalty>
0.0610247

> <i_epik_Tot_Q>
0

> <i_epik_Tot_abs_Q>
0

> <r_epik_Metal_State_Penalty>
6.42746e-05

> <b_epik_Metal_Only>
0

> <s_lp_Force_Field>
OPLS_2005

> <r_lp_Energy>
11.1273

> <b_lp_Chiralities_Consistent>
1

> <s_lp_Variant>
AV-unprocessed.smi:1873-1

> <Gold.Version>
5.8.1

> <Gold.Id.Protein>
6NUR|6NUR_protein|mol2

> <Gold.PLP.Fitness>
52.4930

> <Gold.PLP.PLP>
-50.6755

> <Gold.PLP.part.hbond>
-1.0000

> <Gold.PLP.part.metal>
0.0000

> <Gold.PLP.part.buried>
-6.0207

> <Gold.PLP.part.nonpolar>
-43.7310

> <Gold.PLP.part.repulsive>
0.4000

> <Gold.PLP.ligand.clash>
0.0000

> <Gold.PLP.ligand.torsion>
0.6037

> <Gold.PLP.Chemscore.Hbond>
0.9920

> <Gold.PLP.Chemscore.CHOScore>
0.0000

> <Gold.PLP.Chemscore.Metal>
0.0000

> <Gold.Chemscore.Hbonds>
donor molecule, donor type, donor heavy atom, donor atom, acceptor molecule, acceptor atom, score
      P1  H  7997  8008       L1     1  0.94

> <Gold.PLP.Chemscore.Internal.Correction>
0.0488

> <Gold.Rescore>
     Score         DG    S(hbond)    S(metal)    S(lipo)     H(rot)  DE(clash)    DE(int)     intcor
     16.48     -17.15       0.86        0.00     127.73       2.40       0.06       0.61       ----

> <Gold.Chemscore.Fitness>
16.4776

> <Gold.Chemscore.DG>
-17.1494

> <Gold.Chemscore.ZeroCoef>
-5.4800

> <Gold.Chemscore.Hbond>
0.8578

> <Gold.Chemscore.Metal>
0.0000

> <Gold.Chemscore.Lipo>
127.7336

> <Gold.Chemscore.Internal_Hbond>
0.0000

> <Gold.Chemscore.DEClash>
0.0597

> <Gold.Chemscore.DEInternal>
0.6120

> <Gold.Chemscore.Rot>
2.3986

> <Gold.Chemscore.Internal.Correction>
   9.000000E+99

> <Gold.Chemscore.Hbonds>
donor molecule, donor type, donor heavy atom, donor atom, acceptor molecule, acceptor atom, score
      P1  H  7997  8008       L1     1  0.32

> <Gold.Chemscore.Hbond.Weighted>
-2.8650

> <Gold.Chemscore.Metal.Weighted>
-0.0000

> <Gold.Chemscore.Lipo.Weighted>
-14.9448

> <Gold.Chemscore.Internal_Hbond.Weighted>
0.0000

> <Gold.Chemscore.DEClash.Weighted>
0.0597

> <Gold.Chemscore.DEInternal.Weighted>
0.6120

> <Gold.Chemscore.Rot.Weighted>
6.1405

> <Gold.Chemscore.Internal.Correction.Weighted>
   9.000000E+99

> <Gold.Protein.RotatedTorsions>
[ 6907 6896 6895 6894 ] final  -51.69 input  -60.11 | X-H torsion
[ 7974 7965 7964 7962 ] final   14.39 input  175.53 | X-H torsion
[ 8008 7997 7996 7995 ] final  -94.59 input   59.86 | X-H torsion
[ 10167 10162 10161 10158 ] final   46.20 input  -65.29 | X-H torsion
[ 10718 10713 10712 10709 ] final -156.53 input   66.30 | X-H torsion
[ 10763 10752 10751 10750 ] final   74.26 input  -60.55 | X-H torsion
[ 11005 11000 10999 10996 ] final  172.34 input  -57.11 | X-H torsion

> <Gold.Protein.ActiveResidues>
 VAL166  LYS551  ARG553  GLY616  TRP617  ASP618  TYR619  PRO620  LYS621  CYS622 
 ASP623  PHE694  ASN695  SER759  ASP760  ASP761  ALA762  ILE779  LEU786  VAL792 
 PHE793  MET794  SER795  GLU796  ALA797  LYS798  CYS799  TRP800  GLU811  SER814 

> <Gold.Protein.RotatedAtoms>
  150.8588  134.7934  159.7066 H   0  0  0  0  0  0  0  0  0  0  0  0  # atno 6907 bound_to 6896
  152.4631  134.5134  159.9770 H   0  0  0  0  0  0  0  0  0  0  0  0  # atno 6908 bound_to 6896
  151.5242  133.3422  159.2942 H   0  0  0  0  0  0  0  0  0  0  0  0  # atno 6909 bound_to 6896
  146.2306  139.9048  142.8533 H   0  0  0  0  0  0  0  0  0  0  0  0  # atno 7974 bound_to 7965
  154.7504  140.0488  157.0888 H   0  0  0  0  0  0  0  0  0  0  0  0  # atno 8008 bound_to 7997
  155.0065  140.3131  155.4827 H   0  0  0  0  0  0  0  0  0  0  0  0  # atno 8009 bound_to 7997
  156.2884  140.2192  156.5177 H   0  0  0  0  0  0  0  0  0  0  0  0  # atno 8010 bound_to 7997
  140.3163  144.2759  150.6190 H   0  0  0  0  0  0  0  0  0  0  0  0  # atno 10167 bound_to 10162
  156.5278  130.8507  151.2705 H   0  0  0  0  0  0  0  0  0  0  0  0  # atno 10718 bound_to 10713
  153.0575  135.5032  154.8016 H   0  0  0  0  0  0  0  0  0  0  0  0  # atno 10763 bound_to 10752
  154.6831  135.2971  154.9588 H   0  0  0  0  0  0  0  0  0  0  0  0  # atno 10764 bound_to 10752
  154.0367  135.6722  153.4838 H   0  0  0  0  0  0  0  0  0  0  0  0  # atno 10765 bound_to 10752
  140.3286  134.7376  157.4118 H   0  0  0  0  0  0  0  0  0  0  0  0  # atno 11005 bound_to 11000
  145.2287  140.9964  143.4003 LP  0  0  0  0  0  0  0  0  0  0  0  0  # atno 17320 bound_to 7965
  144.9548  139.4043  143.6384 LP  0  0  0  0  0  0  0  0  0  0  0  0  # atno 17321 bound_to 7965
  140.5523  143.2204  151.7906 LP  0  0  0  0  0  0  0  0  0  0  0  0  # atno 17342 bound_to 10162
  139.4883  144.4460  151.9709 LP  0  0  0  0  0  0  0  0  0  0  0  0  # atno 17343 bound_to 10162
  157.7426  130.9895  150.2533 LP  0  0  0  0  0  0  0  0  0  0  0  0  # atno 17370 bound_to 10713
  156.3088  130.3769  149.7681 LP  0  0  0  0  0  0  0  0  0  0  0  0  # atno 17371 bound_to 10713
  140.0880  134.5640  155.8473 LP  0  0  0  0  0  0  0  0  0  0  0  0  # atno 17394 bound_to 11000
  141.2069  133.6659  156.6271 LP  0  0  0  0  0  0  0  0  0  0  0  0  # atno 17395 bound_to 11000

$$$$
