#       Name:                AV-unprocessed.smi:55
#       Creating user name   scv26
#       Creation time:       Thu Mar 26 16:46:34 2020


#       File generated by GOLD software.
#

@<TRIPOS>MOLECULE
AV-unprocessed.smi:55
    41    42     1
SMALL
NO_CHARGES


@<TRIPOS>ATOM
      1 ****        -3.3021   1.6480   0.4974 C.3            1 S1                 0.0000
      2 ****        -2.6922   0.3673  -0.0476 C.2            1 S1                 0.0000
      3 ****        -1.3564   0.1283  -0.0195 C.2            1 S1                 0.0000
      4 ****        -0.7678  -1.0285  -0.5100 N.am           1 S1                 0.0000
      5 ****         0.7335  -1.2014  -0.4606 C.3            1 S1                 0.0000
      6 ****         1.2260  -1.3863   0.9793 C.3            1 S1                 0.0000
      7 ****         1.9558  -0.0822   1.2476 C.3            1 S1                 0.0000
      8 ****         3.0388  -0.2801   2.1335 O.3            1 S1                 0.0000
      9 ****         2.4149   0.3407  -0.1506 C.3            1 S1                 0.0000
     10 ****         2.6601   1.8513  -0.2846 C.3            1 S1                 0.0000
     11 ****         3.4435   2.1152  -1.4287 O.3            1 S1                 0.0000
     12 ****         1.3215  -0.0463  -0.9761 O.3            1 S1                 0.0000
     13 ****        -1.5824  -2.0255  -1.0885 C.2            1 S1                 0.0000
     14 ****        -1.1403  -3.0787  -1.5460 O.2            1 S1                 0.0000
     15 ****        -2.9545  -1.7808  -1.1176 N.am           1 S1                 0.0000
     16 ****        -3.5885  -0.6360  -0.6284 C.2            1 S1                 0.0000
     17 ****        -4.8118  -0.5375  -0.7092 O.2            1 S1                 0.0000
     18 ****         1.0044  -2.0404  -1.1021 H              1 S1                 0.0000
     19 ****         1.2678   0.6529   1.6666 H              1 S1                 0.0000
     20 ****         3.2983  -0.2338  -0.4372 H              1 S1                 0.0000
     21 ****        -3.5409  -2.4927  -1.5281 H              1 S1                 0.0000
     22 ****        -2.5438   2.3130   0.9113 H              1 S1                 0.0000
     23 ****        -4.0171   1.4233   1.2896 H              1 S1                 0.0000
     24 ****        -3.8245   2.1873  -0.2936 H              1 S1                 0.0000
     25 ****        -0.7141   0.8852   0.4052 H              1 S1                 0.0000
     26 ****         0.4095  -1.5808   1.6759 H              1 S1                 0.0000
     27 ****         1.9100  -2.2363   0.9967 H              1 S1                 0.0000
     28 ****         3.6256  -0.9173   1.7556 H              1 S1                 0.0000
     29 ****         1.7207   2.4033  -0.3296 H              1 S1                 0.0000
     30 ****         3.2120   2.2205   0.5803 H              1 S1                 0.0000
     31 ****         3.5926   3.0469  -1.4825 H              1 S1                 0.0000
     32 ****         2.6984  -0.6151   3.0121 LP             1 S1                 0.0000
     33 ****         3.5233   0.5838   2.2714 LP             1 S1                 0.0000
     34 ****         2.9609   1.8032  -2.2470 LP             1 S1                 0.0000
     35 ****         4.3189   1.6374  -1.3554 LP             1 S1                 0.0000
     36 ****         0.6451   0.6898  -0.9994 LP             1 S1                 0.0000
     37 ****         1.6512  -0.2256  -1.9030 LP             1 S1                 0.0000
     38 ****        -0.1576  -3.2621  -1.5188 LP             1 S1                 0.0000
     39 ****        -1.7636  -3.7512  -1.9449 LP             1 S1                 0.0000
     40 ****        -5.2717   0.2795  -0.3613 LP             1 S1                 0.0000
     41 ****        -5.3465  -1.2744  -1.1227 LP             1 S1                 0.0000
@<TRIPOS>BOND
    1    1    2 1     
    2    1   22 1     
    3    1   23 1     
    4    1   24 1     
    5    2   16 1     
    6    2    3 2     
    7    3    4 1     
    8    3   25 1     
    9    4    5 1     
   10    4   13 1     
   11    5   18 1     
   12    5   12 1     
   13    5    6 1     
   14    6    7 1     
   15    6   26 1     
   16    6   27 1     
   17    7   19 1     
   18    7    8 1     
   19    7    9 1     
   20    8   28 1     
   21    9   20 1     
   22    9   10 1     
   23    9   12 1     
   24   10   11 1     
   25   10   29 1     
   26   10   30 1     
   27   11   31 1     
   28   13   14 2     
   29   13   15 1     
   30   15   21 1     
   31   15   16 1     
   32   16   17 2     
   33    8   32 1     
   34    8   33 1     
   35   11   34 1     
   36   11   35 1     
   37   12   36 1     
   38   12   37 1     
   39   14   38 1     
   40   14   39 1     
   41   17   40 1     
   42   17   41 1     
@<TRIPOS>SUBSTRUCTURE
      1 S1             1
@<TRIPOS>SET
LONE_PAIRS      STATIC     ATOMS    <user>   **** ""
10 32 33 34 35 36 37 38 39 40 41
DONOR_HYDROGENS      STATIC     ATOMS    <user>   **** ""
3 28 31 21
ATOM$BLUE        STATIC     ATOMS    COLORGROUP SYSTEM
10 32 33 34 35 36 37 38 39 40 41
ATOM$RED        STATIC     ATOMS    COLORGROUP SYSTEM
3 28 31 21
