AV-unprocessed.smi:1933|AV-procd|sdf|7819|dock7
  -GOLD-   22720 9563D 1   1.00000     0.00000
 Structure written by MMmdl.
 48 50  0  0  0  0  0  0  0  0  2 V2000
  145.1528  136.1185  153.8247 O   0  0  0  0  0  0  0  0  0  0  0  0
  146.2424  135.9219  153.2861 C   0  0  0  0  0  0  0  0  0  0  0  0
  147.3519  136.6153  153.5819 N   0  0  0  0  0  0  0  0  0  0  0  0
  147.4492  137.6952  154.5597 C   0  0  0  0  0  0  0  0  0  0  0  0
  148.5415  138.7429  154.2062 C   0  0  2  0  0  0  0  0  0  0  0  0
  149.9390  138.4422  154.8219 C   0  0  2  0  0  0  0  0  0  0  0  0
  151.0674  139.2836  154.2405 C   0  0  0  0  0  0  0  0  0  0  0  0
  152.2985  138.4713  154.6101 C   0  0  0  0  0  0  0  0  0  0  0  0
  151.8913  137.1334  154.3809 O   0  0  0  0  0  0  0  0  0  0  0  0
  150.4870  137.0214  154.5946 C   0  0  0  0  0  0  0  0  0  0  0  0
  148.1163  140.1276  154.5748 N   0  3  0  0  0  0  0  0  0  0  0  0
  147.0125  140.6679  153.7444 C   0  0  0  0  0  0  0  0  0  0  0  0
  146.7939  142.1569  154.0634 C   0  0  0  0  0  0  0  0  0  0  0  0
  146.5364  142.3191  155.4535 O   0  0  0  0  0  0  0  0  0  0  0  0
  147.6228  141.8731  156.2571 C   0  0  0  0  0  0  0  0  0  0  0  0
  147.8560  140.3725  156.0165 C   0  0  0  0  0  0  0  0  0  0  0  0
  146.4901  134.9934  152.3459 N   0  0  0  0  0  0  0  0  0  0  0  0
  145.6012  134.0215  151.8152 C   0  0  0  0  0  0  0  0  0  0  0  0
  146.2239  132.8671  151.2890 C   0  0  0  0  0  0  0  0  0  0  0  0
  145.4300  131.8394  150.7441 C   0  0  0  0  0  0  0  0  0  0  0  0
  144.0321  131.9926  150.7405 C   0  0  0  0  0  0  0  0  0  0  0  0
  143.4929  133.1724  151.2854 C   0  0  0  0  0  0  0  0  0  0  0  0
  144.2518  134.1589  151.8080 N   0  0  0  0  0  0  0  0  0  0  0  0
  148.1987  136.3792  153.0851 H   0  0  0  0  0  0  0  0  0  0  0  0
  146.4681  138.1680  154.5930 H   0  0  0  0  0  0  0  0  0  0  0  0
  147.6225  137.2923  155.5583 H   0  0  0  0  0  0  0  0  0  0  0  0
  148.6711  138.7367  153.1227 H   0  0  0  0  0  0  0  0  0  0  0  0
  149.9090  138.6199  155.8979 H   0  0  0  0  0  0  0  0  0  0  0  0
  150.9793  139.3488  153.1548 H   0  0  0  0  0  0  0  0  0  0  0  0
  151.1013  140.2960  154.6439 H   0  0  0  0  0  0  0  0  0  0  0  0
  153.1743  138.7334  154.0162 H   0  0  0  0  0  0  0  0  0  0  0  0
  152.5443  138.5989  155.6655 H   0  0  0  0  0  0  0  0  0  0  0  0
  150.2965  136.3777  155.4530 H   0  0  0  0  0  0  0  0  0  0  0  0
  150.0476  136.5517  153.7143 H   0  0  0  0  0  0  0  0  0  0  0  0
  147.2483  140.5539  152.6858 H   0  0  0  0  0  0  0  0  0  0  0  0
  146.0927  140.1126  153.9311 H   0  0  0  0  0  0  0  0  0  0  0  0
  147.6633  142.7488  153.7723 H   0  0  0  0  0  0  0  0  0  0  0  0
  145.9442  142.5412  153.4989 H   0  0  0  0  0  0  0  0  0  0  0  0
  148.5213  142.4497  156.0308 H   0  0  0  0  0  0  0  0  0  0  0  0
  147.3841  142.0533  157.3055 H   0  0  0  0  0  0  0  0  0  0  0  0
  146.9750  139.8185  156.3431 H   0  0  0  0  0  0  0  0  0  0  0  0
  148.6960  140.0319  156.6212 H   0  0  0  0  0  0  0  0  0  0  0  0
  147.4305  134.9631  151.9807 H   0  0  0  0  0  0  0  0  0  0  0  0
  147.2995  132.7652  151.3006 H   0  0  0  0  0  0  0  0  0  0  0  0
  145.8870  130.9496  150.3366 H   0  0  0  0  0  0  0  0  0  0  0  0
  143.3902  131.2264  150.3318 H   0  0  0  0  0  0  0  0  0  0  0  0
  142.4244  133.3288  151.3038 H   0  0  0  0  0  0  0  0  0  0  0  0
  148.9135  140.7038  154.3450 H   0  0  0  0  0  0  0  0  0  0  0  0
  1  2  2  0  0  0  0
  2  3  1  0  0  0  0
  2 17  1  0  0  0  0
  3  4  1  0  0  0  0
  3 24  1  0  0  0  0
  4  5  1  0  0  0  0
  4 25  1  0  0  0  0
  4 26  1  0  0  0  0
  5  6  1  0  0  0  0
  5 11  1  0  0  0  0
  5 27  1  0  0  0  0
  6 10  1  0  0  0  0
  6  7  1  0  0  0  0
  6 28  1  0  0  0  0
  7  8  1  0  0  0  0
  7 29  1  0  0  0  0
  7 30  1  0  0  0  0
  8  9  1  0  0  0  0
  8 31  1  0  0  0  0
  8 32  1  0  0  0  0
  9 10  1  0  0  0  0
 10 33  1  0  0  0  0
 10 34  1  0  0  0  0
 11 16  1  0  0  0  0
 11 12  1  0  0  0  0
 11 48  1  0  0  0  0
 12 13  1  0  0  0  0
 12 35  1  0  0  0  0
 12 36  1  0  0  0  0
 13 14  1  0  0  0  0
 13 37  1  0  0  0  0
 13 38  1  0  0  0  0
 14 15  1  0  0  0  0
 15 16  1  0  0  0  0
 15 39  1  0  0  0  0
 15 40  1  0  0  0  0
 16 41  1  0  0  0  0
 16 42  1  0  0  0  0
 17 18  1  0  0  0  0
 17 43  1  0  0  0  0
 18 23  1  0  0  0  0
 18 19  2  0  0  0  0
 19 20  1  0  0  0  0
 19 44  1  0  0  0  0
 20 21  2  0  0  0  0
 20 45  1  0  0  0  0
 21 22  1  0  0  0  0
 21 46  1  0  0  0  0
 22 23  2  0  0  0  0
 22 47  1  0  0  0  0
M  CHG  1  11   1
M  END
> <s_m_source_file>
AV-unprocessed.smi

> <i_m_source_file_index>
1933

> <i_lp_mmshare_version>
43012

> <i_f3d_flags>
0

> <s_epik_input>
bjFbY0hdW2NIXVtjSF1bY0hdYzFbTkhdQyg9TylbTkhdW0NIMl1bQ0BIXShbQ0BASF0yW0NIMl1bQ0gyXU9bQ0gyXTIpTjNbQ0gyXVtDSDJdT1tDSDJdW0NIMl0z

> <s_epik_cmdline>
J2VwaWtfcHl0aG9uJywgJy1waCcsICc3LjAnLCAnLXRuJywgJzgnLCAnLW1hJywgJzIwMCcsICctbWV0YWxfYmluZGluZycsICctaW1hZScsICc8aW5maWxlLm1hZT4nLCAnLW9tYWUnLCAnPG91dGZpbGUubWFlPic=

> <r_epik_Ionization_Penalty>
0.983294

> <r_epik_Ionization_Penalty_Charging>
0.98326

> <r_epik_Ionization_Penalty_Neutral>
3.39688e-05

> <r_epik_State_Penalty>
1.0303

> <r_epik_Charging_Adjusted_Penalty>
2.01356

> <i_epik_Tot_Q>
1

> <i_epik_Tot_abs_Q>
1

> <r_epik_Metal_State_Penalty>
1.0303

> <b_epik_Metal_Only>
0

> <s_lp_Force_Field>
OPLS_2005

> <r_lp_Energy>
40.1747

> <b_lp_Chiralities_Consistent>
1

> <s_lp_Variant>
AV-unprocessed.smi:1933-5

> <Gold.Version>
5.8.1

> <Gold.Id.Protein>
6NUR|6NUR_protein|mol2

> <Gold.PLP.Fitness>
43.9579

> <Gold.PLP.PLP>
-34.4088

> <Gold.PLP.part.hbond>
-2.7417

> <Gold.PLP.part.metal>
0.0000

> <Gold.PLP.part.buried>
-4.3022

> <Gold.PLP.part.nonpolar>
-27.9135

> <Gold.PLP.part.repulsive>
0.4804

> <Gold.PLP.ligand.clash>
0.0000

> <Gold.PLP.ligand.torsion>
0.9470

> <Gold.PLP.Chemscore.Hbond>
2.7440

> <Gold.PLP.Chemscore.CHOScore>
0.9977

> <Gold.PLP.Chemscore.Metal>
0.0000

> <Gold.Chemscore.Hbonds>
donor molecule, donor type, donor heavy atom, donor atom, acceptor molecule, acceptor atom, score
      L1  H     3    24       P1  7948  0.78
      L1  H    17    43       P1  7948  0.75
      P1  H 10752 10765       L1     9  0.99
      L1  C    22    47       P1 10186  0.97

> <Gold.PLP.Chemscore.Internal.Correction>
0.2180

> <Gold.Rescore>
     Score         DG    S(hbond)    S(metal)    S(lipo)     H(rot)  DE(clash)    DE(int)     intcor
     17.36     -19.48       2.84        0.00      77.17       1.77       0.02       2.10       ----

> <Gold.Chemscore.Fitness>
17.3563

> <Gold.Chemscore.DG>
-19.4753

> <Gold.Chemscore.ZeroCoef>
-5.4800

> <Gold.Chemscore.Hbond>
2.8415

> <Gold.Chemscore.Metal>
0.0000

> <Gold.Chemscore.Lipo>
77.1655

> <Gold.Chemscore.Internal_Hbond>
0.0000

> <Gold.Chemscore.DEClash>
0.0174

> <Gold.Chemscore.DEInternal>
2.1015

> <Gold.Chemscore.Rot>
1.7671

> <Gold.Chemscore.Internal.Correction>
   9.000000E+99

> <Gold.Chemscore.Hbonds>
donor molecule, donor type, donor heavy atom, donor atom, acceptor molecule, acceptor atom, score
      L1  H     3    24       P1  7948  0.74
      L1  H    17    43       P1  7948  0.66
      P1  H 10752 10765       L1     9  0.92

> <Gold.Chemscore.Hbond.Weighted>
-9.4907

> <Gold.Chemscore.Metal.Weighted>
-0.0000

> <Gold.Chemscore.Lipo.Weighted>
-9.0284

> <Gold.Chemscore.Internal_Hbond.Weighted>
0.0000

> <Gold.Chemscore.DEClash.Weighted>
0.0174

> <Gold.Chemscore.DEInternal.Weighted>
2.1015

> <Gold.Chemscore.Rot.Weighted>
4.5238

> <Gold.Chemscore.Internal.Correction.Weighted>
   9.000000E+99

> <Gold.Protein.RotatedTorsions>
[ 6907 6896 6895 6894 ] final  160.56 input  -60.11 | X-H torsion
[ 7974 7965 7964 7962 ] final  -25.57 input  175.53 | X-H torsion
[ 8008 7997 7996 7995 ] final  -86.79 input   59.86 | X-H torsion
[ 10167 10162 10161 10158 ] final -111.10 input  -65.29 | X-H torsion
[ 10718 10713 10712 10709 ] final -101.72 input   66.30 | X-H torsion
[ 10763 10752 10751 10750 ] final  171.69 input  -60.55 | X-H torsion
[ 11005 11000 10999 10996 ] final   -3.30 input  -57.11 | X-H torsion

> <Gold.Protein.ActiveResidues>
 VAL166  LYS551  ARG553  GLY616  TRP617  ASP618  TYR619  PRO620  LYS621  CYS622 
 ASP623  PHE694  ASN695  SER759  ASP760  ASP761  ALA762  ILE779  LEU786  VAL792 
 PHE793  MET794  SER795  GLU796  ALA797  LYS798  CYS799  TRP800  GLU811  SER814 

> <Gold.Protein.RotatedAtoms>
  151.9688  133.3719  159.4063 H   0  0  0  0  0  0  0  0  0  0  0  0  # atno 6907 bound_to 6896
  150.6952  134.4162  159.5193 H   0  0  0  0  0  0  0  0  0  0  0  0  # atno 6908 bound_to 6896
  152.1862  134.8711  160.0572 H   0  0  0  0  0  0  0  0  0  0  0  0  # atno 6909 bound_to 6896
  146.1482  140.4904  142.8622 H   0  0  0  0  0  0  0  0  0  0  0  0  # atno 7974 bound_to 7965
  154.6559  140.0574  157.0008 H   0  0  0  0  0  0  0  0  0  0  0  0  # atno 8008 bound_to 7997
  155.1301  140.3256  155.4457 H   0  0  0  0  0  0  0  0  0  0  0  0  # atno 8009 bound_to 7997
  156.2597  140.1982  156.6421 H   0  0  0  0  0  0  0  0  0  0  0  0  # atno 8010 bound_to 7997
  140.1373  143.4309  152.1586 H   0  0  0  0  0  0  0  0  0  0  0  0  # atno 10167 bound_to 10162
  156.0204  130.5386  150.7004 H   0  0  0  0  0  0  0  0  0  0  0  0  # atno 10718 bound_to 10713
  154.4155  135.2757  155.2009 H   0  0  0  0  0  0  0  0  0  0  0  0  # atno 10763 bound_to 10752
  154.3977  135.6051  153.5882 H   0  0  0  0  0  0  0  0  0  0  0  0  # atno 10764 bound_to 10752
  152.9832  135.5918  154.4443 H   0  0  0  0  0  0  0  0  0  0  0  0  # atno 10765 bound_to 10752
  140.6678  133.9263  155.8475 H   0  0  0  0  0  0  0  0  0  0  0  0  # atno 11005 bound_to 11000
  144.7872  140.5960  143.6566 LP  0  0  0  0  0  0  0  0  0  0  0  0  # atno 17320 bound_to 7965
  145.4886  139.1490  143.3722 LP  0  0  0  0  0  0  0  0  0  0  0  0  # atno 17321 bound_to 7965
  139.5489  144.7322  151.4495 LP  0  0  0  0  0  0  0  0  0  0  0  0  # atno 17342 bound_to 10162
  140.6782  143.8143  150.7085 LP  0  0  0  0  0  0  0  0  0  0  0  0  # atno 17343 bound_to 10162
  157.4665  131.0889  151.0689 LP  0  0  0  0  0  0  0  0  0  0  0  0  # atno 17370 bound_to 10713
  157.1161  130.6042  149.5493 LP  0  0  0  0  0  0  0  0  0  0  0  0  # atno 17371 bound_to 10713
  141.0416  134.0614  157.3895 LP  0  0  0  0  0  0  0  0  0  0  0  0  # atno 17394 bound_to 11000
  139.8991  135.0157  156.7182 LP  0  0  0  0  0  0  0  0  0  0  0  0  # atno 17395 bound_to 11000

$$$$
