AV-unprocessed.smi:1563|AV-procd|sdf|6289|dock5
  -GOLD-   22720 6483D 1   1.00000     0.00000
 Structure written by MMmdl.
 43 44  0  0  0  0  0  0  0  0  1 V2000
  145.6159  136.1922  152.0197 C   0  0  0  0  0  0  0  0  0  0  0  0
  145.7593  137.3204  153.0354 C   0  0  0  0  0  0  0  0  0  0  0  0
  144.8340  137.5812  153.8034 O   0  0  0  0  0  0  0  0  0  0  0  0
  146.9272  137.9807  153.0263 N   0  0  0  0  0  0  0  0  0  0  0  0
  147.2737  139.0945  153.9041 C   0  0  2  0  0  0  0  0  0  0  0  0
  146.0609  140.0391  154.0458 C   0  0  0  0  0  0  0  0  0  0  0  0
  146.4211  141.3323  154.8008 C   0  0  0  0  0  0  0  0  0  0  0  0
  147.6796  141.9832  154.2026 C   0  0  0  0  0  0  0  0  0  0  0  0
  148.7782  141.0026  154.2391 N   0  0  0  0  0  0  0  0  0  0  0  0
  149.8678  141.0425  155.0477 C   0  0  0  0  0  0  0  0  0  0  0  0
  150.7541  140.1875  155.0267 O   0  0  0  0  0  0  0  0  0  0  0  0
  149.8986  142.0874  155.8926 N   0  0  0  0  0  0  0  0  0  0  0  0
  150.9734  142.4105  156.8274 C   0  0  0  0  0  0  0  0  0  0  0  0
  150.4382  142.6700  158.2476 C   0  0  0  0  0  0  0  0  0  0  0  0
  151.4914  142.5263  159.3343 C   0  0  0  0  0  0  0  0  0  0  0  0
  152.6608  141.7712  159.1024 C   0  0  0  0  0  0  0  0  0  0  0  0
  153.6155  141.6783  160.1336 C   0  0  0  0  0  0  0  0  0  0  0  0
  153.3661  142.3408  161.3509 C   0  0  0  0  0  0  0  0  0  0  0  0
  152.1682  143.0710  161.4830 C   0  0  0  0  0  0  0  0  0  0  0  0
  151.2455  143.1651  160.5014 N   0  0  0  0  0  0  0  0  0  0  0  0
  148.5000  139.8607  153.3581 C   0  0  0  0  0  0  0  0  0  0  0  0
  146.4287  135.4736  152.1287 H   0  0  0  0  0  0  0  0  0  0  0  0
  145.6387  136.5896  151.0046 H   0  0  0  0  0  0  0  0  0  0  0  0
  144.6724  135.6632  152.1585 H   0  0  0  0  0  0  0  0  0  0  0  0
  147.6280  137.6923  152.3592 H   0  0  0  0  0  0  0  0  0  0  0  0
  147.5159  138.7057  154.8954 H   0  0  0  0  0  0  0  0  0  0  0  0
  145.6935  140.3064  153.0539 H   0  0  0  0  0  0  0  0  0  0  0  0
  145.2399  139.5288  154.5506 H   0  0  0  0  0  0  0  0  0  0  0  0
  145.5838  142.0295  154.7657 H   0  0  0  0  0  0  0  0  0  0  0  0
  146.5934  141.1060  155.8540 H   0  0  0  0  0  0  0  0  0  0  0  0
  147.4921  142.2699  153.1669 H   0  0  0  0  0  0  0  0  0  0  0  0
  147.8996  142.9170  154.7202 H   0  0  0  0  0  0  0  0  0  0  0  0
  149.1271  142.7374  155.8537 H   0  0  0  0  0  0  0  0  0  0  0  0
  151.6692  141.5715  156.8463 H   0  0  0  0  0  0  0  0  0  0  0  0
  151.5474  143.2759  156.4930 H   0  0  0  0  0  0  0  0  0  0  0  0
  150.0095  143.6718  158.3010 H   0  0  0  0  0  0  0  0  0  0  0  0
  149.6179  141.9827  158.4581 H   0  0  0  0  0  0  0  0  0  0  0  0
  152.8258  141.2780  158.1557 H   0  0  0  0  0  0  0  0  0  0  0  0
  154.5231  141.1101  159.9928 H   0  0  0  0  0  0  0  0  0  0  0  0
  154.0758  142.2921  162.1633 H   0  0  0  0  0  0  0  0  0  0  0  0
  151.9446  143.5927  162.4018 H   0  0  0  0  0  0  0  0  0  0  0  0
  149.3533  139.1871  153.2654 H   0  0  0  0  0  0  0  0  0  0  0  0
  148.3027  140.2248  152.3485 H   0  0  0  0  0  0  0  0  0  0  0  0
  1  2  1  0  0  0  0
  1 22  1  0  0  0  0
  1 23  1  0  0  0  0
  1 24  1  0  0  0  0
  2  3  2  0  0  0  0
  2  4  1  0  0  0  0
  4  5  1  0  0  0  0
  4 25  1  0  0  0  0
  5 21  1  0  0  0  0
  5  6  1  0  0  0  0
  5 26  1  0  0  0  0
  6  7  1  0  0  0  0
  6 27  1  0  0  0  0
  6 28  1  0  0  0  0
  7  8  1  0  0  0  0
  7 29  1  0  0  0  0
  7 30  1  0  0  0  0
  8  9  1  0  0  0  0
  8 31  1  0  0  0  0
  8 32  1  0  0  0  0
  9 10  1  0  0  0  0
  9 21  1  0  0  0  0
 10 11  2  0  0  0  0
 10 12  1  0  0  0  0
 12 13  1  0  0  0  0
 12 33  1  0  0  0  0
 13 14  1  0  0  0  0
 13 34  1  0  0  0  0
 13 35  1  0  0  0  0
 14 15  1  0  0  0  0
 14 36  1  0  0  0  0
 14 37  1  0  0  0  0
 15 20  1  0  0  0  0
 15 16  2  0  0  0  0
 16 17  1  0  0  0  0
 16 38  1  0  0  0  0
 17 18  2  0  0  0  0
 17 39  1  0  0  0  0
 18 19  1  0  0  0  0
 18 40  1  0  0  0  0
 19 20  2  0  0  0  0
 19 41  1  0  0  0  0
 21 42  1  0  0  0  0
 21 43  1  0  0  0  0
M  END
> <s_m_source_file>
AV-unprocessed.smi

> <i_m_source_file_index>
1563

> <i_lp_mmshare_version>
43012

> <i_f3d_flags>
0

> <s_epik_input>
W0NIM11DKD1PKVtOSF1bQ0BASF0xW0NIMl1bQ0gyXVtDSDJdTihbQ0gyXTEpQyg9TylbTkhdW0NIMl1bQ0gyXWMyW2NIXVtjSF1bY0hdW2NIXW4y

> <s_epik_cmdline>
J2VwaWtfcHl0aG9uJywgJy1waCcsICc3LjAnLCAnLXRuJywgJzgnLCAnLW1hJywgJzIwMCcsICctbWV0YWxfYmluZGluZycsICctaW1hZScsICc8aW5maWxlLm1hZT4nLCAnLW9tYWUnLCAnPG91dGZpbGUubWFlPic=

> <r_epik_Ionization_Penalty>
0.0442074

> <r_epik_Ionization_Penalty_Charging>
0

> <r_epik_Ionization_Penalty_Neutral>
0.0442074

> <r_epik_State_Penalty>
0.0374027

> <r_epik_Charging_Adjusted_Penalty>
0.0374027

> <i_epik_Tot_Q>
0

> <i_epik_Tot_abs_Q>
0

> <r_epik_Metal_State_Penalty>
0.0347963

> <b_epik_Metal_Only>
0

> <s_lp_Force_Field>
OPLS_2005

> <r_lp_Energy>
29.1558

> <b_lp_Chiralities_Consistent>
1

> <s_lp_Variant>
AV-unprocessed.smi:1563-1

> <Gold.Version>
5.8.1

> <Gold.Id.Protein>
6NUR|6NUR_protein|mol2

> <Gold.PLP.Fitness>
44.5023

> <Gold.PLP.PLP>
-38.3649

> <Gold.PLP.part.hbond>
-3.9679

> <Gold.PLP.part.metal>
0.0000

> <Gold.PLP.part.buried>
1.7188

> <Gold.PLP.part.nonpolar>
-36.3491

> <Gold.PLP.part.repulsive>
0.4284

> <Gold.PLP.ligand.clash>
0.0000

> <Gold.PLP.ligand.torsion>
0.7042

> <Gold.PLP.Chemscore.Hbond>
2.5100

> <Gold.PLP.Chemscore.CHOScore>
0.0000

> <Gold.PLP.Chemscore.Metal>
0.0000

> <Gold.Chemscore.Hbonds>
donor molecule, donor type, donor heavy atom, donor atom, acceptor molecule, acceptor atom, score
      L1  H     4    25       P1  7948  0.93
      L1  H    12    33       P1  8028  0.75
      P1  H  7989  7998       L1    11  0.75

> <Gold.PLP.Chemscore.Internal.Correction>
0.0157

> <Gold.Rescore>
     Score         DG    S(hbond)    S(metal)    S(lipo)     H(rot)  DE(clash)    DE(int)     intcor
     15.47     -19.35       1.83        0.00     103.10       1.68       1.80       2.08       ----

> <Gold.Chemscore.Fitness>
15.4725

> <Gold.Chemscore.DG>
-19.3472

> <Gold.Chemscore.ZeroCoef>
-5.4800

> <Gold.Chemscore.Hbond>
1.8290

> <Gold.Chemscore.Metal>
0.0000

> <Gold.Chemscore.Lipo>
103.0980

> <Gold.Chemscore.Internal_Hbond>
0.0000

> <Gold.Chemscore.DEClash>
1.7967

> <Gold.Chemscore.DEInternal>
2.0780

> <Gold.Chemscore.Rot>
1.6813

> <Gold.Chemscore.Internal.Correction>
   9.000000E+99

> <Gold.Chemscore.Hbonds>
donor molecule, donor type, donor heavy atom, donor atom, acceptor molecule, acceptor atom, score
      L1  H     4    25       P1  7948  0.85
      L1  H    12    33       P1  8028  0.71
      P1  H  7989  7998       L1    11  0.09

> <Gold.Chemscore.Hbond.Weighted>
-6.1090

> <Gold.Chemscore.Metal.Weighted>
-0.0000

> <Gold.Chemscore.Lipo.Weighted>
-12.0625

> <Gold.Chemscore.Internal_Hbond.Weighted>
0.0000

> <Gold.Chemscore.DEClash.Weighted>
1.7967

> <Gold.Chemscore.DEInternal.Weighted>
2.0780

> <Gold.Chemscore.Rot.Weighted>
4.3042

> <Gold.Chemscore.Internal.Correction.Weighted>
   9.000000E+99

> <Gold.Protein.RotatedTorsions>
[ 6907 6896 6895 6894 ] final  -76.44 input  -60.11 | X-H torsion
[ 7974 7965 7964 7962 ] final  174.59 input  175.53 | X-H torsion
[ 8008 7997 7996 7995 ] final  -53.41 input   59.86 | X-H torsion
[ 10167 10162 10161 10158 ] final  143.24 input  -65.29 | X-H torsion
[ 10718 10713 10712 10709 ] final  128.02 input   66.30 | X-H torsion
[ 10763 10752 10751 10750 ] final   99.90 input  -60.55 | X-H torsion
[ 11005 11000 10999 10996 ] final -153.12 input  -57.11 | X-H torsion

> <Gold.Protein.ActiveResidues>
 VAL166  LYS551  ARG553  GLY616  TRP617  ASP618  TYR619  PRO620  LYS621  CYS622 
 ASP623  PHE694  ASN695  SER759  ASP760  ASP761  ALA762  ILE779  LEU786  VAL792 
 PHE793  MET794  SER795  GLU796  ALA797  LYS798  CYS799  TRP800  GLU811  SER814 

> <Gold.Protein.RotatedAtoms>
  150.7027  134.4571  159.5362 H   0  0  0  0  0  0  0  0  0  0  0  0  # atno 6907 bound_to 6896
  152.2252  134.8372  160.0490 H   0  0  0  0  0  0  0  0  0  0  0  0  # atno 6908 bound_to 6896
  151.9207  133.3550  159.3933 H   0  0  0  0  0  0  0  0  0  0  0  0  # atno 6909 bound_to 6896
  144.7218  139.9820  143.6439 H   0  0  0  0  0  0  0  0  0  0  0  0  # atno 7974 bound_to 7965
  154.4132  140.1200  156.5150 H   0  0  0  0  0  0  0  0  0  0  0  0  # atno 8008 bound_to 7997
  155.6761  140.3496  155.4817 H   0  0  0  0  0  0  0  0  0  0  0  0  # atno 8009 bound_to 7997
  155.9592  140.1119  157.0901 H   0  0  0  0  0  0  0  0  0  0  0  0  # atno 8010 bound_to 7997
  139.4974  144.6054  151.6390 H   0  0  0  0  0  0  0  0  0  0  0  0  # atno 10167 bound_to 10162
  157.5282  131.1098  150.9050 H   0  0  0  0  0  0  0  0  0  0  0  0  # atno 10718 bound_to 10713
  153.3072  135.4097  155.1304 H   0  0  0  0  0  0  0  0  0  0  0  0  # atno 10763 bound_to 10752
  154.8566  135.3556  154.5772 H   0  0  0  0  0  0  0  0  0  0  0  0  # atno 10764 bound_to 10752
  153.6199  135.7065  153.5373 H   0  0  0  0  0  0  0  0  0  0  0  0  # atno 10765 bound_to 10752
  140.7116  134.3826  157.5197 H   0  0  0  0  0  0  0  0  0  0  0  0  # atno 11005 bound_to 11000
  146.0480  139.3483  143.0657 LP  0  0  0  0  0  0  0  0  0  0  0  0  # atno 17320 bound_to 7965
  145.8251  140.9659  143.0878 LP  0  0  0  0  0  0  0  0  0  0  0  0  # atno 17321 bound_to 7965
  140.5714  144.0102  150.6219 LP  0  0  0  0  0  0  0  0  0  0  0  0  # atno 17342 bound_to 10162
  140.3221  143.3130  152.0773 LP  0  0  0  0  0  0  0  0  0  0  0  0  # atno 17343 bound_to 10162
  156.9640  130.5466  149.5287 LP  0  0  0  0  0  0  0  0  0  0  0  0  # atno 17370 bound_to 10713
  156.0402  130.5486  150.8753 LP  0  0  0  0  0  0  0  0  0  0  0  0  # atno 17371 bound_to 10713
  139.8870  134.8894  156.2552 LP  0  0  0  0  0  0  0  0  0  0  0  0  # atno 17394 bound_to 11000
  141.0080  133.7112  156.1065 LP  0  0  0  0  0  0  0  0  0  0  0  0  # atno 17395 bound_to 11000

$$$$
