AV-unprocessed.smi:1403|AV-procd|sdf|5702|dock8
  -GOLD-   22720 5333D 1   1.00000     0.00000
 Structure written by MMmdl.
 35 36  0  0  0  0  0  0  0  0  2 V2000
  153.5216  142.0465  161.7546 C   0  0  0  0  0  0  0  0  0  0  0  0
  153.6825  142.2031  160.2333 C   0  0  1  0  0  0  0  0  0  0  0  0
  153.0367  141.0867  159.5476 N   0  0  0  0  0  0  0  0  0  0  0  0
  153.6601  139.9981  159.0719 C   0  0  0  0  0  0  0  0  0  0  0  0
  154.8777  139.8285  159.1470 O   0  0  0  0  0  0  0  0  0  0  0  0
  152.7687  138.9575  158.3820 C   0  0  0  0  0  0  0  0  0  0  0  0
  152.0908  139.4917  157.1901 N   0  0  0  0  0  0  0  0  0  0  0  0
  150.7217  139.7945  157.2947 C   0  0  0  0  0  0  0  0  0  0  0  0
  150.0223  140.2892  156.2555 C   0  0  0  0  0  0  0  0  0  0  0  0
  150.7210  140.5095  154.9954 C   0  0  0  0  0  0  0  0  0  0  0  0
  150.0967  140.9542  154.0340 O   0  0  0  0  0  0  0  0  0  0  0  0
  152.0512  140.2062  154.9459 N   0  5  0  0  0  0  0  0  0  0  0  0
  152.7504  139.7057  156.0115 C   0  0  0  0  0  0  0  0  0  0  0  0
  153.9512  139.4397  155.9457 O   0  0  0  0  0  0  0  0  0  0  0  0
  153.0927  143.5344  159.7303 C   0  0  2  0  0  0  0  0  0  0  0  0
  152.0530  144.1680  160.6591 C   0  0  0  0  0  0  0  0  0  0  0  0
  151.1638  144.9716  159.7211 C   0  0  0  0  0  0  0  0  0  0  0  0
  151.5857  144.5168  158.3221 C   0  0  0  0  0  0  0  0  0  0  0  0
  152.3483  143.3390  158.5379 O   0  0  0  0  0  0  0  0  0  0  0  0
  154.0119  142.8610  162.2884 H   0  0  0  0  0  0  0  0  0  0  0  0
  153.9647  141.1141  162.1058 H   0  0  0  0  0  0  0  0  0  0  0  0
  152.4703  142.0443  162.0444 H   0  0  0  0  0  0  0  0  0  0  0  0
  154.7478  142.1955  159.9947 H   0  0  0  0  0  0  0  0  0  0  0  0
  152.0343  141.1391  159.4389 H   0  0  0  0  0  0  0  0  0  0  0  0
  153.3575  138.0780  158.1148 H   0  0  0  0  0  0  0  0  0  0  0  0
  152.0382  138.6022  159.1098 H   0  0  0  0  0  0  0  0  0  0  0  0
  150.2819  139.6081  158.2633 H   0  0  0  0  0  0  0  0  0  0  0  0
  148.9716  140.5196  156.3528 H   0  0  0  0  0  0  0  0  0  0  0  0
  153.8914  144.2518  159.5310 H   0  0  0  0  0  0  0  0  0  0  0  0
  151.4594  143.3938  161.1474 H   0  0  0  0  0  0  0  0  0  0  0  0
  152.5081  144.7806  161.4379 H   0  0  0  0  0  0  0  0  0  0  0  0
  150.1125  144.7521  159.9102 H   0  0  0  0  0  0  0  0  0  0  0  0
  151.3098  146.0456  159.8418 H   0  0  0  0  0  0  0  0  0  0  0  0
  150.7350  144.3244  157.6680 H   0  0  0  0  0  0  0  0  0  0  0  0
  152.2171  145.2697  157.8477 H   0  0  0  0  0  0  0  0  0  0  0  0
  1  2  1  0  0  0  0
  1 20  1  0  0  0  0
  1 21  1  0  0  0  0
  1 22  1  0  0  0  0
  2  3  1  0  0  0  0
  2 15  1  0  0  0  0
  2 23  1  0  0  0  0
  3  4  1  0  0  0  0
  3 24  1  0  0  0  0
  4  5  2  0  0  0  0
  4  6  1  0  0  0  0
  6  7  1  0  0  0  0
  6 25  1  0  0  0  0
  6 26  1  0  0  0  0
  7 13  1  0  0  0  0
  7  8  1  0  0  0  0
  8  9  2  0  0  0  0
  8 27  1  0  0  0  0
  9 10  1  0  0  0  0
  9 28  1  0  0  0  0
 10 11  2  0  0  0  0
 10 12  1  0  0  0  0
 12 13  1  0  0  0  0
 13 14  2  0  0  0  0
 15 19  1  0  0  0  0
 15 16  1  0  0  0  0
 15 29  1  0  0  0  0
 16 17  1  0  0  0  0
 16 30  1  0  0  0  0
 16 31  1  0  0  0  0
 17 18  1  0  0  0  0
 17 32  1  0  0  0  0
 17 33  1  0  0  0  0
 18 19  1  0  0  0  0
 18 34  1  0  0  0  0
 18 35  1  0  0  0  0
M  CHG  1  12  -1
M  END
> <s_m_source_file>
AV-unprocessed.smi

> <i_m_source_file_index>
1403

> <i_lp_mmshare_version>
43012

> <i_f3d_flags>
0

> <s_epik_input>
TzFbQ0gyXVtDSDJdW0NIMl1bQ0BIXTFbQ0BIXShbQ0gzXSlbTkhdQyg9TylbQ0gyXW4yW2NIXVtjSF1jKD1PKVtuSF1jMj1P

> <s_epik_cmdline>
J2VwaWtfcHl0aG9uJywgJy1waCcsICc3LjAnLCAnLXRuJywgJzgnLCAnLW1hJywgJzIwMCcsICctbWV0YWxfYmluZGluZycsICctaW1hZScsICc8aW5maWxlLm1hZT4nLCAnLW9tYWUnLCAnPG91dGZpbGUubWFlPic=

> <r_lp_tautomer_probability>
0.999537

> <r_epik_Ionization_Penalty>
3.07438

> <r_epik_Ionization_Penalty_Charging>
2.82466e-08

> <r_epik_Ionization_Penalty_Neutral>
3.07438

> <r_epik_State_Penalty>
3.07341

> <r_epik_Charging_Adjusted_Penalty>
3.07341

> <i_epik_Tot_Q>
-1

> <i_epik_Tot_abs_Q>
1

> <r_epik_Metal_State_Penalty>
0.45947

> <b_epik_Metal_Only>
1

> <s_lp_Force_Field>
OPLS_2005

> <r_lp_Energy>
26.8934

> <b_lp_Chiralities_Consistent>
1

> <s_lp_Variant>
AV-unprocessed.smi:1403-6

> <Gold.Version>
5.8.1

> <Gold.Id.Protein>
6NUR|6NUR_protein|mol2

> <Gold.PLP.Fitness>
49.8869

> <Gold.PLP.PLP>
-42.6731

> <Gold.PLP.part.hbond>
-4.7536

> <Gold.PLP.part.metal>
0.0000

> <Gold.PLP.part.buried>
-5.8110

> <Gold.PLP.part.nonpolar>
-31.6348

> <Gold.PLP.part.repulsive>
0.4106

> <Gold.PLP.ligand.clash>
0.0000

> <Gold.PLP.ligand.torsion>
1.6530

> <Gold.PLP.Chemscore.Hbond>
3.4960

> <Gold.PLP.Chemscore.CHOScore>
0.0000

> <Gold.PLP.Chemscore.Metal>
0.0000

> <Gold.Chemscore.Hbonds>
donor molecule, donor type, donor heavy atom, donor atom, acceptor molecule, acceptor atom, score
      P1  H  7997  8008       L1     5  0.90
      P1  H  8011  8017       L1    11  0.34

> <Gold.PLP.Chemscore.Internal.Correction>
0.0319

> <Gold.Rescore>
     Score         DG    S(hbond)    S(metal)    S(lipo)     H(rot)  DE(clash)    DE(int)     intcor
     18.94     -20.47       3.20        0.00      80.49       1.99       0.05       1.48       ----

> <Gold.Chemscore.Fitness>
18.9359

> <Gold.Chemscore.DG>
-20.4675

> <Gold.Chemscore.ZeroCoef>
-5.4800

> <Gold.Chemscore.Hbond>
3.1961

> <Gold.Chemscore.Metal>
0.0000

> <Gold.Chemscore.Lipo>
80.4902

> <Gold.Chemscore.Internal_Hbond>
0.0000

> <Gold.Chemscore.DEClash>
0.0533

> <Gold.Chemscore.DEInternal>
1.4782

> <Gold.Chemscore.Rot>
1.9940

> <Gold.Chemscore.Internal.Correction>
   9.000000E+99

> <Gold.Chemscore.Hbonds>
donor molecule, donor type, donor heavy atom, donor atom, acceptor molecule, acceptor atom, score
      P1  H  7997  8008       L1     5  0.18
      P1  H  8011  8017       L1    11  0.35

> <Gold.Chemscore.Hbond.Weighted>
-10.6748

> <Gold.Chemscore.Metal.Weighted>
-0.0000

> <Gold.Chemscore.Lipo.Weighted>
-9.4174

> <Gold.Chemscore.Internal_Hbond.Weighted>
0.0000

> <Gold.Chemscore.DEClash.Weighted>
0.0533

> <Gold.Chemscore.DEInternal.Weighted>
1.4782

> <Gold.Chemscore.Rot.Weighted>
5.1047

> <Gold.Chemscore.Internal.Correction.Weighted>
   9.000000E+99

> <Gold.Protein.RotatedTorsions>
[ 6907 6896 6895 6894 ] final  -53.85 input  -60.11 | X-H torsion
[ 7974 7965 7964 7962 ] final   46.81 input  175.53 | X-H torsion
[ 8008 7997 7996 7995 ] final -129.51 input   59.86 | X-H torsion
[ 10167 10162 10161 10158 ] final  -84.02 input  -65.29 | X-H torsion
[ 10718 10713 10712 10709 ] final  118.92 input   66.30 | X-H torsion
[ 10763 10752 10751 10750 ] final -115.70 input  -60.55 | X-H torsion
[ 11005 11000 10999 10996 ] final -100.43 input  -57.11 | X-H torsion

> <Gold.Protein.ActiveResidues>
 VAL166  LYS551  ARG553  GLY616  TRP617  ASP618  TYR619  PRO620  LYS621  CYS622 
 ASP623  PHE694  ASN695  SER759  ASP760  ASP761  ALA762  ILE779  LEU786  VAL792 
 PHE793  MET794  SER795  GLU796  ALA797  LYS798  CYS799  TRP800  GLU811  SER814 

> <Gold.Protein.RotatedAtoms>
  150.8390  134.7675  159.6916 H   0  0  0  0  0  0  0  0  0  0  0  0  # atno 6907 bound_to 6896
  152.4481  134.5448  159.9859 H   0  0  0  0  0  0  0  0  0  0  0  0  # atno 6908 bound_to 6896
  151.5592  133.3368  159.3003 H   0  0  0  0  0  0  0  0  0  0  0  0  # atno 6909 bound_to 6896
  146.0356  139.4816  142.9810 H   0  0  0  0  0  0  0  0  0  0  0  0  # atno 7974 bound_to 7965
  155.2804  140.0444  157.3015 H   0  0  0  0  0  0  0  0  0  0  0  0  # atno 8008 bound_to 7997
  154.5600  140.2343  155.8318 H   0  0  0  0  0  0  0  0  0  0  0  0  # atno 8009 bound_to 7997
  156.2039  140.3018  155.9593 H   0  0  0  0  0  0  0  0  0  0  0  0  # atno 8010 bound_to 7997
  140.4172  143.2599  151.8938 H   0  0  0  0  0  0  0  0  0  0  0  0  # atno 10167 bound_to 10162
  157.5997  131.1053  150.7824 H   0  0  0  0  0  0  0  0  0  0  0  0  # atno 10718 bound_to 10713
  154.8491  135.4372  154.1704 H   0  0  0  0  0  0  0  0  0  0  0  0  # atno 10763 bound_to 10752
  153.2819  135.6954  153.7383 H   0  0  0  0  0  0  0  0  0  0  0  0  # atno 10764 bound_to 10752
  153.6584  135.3439  155.3095 H   0  0  0  0  0  0  0  0  0  0  0  0  # atno 10765 bound_to 10752
  141.1271  133.8398  157.1101 H   0  0  0  0  0  0  0  0  0  0  0  0  # atno 11005 bound_to 11000
  145.6970  141.0147  143.1525 LP  0  0  0  0  0  0  0  0  0  0  0  0  # atno 17320 bound_to 7965
  144.7050  139.8599  143.7433 LP  0  0  0  0  0  0  0  0  0  0  0  0  # atno 17321 bound_to 7965
  139.4782  144.5475  151.8436 LP  0  0  0  0  0  0  0  0  0  0  0  0  # atno 17342 bound_to 10162
  140.4573  144.1771  150.5903 LP  0  0  0  0  0  0  0  0  0  0  0  0  # atno 17343 bound_to 10162
  156.8226  130.4989  149.5341 LP  0  0  0  0  0  0  0  0  0  0  0  0  # atno 17370 bound_to 10713
  156.1067  130.6010  150.9982 LP  0  0  0  0  0  0  0  0  0  0  0  0  # atno 17371 bound_to 10713
  140.0280  134.9915  157.0724 LP  0  0  0  0  0  0  0  0  0  0  0  0  # atno 17394 bound_to 11000
  140.4331  134.1760  155.7169 LP  0  0  0  0  0  0  0  0  0  0  0  0  # atno 17395 bound_to 11000

$$$$
