AV-unprocessed.smi:193|AV-procd|sdf|1517|dock1
  -GOLD-   2262019353D 1   1.00000     0.00000
 Structure written by MMmdl.
 61 65  0  0  0  0  0  0  0  0  1 V2000
  149.7316  141.8268  155.6649 C   0  0  0  0  0  0  0  0  0  0  0  0
  150.6334  141.6847  156.9002 C   0  0  1  0  0  0  0  0  0  0  0  0
  151.8589  140.8116  156.5553 C   0  0  0  0  0  0  0  0  0  0  0  0
  152.4473  140.1389  157.7171 N   0  0  0  0  0  0  0  0  0  0  0  0
  152.1318  138.8318  157.9014 C   0  0  0  0  0  0  0  0  0  0  0  0
  153.0952  137.8778  157.7901 N   0  0  0  0  0  0  0  0  0  0  0  0
  152.7856  136.5864  157.9360 C   0  0  0  0  0  0  0  0  0  0  0  0
  151.5967  136.0369  158.1908 N   0  0  0  0  0  0  0  0  0  0  0  0
  150.6273  136.9885  158.3106 C   0  0  0  0  0  0  0  0  0  0  0  0
  150.8061  138.3948  158.1791 C   0  0  0  0  0  0  0  0  0  0  0  0
  149.5922  139.0457  158.3653 N   0  0  0  0  0  0  0  0  0  0  0  0
  148.7435  138.0791  158.5860 C   0  0  0  0  0  0  0  0  0  0  0  0
  149.2807  136.8114  158.5778 N   0  0  0  0  0  0  0  0  0  0  0  0
  148.5666  135.5610  158.7896 C   0  0  0  0  0  0  0  0  0  0  0  0
  147.6484  135.5580  160.0375 C   0  0  0  0  0  0  0  0  0  0  0  0
  146.4006  136.1145  159.6620 O   0  0  0  0  0  0  0  0  0  0  0  0
  147.4007  134.1373  160.5907 C   0  0  0  0  0  0  0  0  0  0  0  0
  146.6736  134.1613  161.9473 C   0  0  0  0  0  0  0  0  0  0  0  0
  147.3911  134.9664  162.8746 O   0  0  0  0  0  0  0  0  0  0  0  0
  147.4731  136.3276  162.4705 C   0  0  0  0  0  0  0  0  0  0  0  0
  148.2559  136.4367  161.1500 C   0  0  0  0  0  0  0  0  0  0  0  0
  152.5861  140.8604  158.9813 C   0  0  0  0  0  0  0  0  0  0  0  0
  152.8678  142.3626  158.8202 C   0  0  0  0  0  0  0  0  0  0  0  0
  151.6095  143.1030  158.7465 N   0  0  0  0  0  0  0  0  0  0  0  0
  151.8608  144.4924  159.1062 C   0  0  2  0  0  0  0  0  0  0  0  0
  151.9492  144.8322  160.5774 C   0  0  0  0  0  0  0  0  0  0  0  0
  150.7538  145.2884  159.7750 C   0  0  2  0  0  0  0  0  0  0  0  0
  149.3800  144.7110  160.0588 C   0  0  0  0  0  0  0  0  0  0  0  0
  151.0611  143.0863  157.3900 C   0  0  0  0  0  0  0  0  0  0  0  0
  150.2575  142.3149  154.8436 H   0  0  0  0  0  0  0  0  0  0  0  0
  148.8438  142.4180  155.8909 H   0  0  0  0  0  0  0  0  0  0  0  0
  149.3919  140.8523  155.3126 H   0  0  0  0  0  0  0  0  0  0  0  0
  150.0354  141.1954  157.6708 H   0  0  0  0  0  0  0  0  0  0  0  0
  151.5895  140.0681  155.8035 H   0  0  0  0  0  0  0  0  0  0  0  0
  152.6282  141.4190  156.0778 H   0  0  0  0  0  0  0  0  0  0  0  0
  153.6073  135.8939  157.8290 H   0  0  0  0  0  0  0  0  0  0  0  0
  147.6951  138.2659  158.7680 H   0  0  0  0  0  0  0  0  0  0  0  0
  147.9774  135.3587  157.8942 H   0  0  0  0  0  0  0  0  0  0  0  0
  149.2993  134.7554  158.8557 H   0  0  0  0  0  0  0  0  0  0  0  0
  146.5380  136.6947  158.9289 H   0  0  0  0  0  0  0  0  0  0  0  0
  146.8277  133.5383  159.8821 H   0  0  0  0  0  0  0  0  0  0  0  0
  148.3578  133.6302  160.7190 H   0  0  0  0  0  0  0  0  0  0  0  0
  145.6536  134.5334  161.8393 H   0  0  0  0  0  0  0  0  0  0  0  0
  146.5987  133.1497  162.3466 H   0  0  0  0  0  0  0  0  0  0  0  0
  146.4725  136.7517  162.3725 H   0  0  0  0  0  0  0  0  0  0  0  0
  147.9796  136.8949  163.2519 H   0  0  0  0  0  0  0  0  0  0  0  0
  149.2847  136.1246  161.3344 H   0  0  0  0  0  0  0  0  0  0  0  0
  148.3071  137.4784  160.8300 H   0  0  0  0  0  0  0  0  0  0  0  0
  151.7071  140.6986  159.6080 H   0  0  0  0  0  0  0  0  0  0  0  0
  153.4263  140.4270  159.5233 H   0  0  0  0  0  0  0  0  0  0  0  0
  153.3939  142.6807  159.7215 H   0  0  0  0  0  0  0  0  0  0  0  0
  153.5339  142.5828  157.9847 H   0  0  0  0  0  0  0  0  0  0  0  0
  152.5208  145.0745  158.4647 H   0  0  0  0  0  0  0  0  0  0  0  0
  151.8010  144.0262  161.2941 H   0  0  0  0  0  0  0  0  0  0  0  0
  152.6726  145.5886  160.8743 H   0  0  0  0  0  0  0  0  0  0  0  0
  150.7270  146.3467  159.5221 H   0  0  0  0  0  0  0  0  0  0  0  0
  149.4461  143.6656  160.3615 H   0  0  0  0  0  0  0  0  0  0  0  0
  148.7545  144.7770  159.1686 H   0  0  0  0  0  0  0  0  0  0  0  0
  148.8998  145.2705  160.8616 H   0  0  0  0  0  0  0  0  0  0  0  0
  151.7702  143.5323  156.6904 H   0  0  0  0  0  0  0  0  0  0  0  0
  150.1828  143.7328  157.3835 H   0  0  0  0  0  0  0  0  0  0  0  0
  1  2  1  0  0  0  0
  1 30  1  0  0  0  0
  1 31  1  0  0  0  0
  1 32  1  0  0  0  0
  2 29  1  0  0  0  0
  2  3  1  0  0  0  0
  2 33  1  0  0  0  0
  3  4  1  0  0  0  0
  3 34  1  0  0  0  0
  3 35  1  0  0  0  0
  4  5  1  0  0  0  0
  4 22  1  0  0  0  0
  5 10  1  0  0  0  0
  5  6  2  0  0  0  0
  6  7  1  0  0  0  0
  7  8  2  0  0  0  0
  7 36  1  0  0  0  0
  8  9  1  0  0  0  0
  9 13  1  0  0  0  0
  9 10  2  0  0  0  0
 10 11  1  0  0  0  0
 11 12  2  0  0  0  0
 12 13  1  0  0  0  0
 12 37  1  0  0  0  0
 13 14  1  0  0  0  0
 14 15  1  0  0  0  0
 14 38  1  0  0  0  0
 14 39  1  0  0  0  0
 15 21  1  0  0  0  0
 15 16  1  0  0  0  0
 15 17  1  0  0  0  0
 16 40  1  0  0  0  0
 17 18  1  0  0  0  0
 17 41  1  0  0  0  0
 17 42  1  0  0  0  0
 18 19  1  0  0  0  0
 18 43  1  0  0  0  0
 18 44  1  0  0  0  0
 19 20  1  0  0  0  0
 20 21  1  0  0  0  0
 20 45  1  0  0  0  0
 20 46  1  0  0  0  0
 21 47  1  0  0  0  0
 21 48  1  0  0  0  0
 22 23  1  0  0  0  0
 22 49  1  0  0  0  0
 22 50  1  0  0  0  0
 23 24  1  0  0  0  0
 23 51  1  0  0  0  0
 23 52  1  0  0  0  0
 24 25  1  0  0  0  0
 24 29  1  0  0  0  0
 25 27  1  0  0  0  0
 25 26  1  0  0  0  0
 25 53  1  0  0  0  0
 26 27  1  0  0  0  0
 26 54  1  0  0  0  0
 26 55  1  0  0  0  0
 27 28  1  0  0  0  0
 27 56  1  0  0  0  0
 28 57  1  0  0  0  0
 28 58  1  0  0  0  0
 28 59  1  0  0  0  0
 29 60  1  0  0  0  0
 29 61  1  0  0  0  0
M  END
> <s_m_source_file>
AV-unprocessed.smi

> <i_m_source_file_index>
193

> <i_lp_mmshare_version>
43012

> <i_f3d_flags>
0

> <s_epik_input>
W0NIM11bQ0BASF0xW0NIMl1bQ0BIXTFOKFtDSDJdMilbQ0gyXVtDSDJdTihbQ0gyXVtDQEhdMltDSDNdKWMobltjSF1uMyljKGMzNCluW2NIXW40W0NIMl1DNShbT0hdKVtDSDJdW0NIMl1PW0NIMl1bQ0gyXTU=

> <s_epik_cmdline>
J2VwaWtfcHl0aG9uJywgJy1waCcsICc3LjAnLCAnLXRuJywgJzgnLCAnLW1hJywgJzIwMCcsICctbWV0YWxfYmluZGluZycsICctaW1hZScsICc8aW5maWxlLm1hZT4nLCAnLW9tYWUnLCAnPG91dGZpbGUubWFlPic=

> <r_lp_tautomer_probability>
1

> <r_epik_Ionization_Penalty>
1.45227

> <r_epik_Ionization_Penalty_Charging>
0

> <r_epik_Ionization_Penalty_Neutral>
1.45227

> <r_epik_State_Penalty>
2.02377

> <r_epik_Charging_Adjusted_Penalty>
2.02377

> <i_epik_Tot_Q>
0

> <i_epik_Tot_abs_Q>
0

> <r_epik_Metal_State_Penalty>
2.01937

> <b_epik_Metal_Only>
0

> <s_lp_Force_Field>
OPLS_2005

> <r_lp_Energy>
53.149

> <b_lp_Chiralities_Consistent>
1

> <s_lp_Variant>
AV-unprocessed.smi:193-22

> <Gold.Version>
5.8.1

> <Gold.Id.Protein>
6NUR|6NUR_protein|mol2

> <Gold.PLP.Fitness>
48.8781

> <Gold.PLP.PLP>
-47.6912

> <Gold.PLP.part.hbond>
-1.7281

> <Gold.PLP.part.metal>
0.0000

> <Gold.PLP.part.buried>
-5.6902

> <Gold.PLP.part.nonpolar>
-40.6515

> <Gold.PLP.part.repulsive>
0.0309

> <Gold.PLP.ligand.clash>
0.0000

> <Gold.PLP.ligand.torsion>
1.4369

> <Gold.PLP.Chemscore.Hbond>
0.7811

> <Gold.PLP.Chemscore.CHOScore>
0.0000

> <Gold.PLP.Chemscore.Metal>
0.0000

> <Gold.Chemscore.Hbonds>
donor molecule, donor type, donor heavy atom, donor atom, acceptor molecule, acceptor atom, score
      P1  H  6896  6908       L1     8  0.32
      P1  H  7997  8009       L1     4  0.45

> <Gold.PLP.Chemscore.Internal.Correction>
1.7174

> <Gold.Rescore>
     Score         DG    S(hbond)    S(metal)    S(lipo)     H(rot)  DE(clash)    DE(int)     intcor
     13.29     -15.57       0.03        0.00     132.81       2.17       1.05       1.23       ----

> <Gold.Chemscore.Fitness>
13.2939

> <Gold.Chemscore.DG>
-15.5739

> <Gold.Chemscore.ZeroCoef>
-5.4800

> <Gold.Chemscore.Hbond>
0.0304

> <Gold.Chemscore.Metal>
0.0000

> <Gold.Chemscore.Lipo>
132.8069

> <Gold.Chemscore.Internal_Hbond>
0.0000

> <Gold.Chemscore.DEClash>
1.0522

> <Gold.Chemscore.DEInternal>
1.2278

> <Gold.Chemscore.Rot>
2.1664

> <Gold.Chemscore.Internal.Correction>
   9.000000E+99

> <Gold.Chemscore.Hbonds>
donor molecule, donor type, donor heavy atom, donor atom, acceptor molecule, acceptor atom, score
      P1  H  6896  6908       L1     8  0.06
      P1  H  7997  8009       L1     4  0.01

> <Gold.Chemscore.Hbond.Weighted>
-0.1014

> <Gold.Chemscore.Metal.Weighted>
-0.0000

> <Gold.Chemscore.Lipo.Weighted>
-15.5384

> <Gold.Chemscore.Internal_Hbond.Weighted>
0.0000

> <Gold.Chemscore.DEClash.Weighted>
1.0522

> <Gold.Chemscore.DEInternal.Weighted>
1.2278

> <Gold.Chemscore.Rot.Weighted>
5.5459

> <Gold.Chemscore.Internal.Correction.Weighted>
   9.000000E+99

> <Gold.Protein.RotatedTorsions>
[ 6907 6896 6895 6894 ] final -140.48 input  -60.11 | X-H torsion
[ 7974 7965 7964 7962 ] final   13.51 input  175.53 | X-H torsion
[ 8008 7997 7996 7995 ] final  161.86 input   59.86 | X-H torsion
[ 10167 10162 10161 10158 ] final   29.30 input  -65.29 | X-H torsion
[ 10718 10713 10712 10709 ] final  158.28 input   66.30 | X-H torsion
[ 10763 10752 10751 10750 ] final  175.22 input  -60.55 | X-H torsion
[ 11005 11000 10999 10996 ] final   -3.59 input  -57.11 | X-H torsion

> <Gold.Protein.ActiveResidues>
 VAL166  LYS551  ARG553  GLY616  TRP617  ASP618  TYR619  PRO620  LYS621  CYS622 
 ASP623  PHE694  ASN695  SER759  ASP760  ASP761  ALA762  ILE779  LEU786  VAL792 
 PHE793  MET794  SER795  GLU796  ALA797  LYS798  CYS799  TRP800  GLU811  SER814 

> <Gold.Protein.RotatedAtoms>
  151.0612  133.5542  159.2633 H   0  0  0  0  0  0  0  0  0  0  0  0  # atno 6907 bound_to 6896
  151.2517  135.0623  159.9074 H   0  0  0  0  0  0  0  0  0  0  0  0  # atno 6908 bound_to 6896
  152.5398  134.0372  159.8105 H   0  0  0  0  0  0  0  0  0  0  0  0  # atno 6909 bound_to 6896
  146.2327  139.9178  142.8514 H   0  0  0  0  0  0  0  0  0  0  0  0  # atno 7974 bound_to 7965
  156.2073  140.1766  156.7773 H   0  0  0  0  0  0  0  0  0  0  0  0  # atno 8008 bound_to 7997
  154.5672  140.0689  156.8940 H   0  0  0  0  0  0  0  0  0  0  0  0  # atno 8009 bound_to 7997
  155.2739  140.3344  155.4265 H   0  0  0  0  0  0  0  0  0  0  0  0  # atno 8010 bound_to 7997
  140.4778  144.0663  150.6256 H   0  0  0  0  0  0  0  0  0  0  0  0  # atno 10167 bound_to 10162
  157.1800  131.0630  151.2137 H   0  0  0  0  0  0  0  0  0  0  0  0  # atno 10718 bound_to 10713
  154.4646  135.2769  155.1688 H   0  0  0  0  0  0  0  0  0  0  0  0  # atno 10763 bound_to 10752
  154.3462  135.6160  153.5624 H   0  0  0  0  0  0  0  0  0  0  0  0  # atno 10764 bound_to 10752
  152.9858  135.5800  154.5015 H   0  0  0  0  0  0  0  0  0  0  0  0  # atno 10765 bound_to 10752
  140.6710  133.9236  155.8495 H   0  0  0  0  0  0  0  0  0  0  0  0  # atno 11005 bound_to 11000
  145.2166  140.9918  143.4069 LP  0  0  0  0  0  0  0  0  0  0  0  0  # atno 17320 bound_to 7965
  144.9645  139.3944  143.6339 LP  0  0  0  0  0  0  0  0  0  0  0  0  # atno 17321 bound_to 7965
  140.3896  143.2759  152.0075 LP  0  0  0  0  0  0  0  0  0  0  0  0  # atno 17342 bound_to 10162
  139.4828  144.6088  151.7472 LP  0  0  0  0  0  0  0  0  0  0  0  0  # atno 17343 bound_to 10162
  157.3962  130.7308  149.6733 LP  0  0  0  0  0  0  0  0  0  0  0  0  # atno 17370 bound_to 10713
  155.9726  130.4133  150.4075 LP  0  0  0  0  0  0  0  0  0  0  0  0  # atno 17371 bound_to 10713
  141.0392  134.0646  157.3923 LP  0  0  0  0  0  0  0  0  0  0  0  0  # atno 17394 bound_to 11000
  139.8981  135.0153  156.7135 LP  0  0  0  0  0  0  0  0  0  0  0  0  # atno 17395 bound_to 11000

$$$$
