#       Name:                AV-unprocessed.smi:3149
#       Creating user name   scv26
#       Creation time:       Fri Mar 27 17:41:15 2020


#       File generated by GOLD software.
#

@<TRIPOS>MOLECULE
AV-unprocessed.smi:3149
    41    42     1
SMALL
NO_CHARGES


@<TRIPOS>ATOM
      1 ****        -1.5310  -0.9441  -1.9292 C.3            1 S1                 0.0000
      2 ****        -0.8968  -0.3142  -0.6696 C.3            1 S1                 0.0000
      3 ****         0.5544  -0.4743  -0.7232 N.3            1 S1                 0.0000
      4 ****         1.2166   0.4797  -1.6234 C.3            1 S1                 0.0000
      5 ****         2.7414   0.4245  -1.4840 C.2            1 S1                 0.0000
      6 ****         3.4444   0.2006  -2.4690 O.2            1 S1                 0.0000
      7 ****         3.2968   0.7257  -0.2365 N.am           1 S1                 0.0000
      8 ****         4.6483   1.2503  -0.1182 C.3            1 S1                 0.0000
      9 ****         4.1497   1.9372   1.1578 C.3            1 S1                 0.0000
     10 ****         2.7225   1.7371   0.6379 C.3            1 S1                 0.0000
     11 ****        -1.4064  -0.9521   0.6521 C.3            1 S1                 0.0000
     12 ****        -0.8766  -0.2271   1.9053 C.3            1 S1                 0.0000
     13 ****        -2.8618  -1.0278   0.7003 N.pl3          1 S1                 0.0000
     14 ****        -3.6554  -2.1546   0.7659 C.2            1 S1                 0.0000
     15 ****        -4.9558  -1.7390   0.7869 C.2            1 S1                 0.0000
     16 ****        -4.8583  -0.3209   0.7340 C.2            1 S1                 0.0000
     17 ****        -3.6059   0.1020   0.6832 N.2            1 S1                 0.0000
     18 ****        -2.6139  -0.8209  -1.9385 H              1 S1                 0.0000
     19 ****        -1.3207  -2.0124  -1.9867 H              1 S1                 0.0000
     20 ****        -1.1650  -0.4831  -2.8457 H              1 S1                 0.0000
     21 ****        -1.1425   0.7488  -0.6473 H              1 S1                 0.0000
     22 ****         0.7895  -1.4307  -0.9469 H              1 S1                 0.0000
     23 ****         0.9509   0.2615  -2.6576 H              1 S1                 0.0000
     24 ****         0.8772   1.4950  -1.4167 H              1 S1                 0.0000
     25 ****         5.4093   0.4862   0.0423 H              1 S1                 0.0000
     26 ****         4.9151   1.9541  -0.9093 H              1 S1                 0.0000
     27 ****         4.3625   1.3706   2.0662 H              1 S1                 0.0000
     28 ****         4.4499   2.9814   1.2512 H              1 S1                 0.0000
     29 ****         2.3366   2.6096   0.1070 H              1 S1                 0.0000
     30 ****         2.0206   1.3449   1.3741 H              1 S1                 0.0000
     31 ****        -1.0442  -1.9811   0.6915 H              1 S1                 0.0000
     32 ****         0.2099  -0.2835   1.9700 H              1 S1                 0.0000
     33 ****        -1.2764  -0.6755   2.8152 H              1 S1                 0.0000
     34 ****        -1.1530   0.8278   1.9054 H              1 S1                 0.0000
     35 ****        -3.2332  -3.1485   0.7894 H              1 S1                 0.0000
     36 ****        -5.8422  -2.3542   0.8337 H              1 S1                 0.0000
     37 ****        -5.6547   0.4085   0.7312 H              1 S1                 0.0000
     38 ****         0.9081  -0.2596   0.1872 LP             1 S1                 0.0000
     39 ****         3.0206   0.0542  -3.3628 LP             1 S1                 0.0000
     40 ****         4.4393   0.1650  -2.3755 LP             1 S1                 0.0000
     41 ****        -3.2813   1.0469   0.6415 LP             1 S1                 0.0000
@<TRIPOS>BOND
    1    1    2 1     
    2    1   18 1     
    3    1   19 1     
    4    1   20 1     
    5    2    3 1     
    6    2   11 1     
    7    2   21 1     
    8    3    4 1     
    9    3   22 1     
   10    4    5 1     
   11    4   23 1     
   12    4   24 1     
   13    5    6 2     
   14    5    7 am    
   15    7   10 1     
   16    7    8 1     
   17    8    9 1     
   18    8   25 1     
   19    8   26 1     
   20    9   10 1     
   21    9   27 1     
   22    9   28 1     
   23   10   29 1     
   24   10   30 1     
   25   11   12 1     
   26   11   13 1     
   27   11   31 1     
   28   12   32 1     
   29   12   33 1     
   30   12   34 1     
   31   13   17 1     
   32   13   14 1     
   33   14   15 2     
   34   14   35 1     
   35   15   16 1     
   36   15   36 1     
   37   16   17 2     
   38   16   37 1     
   39    3   38 1     
   40    6   39 1     
   41    6   40 1     
   42   17   41 1     
@<TRIPOS>SUBSTRUCTURE
      1 S1             1
@<TRIPOS>SET
LONE_PAIRS      STATIC     ATOMS    <user>   **** ""
4 38 39 40 41
DONOR_HYDROGENS      STATIC     ATOMS    <user>   **** ""
1 22
ATOM$BLUE        STATIC     ATOMS    COLORGROUP SYSTEM
4 38 39 40 41
ATOM$RED        STATIC     ATOMS    COLORGROUP SYSTEM
1 22
