#       Name:                AV-unprocessed.smi:2718
#       Creating user name   scv26
#       Creation time:       Fri Mar 27 14:53:11 2020


#       File generated by GOLD software.
#

@<TRIPOS>MOLECULE
AV-unprocessed.smi:2718
    51    52     1
SMALL
NO_CHARGES


@<TRIPOS>ATOM
      1 ****        -3.7224  -1.5784   4.4453 C.3            1 S1                 0.0000
      2 ****        -2.8515  -1.7075   3.2115 C.2            1 S1                 0.0000
      3 ****        -3.2288  -2.8504   2.2852 C.3            1 S1                 0.0000
      4 ****        -1.8302  -0.8626   2.9737 C.2            1 S1                 0.0000
      5 ****        -0.9169  -0.8893   1.8011 C.3            1 S1                 0.0000
      6 ****        -0.3055   0.3898   1.2571 C.3            1 S1                 0.0000
      7 ****         1.1113   0.3661   0.7756 C.2            1 S1                 0.0000
      8 ****         1.7779  -0.6643   0.6723 O.2            1 S1                 0.0000
      9 ****         1.5908   1.5802   0.4685 N.am           1 S1                 0.0000
     10 ****         2.9402   1.8719  -0.0098 C.3            1 S1                 0.0000
     11 ****         3.2222   1.3579  -1.4414 C.3            1 S1                 0.0000
     12 ****         4.5785   1.8526  -1.9641 C.3            1 S1                 0.0000
     13 ****         2.1109   1.6659  -2.4093 C.2            1 S1                 0.0000
     14 ****         1.6580   2.9042  -2.6475 N.2            1 S1                 0.0000
     15 ****         0.6571   2.7624  -3.5868 N.2            1 S1                 0.0000
     16 ****         0.6152   1.4548  -3.8363 C.2            1 S1                 0.0000
     17 ****         1.4967   0.7161  -3.1463 N.pl3          1 S1                 0.0000
     18 ****         1.7115  -0.7164  -3.2059 C.3            1 S1                 0.0000
     19 ****        -1.3663  -0.3524   0.4528 C.3            1 S1                 0.0000
     20 ****        -1.0494  -1.1640  -0.7963 C.3            1 S1                 0.0000
     21 ****        -2.7178   0.3248   0.2816 C.3            1 S1                 0.0000
     22 ****        -3.6754  -2.4920   5.0387 H              1 S1                 0.0000
     23 ****        -4.7603  -1.4089   4.1578 H              1 S1                 0.0000
     24 ****        -3.4052  -0.7475   5.0763 H              1 S1                 0.0000
     25 ****        -4.2472  -2.7163   1.9198 H              1 S1                 0.0000
     26 ****        -3.1811  -3.7986   2.8211 H              1 S1                 0.0000
     27 ****        -2.5699  -2.9233   1.4205 H              1 S1                 0.0000
     28 ****        -1.6319  -0.0796   3.6911 H              1 S1                 0.0000
     29 ****        -0.2945  -1.7827   1.8005 H              1 S1                 0.0000
     30 ****        -0.6250   1.3261   1.7131 H              1 S1                 0.0000
     31 ****         0.9713   2.3703   0.5775 H              1 S1                 0.0000
     32 ****         3.0490   2.9567   0.0112 H              1 S1                 0.0000
     33 ****         3.6770   1.4769   0.6912 H              1 S1                 0.0000
     34 ****         3.3076   0.2746  -1.3654 H              1 S1                 0.0000
     35 ****         4.8076   1.4122  -2.9351 H              1 S1                 0.0000
     36 ****         5.3844   1.5840  -1.2807 H              1 S1                 0.0000
     37 ****         4.5885   2.9370  -2.0797 H              1 S1                 0.0000
     38 ****        -0.0744   1.0252  -4.5481 H              1 S1                 0.0000
     39 ****         0.9789  -1.1785  -3.8687 H              1 S1                 0.0000
     40 ****         1.6094  -1.1498  -2.2114 H              1 S1                 0.0000
     41 ****         2.7130  -0.9210  -3.5849 H              1 S1                 0.0000
     42 ****        -0.8651  -0.5000  -1.6408 H              1 S1                 0.0000
     43 ****        -1.8869  -1.8158  -1.0461 H              1 S1                 0.0000
     44 ****        -0.1754  -1.7977  -0.6517 H              1 S1                 0.0000
     45 ****        -2.7147   0.9567  -0.6069 H              1 S1                 0.0000
     46 ****        -2.9552   0.9524   1.1408 H              1 S1                 0.0000
     47 ****        -3.5062  -0.4210   0.1769 H              1 S1                 0.0000
     48 ****         1.3756  -1.5467   0.9166 LP             1 S1                 0.0000
     49 ****         2.7214  -0.6186   0.3442 LP             1 S1                 0.0000
     50 ****         1.9788   3.7548  -2.2309 LP             1 S1                 0.0000
     51 ****         0.0901   3.4807  -3.9899 LP             1 S1                 0.0000
@<TRIPOS>BOND
    1    1    2 1     
    2    1   22 1     
    3    1   23 1     
    4    1   24 1     
    5    2    3 1     
    6    2    4 2     
    7    3   25 1     
    8    3   26 1     
    9    3   27 1     
   10    4    5 1     
   11    4   28 1     
   12    5   19 1     
   13    5    6 1     
   14    5   29 1     
   15    6    7 1     
   16    6   19 1     
   17    6   30 1     
   18    7    8 2     
   19    7    9 am    
   20    9   10 1     
   21    9   31 1     
   22   10   11 1     
   23   10   32 1     
   24   10   33 1     
   25   11   12 1     
   26   11   13 1     
   27   11   34 1     
   28   12   35 1     
   29   12   36 1     
   30   12   37 1     
   31   13   17 1     
   32   13   14 2     
   33   14   15 1     
   34   15   16 2     
   35   16   17 1     
   36   16   38 1     
   37   17   18 1     
   38   18   39 1     
   39   18   40 1     
   40   18   41 1     
   41   19   20 1     
   42   19   21 1     
   43   20   42 1     
   44   20   43 1     
   45   20   44 1     
   46   21   45 1     
   47   21   46 1     
   48   21   47 1     
   49    8   48 1     
   50    8   49 1     
   51   14   50 1     
   52   15   51 1     
@<TRIPOS>SUBSTRUCTURE
      1 S1             1
@<TRIPOS>SET
LONE_PAIRS      STATIC     ATOMS    <user>   **** ""
4 48 49 50 51
DONOR_HYDROGENS      STATIC     ATOMS    <user>   **** ""
1 31
ATOM$BLUE        STATIC     ATOMS    COLORGROUP SYSTEM
4 48 49 50 51
ATOM$RED        STATIC     ATOMS    COLORGROUP SYSTEM
1 31
