AV-unprocessed.smi:3335|AV-procd|sdf|12848|dock5
  -GOLD-   2272019233D 1   1.00000     0.00000
 Structure written by MMmdl.
 46 47  0  0  0  0  0  0  0  0  1 V2000
  151.4353  145.4284  159.9077 C   0  0  0  0  0  0  0  0  0  0  0  0
  151.6511  144.0570  159.3359 C   0  0  0  0  0  0  0  0  0  0  0  0
  150.9818  143.4557  158.2328 C   0  0  0  0  0  0  0  0  0  0  0  0
  151.4071  142.2290  157.9798 N   0  0  0  0  0  0  0  0  0  0  0  0
  152.3604  142.0006  158.9110 N   0  0  0  0  0  0  0  0  0  0  0  0
  153.0733  140.7292  158.9390 C   0  0  1  0  0  0  0  0  0  0  0  0
  153.1780  140.2152  160.3881 C   0  0  0  0  0  0  0  0  0  0  0  0
  152.4422  139.6896  157.9727 C   0  0  1  0  0  0  0  0  0  0  0  0
  150.9292  139.4935  158.1869 C   0  0  0  0  0  0  0  0  0  0  0  0
  152.6246  140.1415  156.5927 N   0  0  0  0  0  0  0  0  0  0  0  0
  152.3436  139.1195  155.5671 C   0  0  2  0  0  0  0  0  0  0  0  0
  153.5201  139.0386  154.5831 C   0  0  0  0  0  0  0  0  0  0  0  0
  151.0314  139.3850  154.7948 C   0  0  0  0  0  0  0  0  0  0  0  0
  150.8371  140.5098  154.3305 O   0  0  0  0  0  0  0  0  0  0  0  0
  150.1297  138.3898  154.6476 N   0  0  0  0  0  0  0  0  0  0  0  0
  150.2692  137.0120  155.1188 C   0  0  0  0  0  0  0  0  0  0  0  0
  149.1122  136.2362  154.4891 C   0  0  0  0  0  0  0  0  0  0  0  0
  148.0495  137.2948  154.2339 C   0  0  0  0  0  0  0  0  0  0  0  0
  148.8517  138.5668  153.9594 C   0  0  0  0  0  0  0  0  0  0  0  0
  152.5268  143.0898  159.7409 C   0  0  0  0  0  0  0  0  0  0  0  0
  150.5749  145.4527  160.5765 H   0  0  0  0  0  0  0  0  0  0  0  0
  151.2571  146.1676  159.1265 H   0  0  0  0  0  0  0  0  0  0  0  0
  152.2980  145.7693  160.4804 H   0  0  0  0  0  0  0  0  0  0  0  0
  150.2035  143.8731  157.6110 H   0  0  0  0  0  0  0  0  0  0  0  0
  154.0870  140.9390  158.5937 H   0  0  0  0  0  0  0  0  0  0  0  0
  153.8451  139.3564  160.4586 H   0  0  0  0  0  0  0  0  0  0  0  0
  152.2055  139.9132  160.7774 H   0  0  0  0  0  0  0  0  0  0  0  0
  153.5767  140.9859  161.0486 H   0  0  0  0  0  0  0  0  0  0  0  0
  152.9257  138.7262  158.1409 H   0  0  0  0  0  0  0  0  0  0  0  0
  150.7133  139.0715  159.1684 H   0  0  0  0  0  0  0  0  0  0  0  0
  150.5101  138.8077  157.4501 H   0  0  0  0  0  0  0  0  0  0  0  0
  150.3904  140.4381  158.1060 H   0  0  0  0  0  0  0  0  0  0  0  0
  152.0853  140.9804  156.4327 H   0  0  0  0  0  0  0  0  0  0  0  0
  152.2885  138.1633  156.0839 H   0  0  0  0  0  0  0  0  0  0  0  0
  153.3614  138.2563  153.8397 H   0  0  0  0  0  0  0  0  0  0  0  0
  154.4498  138.8083  155.1042 H   0  0  0  0  0  0  0  0  0  0  0  0
  153.6636  139.9796  154.0504 H   0  0  0  0  0  0  0  0  0  0  0  0
  151.2284  136.5748  154.8383 H   0  0  0  0  0  0  0  0  0  0  0  0
  150.1889  136.9976  156.2069 H   0  0  0  0  0  0  0  0  0  0  0  0
  149.4340  135.8072  153.5393 H   0  0  0  0  0  0  0  0  0  0  0  0
  148.7559  135.4214  155.1199 H   0  0  0  0  0  0  0  0  0  0  0  0
  147.3776  137.0332  153.4161 H   0  0  0  0  0  0  0  0  0  0  0  0
  147.4461  137.4298  155.1325 H   0  0  0  0  0  0  0  0  0  0  0  0
  148.3177  139.4531  154.3061 H   0  0  0  0  0  0  0  0  0  0  0  0
  149.0371  138.6792  152.8900 H   0  0  0  0  0  0  0  0  0  0  0  0
  153.2506  143.0880  160.5429 H   0  0  0  0  0  0  0  0  0  0  0  0
  1  2  1  0  0  0  0
  1 21  1  0  0  0  0
  1 22  1  0  0  0  0
  1 23  1  0  0  0  0
  2 20  2  0  0  0  0
  2  3  1  0  0  0  0
  3  4  2  0  0  0  0
  3 24  1  0  0  0  0
  4  5  1  0  0  0  0
  5  6  1  0  0  0  0
  5 20  1  0  0  0  0
  6  7  1  0  0  0  0
  6  8  1  0  0  0  0
  6 25  1  0  0  0  0
  7 26  1  0  0  0  0
  7 27  1  0  0  0  0
  7 28  1  0  0  0  0
  8  9  1  0  0  0  0
  8 10  1  0  0  0  0
  8 29  1  0  0  0  0
  9 30  1  0  0  0  0
  9 31  1  0  0  0  0
  9 32  1  0  0  0  0
 10 11  1  0  0  0  0
 10 33  1  0  0  0  0
 11 12  1  0  0  0  0
 11 13  1  0  0  0  0
 11 34  1  0  0  0  0
 12 35  1  0  0  0  0
 12 36  1  0  0  0  0
 12 37  1  0  0  0  0
 13 14  2  0  0  0  0
 13 15  1  0  0  0  0
 15 19  1  0  0  0  0
 15 16  1  0  0  0  0
 16 17  1  0  0  0  0
 16 38  1  0  0  0  0
 16 39  1  0  0  0  0
 17 18  1  0  0  0  0
 17 40  1  0  0  0  0
 17 41  1  0  0  0  0
 18 19  1  0  0  0  0
 18 42  1  0  0  0  0
 18 43  1  0  0  0  0
 19 44  1  0  0  0  0
 19 45  1  0  0  0  0
 20 46  1  0  0  0  0
M  END
> <s_m_source_file>
AV-unprocessed.smi

> <i_m_source_file_index>
3335

> <i_lp_mmshare_version>
43012

> <i_f3d_flags>
0

> <s_epik_input>
W0NIM11jMVtjSF1ubihbY0hdMSlbQ0BIXShbQ0gzXSlbQ0BIXShbQ0gzXSlbTkhdW0NASF0oW0NIM10pQyg9TylOMltDSDJdW0NIMl1bQ0gyXVtDSDJdMg==

> <s_epik_cmdline>
J2VwaWtfcHl0aG9uJywgJy1waCcsICc3LjAnLCAnLXRuJywgJzgnLCAnLW1hJywgJzIwMCcsICctbWV0YWxfYmluZGluZycsICctaW1hZScsICc8aW5maWxlLm1hZT4nLCAnLW9tYWUnLCAnPG91dGZpbGUubWFlPic=

> <r_lp_tautomer_probability>
1

> <r_epik_Ionization_Penalty>
0.918803

> <r_epik_Ionization_Penalty_Charging>
0

> <r_epik_Ionization_Penalty_Neutral>
0.918803

> <r_epik_State_Penalty>
0.958258

> <r_epik_Charging_Adjusted_Penalty>
0.958258

> <i_epik_Tot_Q>
0

> <i_epik_Tot_abs_Q>
0

> <r_epik_Metal_State_Penalty>
0.956786

> <b_epik_Metal_Only>
0

> <s_lp_Force_Field>
OPLS_2005

> <r_lp_Energy>
37.1843

> <b_lp_Chiralities_Consistent>
1

> <s_lp_Variant>
AV-unprocessed.smi:3335-12

> <Gold.Version>
5.8.1

> <Gold.Id.Protein>
6NUR|6NUR_protein|mol2

> <Gold.PLP.Fitness>
45.2657

> <Gold.PLP.PLP>
-38.9269

> <Gold.PLP.part.hbond>
-2.0000

> <Gold.PLP.part.metal>
0.0000

> <Gold.PLP.part.buried>
-3.7682

> <Gold.PLP.part.nonpolar>
-33.1821

> <Gold.PLP.part.repulsive>
0.1340

> <Gold.PLP.ligand.clash>
0.0000

> <Gold.PLP.ligand.torsion>
1.3790

> <Gold.PLP.Chemscore.Hbond>
2.0000

> <Gold.PLP.Chemscore.CHOScore>
1.0000

> <Gold.PLP.Chemscore.Metal>
0.0000

> <Gold.Chemscore.Hbonds>
donor molecule, donor type, donor heavy atom, donor atom, acceptor molecule, acceptor atom, score
      P1  H  7989  7998       L1    14  0.18
      P1  H  7997  8008       L1    10  0.90
      L1  C     3    24       P1  8028  1.00

> <Gold.PLP.Chemscore.Internal.Correction>
0.0968

> <Gold.Rescore>
     Score         DG    S(hbond)    S(metal)    S(lipo)     H(rot)  DE(clash)    DE(int)     intcor
     14.75     -16.90       1.12        0.00     101.07       1.62       0.21       1.94       ----

> <Gold.Chemscore.Fitness>
14.7496

> <Gold.Chemscore.DG>
-16.8960

> <Gold.Chemscore.ZeroCoef>
-5.4800

> <Gold.Chemscore.Hbond>
1.1194

> <Gold.Chemscore.Metal>
0.0000

> <Gold.Chemscore.Lipo>
101.0731

> <Gold.Chemscore.Internal_Hbond>
0.0000

> <Gold.Chemscore.DEClash>
0.2051

> <Gold.Chemscore.DEInternal>
1.9413

> <Gold.Chemscore.Rot>
1.6204

> <Gold.Chemscore.Internal.Correction>
   9.000000E+99

> <Gold.Chemscore.Hbonds>
donor molecule, donor type, donor heavy atom, donor atom, acceptor molecule, acceptor atom, score
      P1  H  7989  7998       L1    14  0.18
      P1  H  7997  8008       L1    10  0.04

> <Gold.Chemscore.Hbond.Weighted>
-3.7386

> <Gold.Chemscore.Metal.Weighted>
-0.0000

> <Gold.Chemscore.Lipo.Weighted>
-11.8256

> <Gold.Chemscore.Internal_Hbond.Weighted>
0.0000

> <Gold.Chemscore.DEClash.Weighted>
0.2051

> <Gold.Chemscore.DEInternal.Weighted>
1.9413

> <Gold.Chemscore.Rot.Weighted>
4.1482

> <Gold.Chemscore.Internal.Correction.Weighted>
   9.000000E+99

> <Gold.Protein.RotatedTorsions>
[ 6907 6896 6895 6894 ] final -146.58 input  -60.11 | X-H torsion
[ 7974 7965 7964 7962 ] final -108.38 input  175.53 | X-H torsion
[ 8008 7997 7996 7995 ] final  -51.16 input   59.86 | X-H torsion
[ 10167 10162 10161 10158 ] final  163.18 input  -65.29 | X-H torsion
[ 10718 10713 10712 10709 ] final -126.59 input   66.30 | X-H torsion
[ 10763 10752 10751 10750 ] final  -27.08 input  -60.55 | X-H torsion
[ 11005 11000 10999 10996 ] final  -80.51 input  -57.11 | X-H torsion

> <Gold.Protein.ActiveResidues>
 VAL166  LYS551  ARG553  GLY616  TRP617  ASP618  TYR619  PRO620  LYS621  CYS622 
 ASP623  PHE694  ASN695  SER759  ASP760  ASP761  ALA762  ILE779  LEU786  VAL792 
 PHE793  MET794  SER795  GLU796  ALA797  LYS798  CYS799  TRP800  GLU811  SER814 

> <Gold.Protein.RotatedAtoms>
  151.1436  133.4955  159.2596 H   0  0  0  0  0  0  0  0  0  0  0  0  # atno 6907 bound_to 6896
  151.1629  135.0281  159.8728 H   0  0  0  0  0  0  0  0  0  0  0  0  # atno 6908 bound_to 6896
  152.5462  134.1308  159.8491 H   0  0  0  0  0  0  0  0  0  0  0  0  # atno 6909 bound_to 6896
  145.1936  140.9025  143.3410 H   0  0  0  0  0  0  0  0  0  0  0  0  # atno 7974 bound_to 7965
  154.4077  140.1255  156.4783 H   0  0  0  0  0  0  0  0  0  0  0  0  # atno 8008 bound_to 7997
  155.7110  140.3494  155.4954 H   0  0  0  0  0  0  0  0  0  0  0  0  # atno 8009 bound_to 7997
  155.9300  140.1068  157.1130 H   0  0  0  0  0  0  0  0  0  0  0  0  # atno 8010 bound_to 7997
  139.4870  144.4363  151.9008 H   0  0  0  0  0  0  0  0  0  0  0  0  # atno 10167 bound_to 10162
  156.1779  130.6712  151.0266 H   0  0  0  0  0  0  0  0  0  0  0  0  # atno 10718 bound_to 10713
  153.7264  135.6941  153.5000 H   0  0  0  0  0  0  0  0  0  0  0  0  # atno 10763 bound_to 10752
  153.2167  135.4384  155.0441 H   0  0  0  0  0  0  0  0  0  0  0  0  # atno 10764 bound_to 10752
  154.8267  135.3450  154.6795 H   0  0  0  0  0  0  0  0  0  0  0  0  # atno 10765 bound_to 10752
  141.1668  133.7154  156.8284 H   0  0  0  0  0  0  0  0  0  0  0  0  # atno 11005 bound_to 11000
  145.0017  139.3592  143.6164 LP  0  0  0  0  0  0  0  0  0  0  0  0  # atno 17320 bound_to 7965
  146.3431  139.9243  142.8762 LP  0  0  0  0  0  0  0  0  0  0  0  0  # atno 17321 bound_to 7965
  140.3813  144.2732  150.5908 LP  0  0  0  0  0  0  0  0  0  0  0  0  # atno 17342 bound_to 10162
  140.5231  143.2261  151.8358 LP  0  0  0  0  0  0  0  0  0  0  0  0  # atno 17343 bound_to 10162
  157.6848  131.0828  150.7272 LP  0  0  0  0  0  0  0  0  0  0  0  0  # atno 17370 bound_to 10713
  156.7330  130.4715  149.5495 LP  0  0  0  0  0  0  0  0  0  0  0  0  # atno 17371 bound_to 10713
  140.2068  134.8856  157.3231 LP  0  0  0  0  0  0  0  0  0  0  0  0  # atno 17394 bound_to 11000
  140.2128  134.4117  155.7604 LP  0  0  0  0  0  0  0  0  0  0  0  0  # atno 17395 bound_to 11000

$$$$
