AV-unprocessed.smi:1240|AV-procd|sdf|5204|dock5
  -GOLD-   22720 4293D 1   1.00000     0.00000
 Structure written by MMmdl.
 48 50  0  0  0  0  0  0  0  0  2 V2000
  145.3634  138.5614  152.4935 O   0  0  0  0  0  0  0  0  0  0  0  0
  146.4321  137.9819  152.3019 C   0  0  0  0  0  0  0  0  0  0  0  0
  146.5370  136.8110  151.6579 N   0  0  0  0  0  0  0  0  0  0  0  0
  145.4262  136.0426  151.1020 C   0  0  0  0  0  0  0  0  0  0  0  0
  145.2611  134.6765  151.8204 C   0  0  1  0  0  0  0  0  0  0  0  0
  144.3139  134.7669  153.0587 C   0  0  2  0  0  0  0  0  0  0  0  0
  142.8133  134.6100  152.7936 C   0  0  0  0  0  0  0  0  0  0  0  0
  142.1849  135.7995  153.5186 C   0  0  0  0  0  0  0  0  0  0  0  0
  143.1241  136.1230  154.5300 O   0  0  0  0  0  0  0  0  0  0  0  0
  144.4116  136.0205  153.9444 C   0  0  0  0  0  0  0  0  0  0  0  0
  145.0212  133.5269  150.9237 N   0  0  0  0  0  0  0  0  0  0  0  0
  146.2494  132.9516  150.3784 C   0  0  0  0  0  0  0  0  0  0  0  0
  145.9723  131.6716  149.5742 C   0  0  0  0  0  0  0  0  0  0  0  0
  145.0493  131.9640  148.5310 O   0  0  0  0  0  0  0  0  0  0  0  0
  143.8144  132.4743  149.0218 C   0  0  0  0  0  0  0  0  0  0  0  0
  144.0591  133.7506  149.8467 C   0  0  0  0  0  0  0  0  0  0  0  0
  147.6341  138.4120  152.7227 N   0  0  0  0  0  0  0  0  0  0  0  0
  147.9499  139.5953  153.4445 C   0  0  0  0  0  0  0  0  0  0  0  0
  147.0463  140.6772  153.3511 C   0  0  0  0  0  0  0  0  0  0  0  0
  147.3083  141.8664  154.0615 C   0  0  0  0  0  0  0  0  0  0  0  0
  148.4132  141.9599  154.8320 N   0  3  0  0  0  0  0  0  0  0  0  0
  149.2982  140.9487  154.9642 C   0  0  0  0  0  0  0  0  0  0  0  0
  149.0893  139.7349  154.2779 C   0  0  0  0  0  0  0  0  0  0  0  0
  147.4574  136.4098  151.5513 H   0  0  0  0  0  0  0  0  0  0  0  0
  144.4939  136.6067  151.1472 H   0  0  0  0  0  0  0  0  0  0  0  0
  145.6466  135.9053  150.0445 H   0  0  0  0  0  0  0  0  0  0  0  0
  146.2353  134.4775  152.2699 H   0  0  0  0  0  0  0  0  0  0  0  0
  144.5811  133.9347  153.7122 H   0  0  0  0  0  0  0  0  0  0  0  0
  142.5326  134.5973  151.7411 H   0  0  0  0  0  0  0  0  0  0  0  0
  142.4590  133.6753  153.2301 H   0  0  0  0  0  0  0  0  0  0  0  0
  142.0746  136.6499  152.8439 H   0  0  0  0  0  0  0  0  0  0  0  0
  141.2058  135.5669  153.9378 H   0  0  0  0  0  0  0  0  0  0  0  0
  145.1759  135.9269  154.7157 H   0  0  0  0  0  0  0  0  0  0  0  0
  144.6268  136.9268  153.3823 H   0  0  0  0  0  0  0  0  0  0  0  0
  146.7459  133.6668  149.7230 H   0  0  0  0  0  0  0  0  0  0  0  0
  146.9465  132.7259  151.1860 H   0  0  0  0  0  0  0  0  0  0  0  0
  146.8953  131.2901  149.1377 H   0  0  0  0  0  0  0  0  0  0  0  0
  145.5730  130.8866  150.2183 H   0  0  0  0  0  0  0  0  0  0  0  0
  143.1564  132.6884  148.1795 H   0  0  0  0  0  0  0  0  0  0  0  0
  143.3188  131.7155  149.6292 H   0  0  0  0  0  0  0  0  0  0  0  0
  143.1016  134.0637  150.2534 H   0  0  0  0  0  0  0  0  0  0  0  0
  144.4086  134.5451  149.1872 H   0  0  0  0  0  0  0  0  0  0  0  0
  148.4085  137.7854  152.5592 H   0  0  0  0  0  0  0  0  0  0  0  0
  146.1608  140.6028  152.7364 H   0  0  0  0  0  0  0  0  0  0  0  0
  146.6709  142.7385  154.0377 H   0  0  0  0  0  0  0  0  0  0  0  0
  150.1393  141.1360  155.6157 H   0  0  0  0  0  0  0  0  0  0  0  0
  149.7997  138.9341  154.4146 H   0  0  0  0  0  0  0  0  0  0  0  0
  148.5839  142.8286  155.3394 H   0  0  0  0  0  0  0  0  0  0  0  0
  1  2  2  0  0  0  0
  2  3  1  0  0  0  0
  2 17  1  0  0  0  0
  3  4  1  0  0  0  0
  3 24  1  0  0  0  0
  4  5  1  0  0  0  0
  4 25  1  0  0  0  0
  4 26  1  0  0  0  0
  5  6  1  0  0  0  0
  5 11  1  0  0  0  0
  5 27  1  0  0  0  0
  6 10  1  0  0  0  0
  6  7  1  0  0  0  0
  6 28  1  0  0  0  0
  7  8  1  0  0  0  0
  7 29  1  0  0  0  0
  7 30  1  0  0  0  0
  8  9  1  0  0  0  0
  8 31  1  0  0  0  0
  8 32  1  0  0  0  0
  9 10  1  0  0  0  0
 10 33  1  0  0  0  0
 10 34  1  0  0  0  0
 11 16  1  0  0  0  0
 11 12  1  0  0  0  0
 12 13  1  0  0  0  0
 12 35  1  0  0  0  0
 12 36  1  0  0  0  0
 13 14  1  0  0  0  0
 13 37  1  0  0  0  0
 13 38  1  0  0  0  0
 14 15  1  0  0  0  0
 15 16  1  0  0  0  0
 15 39  1  0  0  0  0
 15 40  1  0  0  0  0
 16 41  1  0  0  0  0
 16 42  1  0  0  0  0
 17 18  1  0  0  0  0
 17 43  1  0  0  0  0
 18 23  1  0  0  0  0
 18 19  2  0  0  0  0
 19 20  1  0  0  0  0
 19 44  1  0  0  0  0
 20 21  2  0  0  0  0
 20 45  1  0  0  0  0
 21 22  1  0  0  0  0
 21 48  1  0  0  0  0
 22 23  2  0  0  0  0
 22 46  1  0  0  0  0
 23 47  1  0  0  0  0
M  CHG  1  21   1
M  END
> <s_m_source_file>
AV-unprocessed.smi

> <i_m_source_file_index>
1240

> <i_lp_mmshare_version>
43012

> <i_f3d_flags>
0

> <s_epik_input>
W2NIXTFbY0hdbltjSF1bY0hdYzFbTkhdQyg9TylbTkhdW0NIMl1bQ0BIXShbQ0BASF0yW0NIMl1bQ0gyXU9bQ0gyXTIpTjNbQ0gyXVtDSDJdT1tDSDJdW0NIMl0z

> <s_epik_cmdline>
J2VwaWtfcHl0aG9uJywgJy1waCcsICc3LjAnLCAnLXRuJywgJzgnLCAnLW1hJywgJzIwMCcsICctbWV0YWxfYmluZGluZycsICctaW1hZScsICc8aW5maWxlLm1hZT4nLCAnLW9tYWUnLCAnPG91dGZpbGUubWFlPic=

> <r_epik_Ionization_Penalty>
1.15944

> <r_epik_Ionization_Penalty_Charging>
1.0344

> <r_epik_Ionization_Penalty_Neutral>
0.125034

> <r_epik_State_Penalty>
1.2199

> <r_epik_Charging_Adjusted_Penalty>
2.25431

> <i_epik_Tot_Q>
1

> <i_epik_Tot_abs_Q>
1

> <r_epik_Metal_State_Penalty>
1.3155

> <b_epik_Metal_Only>
0

> <s_lp_Force_Field>
OPLS_2005

> <r_lp_Energy>
64.7191

> <b_lp_Chiralities_Consistent>
1

> <s_lp_Variant>
AV-unprocessed.smi:1240-10

> <Gold.Version>
5.8.1

> <Gold.Id.Protein>
6NUR|6NUR_protein|mol2

> <Gold.PLP.Fitness>
47.0680

> <Gold.PLP.PLP>
-38.0245

> <Gold.PLP.part.hbond>
-5.4798

> <Gold.PLP.part.metal>
0.0000

> <Gold.PLP.part.buried>
-0.9028

> <Gold.PLP.part.nonpolar>
-36.9445

> <Gold.PLP.part.repulsive>
6.2170

> <Gold.PLP.ligand.clash>
0.0000

> <Gold.PLP.ligand.torsion>
1.5602

> <Gold.PLP.Chemscore.Hbond>
3.9350

> <Gold.PLP.Chemscore.CHOScore>
0.0000

> <Gold.PLP.Chemscore.Metal>
0.0000

> <Gold.Chemscore.Hbonds>
donor molecule, donor type, donor heavy atom, donor atom, acceptor molecule, acceptor atom, score
      L1  H     3    24       P1  7948  0.93
      L1  H    17    43       P1  7948  0.94
      L1  H    21    48       P1  8028  2.00

> <Gold.PLP.Chemscore.Internal.Correction>
0.3590

> <Gold.Rescore>
     Score         DG    S(hbond)    S(metal)    S(lipo)     H(rot)  DE(clash)    DE(int)     intcor
     16.19     -22.89       2.88        0.00     103.52       1.69       2.30       4.41       ----

> <Gold.Chemscore.Fitness>
16.1860

> <Gold.Chemscore.DG>
-22.8928

> <Gold.Chemscore.ZeroCoef>
-5.4800

> <Gold.Chemscore.Hbond>
2.8833

> <Gold.Chemscore.Metal>
0.0000

> <Gold.Chemscore.Lipo>
103.5211

> <Gold.Chemscore.Internal_Hbond>
0.0000

> <Gold.Chemscore.DEClash>
2.2955

> <Gold.Chemscore.DEInternal>
4.4112

> <Gold.Chemscore.Rot>
1.6912

> <Gold.Chemscore.Internal.Correction>
   9.000000E+99

> <Gold.Chemscore.Hbonds>
donor molecule, donor type, donor heavy atom, donor atom, acceptor molecule, acceptor atom, score
      L1  H     3    24       P1  7948  0.88
      L1  H    17    43       P1  7948  0.91
      L1  H    21    48       P1  8028  0.99

> <Gold.Chemscore.Hbond.Weighted>
-9.6303

> <Gold.Chemscore.Metal.Weighted>
-0.0000

> <Gold.Chemscore.Lipo.Weighted>
-12.1120

> <Gold.Chemscore.Internal_Hbond.Weighted>
0.0000

> <Gold.Chemscore.DEClash.Weighted>
2.2955

> <Gold.Chemscore.DEInternal.Weighted>
4.4112

> <Gold.Chemscore.Rot.Weighted>
4.3295

> <Gold.Chemscore.Internal.Correction.Weighted>
   9.000000E+99

> <Gold.Protein.RotatedTorsions>
[ 6907 6896 6895 6894 ] final  108.33 input  -60.11 | X-H torsion
[ 7974 7965 7964 7962 ] final  -61.85 input  175.53 | X-H torsion
[ 8008 7997 7996 7995 ] final   89.10 input   59.86 | X-H torsion
[ 10167 10162 10161 10158 ] final  -96.81 input  -65.29 | X-H torsion
[ 10718 10713 10712 10709 ] final   97.97 input   66.30 | X-H torsion
[ 10763 10752 10751 10750 ] final   58.71 input  -60.55 | X-H torsion
[ 11005 11000 10999 10996 ] final  -24.05 input  -57.11 | X-H torsion

> <Gold.Protein.ActiveResidues>
 VAL166  LYS551  ARG553  GLY616  TRP617  ASP618  TYR619  PRO620  LYS621  CYS622 
 ASP623  PHE694  ASN695  SER759  ASP760  ASP761  ALA762  ILE779  LEU786  VAL792 
 PHE793  MET794  SER795  GLU796  ALA797  LYS798  CYS799  TRP800  GLU811  SER814 

> <Gold.Protein.RotatedAtoms>
  152.5116  133.9104  159.7484 H   0  0  0  0  0  0  0  0  0  0  0  0  # atno 6907 bound_to 6896
  150.9499  133.6553  159.2781 H   0  0  0  0  0  0  0  0  0  0  0  0  # atno 6908 bound_to 6896
  151.3835  135.0949  159.9556 H   0  0  0  0  0  0  0  0  0  0  0  0  # atno 6909 bound_to 6896
  145.7985  140.8669  143.0243 H   0  0  0  0  0  0  0  0  0  0  0  0  # atno 7974 bound_to 7965
  155.9958  140.3364  155.6797 H   0  0  0  0  0  0  0  0  0  0  0  0  # atno 8008 bound_to 7997
  155.6358  140.0690  157.2652 H   0  0  0  0  0  0  0  0  0  0  0  0  # atno 8009 bound_to 7997
  154.4233  140.1751  156.1508 H   0  0  0  0  0  0  0  0  0  0  0  0  # atno 8010 bound_to 7997
  140.2899  143.3228  152.0356 H   0  0  0  0  0  0  0  0  0  0  0  0  # atno 10167 bound_to 10162
  157.6904  131.0626  150.4725 H   0  0  0  0  0  0  0  0  0  0  0  0  # atno 10718 bound_to 10713
  152.9877  135.5597  154.5596 H   0  0  0  0  0  0  0  0  0  0  0  0  # atno 10763 bound_to 10752
  154.5018  135.2797  155.1417 H   0  0  0  0  0  0  0  0  0  0  0  0  # atno 10764 bound_to 10752
  154.2844  135.6338  153.5413 H   0  0  0  0  0  0  0  0  0  0  0  0  # atno 10765 bound_to 10752
  140.8809  133.7655  156.0300 H   0  0  0  0  0  0  0  0  0  0  0  0  # atno 11005 bound_to 11000
  144.6772  140.0225  143.7483 LP  0  0  0  0  0  0  0  0  0  0  0  0  # atno 17320 bound_to 7965
  145.9902  139.3009  143.0989 LP  0  0  0  0  0  0  0  0  0  0  0  0  # atno 17321 bound_to 7965
  139.4940  144.6532  151.6630 LP  0  0  0  0  0  0  0  0  0  0  0  0  # atno 17342 bound_to 10162
  140.5741  144.0059  150.6232 LP  0  0  0  0  0  0  0  0  0  0  0  0  # atno 17343 bound_to 10162
  156.5062  130.4128  149.6326 LP  0  0  0  0  0  0  0  0  0  0  0  0  # atno 17370 bound_to 10713
  156.3283  130.7317  151.2242 LP  0  0  0  0  0  0  0  0  0  0  0  0  # atno 17371 bound_to 10713
  140.8463  134.3007  157.5293 LP  0  0  0  0  0  0  0  0  0  0  0  0  # atno 17394 bound_to 11000
  139.8719  134.9443  156.3878 LP  0  0  0  0  0  0  0  0  0  0  0  0  # atno 17395 bound_to 11000

$$$$
