AV-unprocessed.smi:2706|AV-procd|sdf|10447|dock3
  -GOLD-   2272014493D 1   1.00000     0.00000
 Structure written by MMmdl.
 43 46  0  0  0  0  0  0  0  0  1 V2000
  153.5765  141.1199  160.6806 C   0  0  0  0  0  0  0  0  0  0  0  0
  153.0481  142.3312  161.3006 N   0  0  0  0  0  0  0  0  0  0  0  0
  153.3131  142.6033  162.7076 C   0  0  0  0  0  0  0  0  0  0  0  0
  152.3301  143.2636  160.5177 C   0  0  0  0  0  0  0  0  0  0  0  0
  152.1992  144.6174  160.9104 C   0  0  0  0  0  0  0  0  0  0  0  0
  151.4732  145.4970  160.0874 C   0  0  0  0  0  0  0  0  0  0  0  0
  150.9000  145.0056  158.9009 C   0  0  0  0  0  0  0  0  0  0  0  0
  151.0667  143.6448  158.5686 C   0  0  0  0  0  0  0  0  0  0  0  0
  150.4546  143.2380  157.3533 N   0  0  0  0  0  0  0  0  0  0  0  0
  150.4505  142.0145  156.7950 C   0  0  0  0  0  0  0  0  0  0  0  0
  150.9863  141.0127  157.2707 O   0  0  0  0  0  0  0  0  0  0  0  0
  149.7788  142.0169  155.6358 N   0  0  0  0  0  0  0  0  0  0  0  0
  149.5731  140.8884  154.7861 C   0  0  2  0  0  0  0  0  0  0  0  0
  148.3482  140.7808  153.8961 C   0  0  2  0  0  0  0  0  0  0  0  0
  146.9253  141.3238  154.0711 C   0  0  2  0  0  0  0  0  0  0  0  0
  146.7854  142.2974  155.2587 C   0  0  0  0  0  0  0  0  0  0  0  0
  146.9440  141.3594  156.4753 C   0  0  0  0  0  0  0  0  0  0  0  0
  147.1531  139.9853  155.8076 C   0  0  1  0  0  0  0  0  0  0  0  0
  146.1975  140.1042  154.6255 C   0  0  0  0  0  0  0  0  0  0  0  0
  148.5067  139.8541  155.0992 C   0  0  2  0  0  0  0  0  0  0  0  0
  151.7689  142.8090  159.3712 N   0  0  0  0  0  0  0  0  0  0  0  0
  152.7727  140.5368  160.2297 H   0  0  0  0  0  0  0  0  0  0  0  0
  154.0784  140.4848  161.4104 H   0  0  0  0  0  0  0  0  0  0  0  0
  154.2983  141.3728  159.9033 H   0  0  0  0  0  0  0  0  0  0  0  0
  152.3795  142.6638  163.2674 H   0  0  0  0  0  0  0  0  0  0  0  0
  153.8534  143.5434  162.8230 H   0  0  0  0  0  0  0  0  0  0  0  0
  153.9194  141.8162  163.1556 H   0  0  0  0  0  0  0  0  0  0  0  0
  152.6375  144.9963  161.8212 H   0  0  0  0  0  0  0  0  0  0  0  0
  151.3577  146.5348  160.3632 H   0  0  0  0  0  0  0  0  0  0  0  0
  150.3398  145.6690  158.2577 H   0  0  0  0  0  0  0  0  0  0  0  0
  149.9653  143.9632  156.8503 H   0  0  0  0  0  0  0  0  0  0  0  0
  149.3734  142.8884  155.3270 H   0  0  0  0  0  0  0  0  0  0  0  0
  150.4804  140.4705  154.3519 H   0  0  0  0  0  0  0  0  0  0  0  0
  148.5147  140.3219  152.9231 H   0  0  0  0  0  0  0  0  0  0  0  0
  146.5179  141.7075  153.1353 H   0  0  0  0  0  0  0  0  0  0  0  0
  147.5041  143.1153  155.2293 H   0  0  0  0  0  0  0  0  0  0  0  0
  145.7929  142.7498  155.2622 H   0  0  0  0  0  0  0  0  0  0  0  0
  147.7535  141.6363  157.1495 H   0  0  0  0  0  0  0  0  0  0  0  0
  146.0278  141.3563  157.0671 H   0  0  0  0  0  0  0  0  0  0  0  0
  146.9546  139.1396  156.4664 H   0  0  0  0  0  0  0  0  0  0  0  0
  145.1620  140.2990  154.9117 H   0  0  0  0  0  0  0  0  0  0  0  0
  146.2276  139.2416  153.9570 H   0  0  0  0  0  0  0  0  0  0  0  0
  148.7714  138.8236  154.8687 H   0  0  0  0  0  0  0  0  0  0  0  0
  1  2  1  0  0  0  0
  1 22  1  0  0  0  0
  1 23  1  0  0  0  0
  1 24  1  0  0  0  0
  2  3  1  0  0  0  0
  2  4  1  0  0  0  0
  3 25  1  0  0  0  0
  3 26  1  0  0  0  0
  3 27  1  0  0  0  0
  4 21  1  0  0  0  0
  4  5  2  0  0  0  0
  5  6  1  0  0  0  0
  5 28  1  0  0  0  0
  6  7  2  0  0  0  0
  6 29  1  0  0  0  0
  7  8  1  0  0  0  0
  7 30  1  0  0  0  0
  8  9  1  0  0  0  0
  8 21  2  0  0  0  0
  9 10  1  0  0  0  0
  9 31  1  0  0  0  0
 10 11  2  0  0  0  0
 10 12  1  0  0  0  0
 12 13  1  0  0  0  0
 12 32  1  0  0  0  0
 13 20  1  0  0  0  0
 13 14  1  0  0  0  0
 13 33  1  0  0  0  0
 14 20  1  0  0  0  0
 14 15  1  0  0  0  0
 14 34  1  0  0  0  0
 15 19  1  0  0  0  0
 15 16  1  0  0  0  0
 15 35  1  0  0  0  0
 16 17  1  0  0  0  0
 16 36  1  0  0  0  0
 16 37  1  0  0  0  0
 17 18  1  0  0  0  0
 17 38  1  0  0  0  0
 17 39  1  0  0  0  0
 18 19  1  0  0  0  0
 18 20  1  0  0  0  0
 18 40  1  0  0  0  0
 19 41  1  0  0  0  0
 19 42  1  0  0  0  0
 20 43  1  0  0  0  0
M  END
> <s_m_source_file>
AV-unprocessed.smi

> <i_m_source_file_index>
2706

> <i_lp_mmshare_version>
43012

> <i_f3d_flags>
0

> <s_epik_input>
W0NIM11OKFtDSDNdKWMxW2NIXVtjSF1bY0hdYyhuMSlbTkhdQyg9TylbTkhdW0NASF0yW0NAQEhdM1tDQEBIXShbQ0gyXTQpW0NIMl1bQ0gyXVtDQEBIXTRbQ0BIXTIz

> <s_epik_cmdline>
J2VwaWtfcHl0aG9uJywgJy1waCcsICc3LjAnLCAnLXRuJywgJzgnLCAnLW1hJywgJzIwMCcsICctbWV0YWxfYmluZGluZycsICctaW1hZScsICc8aW5maWxlLm1hZT4nLCAnLW9tYWUnLCAnPG91dGZpbGUubWFlPic=

> <r_lp_tautomer_probability>
1

> <r_epik_Ionization_Penalty>
0.0296788

> <r_epik_Ionization_Penalty_Charging>
0

> <r_epik_Ionization_Penalty_Neutral>
0.0296788

> <r_epik_State_Penalty>
0.0248512

> <r_epik_Charging_Adjusted_Penalty>
0.0248512

> <i_epik_Tot_Q>
0

> <i_epik_Tot_abs_Q>
0

> <r_epik_Metal_State_Penalty>
0.0237882

> <b_epik_Metal_Only>
0

> <s_lp_Force_Field>
OPLS_2005

> <r_lp_Energy>
85.7316

> <b_lp_Chiralities_Consistent>
1

> <s_lp_Variant>
AV-unprocessed.smi:2706-4

> <Gold.Version>
5.8.1

> <Gold.Id.Protein>
6NUR|6NUR_protein|mol2

> <Gold.PLP.Fitness>
52.1438

> <Gold.PLP.PLP>
-47.0896

> <Gold.PLP.part.hbond>
-2.0000

> <Gold.PLP.part.metal>
0.0000

> <Gold.PLP.part.buried>
-6.0399

> <Gold.PLP.part.nonpolar>
-40.0094

> <Gold.PLP.part.repulsive>
0.1813

> <Gold.PLP.ligand.clash>
0.0000

> <Gold.PLP.ligand.torsion>
0.5114

> <Gold.PLP.Chemscore.Hbond>
2.0000

> <Gold.PLP.Chemscore.CHOScore>
0.0000

> <Gold.PLP.Chemscore.Metal>
0.0000

> <Gold.Chemscore.Hbonds>
donor molecule, donor type, donor heavy atom, donor atom, acceptor molecule, acceptor atom, score
      L1  H     9    31       P1  8028  1.00
      L1  H    12    32       P1  8028  1.00

> <Gold.PLP.Chemscore.Internal.Correction>
0.0770

> <Gold.Rescore>
     Score         DG    S(hbond)    S(metal)    S(lipo)     H(rot)  DE(clash)    DE(int)     intcor
     18.37     -20.22       1.93        0.00      92.90       1.00       0.08       1.77       ----

> <Gold.Chemscore.Fitness>
18.3682

> <Gold.Chemscore.DG>
-20.2234

> <Gold.Chemscore.ZeroCoef>
-5.4800

> <Gold.Chemscore.Hbond>
1.9264

> <Gold.Chemscore.Metal>
0.0000

> <Gold.Chemscore.Lipo>
92.8993

> <Gold.Chemscore.Internal_Hbond>
0.0000

> <Gold.Chemscore.DEClash>
0.0814

> <Gold.Chemscore.DEInternal>
1.7738

> <Gold.Chemscore.Rot>
1.0000

> <Gold.Chemscore.Internal.Correction>
   9.000000E+99

> <Gold.Chemscore.Hbonds>
donor molecule, donor type, donor heavy atom, donor atom, acceptor molecule, acceptor atom, score
      L1  H     9    31       P1  8028  0.97
      L1  H    12    32       P1  8028  0.95

> <Gold.Chemscore.Hbond.Weighted>
-6.4342

> <Gold.Chemscore.Metal.Weighted>
-0.0000

> <Gold.Chemscore.Lipo.Weighted>
-10.8692

> <Gold.Chemscore.Internal_Hbond.Weighted>
0.0000

> <Gold.Chemscore.DEClash.Weighted>
0.0814

> <Gold.Chemscore.DEInternal.Weighted>
1.7738

> <Gold.Chemscore.Rot.Weighted>
2.5600

> <Gold.Chemscore.Internal.Correction.Weighted>
   9.000000E+99

> <Gold.Protein.RotatedTorsions>
[ 6907 6896 6895 6894 ] final -113.24 input  -60.11 | X-H torsion
[ 7974 7965 7964 7962 ] final  -87.70 input  175.53 | X-H torsion
[ 8008 7997 7996 7995 ] final    8.58 input   59.86 | X-H torsion
[ 10167 10162 10161 10158 ] final   -5.34 input  -65.29 | X-H torsion
[ 10718 10713 10712 10709 ] final -106.20 input   66.30 | X-H torsion
[ 10763 10752 10751 10750 ] final -112.56 input  -60.55 | X-H torsion
[ 11005 11000 10999 10996 ] final -142.64 input  -57.11 | X-H torsion

> <Gold.Protein.ActiveResidues>
 VAL166  LYS551  ARG553  GLY616  TRP617  ASP618  TYR619  PRO620  LYS621  CYS622 
 ASP623  PHE694  ASN695  SER759  ASP760  ASP761  ALA762  ILE779  LEU786  VAL792 
 PHE793  MET794  SER795  GLU796  ALA797  LYS798  CYS799  TRP800  GLU811  SER814 

> <Gold.Protein.RotatedAtoms>
  150.7815  133.8974  159.3330 H   0  0  0  0  0  0  0  0  0  0  0  0  # atno 6907 bound_to 6896
  151.6835  135.0956  160.0230 H   0  0  0  0  0  0  0  0  0  0  0  0  # atno 6908 bound_to 6896
  152.3867  133.6583  159.6240 H   0  0  0  0  0  0  0  0  0  0  0  0  # atno 6909 bound_to 6896
  145.4631  140.9561  143.1959 H   0  0  0  0  0  0  0  0  0  0  0  0  # atno 7974 bound_to 7965
  154.7687  140.2798  155.6155 H   0  0  0  0  0  0  0  0  0  0  0  0  # atno 8008 bound_to 7997
  156.2929  140.2646  156.2411 H   0  0  0  0  0  0  0  0  0  0  0  0  # atno 8009 bound_to 7997
  154.9927  140.0373  157.2316 H   0  0  0  0  0  0  0  0  0  0  0  0  # atno 8010 bound_to 7997
  140.6960  143.6319  150.8515 H   0  0  0  0  0  0  0  0  0  0  0  0  # atno 10167 bound_to 10162
  156.0379  130.5601  150.7647 H   0  0  0  0  0  0  0  0  0  0  0  0  # atno 10718 bound_to 10713
  154.8355  135.4486  154.1213 H   0  0  0  0  0  0  0  0  0  0  0  0  # atno 10763 bound_to 10752
  153.2448  135.6920  153.7749 H   0  0  0  0  0  0  0  0  0  0  0  0  # atno 10764 bound_to 10752
  153.7084  135.3360  155.3216 H   0  0  0  0  0  0  0  0  0  0  0  0  # atno 10765 bound_to 10752
  140.8205  134.2637  157.4902 H   0  0  0  0  0  0  0  0  0  0  0  0  # atno 11005 bound_to 11000
  144.7991  139.6176  143.7080 LP  0  0  0  0  0  0  0  0  0  0  0  0  # atno 17320 bound_to 7965
  146.2440  139.6059  142.9472 LP  0  0  0  0  0  0  0  0  0  0  0  0  # atno 17321 bound_to 7965
  140.0037  143.5716  152.2865 LP  0  0  0  0  0  0  0  0  0  0  0  0  # atno 17342 bound_to 10162
  139.6415  144.7655  151.2329 LP  0  0  0  0  0  0  0  0  0  0  0  0  # atno 17343 bound_to 10162
  157.5157  131.0928  151.0142 LP  0  0  0  0  0  0  0  0  0  0  0  0  # atno 17370 bound_to 10713
  157.0486  130.5778  149.5367 LP  0  0  0  0  0  0  0  0  0  0  0  0  # atno 17371 bound_to 10713
  139.8709  134.9533  156.4140 LP  0  0  0  0  0  0  0  0  0  0  0  0  # atno 17394 bound_to 11000
  140.9104  133.7716  155.9784 LP  0  0  0  0  0  0  0  0  0  0  0  0  # atno 17395 bound_to 11000

$$$$
