AV-unprocessed.smi:2884|AV-procd|sdf|11083|dock8
  -GOLD-   2272015553D 1   1.00000     0.00000
 Structure written by MMmdl.
 42 43  0  0  0  0  0  0  0  0  1 V2000
  147.8338  128.4989  152.3572 C   0  0  0  0  0  0  0  0  0  0  0  0
  146.4019  128.7059  151.8464 C   0  0  0  0  0  0  0  0  0  0  0  0
  145.8431  130.0914  152.1917 C   0  0  0  0  0  0  0  0  0  0  0  0
  146.9379  130.9807  152.3801 O   0  0  0  0  0  0  0  0  0  0  0  0
  146.7192  132.3948  152.3058 C   0  0  0  0  0  0  0  0  0  0  0  0
  148.1622  132.9580  152.3174 C   0  0  0  0  0  0  0  0  0  0  0  0
  148.9588  132.4071  153.4071 N   0  0  0  0  0  0  0  0  0  0  0  0
  149.6464  133.0527  154.4274 C   0  0  0  0  0  0  0  0  0  0  0  0
  149.6778  134.5037  154.5791 C   0  0  0  0  0  0  0  0  0  0  0  0
  150.3245  135.0939  155.5254 N   0  0  0  0  0  0  0  0  0  0  0  0
  151.0090  134.3211  156.4310 N   0  0  0  0  0  0  0  0  0  0  0  0
  151.0804  132.9695  156.4463 C   0  0  0  0  0  0  0  0  0  0  0  0
  151.7194  132.3702  157.3089 O   0  0  0  0  0  0  0  0  0  0  0  0
  150.3359  132.3293  155.3531 C   0  0  0  0  0  0  0  0  0  0  0  0
  150.3718  130.5993  155.2670 Cl  0  0  0  0  0  0  0  0  0  0  0  0
  145.9319  132.8349  151.0377 C   0  0  0  0  0  0  0  0  0  0  0  0
  145.6283  134.3437  151.0270 C   0  0  0  0  0  0  0  0  0  0  0  0
  144.8713  134.7649  152.2960 C   0  0  0  0  0  0  0  0  0  0  0  0
  145.6348  134.3590  153.5662 C   0  0  0  0  0  0  0  0  0  0  0  0
  145.9538  132.8521  153.5741 C   0  0  0  0  0  0  0  0  0  0  0  0
  151.4929  134.8485  157.1433 H   0  0  0  0  0  0  0  0  0  0  0  0
  148.2055  127.5119  152.0813 H   0  0  0  0  0  0  0  0  0  0  0  0
  147.8832  128.5795  153.4438 H   0  0  0  0  0  0  0  0  0  0  0  0
  148.5135  129.2402  151.9357 H   0  0  0  0  0  0  0  0  0  0  0  0
  146.3895  128.5750  150.7639 H   0  0  0  0  0  0  0  0  0  0  0  0
  145.7492  127.9342  152.2563 H   0  0  0  0  0  0  0  0  0  0  0  0
  145.1997  130.4283  151.3787 H   0  0  0  0  0  0  0  0  0  0  0  0
  145.2341  130.0221  153.0921 H   0  0  0  0  0  0  0  0  0  0  0  0
  148.6515  132.8060  151.3589 H   0  0  0  0  0  0  0  0  0  0  0  0
  148.1271  134.0385  152.4602 H   0  0  0  0  0  0  0  0  0  0  0  0
  149.1561  131.4215  153.3026 H   0  0  0  0  0  0  0  0  0  0  0  0
  149.1185  135.0805  153.8450 H   0  0  0  0  0  0  0  0  0  0  0  0
  146.4662  132.5532  150.1301 H   0  0  0  0  0  0  0  0  0  0  0  0
  144.9714  132.3223  150.9927 H   0  0  0  0  0  0  0  0  0  0  0  0
  146.5506  134.9165  150.9405 H   0  0  0  0  0  0  0  0  0  0  0  0
  145.0352  134.5923  150.1466 H   0  0  0  0  0  0  0  0  0  0  0  0
  144.7046  135.8424  152.2898 H   0  0  0  0  0  0  0  0  0  0  0  0
  143.8845  134.3004  152.3015 H   0  0  0  0  0  0  0  0  0  0  0  0
  146.5541  134.9395  153.6442 H   0  0  0  0  0  0  0  0  0  0  0  0
  145.0432  134.6132  154.4464 H   0  0  0  0  0  0  0  0  0  0  0  0
  145.0105  132.3141  153.6588 H   0  0  0  0  0  0  0  0  0  0  0  0
  146.5238  132.5999  154.4688 H   0  0  0  0  0  0  0  0  0  0  0  0
  1  2  1  0  0  0  0
  1 22  1  0  0  0  0
  1 23  1  0  0  0  0
  1 24  1  0  0  0  0
  2  3  1  0  0  0  0
  2 25  1  0  0  0  0
  2 26  1  0  0  0  0
  3  4  1  0  0  0  0
  3 27  1  0  0  0  0
  3 28  1  0  0  0  0
  4  5  1  0  0  0  0
  5 20  1  0  0  0  0
  5  6  1  0  0  0  0
  5 16  1  0  0  0  0
  6  7  1  0  0  0  0
  6 29  1  0  0  0  0
  6 30  1  0  0  0  0
  7  8  1  0  0  0  0
  7 31  1  0  0  0  0
  8 14  2  0  0  0  0
  8  9  1  0  0  0  0
  9 10  2  0  0  0  0
  9 32  1  0  0  0  0
 10 11  1  0  0  0  0
 11 21  1  0  0  0  0
 11 12  1  0  0  0  0
 12 13  2  0  0  0  0
 12 14  1  0  0  0  0
 14 15  1  0  0  0  0
 16 17  1  0  0  0  0
 16 33  1  0  0  0  0
 16 34  1  0  0  0  0
 17 18  1  0  0  0  0
 17 35  1  0  0  0  0
 17 36  1  0  0  0  0
 18 19  1  0  0  0  0
 18 37  1  0  0  0  0
 18 38  1  0  0  0  0
 19 20  1  0  0  0  0
 19 39  1  0  0  0  0
 19 40  1  0  0  0  0
 20 41  1  0  0  0  0
 20 42  1  0  0  0  0
M  END
> <s_m_source_file>
AV-unprocessed.smi

> <i_m_source_file_index>
2884

> <i_lp_mmshare_version>
43012

> <i_f3d_flags>
0

> <s_epik_input>
W0NIMl0xW0NIMl1bQ0gyXVtDSDJdW0NIMl1DMShPW0NIMl1bQ0gyXVtDSDNdKVtDSDJdW05IXWMyW2NIXW5bbkhdYyg9TyljMkNs

> <s_epik_cmdline>
J2VwaWtfcHl0aG9uJywgJy1waCcsICc3LjAnLCAnLXRuJywgJzgnLCAnLW1hJywgJzIwMCcsICctbWV0YWxfYmluZGluZycsICctaW1hZScsICc8aW5maWxlLm1hZT4nLCAnLW9tYWUnLCAnPG91dGZpbGUubWFlPic=

> <r_lp_tautomer_probability>
0.986175

> <r_epik_Ionization_Penalty>
0.00111508

> <r_epik_Ionization_Penalty_Charging>
0.00108742

> <r_epik_Ionization_Penalty_Neutral>
2.7657e-05

> <r_epik_State_Penalty>
0.00620319

> <r_epik_Charging_Adjusted_Penalty>
0.00729061

> <i_epik_Tot_Q>
0

> <i_epik_Tot_abs_Q>
0

> <r_epik_Metal_State_Penalty>
0.300009

> <b_epik_Metal_Only>
0

> <s_lp_Force_Field>
OPLS_2005

> <r_lp_Energy>
35.8934

> <b_lp_Chiralities_Consistent>
1

> <s_lp_Variant>
AV-unprocessed.smi:2884-1

> <Gold.Version>
5.8.1

> <Gold.Id.Protein>
6NUR|6NUR_protein|mol2

> <Gold.PLP.Fitness>
37.5415

> <Gold.PLP.PLP>
-32.4562

> <Gold.PLP.part.hbond>
-1.0000

> <Gold.PLP.part.metal>
0.0000

> <Gold.PLP.part.buried>
-4.3156

> <Gold.PLP.part.nonpolar>
-28.2276

> <Gold.PLP.part.repulsive>
1.7087

> <Gold.PLP.ligand.clash>
0.0000

> <Gold.PLP.ligand.torsion>
0.4703

> <Gold.PLP.Chemscore.Hbond>
1.0000

> <Gold.PLP.Chemscore.CHOScore>
1.0000

> <Gold.PLP.Chemscore.Metal>
0.0000

> <Gold.Chemscore.Hbonds>
donor molecule, donor type, donor heavy atom, donor atom, acceptor molecule, acceptor atom, score
      P1  H  6896  6909       L1    13  0.70
      L1  C     9    32       P1  7948  1.00

> <Gold.PLP.Chemscore.Internal.Correction>
0.0259

> <Gold.Rescore>
     Score         DG    S(hbond)    S(metal)    S(lipo)     H(rot)  DE(clash)    DE(int)     intcor
     13.18     -14.12       0.98        0.00      84.37       1.77       0.58       0.36       ----

> <Gold.Chemscore.Fitness>
13.1798

> <Gold.Chemscore.DG>
-14.1186

> <Gold.Chemscore.ZeroCoef>
-5.4800

> <Gold.Chemscore.Hbond>
0.9847

> <Gold.Chemscore.Metal>
0.0000

> <Gold.Chemscore.Lipo>
84.3707

> <Gold.Chemscore.Internal_Hbond>
0.0000

> <Gold.Chemscore.DEClash>
0.5808

> <Gold.Chemscore.DEInternal>
0.3580

> <Gold.Chemscore.Rot>
1.7663

> <Gold.Chemscore.Internal.Correction>
   9.000000E+99

> <Gold.Chemscore.Hbonds>
donor molecule, donor type, donor heavy atom, donor atom, acceptor molecule, acceptor atom, score
      P1  H  6896  6909       L1    13  0.50

> <Gold.Chemscore.Hbond.Weighted>
-3.2888

> <Gold.Chemscore.Metal.Weighted>
-0.0000

> <Gold.Chemscore.Lipo.Weighted>
-9.8714

> <Gold.Chemscore.Internal_Hbond.Weighted>
0.0000

> <Gold.Chemscore.DEClash.Weighted>
0.5808

> <Gold.Chemscore.DEInternal.Weighted>
0.3580

> <Gold.Chemscore.Rot.Weighted>
4.5216

> <Gold.Chemscore.Internal.Correction.Weighted>
   9.000000E+99

> <Gold.Protein.RotatedTorsions>
[ 6907 6896 6895 6894 ] final  -47.47 input  -60.11 | X-H torsion
[ 7974 7965 7964 7962 ] final  100.81 input  175.53 | X-H torsion
[ 8008 7997 7996 7995 ] final  -98.54 input   59.86 | X-H torsion
[ 10167 10162 10161 10158 ] final   20.11 input  -65.29 | X-H torsion
[ 10718 10713 10712 10709 ] final  -39.94 input   66.30 | X-H torsion
[ 10763 10752 10751 10750 ] final   76.69 input  -60.55 | X-H torsion
[ 11005 11000 10999 10996 ] final -158.77 input  -57.11 | X-H torsion

> <Gold.Protein.ActiveResidues>
 VAL166  LYS551  ARG553  GLY616  TRP617  ASP618  TYR619  PRO620  LYS621  CYS622 
 ASP623  PHE694  ASN695  SER759  ASP760  ASP761  ALA762  ILE779  LEU786  VAL792 
 PHE793  MET794  SER795  GLU796  ALA797  LYS798  CYS799  TRP800  GLU811  SER814 

> <Gold.Protein.RotatedAtoms>
  150.9004  134.8416  159.7355 H   0  0  0  0  0  0  0  0  0  0  0  0  # atno 6907 bound_to 6896
  152.4889  134.4511  159.9584 H   0  0  0  0  0  0  0  0  0  0  0  0  # atno 6908 bound_to 6896
  151.4563  133.3565  159.2838 H   0  0  0  0  0  0  0  0  0  0  0  0  # atno 6909 bound_to 6896
  145.3807  139.2380  143.3405 H   0  0  0  0  0  0  0  0  0  0  0  0  # atno 7974 bound_to 7965
  154.8025  140.0454  157.1283 H   0  0  0  0  0  0  0  0  0  0  0  0  # atno 8008 bound_to 7997
  154.9462  140.3059  155.5077 H   0  0  0  0  0  0  0  0  0  0  0  0  # atno 8009 bound_to 7997
  156.2963  140.2296  156.4535 H   0  0  0  0  0  0  0  0  0  0  0  0  # atno 8010 bound_to 7997
  140.5528  143.9478  150.6589 H   0  0  0  0  0  0  0  0  0  0  0  0  # atno 10167 bound_to 10162
  156.2869  130.4223  149.8279 H   0  0  0  0  0  0  0  0  0  0  0  0  # atno 10718 bound_to 10713
  153.0744  135.4942  154.8373 H   0  0  0  0  0  0  0  0  0  0  0  0  # atno 10763 bound_to 10752
  154.7067  135.3012  154.9262 H   0  0  0  0  0  0  0  0  0  0  0  0  # atno 10764 bound_to 10752
  153.9968  135.6771  153.4810 H   0  0  0  0  0  0  0  0  0  0  0  0  # atno 10765 bound_to 10752
  140.6499  134.4461  157.5235 H   0  0  0  0  0  0  0  0  0  0  0  0  # atno 11005 bound_to 11000
  146.2843  140.4473  142.8764 LP  0  0  0  0  0  0  0  0  0  0  0  0  # atno 17320 bound_to 7965
  144.8510  140.7001  143.6168 LP  0  0  0  0  0  0  0  0  0  0  0  0  # atno 17321 bound_to 7965
  140.2908  143.3325  152.1064 LP  0  0  0  0  0  0  0  0  0  0  0  0  # atno 17342 bound_to 10162
  139.5035  144.6756  151.6136 LP  0  0  0  0  0  0  0  0  0  0  0  0  # atno 17343 bound_to 10162
  156.5706  130.8423  151.3355 LP  0  0  0  0  0  0  0  0  0  0  0  0  # atno 17370 bound_to 10713
  157.7331  130.9725  150.1961 LP  0  0  0  0  0  0  0  0  0  0  0  0  # atno 17371 bound_to 10713
  139.9049  134.8471  156.1744 LP  0  0  0  0  0  0  0  0  0  0  0  0  # atno 17394 bound_to 11000
  141.0544  133.6872  156.1833 LP  0  0  0  0  0  0  0  0  0  0  0  0  # atno 17395 bound_to 11000

$$$$
