AV-unprocessed.smi:1926|AV-procd|sdf|7795|dock3
  -GOLD-   22720 9533D 1   1.00000     0.00000
 Structure written by MMmdl.
 35 36  0  0  0  0  0  0  0  0  1 V2000
  151.7839  138.2739  154.5651 C   0  0  0  0  0  0  0  0  0  0  0  0
  150.4390  138.2431  154.0996 O   0  0  0  0  0  0  0  0  0  0  0  0
  149.6694  139.3837  154.2296 C   0  0  0  0  0  0  0  0  0  0  0  0
  150.2359  140.4828  154.7881 N   0  0  0  0  0  0  0  0  0  0  0  0
  149.4858  141.5957  154.9208 C   0  0  0  0  0  0  0  0  0  0  0  0
  148.1408  141.6702  154.5158 C   0  0  0  0  0  0  0  0  0  0  0  0
  147.5504  140.5315  153.9371 C   0  0  0  0  0  0  0  0  0  0  0  0
  148.3299  139.3599  153.7750 C   0  0  0  0  0  0  0  0  0  0  0  0
  147.8341  138.1492  153.2149 N   0  0  0  0  0  0  0  0  0  0  0  0
  146.5650  137.7140  153.1344 C   0  0  0  0  0  0  0  0  0  0  0  0
  145.5762  138.3156  153.5521 O   0  0  0  0  0  0  0  0  0  0  0  0
  146.5016  136.5274  152.5136 N   0  0  0  0  0  0  0  0  0  0  0  0
  145.2810  135.7709  152.2509 C   0  0  0  0  0  0  0  0  0  0  0  0
  145.4479  134.8022  151.0649 C   0  0  1  0  0  0  0  0  0  0  0  0
  146.5183  133.7518  151.2796 C   0  0  0  0  0  0  0  0  0  0  0  0
  146.1579  132.7095  150.2247 C   0  0  0  0  0  0  0  0  0  0  0  0
  144.7445  132.7887  150.0638 O   0  0  0  0  0  0  0  0  0  0  0  0
  144.2355  133.9173  150.7683 C   0  0  0  0  0  0  0  0  0  0  0  0
  152.2474  137.3029  154.3924 H   0  0  0  0  0  0  0  0  0  0  0  0
  151.8314  138.4764  155.6360 H   0  0  0  0  0  0  0  0  0  0  0  0
  152.3737  139.0209  154.0318 H   0  0  0  0  0  0  0  0  0  0  0  0
  149.9704  142.4504  155.3691 H   0  0  0  0  0  0  0  0  0  0  0  0
  147.5732  142.5793  154.6497 H   0  0  0  0  0  0  0  0  0  0  0  0
  146.5135  140.5785  153.6444 H   0  0  0  0  0  0  0  0  0  0  0  0
  148.5279  137.5740  152.7597 H   0  0  0  0  0  0  0  0  0  0  0  0
  147.3664  136.1125  152.1991 H   0  0  0  0  0  0  0  0  0  0  0  0
  145.0479  135.2030  153.1518 H   0  0  0  0  0  0  0  0  0  0  0  0
  144.4347  136.4403  152.0870 H   0  0  0  0  0  0  0  0  0  0  0  0
  145.6977  135.3686  150.1658 H   0  0  0  0  0  0  0  0  0  0  0  0
  147.5305  134.1400  151.1630 H   0  0  0  0  0  0  0  0  0  0  0  0
  146.4319  133.3179  152.2770 H   0  0  0  0  0  0  0  0  0  0  0  0
  146.6283  132.9542  149.2717 H   0  0  0  0  0  0  0  0  0  0  0  0
  146.4716  131.7046  150.5087 H   0  0  0  0  0  0  0  0  0  0  0  0
  143.7792  133.5651  151.6945 H   0  0  0  0  0  0  0  0  0  0  0  0
  143.4696  134.4344  150.1900 H   0  0  0  0  0  0  0  0  0  0  0  0
  1  2  1  0  0  0  0
  1 19  1  0  0  0  0
  1 20  1  0  0  0  0
  1 21  1  0  0  0  0
  2  3  1  0  0  0  0
  3  8  1  0  0  0  0
  3  4  2  0  0  0  0
  4  5  1  0  0  0  0
  5  6  2  0  0  0  0
  5 22  1  0  0  0  0
  6  7  1  0  0  0  0
  6 23  1  0  0  0  0
  7  8  2  0  0  0  0
  7 24  1  0  0  0  0
  8  9  1  0  0  0  0
  9 10  1  0  0  0  0
  9 25  1  0  0  0  0
 10 11  2  0  0  0  0
 10 12  1  0  0  0  0
 12 13  1  0  0  0  0
 12 26  1  0  0  0  0
 13 14  1  0  0  0  0
 13 27  1  0  0  0  0
 13 28  1  0  0  0  0
 14 18  1  0  0  0  0
 14 15  1  0  0  0  0
 14 29  1  0  0  0  0
 15 16  1  0  0  0  0
 15 30  1  0  0  0  0
 15 31  1  0  0  0  0
 16 17  1  0  0  0  0
 16 32  1  0  0  0  0
 16 33  1  0  0  0  0
 17 18  1  0  0  0  0
 18 34  1  0  0  0  0
 18 35  1  0  0  0  0
M  END
> <s_m_source_file>
AV-unprocessed.smi

> <i_m_source_file_index>
1926

> <i_lp_mmshare_version>
43012

> <i_f3d_flags>
0

> <s_epik_input>
W0NIM11PYzFuW2NIXVtjSF1bY0hdYzFbTkhdQyg9TylbTkhdW0NIMl1bQ0BASF0yW0NIMl1bQ0gyXU9bQ0gyXTI=

> <s_epik_cmdline>
J2VwaWtfcHl0aG9uJywgJy1waCcsICc3LjAnLCAnLXRuJywgJzgnLCAnLW1hJywgJzIwMCcsICctbWV0YWxfYmluZGluZycsICctaW1hZScsICc8aW5maWxlLm1hZT4nLCAnLW9tYWUnLCAnPG91dGZpbGUubWFlPic=

> <r_lp_tautomer_probability>
1

> <r_epik_Ionization_Penalty>
9.48928e-05

> <r_epik_Ionization_Penalty_Charging>
0

> <r_epik_Ionization_Penalty_Neutral>
9.48928e-05

> <r_epik_State_Penalty>
-0

> <r_epik_Charging_Adjusted_Penalty>
0

> <i_epik_Tot_Q>
0

> <i_epik_Tot_abs_Q>
0

> <r_epik_Metal_State_Penalty>
-0

> <b_epik_Metal_Only>
0

> <s_lp_Force_Field>
OPLS_2005

> <r_lp_Energy>
22.4817

> <b_lp_Chiralities_Consistent>
1

> <s_lp_Variant>
AV-unprocessed.smi:1926-2

> <Gold.Version>
5.8.1

> <Gold.Id.Protein>
6NUR|6NUR_protein|mol2

> <Gold.PLP.Fitness>
41.7784

> <Gold.PLP.PLP>
-30.7667

> <Gold.PLP.part.hbond>
-3.1308

> <Gold.PLP.part.metal>
0.0000

> <Gold.PLP.part.buried>
-2.8148

> <Gold.PLP.part.nonpolar>
-26.4067

> <Gold.PLP.part.repulsive>
1.1618

> <Gold.PLP.ligand.clash>
0.0000

> <Gold.PLP.ligand.torsion>
0.2943

> <Gold.PLP.Chemscore.Hbond>
2.9760

> <Gold.PLP.Chemscore.CHOScore>
0.8860

> <Gold.PLP.Chemscore.Metal>
0.0000

> <Gold.Chemscore.Hbonds>
donor molecule, donor type, donor heavy atom, donor atom, acceptor molecule, acceptor atom, score
      L1  H     9    25       P1  7948  1.00
      L1  H    12    26       P1  7948  1.00
      P1  H  7989  7998       L1     4  0.98
      L1  C     5    22       P1  8028  0.89

> <Gold.PLP.Chemscore.Internal.Correction>
0.0143

> <Gold.Rescore>
     Score         DG    S(hbond)    S(metal)    S(lipo)     H(rot)  DE(clash)    DE(int)     intcor
     15.63     -17.16       2.32        0.00      66.40       1.50       0.20       1.33       ----

> <Gold.Chemscore.Fitness>
15.6337

> <Gold.Chemscore.DG>
-17.1636

> <Gold.Chemscore.ZeroCoef>
-5.4800

> <Gold.Chemscore.Hbond>
2.3194

> <Gold.Chemscore.Metal>
0.0000

> <Gold.Chemscore.Lipo>
66.4039

> <Gold.Chemscore.Internal_Hbond>
0.0000

> <Gold.Chemscore.DEClash>
0.2018

> <Gold.Chemscore.DEInternal>
1.3281

> <Gold.Chemscore.Rot>
1.4971

> <Gold.Chemscore.Internal.Correction>
   9.000000E+99

> <Gold.Chemscore.Hbonds>
donor molecule, donor type, donor heavy atom, donor atom, acceptor molecule, acceptor atom, score
      L1  H     9    25       P1  7948  0.96
      L1  H    12    26       P1  7948  0.94
      P1  H  7989  7998       L1     4  0.17

> <Gold.Chemscore.Hbond.Weighted>
-7.7470

> <Gold.Chemscore.Metal.Weighted>
-0.0000

> <Gold.Chemscore.Lipo.Weighted>
-7.7693

> <Gold.Chemscore.Internal_Hbond.Weighted>
0.0000

> <Gold.Chemscore.DEClash.Weighted>
0.2018

> <Gold.Chemscore.DEInternal.Weighted>
1.3281

> <Gold.Chemscore.Rot.Weighted>
3.8326

> <Gold.Chemscore.Internal.Correction.Weighted>
   9.000000E+99

> <Gold.Protein.RotatedTorsions>
[ 6907 6896 6895 6894 ] final  144.94 input  -60.11 | X-H torsion
[ 7974 7965 7964 7962 ] final   18.50 input  175.53 | X-H torsion
[ 8008 7997 7996 7995 ] final  115.00 input   59.86 | X-H torsion
[ 10167 10162 10161 10158 ] final  -49.57 input  -65.29 | X-H torsion
[ 10718 10713 10712 10709 ] final -147.70 input   66.30 | X-H torsion
[ 10763 10752 10751 10750 ] final -141.47 input  -60.55 | X-H torsion
[ 11005 11000 10999 10996 ] final -139.58 input  -57.11 | X-H torsion

> <Gold.Protein.ActiveResidues>
 VAL166  LYS551  ARG553  GLY616  TRP617  ASP618  TYR619  PRO620  LYS621  CYS622 
 ASP623  PHE694  ASN695  SER759  ASP760  ASP761  ALA762  ILE779  LEU786  VAL792 
 PHE793  MET794  SER795  GLU796  ALA797  LYS798  CYS799  TRP800  GLU811  SER814 

> <Gold.Protein.RotatedAtoms>
  152.1873  133.4748  159.4989 H   0  0  0  0  0  0  0  0  0  0  0  0  # atno 6907 bound_to 6896
  150.6945  134.1757  159.4238 H   0  0  0  0  0  0  0  0  0  0  0  0  # atno 6908 bound_to 6896
  151.9671  135.0095  160.0601 H   0  0  0  0  0  0  0  0  0  0  0  0  # atno 6909 bound_to 6896
  146.2182  139.8447  142.8634 H   0  0  0  0  0  0  0  0  0  0  0  0  # atno 7974 bound_to 7965
  156.2355  140.2947  156.0301 H   0  0  0  0  0  0  0  0  0  0  0  0  # atno 8008 bound_to 7997
  155.2104  140.0412  157.2949 H   0  0  0  0  0  0  0  0  0  0  0  0  # atno 8009 bound_to 7997
  154.6071  140.2442  155.7724 H   0  0  0  0  0  0  0  0  0  0  0  0  # atno 8010 bound_to 7997
  140.6679  143.2692  151.4234 H   0  0  0  0  0  0  0  0  0  0  0  0  # atno 10167 bound_to 10162
  156.4108  130.7980  151.2198 H   0  0  0  0  0  0  0  0  0  0  0  0  # atno 10718 bound_to 10713
  154.8544  135.3523  154.5874 H   0  0  0  0  0  0  0  0  0  0  0  0  # atno 10763 bound_to 10752
  153.6484  135.6995  153.5222 H   0  0  0  0  0  0  0  0  0  0  0  0  # atno 10764 bound_to 10752
  153.2914  135.4233  155.1128 H   0  0  0  0  0  0  0  0  0  0  0  0  # atno 10765 bound_to 10752
  140.8506  134.2291  157.4762 H   0  0  0  0  0  0  0  0  0  0  0  0  # atno 11005 bound_to 11000
  145.2862  141.0154  143.3689 LP  0  0  0  0  0  0  0  0  0  0  0  0  # atno 17320 bound_to 7965
  144.9112  139.4526  143.6586 LP  0  0  0  0  0  0  0  0  0  0  0  0  # atno 17321 bound_to 7965
  139.5935  144.1448  152.2116 LP  0  0  0  0  0  0  0  0  0  0  0  0  # atno 17342 bound_to 10162
  140.0810  144.5700  150.7122 LP  0  0  0  0  0  0  0  0  0  0  0  0  # atno 17343 bound_to 10162
  157.7507  131.0258  150.3935 LP  0  0  0  0  0  0  0  0  0  0  0  0  # atno 17370 bound_to 10713
  156.4233  130.3957  149.6810 LP  0  0  0  0  0  0  0  0  0  0  0  0  # atno 17371 bound_to 10713
  139.8704  134.9681  156.4620 LP  0  0  0  0  0  0  0  0  0  0  0  0  # atno 17394 bound_to 11000
  140.8794  133.7929  155.9450 LP  0  0  0  0  0  0  0  0  0  0  0  0  # atno 17395 bound_to 11000

$$$$
