#       Name:                AV-unprocessed.smi:2570
#       Creating user name   scv26
#       Creation time:       Fri Mar 27 14:12:19 2020


#       File generated by GOLD software.
#

@<TRIPOS>MOLECULE
AV-unprocessed.smi:2570
    39    40     1
SMALL
NO_CHARGES


@<TRIPOS>ATOM
      1 ****        -3.5061   3.1232  -0.9807 C.3            1 S1                 0.0000
      2 ****        -4.2093   1.8854  -0.8918 O.3            1 S1                 0.0000
      3 ****        -3.4429   0.7382  -0.7796 C.2            1 S1                 0.0000
      4 ****        -4.1212  -0.5376  -0.6871 C.2            1 S1                 0.0000
      5 ****        -3.3850  -1.6647  -0.5793 C.2            1 S1                 0.0000
      6 ****        -1.9230  -1.6300  -0.5531 C.2            1 S1                 0.0000
      7 ****        -1.2260  -2.6399  -0.4554 O.2            1 S1                 0.0000
      8 ****        -1.3997  -0.3710  -0.6440 N.am           1 S1                 0.0000
      9 ****         0.0505  -0.1436  -0.6312 C.3            1 S1                 0.0000
     10 ****         0.6484  -0.2320   0.7907 C.3            1 S1                 0.0000
     11 ****         0.2947   0.9305   1.5145 O.3            1 S1                 0.0000
     12 ****         2.1588  -0.4259   0.7440 C.ar           1 S1                 0.0000
     13 ****         2.7089  -1.6723   1.1154 C.ar           1 S1                 0.0000
     14 ****         4.1013  -1.8782   1.0745 C.ar           1 S1                 0.0000
     15 ****         4.9553  -0.8389   0.6604 C.ar           1 S1                 0.0000
     16 ****         6.2943  -1.0362   0.6225 F              1 S1                 0.0000
     17 ****         4.4150   0.4051   0.2836 C.ar           1 S1                 0.0000
     18 ****         3.0223   0.6133   0.3218 C.ar           1 S1                 0.0000
     19 ****         2.5236   1.8158  -0.0537 F              1 S1                 0.0000
     20 ****        -2.1484   0.7875  -0.7576 N.2            1 S1                 0.0000
     21 ****        -4.2261   3.9367  -1.0676 H              1 S1                 0.0000
     22 ****        -2.8629   3.1630  -1.8617 H              1 S1                 0.0000
     23 ****        -2.9050   3.3140  -0.0899 H              1 S1                 0.0000
     24 ****        -5.2004  -0.5756  -0.7061 H              1 S1                 0.0000
     25 ****        -3.8873  -2.6184  -0.5103 H              1 S1                 0.0000
     26 ****         0.5175  -0.8972  -1.2682 H              1 S1                 0.0000
     27 ****         0.3012   0.8124  -1.0952 H              1 S1                 0.0000
     28 ****         0.2172  -1.0813   1.3217 H              1 S1                 0.0000
     29 ****         0.5878   0.8287   2.4071 H              1 S1                 0.0000
     30 ****         2.0640  -2.4788   1.4324 H              1 S1                 0.0000
     31 ****         4.5139  -2.8346   1.3605 H              1 S1                 0.0000
     32 ****         5.0700   1.2015  -0.0377 H              1 S1                 0.0000
     33 ****        -4.7691   1.7958  -1.7156 LP             1 S1                 0.0000
     34 ****        -4.8033   1.9321  -0.0886 LP             1 S1                 0.0000
     35 ****        -1.6565  -3.5400  -0.3892 LP             1 S1                 0.0000
     36 ****        -0.2293  -2.5601  -0.4422 LP             1 S1                 0.0000
     37 ****        -0.6980   1.0498   1.4970 LP             1 S1                 0.0000
     38 ****         0.7337   1.7299   1.1044 LP             1 S1                 0.0000
     39 ****        -1.6856   1.6715  -0.8233 LP             1 S1                 0.0000
@<TRIPOS>BOND
    1    1    2 1     
    2    1   21 1     
    3    1   22 1     
    4    1   23 1     
    5    2    3 1     
    6    3   20 2     
    7    3    4 1     
    8    4    5 2     
    9    4   24 1     
   10    5    6 1     
   11    5   25 1     
   12    6    7 2     
   13    6    8 am    
   14    8    9 1     
   15    8   20 1     
   16    9   10 1     
   17    9   26 1     
   18    9   27 1     
   19   10   11 1     
   20   10   12 1     
   21   10   28 1     
   22   11   29 1     
   23   12   18 ar    
   24   12   13 ar    
   25   13   14 ar    
   26   13   30 1     
   27   14   15 ar    
   28   14   31 1     
   29   15   16 1     
   30   15   17 ar    
   31   17   18 ar    
   32   17   32 1     
   33   18   19 1     
   34    2   33 1     
   35    2   34 1     
   36    7   35 1     
   37    7   36 1     
   38   11   37 1     
   39   11   38 1     
   40   20   39 1     
@<TRIPOS>SUBSTRUCTURE
      1 S1             1
@<TRIPOS>SET
LONE_PAIRS      STATIC     ATOMS    <user>   **** ""
7 33 34 35 36 37 38 39
DONOR_HYDROGENS      STATIC     ATOMS    <user>   **** ""
1 29
ATOM$BLUE        STATIC     ATOMS    COLORGROUP SYSTEM
7 33 34 35 36 37 38 39
ATOM$RED        STATIC     ATOMS    COLORGROUP SYSTEM
1 29
