AV-unprocessed.smi:3055|AV-procd|sdf|11642|dock3
  -GOLD-   2272017 33D 1   1.00000     0.00000
 Structure written by MMmdl.
 48 50  0  0  0  0  0  0  0  0  3 V2000
  150.2646  139.7895  157.1807 O   0  0  0  0  0  0  0  0  0  0  0  0
  149.6497  140.7477  156.7111 C   0  0  0  0  0  0  0  0  0  0  0  0
  150.0914  142.0088  156.8395 N   0  0  0  0  0  0  0  0  0  0  0  0
  151.3228  142.3900  157.5195 C   0  0  0  0  0  0  0  0  0  0  0  0
  151.2131  143.7981  158.1246 C   0  0  0  0  0  0  0  0  0  0  0  0
  151.6172  143.8354  159.5335 N   0  0  0  0  0  0  0  0  0  0  0  0
  152.2077  142.8287  160.2533 C   0  0  0  0  0  0  0  0  0  0  0  0
  152.4036  143.3166  161.5196 C   0  0  0  0  0  0  0  0  0  0  0  0
  151.9261  144.6000  161.5189 N   0  3  0  0  0  0  0  0  0  0  0  0
  151.4493  144.9141  160.3098 C   0  0  0  0  0  0  0  0  0  0  0  0
  148.4716  140.6223  156.0489 N   0  0  0  0  0  0  0  0  0  0  0  0
  147.7556  141.6939  155.3388 C   0  0  0  0  0  0  0  0  0  0  0  0
  147.9924  141.5143  153.8300 C   0  0  0  0  0  0  0  0  0  0  0  0
  147.5657  140.1078  153.3652 C   0  0  0  0  0  0  0  0  0  0  0  0
  148.1758  138.9830  154.2434 C   0  0  2  0  0  0  0  0  0  0  0  0
  147.6459  137.6404  153.8744 N   0  3  0  0  0  0  0  0  0  0  0  0
  147.9572  136.5499  154.8244 C   0  0  0  0  0  0  0  0  0  0  0  0
  146.9159  135.4719  154.5479 C   0  0  0  0  0  0  0  0  0  0  0  0
  145.6618  136.2824  154.2453 C   0  0  0  0  0  0  0  0  0  0  0  0
  146.1816  137.5882  153.6290 C   0  0  0  0  0  0  0  0  0  0  0  0
  147.9011  139.3067  155.7334 C   0  0  0  0  0  0  0  0  0  0  0  0
  149.5394  142.7494  156.4330 H   0  0  0  0  0  0  0  0  0  0  0  0
  151.5588  141.6609  158.2965 H   0  0  0  0  0  0  0  0  0  0  0  0
  152.1437  142.3659  156.8015 H   0  0  0  0  0  0  0  0  0  0  0  0
  151.8603  144.4889  157.5828 H   0  0  0  0  0  0  0  0  0  0  0  0
  150.1958  144.1830  158.0385 H   0  0  0  0  0  0  0  0  0  0  0  0
  152.4375  141.8650  159.8221 H   0  0  0  0  0  0  0  0  0  0  0  0
  152.8363  142.8588  162.3972 H   0  0  0  0  0  0  0  0  0  0  0  0
  151.0138  145.8539  160.0200 H   0  0  0  0  0  0  0  0  0  0  0  0
  146.6894  141.6227  155.5597 H   0  0  0  0  0  0  0  0  0  0  0  0
  148.0444  142.6994  155.6447 H   0  0  0  0  0  0  0  0  0  0  0  0
  147.4450  142.2735  153.2708 H   0  0  0  0  0  0  0  0  0  0  0  0
  149.0493  141.6675  153.6069 H   0  0  0  0  0  0  0  0  0  0  0  0
  146.4771  140.0420  153.4005 H   0  0  0  0  0  0  0  0  0  0  0  0
  147.8482  139.9842  152.3197 H   0  0  0  0  0  0  0  0  0  0  0  0
  149.2555  138.9703  154.0814 H   0  0  0  0  0  0  0  0  0  0  0  0
  148.9750  136.1786  154.7011 H   0  0  0  0  0  0  0  0  0  0  0  0
  147.8469  136.9102  155.8487 H   0  0  0  0  0  0  0  0  0  0  0  0
  147.2051  134.8906  153.6713 H   0  0  0  0  0  0  0  0  0  0  0  0
  146.7854  134.7831  155.3832 H   0  0  0  0  0  0  0  0  0  0  0  0
  144.9697  135.7535  153.5897 H   0  0  0  0  0  0  0  0  0  0  0  0
  145.1352  136.5012  155.1754 H   0  0  0  0  0  0  0  0  0  0  0  0
  145.6618  138.4378  154.0742 H   0  0  0  0  0  0  0  0  0  0  0  0
  146.0013  137.6163  152.5539 H   0  0  0  0  0  0  0  0  0  0  0  0
  148.2957  138.5323  156.3917 H   0  0  0  0  0  0  0  0  0  0  0  0
  146.8267  139.3223  155.9225 H   0  0  0  0  0  0  0  0  0  0  0  0
  148.0829  137.3777  153.0024 H   0  0  0  0  0  0  0  0  0  0  0  0
  151.9346  145.2240  162.3160 H   0  0  0  0  0  0  0  0  0  0  0  0
  1  2  2  0  0  0  0
  2  3  1  0  0  0  0
  2 11  1  0  0  0  0
  3  4  1  0  0  0  0
  3 22  1  0  0  0  0
  4  5  1  0  0  0  0
  4 23  1  0  0  0  0
  4 24  1  0  0  0  0
  5  6  1  0  0  0  0
  5 25  1  0  0  0  0
  5 26  1  0  0  0  0
  6 10  1  0  0  0  0
  6  7  1  0  0  0  0
  7  8  2  0  0  0  0
  7 27  1  0  0  0  0
  8  9  1  0  0  0  0
  8 28  1  0  0  0  0
  9 10  2  0  0  0  0
  9 48  1  0  0  0  0
 10 29  1  0  0  0  0
 11 21  1  0  0  0  0
 11 12  1  0  0  0  0
 12 13  1  0  0  0  0
 12 30  1  0  0  0  0
 12 31  1  0  0  0  0
 13 14  1  0  0  0  0
 13 32  1  0  0  0  0
 13 33  1  0  0  0  0
 14 15  1  0  0  0  0
 14 34  1  0  0  0  0
 14 35  1  0  0  0  0
 15 16  1  0  0  0  0
 15 21  1  0  0  0  0
 15 36  1  0  0  0  0
 16 20  1  0  0  0  0
 16 17  1  0  0  0  0
 16 47  1  0  0  0  0
 17 18  1  0  0  0  0
 17 37  1  0  0  0  0
 17 38  1  0  0  0  0
 18 19  1  0  0  0  0
 18 39  1  0  0  0  0
 18 40  1  0  0  0  0
 19 20  1  0  0  0  0
 19 41  1  0  0  0  0
 19 42  1  0  0  0  0
 20 43  1  0  0  0  0
 20 44  1  0  0  0  0
 21 45  1  0  0  0  0
 21 46  1  0  0  0  0
M  CHG  1   9   1
M  CHG  1  16   1
M  END
> <s_m_source_file>
AV-unprocessed.smi

> <i_m_source_file_index>
3055

> <i_lp_mmshare_version>
43012

> <i_f3d_flags>
0

> <s_epik_input>
W2NIXTFuW2NIXVtjSF1uMVtDSDJdW0NIMl1bTkhdQyg9TylOMltDSDJdW0NIMl1bQ0gyXVtDQEhdKFtDSDJdMilOM1tDSDJdW0NIMl1bQ0gyXVtDSDJdMw==

> <s_epik_cmdline>
J2VwaWtfcHl0aG9uJywgJy1waCcsICc3LjAnLCAnLXRuJywgJzgnLCAnLW1hJywgJzIwMCcsICctbWV0YWxfYmluZGluZycsICctaW1hZScsICc8aW5maWxlLm1hZT4nLCAnLW9tYWUnLCAnPG91dGZpbGUubWFlPic=

> <r_lp_tautomer_probability>
1

> <r_epik_Ionization_Penalty>
0.259176

> <r_epik_Ionization_Penalty_Charging>
0.00125522

> <r_epik_Ionization_Penalty_Neutral>
0.257921

> <r_epik_State_Penalty>
0.249312

> <r_epik_Charging_Adjusted_Penalty>
0.250567

> <i_epik_Tot_Q>
2

> <i_epik_Tot_abs_Q>
2

> <r_epik_Metal_State_Penalty>
0.53666

> <b_epik_Metal_Only>
0

> <s_lp_Force_Field>
OPLS_2005

> <r_lp_Energy>
60.4865

> <b_lp_Chiralities_Consistent>
1

> <s_lp_Variant>
AV-unprocessed.smi:3055-2

> <Gold.Version>
5.8.1

> <Gold.Id.Protein>
6NUR|6NUR_protein|mol2

> <Gold.PLP.Fitness>
43.4321

> <Gold.PLP.PLP>
-36.0843

> <Gold.PLP.part.hbond>
-3.0000

> <Gold.PLP.part.metal>
0.0000

> <Gold.PLP.part.buried>
-2.6063

> <Gold.PLP.part.nonpolar>
-29.6375

> <Gold.PLP.part.repulsive>
0.1219

> <Gold.PLP.ligand.clash>
0.0000

> <Gold.PLP.ligand.torsion>
0.8643

> <Gold.PLP.Chemscore.Hbond>
3.0000

> <Gold.PLP.Chemscore.CHOScore>
0.0000

> <Gold.PLP.Chemscore.Metal>
0.0000

> <Gold.Chemscore.Hbonds>
donor molecule, donor type, donor heavy atom, donor atom, acceptor molecule, acceptor atom, score
      L1  H     3    22       P1  8028  0.54
      L1  H    16    47       P1  7948  2.00

> <Gold.PLP.Chemscore.Internal.Correction>
0.0764

> <Gold.Rescore>
     Score         DG    S(hbond)    S(metal)    S(lipo)     H(rot)  DE(clash)    DE(int)     intcor
     15.49     -16.31       1.97        0.00      77.20       1.87       0.11       0.71       ----

> <Gold.Chemscore.Fitness>
15.4875

> <Gold.Chemscore.DG>
-16.3055

> <Gold.Chemscore.ZeroCoef>
-5.4800

> <Gold.Chemscore.Hbond>
1.9727

> <Gold.Chemscore.Metal>
0.0000

> <Gold.Chemscore.Lipo>
77.1975

> <Gold.Chemscore.Internal_Hbond>
0.0000

> <Gold.Chemscore.DEClash>
0.1067

> <Gold.Chemscore.DEInternal>
0.7113

> <Gold.Chemscore.Rot>
1.8732

> <Gold.Chemscore.Internal.Correction>
   9.000000E+99

> <Gold.Chemscore.Hbonds>
donor molecule, donor type, donor heavy atom, donor atom, acceptor molecule, acceptor atom, score
      L1  H     3    22       P1  8028  0.54
      L1  H    16    47       P1  7948  0.98

> <Gold.Chemscore.Hbond.Weighted>
-6.5889

> <Gold.Chemscore.Metal.Weighted>
-0.0000

> <Gold.Chemscore.Lipo.Weighted>
-9.0321

> <Gold.Chemscore.Internal_Hbond.Weighted>
0.0000

> <Gold.Chemscore.DEClash.Weighted>
0.1067

> <Gold.Chemscore.DEInternal.Weighted>
0.7113

> <Gold.Chemscore.Rot.Weighted>
4.7954

> <Gold.Chemscore.Internal.Correction.Weighted>
   9.000000E+99

> <Gold.Protein.RotatedTorsions>
[ 6907 6896 6895 6894 ] final   23.87 input  -60.11 | X-H torsion
[ 7974 7965 7964 7962 ] final  -28.04 input  175.53 | X-H torsion
[ 8008 7997 7996 7995 ] final -171.17 input   59.86 | X-H torsion
[ 10167 10162 10161 10158 ] final  157.94 input  -65.29 | X-H torsion
[ 10718 10713 10712 10709 ] final  101.94 input   66.30 | X-H torsion
[ 10763 10752 10751 10750 ] final  119.69 input  -60.55 | X-H torsion
[ 11005 11000 10999 10996 ] final -102.50 input  -57.11 | X-H torsion

> <Gold.Protein.ActiveResidues>
 VAL166  LYS551  ARG553  GLY616  TRP617  ASP618  TYR619  PRO620  LYS621  CYS622 
 ASP623  PHE694  ASN695  SER759  ASP760  ASP761  ALA762  ILE779  LEU786  VAL792 
 PHE793  MET794  SER795  GLU796  ALA797  LYS798  CYS799  TRP800  GLU811  SER814 

> <Gold.Protein.RotatedAtoms>
  151.9489  135.0178  160.0540 H   0  0  0  0  0  0  0  0  0  0  0  0  # atno 6907 bound_to 6896
  152.1971  133.4809  159.5047 H   0  0  0  0  0  0  0  0  0  0  0  0  # atno 6908 bound_to 6896
  150.6947  134.1555  159.4199 H   0  0  0  0  0  0  0  0  0  0  0  0  # atno 6909 bound_to 6896
  146.1316  140.5230  142.8691 H   0  0  0  0  0  0  0  0  0  0  0  0  # atno 7974 bound_to 7965
  155.9280  140.1086  157.1155 H   0  0  0  0  0  0  0  0  0  0  0  0  # atno 8008 bound_to 7997
  154.4065  140.1243  156.4831 H   0  0  0  0  0  0  0  0  0  0  0  0  # atno 8009 bound_to 7997
  155.7115  140.3471  155.4978 H   0  0  0  0  0  0  0  0  0  0  0  0  # atno 8010 bound_to 7997
  139.4825  144.4871  151.8361 H   0  0  0  0  0  0  0  0  0  0  0  0  # atno 10167 bound_to 10162
  157.6816  131.0740  150.5329 H   0  0  0  0  0  0  0  0  0  0  0  0  # atno 10718 bound_to 10713
  153.5869  135.3473  155.2896 H   0  0  0  0  0  0  0  0  0  0  0  0  # atno 10763 bound_to 10752
  154.8659  135.4195  154.2559 H   0  0  0  0  0  0  0  0  0  0  0  0  # atno 10764 bound_to 10752
  153.3357  135.7047  153.6980 H   0  0  0  0  0  0  0  0  0  0  0  0  # atno 10765 bound_to 10752
  141.1186  133.8564  157.1368 H   0  0  0  0  0  0  0  0  0  0  0  0  # atno 11005 bound_to 11000
  144.7696  140.5609  143.6679 LP  0  0  0  0  0  0  0  0  0  0  0  0  # atno 17320 bound_to 7965
  145.5248  139.1476  143.3532 LP  0  0  0  0  0  0  0  0  0  0  0  0  # atno 17321 bound_to 7965
  140.4352  144.2061  150.5889 LP  0  0  0  0  0  0  0  0  0  0  0  0  # atno 17342 bound_to 10162
  140.4739  143.2403  151.9050 LP  0  0  0  0  0  0  0  0  0  0  0  0  # atno 17343 bound_to 10162
  156.5638  130.4262  149.6050 LP  0  0  0  0  0  0  0  0  0  0  0  0  # atno 17370 bound_to 10713
  156.2798  130.7064  151.1885 LP  0  0  0  0  0  0  0  0  0  0  0  0  # atno 17371 bound_to 10713
  140.0126  134.9981  157.0428 LP  0  0  0  0  0  0  0  0  0  0  0  0  # atno 17394 bound_to 11000
  140.4573  134.1520  155.7187 LP  0  0  0  0  0  0  0  0  0  0  0  0  # atno 17395 bound_to 11000

$$$$
