AV-unprocessed.smi:250|AV-procd|sdf|1933|dock9
  -GOLD-   2262021 53D 1   1.00000     0.00000
 Structure written by MMmdl.
 56 60  0  0  0  0  0  0  0  0  1 V2000
  145.5090  133.7281  155.9118 C   0  0  0  0  0  0  0  0  0  0  0  0
  146.7369  134.1424  155.2450 N   0  0  0  0  0  0  0  0  0  0  0  0
  146.9041  134.2612  153.9173 C   0  0  0  0  0  0  0  0  0  0  0  0
  146.0477  134.0715  153.0557 O   0  0  0  0  0  0  0  0  0  0  0  0
  148.1724  134.6106  153.6831 N   0  0  0  0  0  0  0  0  0  0  0  0
  148.9685  134.6422  154.8914 C   0  0  1  0  0  0  0  0  0  0  0  0
  150.0271  135.7705  154.9417 C   0  0  0  0  0  0  0  0  0  0  0  0
  149.6437  136.9209  155.7606 N   0  0  0  0  0  0  0  0  0  0  0  0
  150.4995  137.9742  155.7148 C   0  0  0  0  0  0  0  0  0  0  0  0
  151.6090  137.8407  154.9423 N   0  0  0  0  0  0  0  0  0  0  0  0
  152.4926  138.8374  154.8453 C   0  0  0  0  0  0  0  0  0  0  0  0
  152.4643  140.0359  155.4287 N   0  0  0  0  0  0  0  0  0  0  0  0
  151.3573  140.1786  156.2121 C   0  0  0  0  0  0  0  0  0  0  0  0
  150.3341  139.2077  156.4147 C   0  0  0  0  0  0  0  0  0  0  0  0
  149.3859  139.7118  157.2991 N   0  0  0  0  0  0  0  0  0  0  0  0
  149.8168  140.9077  157.5910 C   0  0  0  0  0  0  0  0  0  0  0  0
  150.9865  141.2776  156.9684 N   0  0  0  0  0  0  0  0  0  0  0  0
  151.6929  142.5425  157.1178 C   0  0  0  0  0  0  0  0  0  0  0  0
  151.4431  143.3041  158.4567 C   0  0  0  0  0  0  0  0  0  0  0  0
  151.8336  142.3470  159.6188 C   0  0  0  0  0  0  0  0  0  0  0  0
  153.2234  142.0905  159.6636 O   0  0  0  0  0  0  0  0  0  0  0  0
  152.3120  144.5875  158.5301 C   0  0  0  0  0  0  0  0  0  0  0  0
  151.9658  145.4799  159.7374 C   0  0  0  0  0  0  0  0  0  0  0  0
  150.5841  145.8170  159.7156 O   0  0  0  0  0  0  0  0  0  0  0  0
  149.7319  144.6810  159.7941 C   0  0  0  0  0  0  0  0  0  0  0  0
  149.9675  143.7667  158.5782 C   0  0  0  0  0  0  0  0  0  0  0  0
  148.9339  136.6513  157.0042 C   0  0  0  0  0  0  0  0  0  0  0  0
  147.6335  135.9173  156.6877 C   0  0  0  0  0  0  0  0  0  0  0  0
  147.9080  134.5656  156.0020 C   0  0  1  0  0  0  0  0  0  0  0  0
  149.5146  133.6971  154.8777 H   0  0  0  0  0  0  0  0  0  0  0  0
  148.1900  133.8152  156.7422 H   0  0  0  0  0  0  0  0  0  0  0  0
  145.1451  132.7866  155.4987 H   0  0  0  0  0  0  0  0  0  0  0  0
  144.7336  134.4839  155.7832 H   0  0  0  0  0  0  0  0  0  0  0  0
  145.6713  133.5860  156.9806 H   0  0  0  0  0  0  0  0  0  0  0  0
  148.5631  134.7573  152.7637 H   0  0  0  0  0  0  0  0  0  0  0  0
  150.9444  135.3677  155.3728 H   0  0  0  0  0  0  0  0  0  0  0  0
  150.2810  136.0759  153.9259 H   0  0  0  0  0  0  0  0  0  0  0  0
  153.3437  138.6472  154.2083 H   0  0  0  0  0  0  0  0  0  0  0  0
  149.2867  141.5597  158.2702 H   0  0  0  0  0  0  0  0  0  0  0  0
  152.7564  142.3344  156.9947 H   0  0  0  0  0  0  0  0  0  0  0  0
  151.4173  143.1771  156.2743 H   0  0  0  0  0  0  0  0  0  0  0  0
  151.5362  142.7752  160.5766 H   0  0  0  0  0  0  0  0  0  0  0  0
  151.3289  141.3853  159.5485 H   0  0  0  0  0  0  0  0  0  0  0  0
  153.6105  142.6472  160.3221 H   0  0  0  0  0  0  0  0  0  0  0  0
  153.3715  144.3294  158.5475 H   0  0  0  0  0  0  0  0  0  0  0  0
  152.1628  145.1950  157.6382 H   0  0  0  0  0  0  0  0  0  0  0  0
  152.2235  145.0038  160.6835 H   0  0  0  0  0  0  0  0  0  0  0  0
  152.5454  146.4020  159.6908 H   0  0  0  0  0  0  0  0  0  0  0  0
  149.8883  144.1520  160.7345 H   0  0  0  0  0  0  0  0  0  0  0  0
  148.6979  145.0259  159.8016 H   0  0  0  0  0  0  0  0  0  0  0  0
  149.6800  144.3335  157.6937 H   0  0  0  0  0  0  0  0  0  0  0  0
  149.2935  142.9105  158.6171 H   0  0  0  0  0  0  0  0  0  0  0  0
  149.5600  136.0558  157.6696 H   0  0  0  0  0  0  0  0  0  0  0  0
  148.6976  137.5846  157.5167 H   0  0  0  0  0  0  0  0  0  0  0  0
  147.0582  135.7619  157.6007 H   0  0  0  0  0  0  0  0  0  0  0  0
  147.0227  136.5538  156.0446 H   0  0  0  0  0  0  0  0  0  0  0  0
  1  2  1  0  0  0  0
  1 32  1  0  0  0  0
  1 33  1  0  0  0  0
  1 34  1  0  0  0  0
  2 29  1  0  0  0  0
  2  3  1  0  0  0  0
  3  4  2  0  0  0  0
  3  5  1  0  0  0  0
  5  6  1  0  0  0  0
  5 35  1  0  0  0  0
  6 30  1  0  0  0  0
  6 29  1  0  0  0  0
  6  7  1  0  0  0  0
  7  8  1  0  0  0  0
  7 36  1  0  0  0  0
  7 37  1  0  0  0  0
  8  9  1  0  0  0  0
  8 27  1  0  0  0  0
  9 14  1  0  0  0  0
  9 10  2  0  0  0  0
 10 11  1  0  0  0  0
 11 12  2  0  0  0  0
 11 38  1  0  0  0  0
 12 13  1  0  0  0  0
 13 17  1  0  0  0  0
 13 14  2  0  0  0  0
 14 15  1  0  0  0  0
 15 16  2  0  0  0  0
 16 17  1  0  0  0  0
 16 39  1  0  0  0  0
 17 18  1  0  0  0  0
 18 19  1  0  0  0  0
 18 40  1  0  0  0  0
 18 41  1  0  0  0  0
 19 26  1  0  0  0  0
 19 20  1  0  0  0  0
 19 22  1  0  0  0  0
 20 21  1  0  0  0  0
 20 42  1  0  0  0  0
 20 43  1  0  0  0  0
 21 44  1  0  0  0  0
 22 23  1  0  0  0  0
 22 45  1  0  0  0  0
 22 46  1  0  0  0  0
 23 24  1  0  0  0  0
 23 47  1  0  0  0  0
 23 48  1  0  0  0  0
 24 25  1  0  0  0  0
 25 26  1  0  0  0  0
 25 49  1  0  0  0  0
 25 50  1  0  0  0  0
 26 51  1  0  0  0  0
 26 52  1  0  0  0  0
 27 28  1  0  0  0  0
 27 53  1  0  0  0  0
 27 54  1  0  0  0  0
 28 29  1  0  0  0  0
 28 55  1  0  0  0  0
 28 56  1  0  0  0  0
 29 31  1  0  0  0  0
M  END
> <s_m_source_file>
AV-unprocessed.smi

> <i_m_source_file_index>
250

> <i_lp_mmshare_version>
43012

> <i_f3d_flags>
0

> <s_epik_input>
Tz1DKFtOSF0xKU4oW0NIM10pW0NASF0oW0NASF0xMilbQ0gyXVtDSDJdTihbQ0gyXTIpYyhuW2NIXW4zKWMoYzM0KW5bY0hdbjRbQ0gyXUM1KFtDSDJdW09IXSlbQ0gyXVtDSDJdT1tDSDJdW0NIMl01

> <s_epik_cmdline>
J2VwaWtfcHl0aG9uJywgJy1waCcsICc3LjAnLCAnLXRuJywgJzgnLCAnLW1hJywgJzIwMCcsICctbWV0YWxfYmluZGluZycsICctaW1hZScsICc8aW5maWxlLm1hZT4nLCAnLW9tYWUnLCAnPG91dGZpbGUubWFlPic=

> <r_lp_tautomer_probability>
1

> <r_epik_Ionization_Penalty>
0.00229024

> <r_epik_Ionization_Penalty_Charging>
0

> <r_epik_Ionization_Penalty_Neutral>
0.00229024

> <r_epik_State_Penalty>
0.0013961

> <r_epik_Charging_Adjusted_Penalty>
0.0013961

> <i_epik_Tot_Q>
0

> <i_epik_Tot_abs_Q>
0

> <r_epik_Metal_State_Penalty>
-0

> <b_epik_Metal_Only>
0

> <s_lp_Force_Field>
OPLS_2005

> <r_lp_Energy>
68.1887

> <b_lp_Chiralities_Consistent>
1

> <s_lp_Variant>
AV-unprocessed.smi:250-4

> <Gold.Version>
5.8.1

> <Gold.Id.Protein>
6NUR|6NUR_protein|mol2

> <Gold.PLP.Fitness>
43.6146

> <Gold.PLP.PLP>
-39.0430

> <Gold.PLP.part.hbond>
-5.0000

> <Gold.PLP.part.metal>
0.0000

> <Gold.PLP.part.buried>
-5.3913

> <Gold.PLP.part.nonpolar>
-28.6169

> <Gold.PLP.part.repulsive>
0.4297

> <Gold.PLP.ligand.clash>
0.0000

> <Gold.PLP.ligand.torsion>
0.6582

> <Gold.PLP.Chemscore.Hbond>
1.8732

> <Gold.PLP.Chemscore.CHOScore>
0.0000

> <Gold.PLP.Chemscore.Metal>
0.0000

> <Gold.Chemscore.Hbonds>
donor molecule, donor type, donor heavy atom, donor atom, acceptor molecule, acceptor atom, score
      L1  H     5    35       P1  7948  0.69
      P1  H  7989  7998       L1    12  0.12
      P1  H  7997  8010       L1    12  0.91

> <Gold.PLP.Chemscore.Internal.Correction>
0.2683

> <Gold.Rescore>
     Score         DG    S(hbond)    S(metal)    S(lipo)     H(rot)  DE(clash)    DE(int)     intcor
     11.45     -14.23       1.39        0.00      83.58       2.22       1.04       1.74       ----

> <Gold.Chemscore.Fitness>
11.4492

> <Gold.Chemscore.DG>
-14.2261

> <Gold.Chemscore.ZeroCoef>
-5.4800

> <Gold.Chemscore.Hbond>
1.3902

> <Gold.Chemscore.Metal>
0.0000

> <Gold.Chemscore.Lipo>
83.5774

> <Gold.Chemscore.Internal_Hbond>
0.0000

> <Gold.Chemscore.DEClash>
1.0362

> <Gold.Chemscore.DEInternal>
1.7407

> <Gold.Chemscore.Rot>
2.2170

> <Gold.Chemscore.Internal.Correction>
   9.000000E+99

> <Gold.Chemscore.Hbonds>
donor molecule, donor type, donor heavy atom, donor atom, acceptor molecule, acceptor atom, score
      L1  H     5    35       P1  7948  0.17
      P1  H  7997  8010       L1    12  0.19

> <Gold.Chemscore.Hbond.Weighted>
-4.6432

> <Gold.Chemscore.Metal.Weighted>
-0.0000

> <Gold.Chemscore.Lipo.Weighted>
-9.7786

> <Gold.Chemscore.Internal_Hbond.Weighted>
0.0000

> <Gold.Chemscore.DEClash.Weighted>
1.0362

> <Gold.Chemscore.DEInternal.Weighted>
1.7407

> <Gold.Chemscore.Rot.Weighted>
5.6756

> <Gold.Chemscore.Internal.Correction.Weighted>
   9.000000E+99

> <Gold.Protein.RotatedTorsions>
[ 6907 6896 6895 6894 ] final -112.95 input  -60.11 | X-H torsion
[ 7974 7965 7964 7962 ] final  -16.36 input  175.53 | X-H torsion
[ 8008 7997 7996 7995 ] final  105.14 input   59.86 | X-H torsion
[ 10167 10162 10161 10158 ] final  -53.33 input  -65.29 | X-H torsion
[ 10718 10713 10712 10709 ] final -130.80 input   66.30 | X-H torsion
[ 10763 10752 10751 10750 ] final  -71.03 input  -60.55 | X-H torsion
[ 11005 11000 10999 10996 ] final  116.36 input  -57.11 | X-H torsion

> <Gold.Protein.ActiveResidues>
 VAL166  LYS551  ARG553  GLY616  TRP617  ASP618  TYR619  PRO620  LYS621  CYS622 
 ASP623  PHE694  ASN695  SER759  ASP760  ASP761  ALA762  ILE779  LEU786  VAL792 
 PHE793  MET794  SER795  GLU796  ALA797  LYS798  CYS799  TRP800  GLU811  SER814 

> <Gold.Protein.RotatedAtoms>
  150.7794  133.9015  159.3342 H   0  0  0  0  0  0  0  0  0  0  0  0  # atno 6907 bound_to 6896
  151.6882  135.0949  160.0238 H   0  0  0  0  0  0  0  0  0  0  0  0  # atno 6908 bound_to 6896
  152.3841  133.6548  159.6220 H   0  0  0  0  0  0  0  0  0  0  0  0  # atno 6909 bound_to 6896
  146.1991  140.3626  142.8430 H   0  0  0  0  0  0  0  0  0  0  0  0  # atno 7974 bound_to 7965
  156.1634  140.3135  155.8846 H   0  0  0  0  0  0  0  0  0  0  0  0  # atno 8008 bound_to 7997
  155.3736  140.0483  157.3062 H   0  0  0  0  0  0  0  0  0  0  0  0  # atno 8009 bound_to 7997
  154.5168  140.2184  155.9061 H   0  0  0  0  0  0  0  0  0  0  0  0  # atno 8010 bound_to 7997
  140.6490  143.2554  151.4776 H   0  0  0  0  0  0  0  0  0  0  0  0  # atno 10167 bound_to 10162
  156.2180  130.6961  151.0725 H   0  0  0  0  0  0  0  0  0  0  0  0  # atno 10718 bound_to 10713
  154.4260  135.5975  153.6039 H   0  0  0  0  0  0  0  0  0  0  0  0  # atno 10763 bound_to 10752
  152.9796  135.5963  154.3897 H   0  0  0  0  0  0  0  0  0  0  0  0  # atno 10764 bound_to 10752
  154.3729  135.2841  155.2234 H   0  0  0  0  0  0  0  0  0  0  0  0  # atno 10765 bound_to 10752
  139.9039  134.9597  156.7186 H   0  0  0  0  0  0  0  0  0  0  0  0  # atno 11005 bound_to 11000
  144.8643  140.7184  143.6087 LP  0  0  0  0  0  0  0  0  0  0  0  0  # atno 17320 bound_to 7965
  145.3545  139.1697  143.4416 LP  0  0  0  0  0  0  0  0  0  0  0  0  # atno 17321 bound_to 7965
  139.5704  144.1943  152.1827 LP  0  0  0  0  0  0  0  0  0  0  0  0  # atno 17342 bound_to 10162
  140.1237  144.5350  150.6846 LP  0  0  0  0  0  0  0  0  0  0  0  0  # atno 17343 bound_to 10162
  157.7073  131.0750  150.6622 LP  0  0  0  0  0  0  0  0  0  0  0  0  # atno 17370 bound_to 10713
  156.6684  130.4532  149.5665 LP  0  0  0  0  0  0  0  0  0  0  0  0  # atno 17371 bound_to 10713
  140.7019  133.9299  155.8029 LP  0  0  0  0  0  0  0  0  0  0  0  0  # atno 17394 bound_to 11000
  141.0365  134.0682  157.3953 LP  0  0  0  0  0  0  0  0  0  0  0  0  # atno 17395 bound_to 11000

$$$$
