AV-unprocessed.smi:1496|AV-procd|sdf|6056|dock7
  -GOLD-   22720 6173D 1   1.00000     0.00000
 Structure written by MMmdl.
 43 44  0  0  0  0  0  0  0  0  2 V2000
  149.1996  133.8016  154.0794 C   0  0  0  0  0  0  0  0  0  0  0  0
  149.6557  134.4419  155.4082 C   0  0  0  0  0  0  0  0  0  0  0  0
  150.2484  133.3496  156.3133 C   0  0  0  0  0  0  0  0  0  0  0  0
  150.6996  135.5620  155.1860 C   0  0  0  0  0  0  0  0  0  0  0  0
  150.0934  136.7596  154.5552 N   0  3  2  0  0  0  0  0  0  0  0  0
  151.0986  137.8129  154.2663 C   0  0  0  0  0  0  0  0  0  0  0  0
  151.8870  138.2388  155.5198 C   0  0  0  0  0  0  0  0  0  0  0  0
  151.5325  139.5906  155.9372 N   0  0  0  0  0  0  0  0  0  0  0  0
  152.0593  140.2294  156.9915 C   0  0  0  0  0  0  0  0  0  0  0  0
  152.9165  139.7306  157.7198 O   0  0  0  0  0  0  0  0  0  0  0  0
  151.5337  141.4594  157.1258 N   0  0  0  0  0  0  0  0  0  0  0  0
  151.7917  142.4467  158.1171 C   0  0  0  0  0  0  0  0  0  0  0  0
  152.5890  142.2467  159.2711 C   0  0  0  0  0  0  0  0  0  0  0  0
  152.7513  143.3109  160.1789 C   0  0  0  0  0  0  0  0  0  0  0  0
  152.1088  144.5336  159.9054 C   0  0  0  0  0  0  0  0  0  0  0  0
  151.3397  144.7367  158.8154 N   0  0  0  0  0  0  0  0  0  0  0  0
  151.1890  143.7120  157.9495 C   0  0  0  0  0  0  0  0  0  0  0  0
  148.9458  137.2373  155.3622 C   0  0  0  0  0  0  0  0  0  0  0  0
  147.9202  136.1099  155.5472 C   0  0  0  0  0  0  0  0  0  0  0  0
  148.5432  134.9713  156.1339 O   0  0  0  0  0  0  0  0  0  0  0  0
  150.0290  133.2934  153.5866 H   0  0  0  0  0  0  0  0  0  0  0  0
  148.8135  134.5351  153.3723 H   0  0  0  0  0  0  0  0  0  0  0  0
  148.4165  133.0621  154.2489 H   0  0  0  0  0  0  0  0  0  0  0  0
  151.1264  132.8898  155.8585 H   0  0  0  0  0  0  0  0  0  0  0  0
  149.5228  132.5584  156.5053 H   0  0  0  0  0  0  0  0  0  0  0  0
  150.5511  133.7556  157.2791 H   0  0  0  0  0  0  0  0  0  0  0  0
  151.1407  135.8584  156.1394 H   0  0  0  0  0  0  0  0  0  0  0  0
  151.5160  135.1870  154.5670 H   0  0  0  0  0  0  0  0  0  0  0  0
  151.7752  137.4739  153.4802 H   0  0  0  0  0  0  0  0  0  0  0  0
  150.5814  138.6883  153.8708 H   0  0  0  0  0  0  0  0  0  0  0  0
  151.7146  137.5376  156.3382 H   0  0  0  0  0  0  0  0  0  0  0  0
  152.9589  138.2327  155.3257 H   0  0  0  0  0  0  0  0  0  0  0  0
  150.8357  140.0720  155.3873 H   0  0  0  0  0  0  0  0  0  0  0  0
  150.8769  141.7363  156.4108 H   0  0  0  0  0  0  0  0  0  0  0  0
  153.0710  141.3075  159.4894 H   0  0  0  0  0  0  0  0  0  0  0  0
  153.3534  143.1910  161.0673 H   0  0  0  0  0  0  0  0  0  0  0  0
  152.2123  145.3689  160.5822 H   0  0  0  0  0  0  0  0  0  0  0  0
  150.5644  143.9112  157.0907 H   0  0  0  0  0  0  0  0  0  0  0  0
  149.2996  137.5844  156.3343 H   0  0  0  0  0  0  0  0  0  0  0  0
  148.4589  138.0833  154.8790 H   0  0  0  0  0  0  0  0  0  0  0  0
  147.1183  136.4426  156.2066 H   0  0  0  0  0  0  0  0  0  0  0  0
  147.4494  135.8499  154.5991 H   0  0  0  0  0  0  0  0  0  0  0  0
  149.7274  136.4563  153.6638 H   0  0  0  0  0  0  0  0  0  0  0  0
  1  2  1  0  0  0  0
  1 21  1  0  0  0  0
  1 22  1  0  0  0  0
  1 23  1  0  0  0  0
  2 20  1  0  0  0  0
  2  3  1  0  0  0  0
  2  4  1  0  0  0  0
  3 24  1  0  0  0  0
  3 25  1  0  0  0  0
  3 26  1  0  0  0  0
  4  5  1  0  0  0  0
  4 27  1  0  0  0  0
  4 28  1  0  0  0  0
  5  6  1  0  0  0  0
  5 18  1  0  0  0  0
  5 43  1  0  0  0  0
  6  7  1  0  0  0  0
  6 29  1  0  0  0  0
  6 30  1  0  0  0  0
  7  8  1  0  0  0  0
  7 31  1  0  0  0  0
  7 32  1  0  0  0  0
  8  9  1  0  0  0  0
  8 33  1  0  0  0  0
  9 10  2  0  0  0  0
  9 11  1  0  0  0  0
 11 12  1  0  0  0  0
 11 34  1  0  0  0  0
 12 17  1  0  0  0  0
 12 13  2  0  0  0  0
 13 14  1  0  0  0  0
 13 35  1  0  0  0  0
 14 15  2  0  0  0  0
 14 36  1  0  0  0  0
 15 16  1  0  0  0  0
 15 37  1  0  0  0  0
 16 17  2  0  0  0  0
 17 38  1  0  0  0  0
 18 19  1  0  0  0  0
 18 39  1  0  0  0  0
 18 40  1  0  0  0  0
 19 20  1  0  0  0  0
 19 41  1  0  0  0  0
 19 42  1  0  0  0  0
M  CHG  1   5   1
M  END
> <s_m_source_file>
AV-unprocessed.smi

> <i_m_source_file_index>
1496

> <i_lp_mmshare_version>
43012

> <i_f3d_flags>
0

> <s_epik_input>
W0NIM11DMShbQ0gzXSlbQ0gyXU4oW0NIMl1bQ0gyXU8xKVtDSDJdW0NIMl1bTkhdQyg9TylbTkhdYzJbY0hdW2NIXVtjSF1uW2NIXTI=

> <s_epik_cmdline>
J2VwaWtfcHl0aG9uJywgJy1waCcsICc3LjAnLCAnLXRuJywgJzgnLCAnLW1hJywgJzIwMCcsICctbWV0YWxfYmluZGluZycsICctaW1hZScsICc8aW5maWxlLm1hZT4nLCAnLW9tYWUnLCAnPG91dGZpbGUubWFlPic=

> <r_epik_Ionization_Penalty>
0.606681

> <r_epik_Ionization_Penalty_Charging>
0.602531

> <r_epik_Ionization_Penalty_Neutral>
0.00415082

> <r_epik_State_Penalty>
0.607427

> <r_epik_Charging_Adjusted_Penalty>
1.20996

> <i_epik_Tot_Q>
1

> <i_epik_Tot_abs_Q>
1

> <r_epik_Metal_State_Penalty>
0.604583

> <b_epik_Metal_Only>
0

> <s_lp_Force_Field>
OPLS_2005

> <r_lp_Energy>
20.8776

> <b_lp_Chiralities_Consistent>
1

> <s_lp_Variant>
AV-unprocessed.smi:1496-2

> <Gold.Version>
5.8.1

> <Gold.Id.Protein>
6NUR|6NUR_protein|mol2

> <Gold.PLP.Fitness>
45.3539

> <Gold.PLP.PLP>
-34.1209

> <Gold.PLP.part.hbond>
-2.0016

> <Gold.PLP.part.metal>
0.0000

> <Gold.PLP.part.buried>
-3.8256

> <Gold.PLP.part.nonpolar>
-28.7479

> <Gold.PLP.part.repulsive>
0.4108

> <Gold.PLP.ligand.clash>
0.0000

> <Gold.PLP.ligand.torsion>
0.3903

> <Gold.PLP.Chemscore.Hbond>
3.0000

> <Gold.PLP.Chemscore.CHOScore>
1.0000

> <Gold.PLP.Chemscore.Metal>
0.0000

> <Gold.Chemscore.Hbonds>
donor molecule, donor type, donor heavy atom, donor atom, acceptor molecule, acceptor atom, score
      L1  H     5    43       P1  7948  2.00
      P1  H  7997  8008       L1    10  1.00
      L1  C    17    38       P1  8028  1.00

> <Gold.PLP.Chemscore.Internal.Correction>
0.0136

> <Gold.Rescore>
     Score         DG    S(hbond)    S(metal)    S(lipo)     H(rot)  DE(clash)    DE(int)     intcor
     17.33     -18.87       1.86        0.00      94.22       1.50       0.01       1.53       ----

> <Gold.Chemscore.Fitness>
17.3316

> <Gold.Chemscore.DG>
-18.8738

> <Gold.Chemscore.ZeroCoef>
-5.4800

> <Gold.Chemscore.Hbond>
1.8602

> <Gold.Chemscore.Metal>
0.0000

> <Gold.Chemscore.Lipo>
94.2156

> <Gold.Chemscore.Internal_Hbond>
0.0000

> <Gold.Chemscore.DEClash>
0.0147

> <Gold.Chemscore.DEInternal>
1.5276

> <Gold.Chemscore.Rot>
1.5010

> <Gold.Chemscore.Internal.Correction>
   9.000000E+99

> <Gold.Chemscore.Hbonds>
donor molecule, donor type, donor heavy atom, donor atom, acceptor molecule, acceptor atom, score
      L1  H     5    43       P1  7948  0.44
      P1  H  7997  8008       L1    10  0.78

> <Gold.Chemscore.Hbond.Weighted>
-6.2132

> <Gold.Chemscore.Metal.Weighted>
-0.0000

> <Gold.Chemscore.Lipo.Weighted>
-11.0232

> <Gold.Chemscore.Internal_Hbond.Weighted>
0.0000

> <Gold.Chemscore.DEClash.Weighted>
0.0147

> <Gold.Chemscore.DEInternal.Weighted>
1.5276

> <Gold.Chemscore.Rot.Weighted>
3.8426

> <Gold.Chemscore.Internal.Correction.Weighted>
   9.000000E+99

> <Gold.Protein.RotatedTorsions>
[ 6907 6896 6895 6894 ] final   48.81 input  -60.11 | X-H torsion
[ 7974 7965 7964 7962 ] final  -26.73 input  175.53 | X-H torsion
[ 8008 7997 7996 7995 ] final  -90.68 input   59.86 | X-H torsion
[ 10167 10162 10161 10158 ] final -146.86 input  -65.29 | X-H torsion
[ 10718 10713 10712 10709 ] final -118.25 input   66.30 | X-H torsion
[ 10763 10752 10751 10750 ] final  -22.74 input  -60.55 | X-H torsion
[ 11005 11000 10999 10996 ] final   11.39 input  -57.11 | X-H torsion

> <Gold.Protein.ActiveResidues>
 VAL166  LYS551  ARG553  GLY616  TRP617  ASP618  TYR619  PRO620  LYS621  CYS622 
 ASP623  PHE694  ASN695  SER759  ASP760  ASP761  ALA762  ILE779  LEU786  VAL792 
 PHE793  MET794  SER795  GLU796  ALA797  LYS798  CYS799  TRP800  GLU811  SER814 

> <Gold.Protein.RotatedAtoms>
  152.2838  134.7799  160.0391 H   0  0  0  0  0  0  0  0  0  0  0  0  # atno 6907 bound_to 6896
  151.8369  133.3412  159.3639 H   0  0  0  0  0  0  0  0  0  0  0  0  # atno 6908 bound_to 6896
  150.7201  134.5357  159.5767 H   0  0  0  0  0  0  0  0  0  0  0  0  # atno 6909 bound_to 6896
  146.1406  140.5058  142.8654 H   0  0  0  0  0  0  0  0  0  0  0  0  # atno 7974 bound_to 7965
  154.7015  140.0528  157.0462 H   0  0  0  0  0  0  0  0  0  0  0  0  # atno 8008 bound_to 7997
  155.0678  140.3196  155.4621 H   0  0  0  0  0  0  0  0  0  0  0  0  # atno 8009 bound_to 7997
  156.2761  140.2087  156.5806 H   0  0  0  0  0  0  0  0  0  0  0  0  # atno 8010 bound_to 7997
  139.7675  143.8287  152.2618 H   0  0  0  0  0  0  0  0  0  0  0  0  # atno 10167 bound_to 10162
  156.1092  130.6235  150.9267 H   0  0  0  0  0  0  0  0  0  0  0  0  # atno 10718 bound_to 10713
  153.6568  135.6978  153.5190 H   0  0  0  0  0  0  0  0  0  0  0  0  # atno 10763 bound_to 10752
  153.2663  135.4229  155.0943 H   0  0  0  0  0  0  0  0  0  0  0  0  # atno 10764 bound_to 10752
  154.8462  135.3567  154.6112 H   0  0  0  0  0  0  0  0  0  0  0  0  # atno 10765 bound_to 10752
  140.5038  134.0720  155.7800 H   0  0  0  0  0  0  0  0  0  0  0  0  # atno 11005 bound_to 11000
  144.7788  140.5796  143.6620 LP  0  0  0  0  0  0  0  0  0  0  0  0  # atno 17320 bound_to 7965
  145.5056  139.1481  143.3633 LP  0  0  0  0  0  0  0  0  0  0  0  0  # atno 17321 bound_to 7965
  139.8311  144.7253  150.9449 LP  0  0  0  0  0  0  0  0  0  0  0  0  # atno 17342 bound_to 10162
  140.7812  143.4069  151.1056 LP  0  0  0  0  0  0  0  0  0  0  0  0  # atno 17343 bound_to 10162
  157.6272  131.0924  150.8511 LP  0  0  0  0  0  0  0  0  0  0  0  0  # atno 17370 bound_to 10713
  156.8624  130.5118  149.5302 LP  0  0  0  0  0  0  0  0  0  0  0  0  # atno 17371 bound_to 10713
  141.1422  133.9119  157.2300 LP  0  0  0  0  0  0  0  0  0  0  0  0  # atno 17394 bound_to 11000
  139.9698  135.0131  156.9482 LP  0  0  0  0  0  0  0  0  0  0  0  0  # atno 17395 bound_to 11000

$$$$
