AV-unprocessed.smi:3148|AV-procd|sdf|11992|dock2
  -GOLD-   2272017393D 1   1.00000     0.00000
 Structure written by MMmdl.
 34 36  0  0  0  0  0  0  0  0  1 V2000
  152.1410  144.0229  161.4633 C   0  0  0  0  0  0  0  0  0  0  0  0
  151.5433  143.2504  160.4280 O   0  0  0  0  0  0  0  0  0  0  0  0
  152.2589  142.1890  159.9139 C   0  0  0  0  0  0  0  0  0  0  0  0
  153.5790  141.9638  160.3544 C   0  0  0  0  0  0  0  0  0  0  0  0
  154.2497  140.8597  159.7879 C   0  0  0  0  0  0  0  0  0  0  0  0
  155.6678  140.5071  160.1832 C   0  0  0  0  0  0  0  0  0  0  0  0
  153.6594  140.0603  158.8723 N   0  0  0  0  0  0  0  0  0  0  0  0
  152.4062  140.3601  158.5248 C   0  0  0  0  0  0  0  0  0  0  0  0
  151.8297  139.5177  157.5923 N   0  0  0  0  0  0  0  0  0  0  0  0
  151.8411  139.7559  156.1535 C   0  0  1  0  0  0  0  0  0  0  0  0
  152.5555  138.6553  155.3661 C   0  0  0  0  0  0  0  0  0  0  0  0
  151.4873  138.2629  154.3353 C   0  0  1  0  0  0  0  0  0  0  0  0
  150.3670  137.4317  154.9740 C   0  0  0  0  0  0  0  0  0  0  0  0
  149.6238  138.4875  155.7899 C   0  0  0  0  0  0  0  0  0  0  0  0
  150.4465  139.7539  155.4964 C   0  0  2  0  0  0  0  0  0  0  0  0
  150.8186  139.4999  154.1523 O   0  0  0  0  0  0  0  0  0  0  0  0
  151.6778  141.3790  158.9946 N   0  0  0  0  0  0  0  0  0  0  0  0
  151.4600  144.8220  161.7556 H   0  0  0  0  0  0  0  0  0  0  0  0
  153.0710  144.4856  161.1296 H   0  0  0  0  0  0  0  0  0  0  0  0
  152.3404  143.4176  162.3488 H   0  0  0  0  0  0  0  0  0  0  0  0
  154.0468  142.6039  161.0878 H   0  0  0  0  0  0  0  0  0  0  0  0
  156.1074  141.2863  160.8064 H   0  0  0  0  0  0  0  0  0  0  0  0
  156.2928  140.3864  159.2979 H   0  0  0  0  0  0  0  0  0  0  0  0
  155.6812  139.5725  160.7442 H   0  0  0  0  0  0  0  0  0  0  0  0
  151.2147  138.7995  157.9461 H   0  0  0  0  0  0  0  0  0  0  0  0
  152.3356  140.7077  155.9536 H   0  0  0  0  0  0  0  0  0  0  0  0
  153.4418  139.0582  154.8750 H   0  0  0  0  0  0  0  0  0  0  0  0
  152.8645  137.8054  155.9764 H   0  0  0  0  0  0  0  0  0  0  0  0
  151.8925  137.8298  153.4206 H   0  0  0  0  0  0  0  0  0  0  0  0
  149.7129  137.0082  154.2108 H   0  0  0  0  0  0  0  0  0  0  0  0
  150.7517  136.6154  155.5863 H   0  0  0  0  0  0  0  0  0  0  0  0
  148.6038  138.6009  155.4216 H   0  0  0  0  0  0  0  0  0  0  0  0
  149.5711  138.2466  156.8519 H   0  0  0  0  0  0  0  0  0  0  0  0
  149.8906  140.6817  155.6348 H   0  0  0  0  0  0  0  0  0  0  0  0
  1  2  1  0  0  0  0
  1 18  1  0  0  0  0
  1 19  1  0  0  0  0
  1 20  1  0  0  0  0
  2  3  1  0  0  0  0
  3 17  1  0  0  0  0
  3  4  2  0  0  0  0
  4  5  1  0  0  0  0
  4 21  1  0  0  0  0
  5  6  1  0  0  0  0
  5  7  2  0  0  0  0
  6 22  1  0  0  0  0
  6 23  1  0  0  0  0
  6 24  1  0  0  0  0
  7  8  1  0  0  0  0
  8  9  1  0  0  0  0
  8 17  2  0  0  0  0
  9 10  1  0  0  0  0
  9 25  1  0  0  0  0
 10 15  1  0  0  0  0
 10 11  1  0  0  0  0
 10 26  1  0  0  0  0
 11 12  1  0  0  0  0
 11 27  1  0  0  0  0
 11 28  1  0  0  0  0
 12 16  1  0  0  0  0
 12 13  1  0  0  0  0
 12 29  1  0  0  0  0
 13 14  1  0  0  0  0
 13 30  1  0  0  0  0
 13 31  1  0  0  0  0
 14 15  1  0  0  0  0
 14 32  1  0  0  0  0
 14 33  1  0  0  0  0
 15 16  1  0  0  0  0
 15 34  1  0  0  0  0
M  END
> <s_m_source_file>
AV-unprocessed.smi

> <i_m_source_file_index>
3148

> <i_lp_mmshare_version>
43012

> <i_f3d_flags>
0

> <s_epik_input>
W0NIM11PYzFbY0hdYyhbQ0gzXSluYyhuMSlbTkhdW0NASF0oW0NIMl1bQ0BASF0yMylbQ0BASF0oTzMpW0NIMl1bQ0gyXTI=

> <s_epik_cmdline>
J2VwaWtfcHl0aG9uJywgJy1waCcsICc3LjAnLCAnLXRuJywgJzgnLCAnLW1hJywgJzIwMCcsICctbWV0YWxfYmluZGluZycsICctaW1hZScsICc8aW5maWxlLm1hZT4nLCAnLW9tYWUnLCAnPG91dGZpbGUubWFlPic=

> <r_lp_tautomer_probability>
1

> <r_epik_Ionization_Penalty>
0.101645

> <r_epik_Ionization_Penalty_Charging>
0

> <r_epik_Ionization_Penalty_Neutral>
0.101645

> <r_epik_State_Penalty>
0.0916212

> <r_epik_Charging_Adjusted_Penalty>
0.0916212

> <i_epik_Tot_Q>
0

> <i_epik_Tot_abs_Q>
0

> <r_epik_Metal_State_Penalty>
0.0781

> <b_epik_Metal_Only>
0

> <s_lp_Force_Field>
OPLS_2005

> <r_lp_Energy>
31.5885

> <b_lp_Chiralities_Consistent>
1

> <s_lp_Variant>
AV-unprocessed.smi:3148-2

> <Gold.Version>
5.8.1

> <Gold.Id.Protein>
6NUR|6NUR_protein|mol2

> <Gold.PLP.Fitness>
38.5722

> <Gold.PLP.PLP>
-34.3151

> <Gold.PLP.part.hbond>
-2.5358

> <Gold.PLP.part.metal>
0.0000

> <Gold.PLP.part.buried>
-4.4748

> <Gold.PLP.part.nonpolar>
-27.4229

> <Gold.PLP.part.repulsive>
0.3000

> <Gold.PLP.ligand.clash>
0.1656

> <Gold.PLP.ligand.torsion>
0.7822

> <Gold.PLP.Chemscore.Hbond>
1.9920

> <Gold.PLP.Chemscore.CHOScore>
0.0000

> <Gold.PLP.Chemscore.Metal>
0.0000

> <Gold.Chemscore.Hbonds>
donor molecule, donor type, donor heavy atom, donor atom, acceptor molecule, acceptor atom, score
      P1  H  7989  7998       L1    16  1.00
      P1  H  7997  8010       L1     7  0.99

> <Gold.PLP.Chemscore.Internal.Correction>
0.0112

> <Gold.Rescore>
     Score         DG    S(hbond)    S(metal)    S(lipo)     H(rot)  DE(clash)    DE(int)     intcor
     15.34     -16.20       1.41        0.00      78.23       1.22       0.09       0.77       ----

> <Gold.Chemscore.Fitness>
15.3432

> <Gold.Chemscore.DG>
-16.2037

> <Gold.Chemscore.ZeroCoef>
-5.4800

> <Gold.Chemscore.Hbond>
1.4078

> <Gold.Chemscore.Metal>
0.0000

> <Gold.Chemscore.Lipo>
78.2315

> <Gold.Chemscore.Internal_Hbond>
0.0000

> <Gold.Chemscore.DEClash>
0.0910

> <Gold.Chemscore.DEInternal>
0.7695

> <Gold.Chemscore.Rot>
1.2232

> <Gold.Chemscore.Internal.Correction>
   9.000000E+99

> <Gold.Chemscore.Hbonds>
donor molecule, donor type, donor heavy atom, donor atom, acceptor molecule, acceptor atom, score
      P1  H  7989  7998       L1    16  0.77
      P1  H  7997  8010       L1     7  0.40

> <Gold.Chemscore.Hbond.Weighted>
-4.7020

> <Gold.Chemscore.Metal.Weighted>
-0.0000

> <Gold.Chemscore.Lipo.Weighted>
-9.1531

> <Gold.Chemscore.Internal_Hbond.Weighted>
0.0000

> <Gold.Chemscore.DEClash.Weighted>
0.0910

> <Gold.Chemscore.DEInternal.Weighted>
0.7695

> <Gold.Chemscore.Rot.Weighted>
3.1314

> <Gold.Chemscore.Internal.Correction.Weighted>
   9.000000E+99

> <Gold.Protein.RotatedTorsions>
[ 6907 6896 6895 6894 ] final   52.97 input  -60.11 | X-H torsion
[ 7974 7965 7964 7962 ] final  -81.08 input  175.53 | X-H torsion
[ 8008 7997 7996 7995 ] final   15.10 input   59.86 | X-H torsion
[ 10167 10162 10161 10158 ] final -156.70 input  -65.29 | X-H torsion
[ 10718 10713 10712 10709 ] final   94.87 input   66.30 | X-H torsion
[ 10763 10752 10751 10750 ] final  115.40 input  -60.55 | X-H torsion
[ 11005 11000 10999 10996 ] final  -43.07 input  -57.11 | X-H torsion

> <Gold.Protein.ActiveResidues>
 VAL166  LYS551  ARG553  GLY616  TRP617  ASP618  TYR619  PRO620  LYS621  CYS622 
 ASP623  PHE694  ASN695  SER759  ASP760  ASP761  ALA762  ILE779  LEU786  VAL792 
 PHE793  MET794  SER795  GLU796  ALA797  LYS798  CYS799  TRP800  GLU811  SER814 

> <Gold.Protein.RotatedAtoms>
  152.3289  134.7285  160.0294 H   0  0  0  0  0  0  0  0  0  0  0  0  # atno 6907 bound_to 6896
  151.7708  133.3336  159.3452 H   0  0  0  0  0  0  0  0  0  0  0  0  # atno 6908 bound_to 6896
  150.7411  134.5951  159.6052 H   0  0  0  0  0  0  0  0  0  0  0  0  # atno 6909 bound_to 6896
  145.5514  140.9496  143.1497 H   0  0  0  0  0  0  0  0  0  0  0  0  # atno 7974 bound_to 7965
  154.8578  140.2939  155.5558 H   0  0  0  0  0  0  0  0  0  0  0  0  # atno 8008 bound_to 7997
  156.3019  140.2484  156.3480 H   0  0  0  0  0  0  0  0  0  0  0  0  # atno 8009 bound_to 7997
  154.8951  140.0393  157.1850 H   0  0  0  0  0  0  0  0  0  0  0  0  # atno 8010 bound_to 7997
  139.6829  143.9550  152.2346 H   0  0  0  0  0  0  0  0  0  0  0  0  # atno 10167 bound_to 10162
  157.6944  131.0527  150.4252 H   0  0  0  0  0  0  0  0  0  0  0  0  # atno 10718 bound_to 10713
  153.5216  135.3596  155.2635 H   0  0  0  0  0  0  0  0  0  0  0  0  # atno 10763 bound_to 10752
  154.8734  135.4047  154.3253 H   0  0  0  0  0  0  0  0  0  0  0  0  # atno 10764 bound_to 10752
  153.3924  135.7072  153.6552 H   0  0  0  0  0  0  0  0  0  0  0  0  # atno 10765 bound_to 10752
  141.0359  133.6800  156.2682 H   0  0  0  0  0  0  0  0  0  0  0  0  # atno 11005 bound_to 11000
  144.7527  139.7152  143.7266 LP  0  0  0  0  0  0  0  0  0  0  0  0  # atno 17320 bound_to 7965
  146.1914  139.5156  142.9803 LP  0  0  0  0  0  0  0  0  0  0  0  0  # atno 17321 bound_to 7965
  139.9345  144.6720  150.8329 LP  0  0  0  0  0  0  0  0  0  0  0  0  # atno 17342 bound_to 10162
  140.7658  143.3286  151.2460 LP  0  0  0  0  0  0  0  0  0  0  0  0  # atno 17343 bound_to 10162
  156.4624  130.4034  149.6568 LP  0  0  0  0  0  0  0  0  0  0  0  0  # atno 17370 bound_to 10713
  156.3679  130.7515  151.2495 LP  0  0  0  0  0  0  0  0  0  0  0  0  # atno 17371 bound_to 10713
  140.6323  134.5251  157.5561 LP  0  0  0  0  0  0  0  0  0  0  0  0  # atno 17394 bound_to 11000
  139.9240  134.8092  156.1124 LP  0  0  0  0  0  0  0  0  0  0  0  0  # atno 17395 bound_to 11000

$$$$
