AV-unprocessed.smi:2889|AV-procd|sdf|11110|dock8
  -GOLD-   2272015573D 1   1.00000     0.00000
 Structure written by MMmdl.
 36 37  0  0  0  0  0  0  0  0  1 V2000
  150.8930  143.0036  157.8530 C   0  0  0  0  0  0  0  0  0  0  0  0
  151.4489  141.2789  157.9165 S   0  0  0  0  0  0  0  0  0  0  0  0
  150.9984  140.7048  156.2472 C   0  0  2  0  0  0  0  0  0  0  0  0
  149.5586  141.1246  155.8964 C   0  0  0  0  0  0  0  0  0  0  0  0
  149.1566  140.6593  154.4892 C   0  0  0  0  0  0  0  0  0  0  0  0
  149.3103  139.1390  154.3480 C   0  0  0  0  0  0  0  0  0  0  0  0
  150.7436  138.6870  154.6731 C   0  0  0  0  0  0  0  0  0  0  0  0
  151.2190  139.1840  156.0534 C   0  0  2  0  0  0  0  0  0  0  0  0
  150.5770  138.4115  157.1233 N   0  0  0  0  0  0  0  0  0  0  0  0
  151.0583  136.7734  157.3637 S   0  0  0  0  0  0  0  0  0  0  0  0
  151.9996  136.4213  156.2891 O   0  0  0  0  0  0  0  0  0  0  0  0
  151.4647  136.6339  158.7702 O   0  0  0  0  0  0  0  0  0  0  0  0
  149.4865  135.8525  157.0939 C   0  0  0  0  0  0  0  0  0  0  0  0
  148.5096  136.1959  158.1819 C   0  0  0  0  0  0  0  0  0  0  0  0
  147.1153  136.4554  158.0702 C   0  0  0  0  0  0  0  0  0  0  0  0
  146.7340  136.7080  159.3563 C   0  0  0  0  0  0  0  0  0  0  0  0
  147.7982  136.6189  160.1935 O   0  0  0  0  0  0  0  0  0  0  0  0
  148.9276  136.2927  159.4341 N   0  0  0  0  0  0  0  0  0  0  0  0
  151.0454  143.4790  158.8217 H   0  0  0  0  0  0  0  0  0  0  0  0
  149.8325  143.0546  157.6069 H   0  0  0  0  0  0  0  0  0  0  0  0
  151.4529  143.5667  157.1072 H   0  0  0  0  0  0  0  0  0  0  0  0
  151.6594  141.2272  155.5543 H   0  0  0  0  0  0  0  0  0  0  0  0
  148.8638  140.7102  156.6280 H   0  0  0  0  0  0  0  0  0  0  0  0
  149.4625  142.2090  155.9625 H   0  0  0  0  0  0  0  0  0  0  0  0
  148.1255  140.9480  154.2839 H   0  0  0  0  0  0  0  0  0  0  0  0
  149.7733  141.1632  153.7439 H   0  0  0  0  0  0  0  0  0  0  0  0
  148.6081  138.6380  155.0155 H   0  0  0  0  0  0  0  0  0  0  0  0
  149.0449  138.8311  153.3363 H   0  0  0  0  0  0  0  0  0  0  0  0
  150.8199  137.6009  154.6090 H   0  0  0  0  0  0  0  0  0  0  0  0
  151.4148  139.0805  153.9088 H   0  0  0  0  0  0  0  0  0  0  0  0
  152.2911  138.9951  156.1117 H   0  0  0  0  0  0  0  0  0  0  0  0
  150.5956  138.9295  158.0019 H   0  0  0  0  0  0  0  0  0  0  0  0
  149.0976  136.1181  156.1104 H   0  0  0  0  0  0  0  0  0  0  0  0
  149.7087  134.7856  157.0872 H   0  0  0  0  0  0  0  0  0  0  0  0
  146.4936  136.4515  157.1875 H   0  0  0  0  0  0  0  0  0  0  0  0
  145.7883  136.9561  159.8151 H   0  0  0  0  0  0  0  0  0  0  0  0
  1  2  1  0  0  0  0
  1 19  1  0  0  0  0
  1 20  1  0  0  0  0
  1 21  1  0  0  0  0
  2  3  1  0  0  0  0
  3  8  1  0  0  0  0
  3  4  1  0  0  0  0
  3 22  1  0  0  0  0
  4  5  1  0  0  0  0
  4 23  1  0  0  0  0
  4 24  1  0  0  0  0
  5  6  1  0  0  0  0
  5 25  1  0  0  0  0
  5 26  1  0  0  0  0
  6  7  1  0  0  0  0
  6 27  1  0  0  0  0
  6 28  1  0  0  0  0
  7  8  1  0  0  0  0
  7 29  1  0  0  0  0
  7 30  1  0  0  0  0
  8  9  1  0  0  0  0
  8 31  1  0  0  0  0
  9 10  1  0  0  0  0
  9 32  1  0  0  0  0
 10 11  2  0  0  0  0
 10 12  2  0  0  0  0
 10 13  1  0  0  0  0
 13 14  1  0  0  0  0
 13 33  1  0  0  0  0
 13 34  1  0  0  0  0
 14 18  2  0  0  0  0
 14 15  1  0  0  0  0
 15 16  2  0  0  0  0
 15 35  1  0  0  0  0
 16 17  1  0  0  0  0
 16 36  1  0  0  0  0
 17 18  1  0  0  0  0
M  END
> <s_m_source_file>
AV-unprocessed.smi

> <i_m_source_file_index>
2889

> <i_lp_mmshare_version>
43012

> <i_f3d_flags>
0

> <s_epik_input>
W0NIM11TW0NAQEhdMVtDSDJdW0NIMl1bQ0gyXVtDSDJdW0NASF0xW05IXVMoPU8pKD1PKVtDSDJdYzJbY0hdW2NIXW9uMg==

> <s_epik_cmdline>
J2VwaWtfcHl0aG9uJywgJy1waCcsICc3LjAnLCAnLXRuJywgJzgnLCAnLW1hJywgJzIwMCcsICctbWV0YWxfYmluZGluZycsICctaW1hZScsICc8aW5maWxlLm1hZT4nLCAnLW9tYWUnLCAnPG91dGZpbGUubWFlPic=

> <r_lp_tautomer_probability>
1

> <r_epik_Ionization_Penalty>
0.000229547

> <r_epik_Ionization_Penalty_Charging>
0

> <r_epik_Ionization_Penalty_Neutral>
0.000229547

> <r_epik_State_Penalty>
-0

> <r_epik_Charging_Adjusted_Penalty>
0

> <i_epik_Tot_Q>
0

> <i_epik_Tot_abs_Q>
0

> <r_epik_Metal_State_Penalty>
0.145979

> <b_epik_Metal_Only>
0

> <s_lp_Force_Field>
OPLS_2005

> <r_lp_Energy>
4.93405

> <b_lp_Chiralities_Consistent>
1

> <s_lp_Variant>
AV-unprocessed.smi:2889-3

> <Gold.Version>
5.8.1

> <Gold.Id.Protein>
6NUR|6NUR_protein|mol2

> <Gold.PLP.Fitness>
35.9556

> <Gold.PLP.PLP>
-28.4194

> <Gold.PLP.part.hbond>
-3.5929

> <Gold.PLP.part.metal>
0.0000

> <Gold.PLP.part.buried>
-4.8807

> <Gold.PLP.part.nonpolar>
-19.6387

> <Gold.PLP.part.repulsive>
0.0139

> <Gold.PLP.ligand.clash>
0.0000

> <Gold.PLP.ligand.torsion>
0.5189

> <Gold.PLP.Chemscore.Hbond>
2.8000

> <Gold.PLP.Chemscore.CHOScore>
0.0000

> <Gold.PLP.Chemscore.Metal>
0.0000

> <Gold.Chemscore.Hbonds>
donor molecule, donor type, donor heavy atom, donor atom, acceptor molecule, acceptor atom, score
      P1  H  6896  6908       L1    12  0.29
      P1  H 10752 10765       L1    11  1.00

> <Gold.PLP.Chemscore.Internal.Correction>
0.1740

> <Gold.Rescore>
     Score         DG    S(hbond)    S(metal)    S(lipo)     H(rot)  DE(clash)    DE(int)     intcor
     15.10     -17.23       2.54        0.00      67.43       1.81       0.07       2.05       ----

> <Gold.Chemscore.Fitness>
15.1041

> <Gold.Chemscore.DG>
-17.2270

> <Gold.Chemscore.ZeroCoef>
-5.4800

> <Gold.Chemscore.Hbond>
2.5391

> <Gold.Chemscore.Metal>
0.0000

> <Gold.Chemscore.Lipo>
67.4308

> <Gold.Chemscore.Internal_Hbond>
0.0000

> <Gold.Chemscore.DEClash>
0.0736

> <Gold.Chemscore.DEInternal>
2.0493

> <Gold.Chemscore.Rot>
1.8058

> <Gold.Chemscore.Internal.Correction>
   9.000000E+99

> <Gold.Chemscore.Hbonds>
donor molecule, donor type, donor heavy atom, donor atom, acceptor molecule, acceptor atom, score
      P1  H  6896  6908       L1    12  0.25
      P1  H 10752 10765       L1    11  0.99

> <Gold.Chemscore.Hbond.Weighted>
-8.4804

> <Gold.Chemscore.Metal.Weighted>
-0.0000

> <Gold.Chemscore.Lipo.Weighted>
-7.8894

> <Gold.Chemscore.Internal_Hbond.Weighted>
0.0000

> <Gold.Chemscore.DEClash.Weighted>
0.0736

> <Gold.Chemscore.DEInternal.Weighted>
2.0493

> <Gold.Chemscore.Rot.Weighted>
4.6228

> <Gold.Chemscore.Internal.Correction.Weighted>
   9.000000E+99

> <Gold.Protein.RotatedTorsions>
[ 6907 6896 6895 6894 ] final -174.80 input  -60.11 | X-H torsion
[ 7974 7965 7964 7962 ] final   62.16 input  175.53 | X-H torsion
[ 8008 7997 7996 7995 ] final -162.36 input   59.86 | X-H torsion
[ 10167 10162 10161 10158 ] final  168.64 input  -65.29 | X-H torsion
[ 10718 10713 10712 10709 ] final  -22.76 input   66.30 | X-H torsion
[ 10763 10752 10751 10750 ] final -145.60 input  -60.55 | X-H torsion
[ 11005 11000 10999 10996 ] final   59.20 input  -57.11 | X-H torsion

> <Gold.Protein.ActiveResidues>
 VAL166  LYS551  ARG553  GLY616  TRP617  ASP618  TYR619  PRO620  LYS621  CYS622 
 ASP623  PHE694  ASN695  SER759  ASP760  ASP761  ALA762  ILE779  LEU786  VAL792 
 PHE793  MET794  SER795  GLU796  ALA797  LYS798  CYS799  TRP800  GLU811  SER814 

> <Gold.Protein.RotatedAtoms>
  151.5783  133.3381  159.3002 H   0  0  0  0  0  0  0  0  0  0  0  0  # atno 6907 bound_to 6896
  150.8328  134.7592  159.6879 H   0  0  0  0  0  0  0  0  0  0  0  0  # atno 6908 bound_to 6896
  152.4409  134.5599  159.9943 H   0  0  0  0  0  0  0  0  0  0  0  0  # atno 6909 bound_to 6896
  145.8766  139.3414  143.0731 H   0  0  0  0  0  0  0  0  0  0  0  0  # atno 7974 bound_to 7965
  155.8057  140.0898  157.1932 H   0  0  0  0  0  0  0  0  0  0  0  0  # atno 8008 bound_to 7997
  154.3981  140.1464  156.3386 H   0  0  0  0  0  0  0  0  0  0  0  0  # atno 8009 bound_to 7997
  155.8417  140.3438  155.5639 H   0  0  0  0  0  0  0  0  0  0  0  0  # atno 8010 bound_to 7997
  139.4973  144.3793  151.9640 H   0  0  0  0  0  0  0  0  0  0  0  0  # atno 10167 bound_to 10162
  156.5002  130.4586  149.6705 H   0  0  0  0  0  0  0  0  0  0  0  0  # atno 10718 bound_to 10713
  154.8376  135.3409  154.6529 H   0  0  0  0  0  0  0  0  0  0  0  0  # atno 10763 bound_to 10752
  153.7143  135.6962  153.5034 H   0  0  0  0  0  0  0  0  0  0  0  0  # atno 10764 bound_to 10752
  153.2428  135.4379  155.0670 H   0  0  0  0  0  0  0  0  0  0  0  0  # atno 10765 bound_to 10752
  140.0321  134.5996  155.9492 H   0  0  0  0  0  0  0  0  0  0  0  0  # atno 11005 bound_to 11000
  145.9074  140.9203  143.0472 LP  0  0  0  0  0  0  0  0  0  0  0  0  # atno 17320 bound_to 7965
  144.6726  140.1114  143.7455 LP  0  0  0  0  0  0  0  0  0  0  0  0  # atno 17321 bound_to 7965
  140.3229  144.3407  150.6005 LP  0  0  0  0  0  0  0  0  0  0  0  0  # atno 17342 bound_to 10162
  140.5708  143.2181  151.7603 LP  0  0  0  0  0  0  0  0  0  0  0  0  # atno 17343 bound_to 10162
  156.3340  130.7347  151.2281 LP  0  0  0  0  0  0  0  0  0  0  0  0  # atno 17370 bound_to 10713
  157.7464  131.0422  150.4683 LP  0  0  0  0  0  0  0  0  0  0  0  0  # atno 17371 bound_to 10713
  141.1837  133.6551  156.5127 LP  0  0  0  0  0  0  0  0  0  0  0  0  # atno 17394 bound_to 11000
  140.4208  134.7189  157.4888 LP  0  0  0  0  0  0  0  0  0  0  0  0  # atno 17395 bound_to 11000

$$$$
