AV-unprocessed.smi:2986|AV-procd|sdf|11381|dock6
  -GOLD-   2272016303D 1   1.00000     0.00000
 Structure written by MMmdl.
 42 44  0  0  0  0  0  0  0  0  1 V2000
  154.1209  138.0713  160.7916 C   0  0  0  0  0  0  0  0  0  0  0  0
  153.0577  138.2097  159.8659 O   0  0  0  0  0  0  0  0  0  0  0  0
  153.0570  139.4741  159.2262 C   0  0  0  0  0  0  0  0  0  0  0  0
  151.8822  139.5275  158.2432 C   0  0  0  0  0  0  0  0  0  0  0  0
  151.6250  140.8840  157.7879 N   0  0  0  0  0  0  0  0  0  0  0  0
  151.1591  141.2842  156.5798 C   0  0  0  0  0  0  0  0  0  0  0  0
  150.7721  140.1313  155.3018 S   0  0  0  0  0  0  0  0  0  0  0  0
  149.2104  140.8739  154.7319 C   0  0  0  0  0  0  0  0  0  0  0  0
  148.1053  139.8510  154.4575 C   0  0  0  0  0  0  0  0  0  0  0  0
  147.5622  139.2843  155.4044 O   0  0  0  0  0  0  0  0  0  0  0  0
  147.7992  139.6480  153.1630 N   0  0  0  0  0  0  0  0  0  0  0  0
  146.8865  138.7172  152.6055 C   0  0  0  0  0  0  0  0  0  0  0  0
  145.8981  137.9745  153.3143 C   0  0  0  0  0  0  0  0  0  0  0  0
  145.3039  137.2379  152.3289 C   0  0  0  0  0  0  0  0  0  0  0  0
  144.1938  136.2440  152.3349 C   0  0  0  0  0  0  0  0  0  0  0  0
  145.8780  137.5059  151.1252 O   0  0  0  0  0  0  0  0  0  0  0  0
  146.8897  138.4550  151.3116 N   0  0  0  0  0  0  0  0  0  0  0  0
  151.0060  142.5992  156.4252 N   0  0  0  0  0  0  0  0  0  0  0  0
  151.4137  143.0990  157.6465 C   0  0  0  0  0  0  0  0  0  0  0  0
  151.4870  144.4297  158.1172 C   0  0  0  0  0  0  0  0  0  0  0  0
  151.9468  144.7005  159.4227 C   0  0  0  0  0  0  0  0  0  0  0  0
  152.3394  143.6475  160.2743 C   0  0  0  0  0  0  0  0  0  0  0  0
  152.2728  142.3143  159.8259 C   0  0  0  0  0  0  0  0  0  0  0  0
  151.8119  142.0497  158.5225 C   0  0  0  0  0  0  0  0  0  0  0  0
  154.0822  137.0825  161.2486 H   0  0  0  0  0  0  0  0  0  0  0  0
  154.0490  138.8137  161.5877 H   0  0  0  0  0  0  0  0  0  0  0  0
  155.0889  138.1769  160.3000 H   0  0  0  0  0  0  0  0  0  0  0  0
  152.9629  140.2699  159.9672 H   0  0  0  0  0  0  0  0  0  0  0  0
  153.9996  139.6240  158.6971 H   0  0  0  0  0  0  0  0  0  0  0  0
  152.0744  138.8873  157.3825 H   0  0  0  0  0  0  0  0  0  0  0  0
  150.9789  139.1396  158.7149 H   0  0  0  0  0  0  0  0  0  0  0  0
  148.8686  141.5942  155.4764 H   0  0  0  0  0  0  0  0  0  0  0  0
  149.4054  141.4352  153.8179 H   0  0  0  0  0  0  0  0  0  0  0  0
  148.3217  140.1935  152.4928 H   0  0  0  0  0  0  0  0  0  0  0  0
  145.6516  137.9698  154.3653 H   0  0  0  0  0  0  0  0  0  0  0  0
  143.7632  136.1474  153.3317 H   0  0  0  0  0  0  0  0  0  0  0  0
  144.5522  135.2624  152.0248 H   0  0  0  0  0  0  0  0  0  0  0  0
  143.4003  136.5465  151.6511 H   0  0  0  0  0  0  0  0  0  0  0  0
  151.1891  145.2434  157.4726 H   0  0  0  0  0  0  0  0  0  0  0  0
  151.9986  145.7212  159.7722 H   0  0  0  0  0  0  0  0  0  0  0  0
  152.6911  143.8638  161.2724 H   0  0  0  0  0  0  0  0  0  0  0  0
  152.5727  141.5057  160.4760 H   0  0  0  0  0  0  0  0  0  0  0  0
  1  2  1  0  0  0  0
  1 25  1  0  0  0  0
  1 26  1  0  0  0  0
  1 27  1  0  0  0  0
  2  3  1  0  0  0  0
  3  4  1  0  0  0  0
  3 28  1  0  0  0  0
  3 29  1  0  0  0  0
  4  5  1  0  0  0  0
  4 30  1  0  0  0  0
  4 31  1  0  0  0  0
  5 24  1  0  0  0  0
  5  6  1  0  0  0  0
  6  7  1  0  0  0  0
  6 18  2  0  0  0  0
  7  8  1  0  0  0  0
  8  9  1  0  0  0  0
  8 32  1  0  0  0  0
  8 33  1  0  0  0  0
  9 10  2  0  0  0  0
  9 11  1  0  0  0  0
 11 12  1  0  0  0  0
 11 34  1  0  0  0  0
 12 17  2  0  0  0  0
 12 13  1  0  0  0  0
 13 14  2  0  0  0  0
 13 35  1  0  0  0  0
 14 15  1  0  0  0  0
 14 16  1  0  0  0  0
 15 36  1  0  0  0  0
 15 37  1  0  0  0  0
 15 38  1  0  0  0  0
 16 17  1  0  0  0  0
 18 19  1  0  0  0  0
 19 24  2  0  0  0  0
 19 20  1  0  0  0  0
 20 21  2  0  0  0  0
 20 39  1  0  0  0  0
 21 22  1  0  0  0  0
 21 40  1  0  0  0  0
 22 23  2  0  0  0  0
 22 41  1  0  0  0  0
 23 24  1  0  0  0  0
 23 42  1  0  0  0  0
M  END
> <s_m_source_file>
AV-unprocessed.smi

> <i_m_source_file_index>
2986

> <i_lp_mmshare_version>
43012

> <i_f3d_flags>
0

> <s_epik_input>
W2NIXTFbY0hdW2NIXVtjSF1jKGMxMiluKFtDSDJdW0NIMl1PW0NIM10pYyhuMilTW0NIMl1DKD1PKVtOSF1jM1tjSF1jKFtDSDNdKW9uMw==

> <s_epik_cmdline>
J2VwaWtfcHl0aG9uJywgJy1waCcsICc3LjAnLCAnLXRuJywgJzgnLCAnLW1hJywgJzIwMCcsICctbWV0YWxfYmluZGluZycsICctaW1hZScsICc8aW5maWxlLm1hZT4nLCAnLW9tYWUnLCAnPG91dGZpbGUubWFlPic=

> <r_epik_Ionization_Penalty>
0.0256487

> <r_epik_Ionization_Penalty_Charging>
0

> <r_epik_Ionization_Penalty_Neutral>
0.0256487

> <r_epik_State_Penalty>
0.0204505

> <r_epik_Charging_Adjusted_Penalty>
0.0204505

> <i_epik_Tot_Q>
0

> <i_epik_Tot_abs_Q>
0

> <r_epik_Metal_State_Penalty>
0.237509

> <b_epik_Metal_Only>
0

> <s_lp_Force_Field>
OPLS_2005

> <r_lp_Energy>
8.97746

> <b_lp_Chiralities_Consistent>
1

> <s_lp_Variant>
AV-unprocessed.smi:2986-1

> <Gold.Version>
5.8.1

> <Gold.Id.Protein>
6NUR|6NUR_protein|mol2

> <Gold.PLP.Fitness>
46.8233

> <Gold.PLP.PLP>
-43.3796

> <Gold.PLP.part.hbond>
-2.0000

> <Gold.PLP.part.metal>
0.0000

> <Gold.PLP.part.buried>
-6.8906

> <Gold.PLP.part.nonpolar>
-40.1972

> <Gold.PLP.part.repulsive>
4.9724

> <Gold.PLP.ligand.clash>
0.0000

> <Gold.PLP.ligand.torsion>
1.1170

> <Gold.PLP.Chemscore.Hbond>
1.8480

> <Gold.PLP.Chemscore.CHOScore>
0.0000

> <Gold.PLP.Chemscore.Metal>
0.0000

> <Gold.Chemscore.Hbonds>
donor molecule, donor type, donor heavy atom, donor atom, acceptor molecule, acceptor atom, score
      L1  H    11    34       P1  7957  0.85
      P1  H  7954  7966       L1    17  1.00

> <Gold.PLP.Chemscore.Internal.Correction>
0.1337

> <Gold.Rescore>
     Score         DG    S(hbond)    S(metal)    S(lipo)     H(rot)  DE(clash)    DE(int)     intcor
     14.05     -18.35       1.88        0.00     106.21       2.28       2.30       1.99       ----

> <Gold.Chemscore.Fitness>
14.0526

> <Gold.Chemscore.DG>
-18.3483

> <Gold.Chemscore.ZeroCoef>
-5.4800

> <Gold.Chemscore.Hbond>
1.8802

> <Gold.Chemscore.Metal>
0.0000

> <Gold.Chemscore.Lipo>
106.2097

> <Gold.Chemscore.Internal_Hbond>
0.0000

> <Gold.Chemscore.DEClash>
2.3014

> <Gold.Chemscore.DEInternal>
1.9944

> <Gold.Chemscore.Rot>
2.2804

> <Gold.Chemscore.Internal.Correction>
   9.000000E+99

> <Gold.Chemscore.Hbonds>
donor molecule, donor type, donor heavy atom, donor atom, acceptor molecule, acceptor atom, score
      L1  H    11    34       P1  7957  0.83
      P1  H  7954  7966       L1    17  0.25

> <Gold.Chemscore.Hbond.Weighted>
-6.2797

> <Gold.Chemscore.Metal.Weighted>
-0.0000

> <Gold.Chemscore.Lipo.Weighted>
-12.4265

> <Gold.Chemscore.Internal_Hbond.Weighted>
0.0000

> <Gold.Chemscore.DEClash.Weighted>
2.3014

> <Gold.Chemscore.DEInternal.Weighted>
1.9944

> <Gold.Chemscore.Rot.Weighted>
5.8379

> <Gold.Chemscore.Internal.Correction.Weighted>
   9.000000E+99

> <Gold.Protein.RotatedTorsions>
[ 6907 6896 6895 6894 ] final  -86.11 input  -60.11 | X-H torsion
[ 7974 7965 7964 7962 ] final  118.03 input  175.53 | X-H torsion
[ 8008 7997 7996 7995 ] final -106.58 input   59.86 | X-H torsion
[ 10167 10162 10161 10158 ] final -177.46 input  -65.29 | X-H torsion
[ 10718 10713 10712 10709 ] final  -82.54 input   66.30 | X-H torsion
[ 10763 10752 10751 10750 ] final   59.44 input  -60.55 | X-H torsion
[ 11005 11000 10999 10996 ] final -113.92 input  -57.11 | X-H torsion

> <Gold.Protein.ActiveResidues>
 VAL166  LYS551  ARG553  GLY616  TRP617  ASP618  TYR619  PRO620  LYS621  CYS622 
 ASP623  PHE694  ASN695  SER759  ASP760  ASP761  ALA762  ILE779  LEU786  VAL792 
 PHE793  MET794  SER795  GLU796  ALA797  LYS798  CYS799  TRP800  GLU811  SER814 

> <Gold.Protein.RotatedAtoms>
  150.6868  134.3102  159.4742 H   0  0  0  0  0  0  0  0  0  0  0  0  # atno 6907 bound_to 6896
  152.0988  134.9353  160.0579 H   0  0  0  0  0  0  0  0  0  0  0  0  # atno 6908 bound_to 6896
  152.0640  133.4041  159.4467 H   0  0  0  0  0  0  0  0  0  0  0  0  # atno 6909 bound_to 6896
  145.1601  139.3160  143.4521 H   0  0  0  0  0  0  0  0  0  0  0  0  # atno 7974 bound_to 7965
  154.9166  140.0408  157.1975 H   0  0  0  0  0  0  0  0  0  0  0  0  # atno 8008 bound_to 7997
  154.8295  140.2897  155.5710 H   0  0  0  0  0  0  0  0  0  0  0  0  # atno 8009 bound_to 7997
  156.2986  140.2503  156.3218 H   0  0  0  0  0  0  0  0  0  0  0  0  # atno 8010 bound_to 7997
  139.5479  144.2187  152.1022 H   0  0  0  0  0  0  0  0  0  0  0  0  # atno 10167 bound_to 10162
  156.0031  130.4637  150.4121 H   0  0  0  0  0  0  0  0  0  0  0  0  # atno 10718 bound_to 10713
  152.9894  135.5571  154.5713 H   0  0  0  0  0  0  0  0  0  0  0  0  # atno 10763 bound_to 10752
  154.5113  135.2802  155.1342 H   0  0  0  0  0  0  0  0  0  0  0  0  # atno 10764 bound_to 10752
  154.2733  135.6359  153.5371 H   0  0  0  0  0  0  0  0  0  0  0  0  # atno 10765 bound_to 10752
  141.0584  133.9575  157.2712 H   0  0  0  0  0  0  0  0  0  0  0  0  # atno 11005 bound_to 11000
  146.3483  140.1708  142.8589 LP  0  0  0  0  0  0  0  0  0  0  0  0  # atno 17320 bound_to 7965
  145.0340  140.8893  143.5092 LP  0  0  0  0  0  0  0  0  0  0  0  0  # atno 17321 bound_to 7965
  140.1677  144.4966  150.6597 LP  0  0  0  0  0  0  0  0  0  0  0  0  # atno 17342 bound_to 10162
  140.6733  143.2294  151.5571 LP  0  0  0  0  0  0  0  0  0  0  0  0  # atno 17343 bound_to 10162
  157.2183  131.0476  151.2561 LP  0  0  0  0  0  0  0  0  0  0  0  0  # atno 17370 bound_to 10713
  157.3825  130.7238  149.6640 LP  0  0  0  0  0  0  0  0  0  0  0  0  # atno 17371 bound_to 10713
  139.9410  135.0191  156.8709 LP  0  0  0  0  0  0  0  0  0  0  0  0  # atno 17394 bound_to 11000
  140.5918  134.0255  155.7502 LP  0  0  0  0  0  0  0  0  0  0  0  0  # atno 17395 bound_to 11000

$$$$
