#       Name:                AV-unprocessed.smi:2083
#       Creating user name   scv26
#       Creation time:       Fri Mar 27 11:21:17 2020


#       File generated by GOLD software.
#

@<TRIPOS>MOLECULE
AV-unprocessed.smi:2083
    50    51     1
SMALL
NO_CHARGES


@<TRIPOS>ATOM
      1 ****        -4.1810   5.9872   3.1275 C.3            1 S1                 0.0000
      2 ****        -4.0212   4.9062   2.1140 C.2            1 S1                 0.0000
      3 ****        -2.9361   4.4178   1.4435 C.2            1 S1                 0.0000
      4 ****        -3.4910   3.3912   0.6318 C.2            1 S1                 0.0000
      5 ****        -2.8150   2.6188  -0.2325 N.pl3          1 S1                -1.0000
      6 ****        -2.1904   1.4994   0.1978 C.2            1 S1                 0.0000
      7 ****        -2.1692   1.0708   1.3538 O.2            1 S1                 0.0000
      8 ****        -1.5375   0.8443  -0.7732 N.am           1 S1                 0.0000
      9 ****        -0.7619  -0.3846  -0.6234 C.3            1 S1                 0.0000
     10 ****         0.7676  -0.1347  -0.6290 C.3            1 S1                 0.0000
     11 ****         1.1786   0.8289   0.5116 C.3            1 S1                 0.0000
     12 ****         1.4835  -1.4525  -0.6063 N.4            1 S1                 1.0000
     13 ****         2.8191  -1.4716   0.0586 C.3            1 S1                 0.0000
     14 ****         3.3831  -2.8994   0.1544 C.3            1 S1                 0.0000
     15 ****         3.4443  -3.5743  -1.2209 C.3            1 S1                 0.0000
     16 ****         2.0785  -3.5160  -1.9243 C.3            1 S1                 0.0000
     17 ****         1.0471  -4.4853  -1.3203 C.3            1 S1                 0.0000
     18 ****         1.5612  -2.0647  -1.9645 C.3            1 S1                 0.0000
     19 ****        -4.7994   3.2758   0.7857 N.2            1 S1                 0.0000
     20 ****        -5.1466   4.2397   1.7399 O.3            1 S1                 0.0000
     21 ****        -3.8221   6.9385   2.7346 H              1 S1                 0.0000
     22 ****        -3.6125   5.7570   4.0285 H              1 S1                 0.0000
     23 ****        -5.2267   6.1117   3.4096 H              1 S1                 0.0000
     24 ****        -1.9092   4.7418   1.5219 H              1 S1                 0.0000
     25 ****        -1.5893   1.2377  -1.7016 H              1 S1                 0.0000
     26 ****        -1.0487  -0.9220   0.2821 H              1 S1                 0.0000
     27 ****        -1.0556  -1.0296  -1.4498 H              1 S1                 0.0000
     28 ****         1.0308   0.3694  -1.5605 H              1 S1                 0.0000
     29 ****         0.6589   1.7836   0.4364 H              1 S1                 0.0000
     30 ****         2.2400   1.0744   0.4804 H              1 S1                 0.0000
     31 ****         0.9485   0.4104   1.4920 H              1 S1                 0.0000
     32 ****         3.5100  -0.8268  -0.4868 H              1 S1                 0.0000
     33 ****         2.7530  -1.0914   1.0774 H              1 S1                 0.0000
     34 ****         4.3798  -2.8735   0.5963 H              1 S1                 0.0000
     35 ****         2.7672  -3.4918   0.8318 H              1 S1                 0.0000
     36 ****         4.1877  -3.0641  -1.8350 H              1 S1                 0.0000
     37 ****         3.7840  -4.6062  -1.1238 H              1 S1                 0.0000
     38 ****         2.2334  -3.8362  -2.9556 H              1 S1                 0.0000
     39 ****         0.8032  -4.2318  -0.2886 H              1 S1                 0.0000
     40 ****         1.4193  -5.5101  -1.3312 H              1 S1                 0.0000
     41 ****         0.1173  -4.4692  -1.8898 H              1 S1                 0.0000
     42 ****         0.5907  -2.0497  -2.4585 H              1 S1                 0.0000
     43 ****         2.2242  -1.4588  -2.5845 H              1 S1                 0.0000
     44 ****         0.9018  -2.0614  -0.0484 H              1 S1                 0.0000
     45 ****        -2.7730   2.8721  -1.1990 LP             1 S1                 0.0000
     46 ****        -2.6469   1.5660   2.0795 LP             1 S1                 0.0000
     47 ****        -1.6743   0.2281   1.5656 LP             1 S1                 0.0000
     48 ****        -5.4107   2.6362   0.3197 LP             1 S1                 0.0000
     49 ****        -5.8033   4.8826   1.3456 LP             1 S1                 0.0000
     50 ****        -5.5542   3.7934   2.5365 LP             1 S1                 0.0000
@<TRIPOS>BOND
    1    1    2 1     
    2    1   21 1     
    3    1   22 1     
    4    1   23 1     
    5    2   20 1     
    6    2    3 2     
    7    3    4 1     
    8    3   24 1     
    9    4    5 1     
   10    4   19 2     
   11    5    6 1     
   12    6    7 2     
   13    6    8 am    
   14    8    9 1     
   15    8   25 1     
   16    9   10 1     
   17    9   26 1     
   18    9   27 1     
   19   10   11 1     
   20   10   12 1     
   21   10   28 1     
   22   11   29 1     
   23   11   30 1     
   24   11   31 1     
   25   12   18 1     
   26   12   13 1     
   27   12   44 1     
   28   13   14 1     
   29   13   32 1     
   30   13   33 1     
   31   14   15 1     
   32   14   34 1     
   33   14   35 1     
   34   15   16 1     
   35   15   36 1     
   36   15   37 1     
   37   16   17 1     
   38   16   18 1     
   39   16   38 1     
   40   17   39 1     
   41   17   40 1     
   42   17   41 1     
   43   18   42 1     
   44   18   43 1     
   45   19   20 1     
   46    5   45 1     
   47    7   46 1     
   48    7   47 1     
   49   19   48 1     
   50   20   49 1     
   51   20   50 1     
@<TRIPOS>SUBSTRUCTURE
      1 S1             1
@<TRIPOS>SET
LONE_PAIRS      STATIC     ATOMS    <user>   **** ""
6 45 46 47 48 49 50
DONOR_HYDROGENS      STATIC     ATOMS    <user>   **** ""
2 25 44
ATOM$BLUE        STATIC     ATOMS    COLORGROUP SYSTEM
6 45 46 47 48 49 50
ATOM$RED        STATIC     ATOMS    COLORGROUP SYSTEM
2 25 44
