AV-unprocessed.smi:2784|AV-procd|sdf|10738|dock9
  -GOLD-   2272015173D 1   1.00000     0.00000
 Structure written by MMmdl.
 31 32  0  0  0  0  0  0  0  0  1 V2000
  149.7185  144.9880  160.4112 C   0  0  0  0  0  0  0  0  0  0  0  0
  149.6592  143.6146  160.0594 O   0  0  0  0  0  0  0  0  0  0  0  0
  150.7923  143.1653  159.3289 C   0  0  2  0  0  0  0  0  0  0  0  0
  152.0543  143.3623  160.1735 C   0  0  0  0  0  0  0  0  0  0  0  0
  153.1701  143.5422  159.1505 C   0  0  0  0  0  0  0  0  0  0  0  0
  152.5212  144.3710  158.0428 C   0  0  0  0  0  0  0  0  0  0  0  0
  151.0324  143.9704  158.0310 C   0  0  1  0  0  0  0  0  0  0  0  0
  150.7162  143.1585  156.8580 N   0  0  0  0  0  0  0  0  0  0  0  0
  151.0553  141.8724  156.6861 C   0  0  0  0  0  0  0  0  0  0  0  0
  151.6850  141.2473  157.5454 O   0  0  0  0  0  0  0  0  0  0  0  0
  150.6271  141.4261  155.4457 N   0  0  0  0  0  0  0  0  0  0  0  0
  150.7851  140.1759  155.1390 C   0  0  0  0  0  0  0  0  0  0  0  0
  150.4090  139.5363  153.9687 N   0  0  0  0  0  0  0  0  0  0  0  0
  150.7765  138.2225  154.0651 C   0  0  0  0  0  0  0  0  0  0  0  0
  151.3613  138.0415  155.2457 C   0  0  0  0  0  0  0  0  0  0  0  0
  151.3835  139.2203  155.9282 O   0  0  0  0  0  0  0  0  0  0  0  0
  148.8105  145.2663  160.9457 H   0  0  0  0  0  0  0  0  0  0  0  0
  149.7923  145.6191  159.5248 H   0  0  0  0  0  0  0  0  0  0  0  0
  150.5665  145.2011  161.0627 H   0  0  0  0  0  0  0  0  0  0  0  0
  150.7010  142.0987  159.1119 H   0  0  0  0  0  0  0  0  0  0  0  0
  151.9651  144.2708  160.7711 H   0  0  0  0  0  0  0  0  0  0  0  0
  152.2361  142.5323  160.8565 H   0  0  0  0  0  0  0  0  0  0  0  0
  154.0542  144.0217  159.5713 H   0  0  0  0  0  0  0  0  0  0  0  0
  153.4703  142.5700  158.7576 H   0  0  0  0  0  0  0  0  0  0  0  0
  152.6041  145.4296  158.2923 H   0  0  0  0  0  0  0  0  0  0  0  0
  153.0191  144.2305  157.0824 H   0  0  0  0  0  0  0  0  0  0  0  0
  150.4200  144.8743  158.0351 H   0  0  0  0  0  0  0  0  0  0  0  0
  150.2097  143.6151  156.1135 H   0  0  0  0  0  0  0  0  0  0  0  0
  149.9455  139.9293  153.1623 H   0  0  0  0  0  0  0  0  0  0  0  0
  150.5742  137.5377  153.2547 H   0  0  0  0  0  0  0  0  0  0  0  0
  151.7939  137.1762  155.7256 H   0  0  0  0  0  0  0  0  0  0  0  0
  1  2  1  0  0  0  0
  1 17  1  0  0  0  0
  1 18  1  0  0  0  0
  1 19  1  0  0  0  0
  2  3  1  0  0  0  0
  3  7  1  0  0  0  0
  3  4  1  0  0  0  0
  3 20  1  0  0  0  0
  4  5  1  0  0  0  0
  4 21  1  0  0  0  0
  4 22  1  0  0  0  0
  5  6  1  0  0  0  0
  5 23  1  0  0  0  0
  5 24  1  0  0  0  0
  6  7  1  0  0  0  0
  6 25  1  0  0  0  0
  6 26  1  0  0  0  0
  7  8  1  0  0  0  0
  7 27  1  0  0  0  0
  8 28  1  0  0  0  0
  8  9  1  0  0  0  0
  9 11  1  0  0  0  0
  9 10  2  0  0  0  0
 11 12  2  0  0  0  0
 12 16  1  0  0  0  0
 12 13  1  0  0  0  0
 13 29  1  0  0  0  0
 13 14  1  0  0  0  0
 14 30  1  0  0  0  0
 14 15  2  0  0  0  0
 15 31  1  0  0  0  0
 15 16  1  0  0  0  0
M  END
> <s_m_source_file>
AV-unprocessed.smi

> <i_m_source_file_index>
2784

> <i_lp_mmshare_version>
43012

> <i_f3d_flags>
0

> <s_epik_input>
W0NIM11PW0NAQEhdMVtDSDJdW0NIMl1bQ0gyXVtDQEhdMVtOSF1DKD1PKVtOSF1jMm5bY0hdW2NIXW8y

> <s_epik_cmdline>
J2VwaWtfcHl0aG9uJywgJy1waCcsICc3LjAnLCAnLXRuJywgJzgnLCAnLW1hJywgJzIwMCcsICctbWV0YWxfYmluZGluZycsICctaW1hZScsICc8aW5maWxlLm1hZT4nLCAnLW9tYWUnLCAnPG91dGZpbGUubWFlPic=

> <r_lp_tautomer_probability>
0.107061

> <r_epik_Ionization_Penalty>
1.29244

> <r_epik_Ionization_Penalty_Charging>
1.29208

> <r_epik_Ionization_Penalty_Neutral>
0.000359742

> <r_epik_State_Penalty>
2.59896

> <r_epik_Charging_Adjusted_Penalty>
3.89105

> <i_epik_Tot_Q>
0

> <i_epik_Tot_abs_Q>
0

> <r_epik_Metal_State_Penalty>
3.62496

> <b_epik_Metal_Only>
0

> <s_lp_Force_Field>
OPLS_2005

> <r_lp_Energy>
42.0746

> <b_lp_Chiralities_Consistent>
1

> <s_lp_Variant>
AV-unprocessed.smi:2784-13

> <Gold.Version>
5.8.1

> <Gold.Id.Protein>
6NUR|6NUR_protein|mol2

> <Gold.PLP.Fitness>
40.2108

> <Gold.PLP.PLP>
-31.1823

> <Gold.PLP.part.hbond>
-4.0000

> <Gold.PLP.part.metal>
0.0000

> <Gold.PLP.part.buried>
-2.5056

> <Gold.PLP.part.nonpolar>
-26.6406

> <Gold.PLP.part.repulsive>
1.7976

> <Gold.PLP.ligand.clash>
0.0000

> <Gold.PLP.ligand.torsion>
0.2087

> <Gold.PLP.Chemscore.Hbond>
2.0749

> <Gold.PLP.Chemscore.CHOScore>
1.0720

> <Gold.PLP.Chemscore.Metal>
0.0000

> <Gold.Chemscore.Hbonds>
donor molecule, donor type, donor heavy atom, donor atom, acceptor molecule, acceptor atom, score
      L1  H     8    28       P1  8028  0.94
      L1  H    13    29       P1  7957  1.00
      P1  H  6933  6944       L1     2  0.15
      L1  C    14    30       P1  7948  0.51
      L1  C    14    30       P1  7949  0.57

> <Gold.PLP.Chemscore.Internal.Correction>
0.0053

> <Gold.Rescore>
     Score         DG    S(hbond)    S(metal)    S(lipo)     H(rot)  DE(clash)    DE(int)     intcor
     13.93     -17.47       1.90        0.00      77.31       1.32       0.25       3.29       ----

> <Gold.Chemscore.Fitness>
13.9324

> <Gold.Chemscore.DG>
-17.4747

> <Gold.Chemscore.ZeroCoef>
-5.4800

> <Gold.Chemscore.Hbond>
1.8974

> <Gold.Chemscore.Metal>
0.0000

> <Gold.Chemscore.Lipo>
77.3118

> <Gold.Chemscore.Internal_Hbond>
0.0000

> <Gold.Chemscore.DEClash>
0.2493

> <Gold.Chemscore.DEInternal>
3.2930

> <Gold.Chemscore.Rot>
1.3235

> <Gold.Chemscore.Internal.Correction>
   9.000000E+99

> <Gold.Chemscore.Hbonds>
donor molecule, donor type, donor heavy atom, donor atom, acceptor molecule, acceptor atom, score
      L1  H     8    28       P1  8028  0.91
      L1  H    13    29       P1  7957  0.90
      P1  H  6933  6944       L1     2  0.14

> <Gold.Chemscore.Hbond.Weighted>
-6.3374

> <Gold.Chemscore.Metal.Weighted>
-0.0000

> <Gold.Chemscore.Lipo.Weighted>
-9.0455

> <Gold.Chemscore.Internal_Hbond.Weighted>
0.0000

> <Gold.Chemscore.DEClash.Weighted>
0.2493

> <Gold.Chemscore.DEInternal.Weighted>
3.2930

> <Gold.Chemscore.Rot.Weighted>
3.3882

> <Gold.Chemscore.Internal.Correction.Weighted>
   9.000000E+99

> <Gold.Protein.RotatedTorsions>
[ 6907 6896 6895 6894 ] final   58.55 input  -60.11 | X-H torsion
[ 7974 7965 7964 7962 ] final   19.23 input  175.53 | X-H torsion
[ 8008 7997 7996 7995 ] final    6.84 input   59.86 | X-H torsion
[ 10167 10162 10161 10158 ] final  135.33 input  -65.29 | X-H torsion
[ 10718 10713 10712 10709 ] final   59.38 input   66.30 | X-H torsion
[ 10763 10752 10751 10750 ] final  158.07 input  -60.55 | X-H torsion
[ 11005 11000 10999 10996 ] final  -90.49 input  -57.11 | X-H torsion

> <Gold.Protein.ActiveResidues>
 VAL166  LYS551  ARG553  GLY616  TRP617  ASP618  TYR619  PRO620  LYS621  CYS622 
 ASP623  PHE694  ASN695  SER759  ASP760  ASP761  ALA762  ILE779  LEU786  VAL792 
 PHE793  MET794  SER795  GLU796  ALA797  LYS798  CYS799  TRP800  GLU811  SER814 

> <Gold.Protein.RotatedAtoms>
  152.3834  134.6555  160.0134 H   0  0  0  0  0  0  0  0  0  0  0  0  # atno 6907 bound_to 6896
  151.6811  133.3306  159.3228 H   0  0  0  0  0  0  0  0  0  0  0  0  # atno 6908 bound_to 6896
  150.7766  134.6716  159.6439 H   0  0  0  0  0  0  0  0  0  0  0  0  # atno 6909 bound_to 6896
  146.2157  139.8343  142.8653 H   0  0  0  0  0  0  0  0  0  0  0  0  # atno 7974 bound_to 7965
  154.7461  140.2758  155.6331 H   0  0  0  0  0  0  0  0  0  0  0  0  # atno 8008 bound_to 7997
  156.2885  140.2687  156.2129 H   0  0  0  0  0  0  0  0  0  0  0  0  # atno 8009 bound_to 7997
  155.0196  140.0371  157.2421 H   0  0  0  0  0  0  0  0  0  0  0  0  # atno 8010 bound_to 7997
  139.5221  144.6522  151.5268 H   0  0  0  0  0  0  0  0  0  0  0  0  # atno 10167 bound_to 10162
  157.5671  130.8879  149.9205 H   0  0  0  0  0  0  0  0  0  0  0  0  # atno 10718 bound_to 10713
  154.2103  135.2786  155.2960 H   0  0  0  0  0  0  0  0  0  0  0  0  # atno 10763 bound_to 10752
  154.5784  135.5597  153.7165 H   0  0  0  0  0  0  0  0  0  0  0  0  # atno 10764 bound_to 10752
  153.0066  135.6338  154.2242 H   0  0  0  0  0  0  0  0  0  0  0  0  # atno 10765 bound_to 10752
  141.1564  133.7695  156.9744 H   0  0  0  0  0  0  0  0  0  0  0  0  # atno 11005 bound_to 11000
  145.2964  141.0182  143.3633 LP  0  0  0  0  0  0  0  0  0  0  0  0  # atno 17320 bound_to 7965
  144.9038  139.4615  143.6619 LP  0  0  0  0  0  0  0  0  0  0  0  0  # atno 17321 bound_to 7965
  140.6332  143.9035  150.6624 LP  0  0  0  0  0  0  0  0  0  0  0  0  # atno 17342 bound_to 10162
  140.2346  143.3709  152.1537 LP  0  0  0  0  0  0  0  0  0  0  0  0  # atno 17343 bound_to 10162
  156.0719  130.3684  150.0759 LP  0  0  0  0  0  0  0  0  0  0  0  0  # atno 17370 bound_to 10713
  156.8916  130.9590  151.3587 LP  0  0  0  0  0  0  0  0  0  0  0  0  # atno 17371 bound_to 10713
  140.1107  134.9478  157.2062 LP  0  0  0  0  0  0  0  0  0  0  0  0  # atno 17394 bound_to 11000
  140.3197  134.2930  155.7249 LP  0  0  0  0  0  0  0  0  0  0  0  0  # atno 17395 bound_to 11000

$$$$
