AV-unprocessed.smi:1703|AV-procd|sdf|6877|dock4
  -GOLD-   22720 8 83D 1   1.00000     0.00000
 Structure written by MMmdl.
 50 52  0  0  0  0  0  0  0  0  3 V2000
  148.1774  132.0148  154.6572 C   0  0  0  0  0  0  0  0  0  0  0  0
  147.9530  133.5257  154.5310 C   0  0  2  0  0  0  0  0  0  0  0  0
  149.1280  134.3381  155.1069 C   0  0  0  0  0  0  0  0  0  0  0  0
  148.8425  135.7905  155.0326 N   0  3  2  0  0  0  0  0  0  0  0  0
  149.9788  136.6171  155.5147 C   0  0  0  0  0  0  0  0  0  0  0  0
  149.7690  138.1238  155.2615 C   0  0  2  0  0  0  0  0  0  0  0  0
  149.4412  138.3155  153.8994 O   0  0  0  0  0  0  0  0  0  0  0  0
  151.0264  138.9617  155.5869 C   0  0  0  0  0  0  0  0  0  0  0  0
  150.6906  140.2357  156.2388 N   0  0  0  0  0  0  0  0  0  0  0  0
  149.7891  141.1929  155.8745 C   0  0  0  0  0  0  0  0  0  0  0  0
  148.8965  141.1727  154.6782 C   0  0  0  0  0  0  0  0  0  0  0  0
  148.1768  142.3756  154.5269 O   0  0  0  0  0  0  0  0  0  0  0  0
  149.8545  142.1853  156.8054 N   0  3  0  0  0  0  0  0  0  0  0  0
  150.8005  141.8594  157.7779 C   0  0  0  0  0  0  0  0  0  0  0  0
  151.2132  142.5503  158.9128 C   0  0  0  0  0  0  0  0  0  0  0  0
  152.2081  141.9357  159.7007 C   0  0  0  0  0  0  0  0  0  0  0  0
  152.7508  140.6823  159.3512 C   0  0  0  0  0  0  0  0  0  0  0  0
  152.3233  139.9901  158.1987 C   0  0  0  0  0  0  0  0  0  0  0  0
  151.3413  140.6059  157.4222 C   0  0  0  0  0  0  0  0  0  0  0  0
  147.5541  136.0977  155.7017 C   0  0  0  0  0  0  0  0  0  0  0  0
  146.4215  135.2365  155.1105 C   0  0  2  0  0  0  0  0  0  0  0  0
  145.0861  135.4656  155.8266 C   0  0  0  0  0  0  0  0  0  0  0  0
  146.7663  133.8617  155.2415 O   0  0  0  0  0  0  0  0  0  0  0  0
  149.0733  131.7045  154.1185 H   0  0  0  0  0  0  0  0  0  0  0  0
  147.3340  131.4599  154.2454 H   0  0  0  0  0  0  0  0  0  0  0  0
  148.2935  131.7176  155.6997 H   0  0  0  0  0  0  0  0  0  0  0  0
  147.8206  133.7683  153.4750 H   0  0  0  0  0  0  0  0  0  0  0  0
  149.3116  134.0561  156.1452 H   0  0  0  0  0  0  0  0  0  0  0  0
  150.0369  134.1126  154.5473 H   0  0  0  0  0  0  0  0  0  0  0  0
  150.1334  136.4241  156.5769 H   0  0  0  0  0  0  0  0  0  0  0  0
  150.8968  136.3072  155.0126 H   0  0  0  0  0  0  0  0  0  0  0  0
  148.9269  138.4929  155.8467 H   0  0  0  0  0  0  0  0  0  0  0  0
  149.0079  137.5389  153.5780 H   0  0  0  0  0  0  0  0  0  0  0  0
  151.7365  138.4119  156.2048 H   0  0  0  0  0  0  0  0  0  0  0  0
  151.5749  139.2150  154.6781 H   0  0  0  0  0  0  0  0  0  0  0  0
  149.4890  140.9918  153.7813 H   0  0  0  0  0  0  0  0  0  0  0  0
  148.1901  140.3468  154.7675 H   0  0  0  0  0  0  0  0  0  0  0  0
  148.5670  143.0331  155.0823 H   0  0  0  0  0  0  0  0  0  0  0  0
  150.7985  143.5107  159.1833 H   0  0  0  0  0  0  0  0  0  0  0  0
  152.5627  142.4360  160.5905 H   0  0  0  0  0  0  0  0  0  0  0  0
  153.5125  140.2439  159.9799 H   0  0  0  0  0  0  0  0  0  0  0  0
  152.7517  139.0330  157.9433 H   0  0  0  0  0  0  0  0  0  0  0  0
  147.6463  135.9123  156.7731 H   0  0  0  0  0  0  0  0  0  0  0  0
  147.3045  137.1513  155.5816 H   0  0  0  0  0  0  0  0  0  0  0  0
  146.2920  135.4743  154.0532 H   0  0  0  0  0  0  0  0  0  0  0  0
  144.7689  136.5055  155.7438 H   0  0  0  0  0  0  0  0  0  0  0  0
  145.1579  135.2196  156.8866 H   0  0  0  0  0  0  0  0  0  0  0  0
  144.3012  134.8449  155.3938 H   0  0  0  0  0  0  0  0  0  0  0  0
  148.7279  136.0060  154.0520 H   0  0  0  0  0  0  0  0  0  0  0  0
  149.2925  143.0266  156.7724 H   0  0  0  0  0  0  0  0  0  0  0  0
  1  2  1  0  0  0  0
  1 24  1  0  0  0  0
  1 25  1  0  0  0  0
  1 26  1  0  0  0  0
  2 23  1  0  0  0  0
  2  3  1  0  0  0  0
  2 27  1  0  0  0  0
  3  4  1  0  0  0  0
  3 28  1  0  0  0  0
  3 29  1  0  0  0  0
  4  5  1  0  0  0  0
  4 20  1  0  0  0  0
  4 49  1  0  0  0  0
  5  6  1  0  0  0  0
  5 30  1  0  0  0  0
  5 31  1  0  0  0  0
  6  7  1  0  0  0  0
  6  8  1  0  0  0  0
  6 32  1  0  0  0  0
  7 33  1  0  0  0  0
  8  9  1  0  0  0  0
  8 34  1  0  0  0  0
  8 35  1  0  0  0  0
  9 19  1  0  0  0  0
  9 10  1  0  0  0  0
 10 11  1  0  0  0  0
 10 13  2  0  0  0  0
 11 12  1  0  0  0  0
 11 36  1  0  0  0  0
 11 37  1  0  0  0  0
 12 38  1  0  0  0  0
 13 14  1  0  0  0  0
 13 50  1  0  0  0  0
 14 19  2  0  0  0  0
 14 15  1  0  0  0  0
 15 16  2  0  0  0  0
 15 39  1  0  0  0  0
 16 17  1  0  0  0  0
 16 40  1  0  0  0  0
 17 18  2  0  0  0  0
 17 41  1  0  0  0  0
 18 19  1  0  0  0  0
 18 42  1  0  0  0  0
 20 21  1  0  0  0  0
 20 43  1  0  0  0  0
 20 44  1  0  0  0  0
 21 22  1  0  0  0  0
 21 23  1  0  0  0  0
 21 45  1  0  0  0  0
 22 46  1  0  0  0  0
 22 47  1  0  0  0  0
 22 48  1  0  0  0  0
M  CHG  1   4   1
M  CHG  1  13   1
M  END
> <s_m_source_file>
AV-unprocessed.smi

> <i_m_source_file_index>
1703

> <i_lp_mmshare_version>
43012

> <i_f3d_flags>
0

> <s_epik_input>
W0NIM11bQ0BASF0xW0NIMl1OKFtDSDJdW0NASF0oTzEpW0NIM10pW0NIMl1bQ0BIXShbT0hdKVtDSDJdbihjKG4yKVtDSDJdW09IXSljKGMyMylbY0hdW2NIXVtjSF1bY0hdMw==

> <s_epik_cmdline>
J2VwaWtfcHl0aG9uJywgJy1waCcsICc3LjAnLCAnLXRuJywgJzgnLCAnLW1hJywgJzIwMCcsICctbWV0YWxfYmluZGluZycsICctaW1hZScsICc8aW5maWxlLm1hZT4nLCAnLW9tYWUnLCAnPG91dGZpbGUubWFlPic=

> <r_epik_Ionization_Penalty>
2.22579

> <r_epik_Ionization_Penalty_Charging>
2.22492

> <r_epik_Ionization_Penalty_Neutral>
0.000870007

> <r_epik_State_Penalty>
2.3141

> <r_epik_Charging_Adjusted_Penalty>
4.53902

> <i_epik_Tot_Q>
2

> <i_epik_Tot_abs_Q>
2

> <r_epik_Metal_State_Penalty>
6.36517

> <b_epik_Metal_Only>
0

> <s_lp_Force_Field>
OPLS_2005

> <r_lp_Energy>
31.942

> <b_lp_Chiralities_Consistent>
1

> <s_lp_Variant>
AV-unprocessed.smi:1703-25

> <Gold.Version>
5.8.1

> <Gold.Id.Protein>
6NUR|6NUR_protein|mol2

> <Gold.PLP.Fitness>
60.6146

> <Gold.PLP.PLP>
-44.0248

> <Gold.PLP.part.hbond>
-6.0546

> <Gold.PLP.part.metal>
0.0000

> <Gold.PLP.part.buried>
-3.0145

> <Gold.PLP.part.nonpolar>
-34.0606

> <Gold.PLP.part.repulsive>
0.1572

> <Gold.PLP.ligand.clash>
0.0000

> <Gold.PLP.ligand.torsion>
0.7132

> <Gold.PLP.Chemscore.Hbond>
5.9753

> <Gold.PLP.Chemscore.CHOScore>
0.0000

> <Gold.PLP.Chemscore.Metal>
0.0000

> <Gold.Chemscore.Hbonds>
donor molecule, donor type, donor heavy atom, donor atom, acceptor molecule, acceptor atom, score
      L1  H     4    49       P1  7948  1.17
      L1  H     7    33       P1  7948  0.59
      L1  H    12    38       P1  8028  1.00
      L1  H    13    50       P1  8028  1.66

> <Gold.PLP.Chemscore.Internal.Correction>
0.0904

> <Gold.Rescore>
     Score         DG    S(hbond)    S(metal)    S(lipo)     H(rot)  DE(clash)    DE(int)     intcor
     19.65     -21.14       3.76        0.00      93.07       3.04       0.75       0.74       ----

> <Gold.Chemscore.Fitness>
19.6546

> <Gold.Chemscore.DG>
-21.1390

> <Gold.Chemscore.ZeroCoef>
-5.4800

> <Gold.Chemscore.Hbond>
3.7566

> <Gold.Chemscore.Metal>
0.0000

> <Gold.Chemscore.Lipo>
93.0651

> <Gold.Chemscore.Internal_Hbond>
0.0000

> <Gold.Chemscore.DEClash>
0.7457

> <Gold.Chemscore.DEInternal>
0.7388

> <Gold.Chemscore.Rot>
3.0378

> <Gold.Chemscore.Internal.Correction>
   9.000000E+99

> <Gold.Chemscore.Hbonds>
donor molecule, donor type, donor heavy atom, donor atom, acceptor molecule, acceptor atom, score
      L1  H     4    49       P1  7948  0.58
      L1  H     7    33       P1  7948  0.58
      L1  H    12    38       P1  8028  0.98
      L1  H    13    50       P1  8028  0.76

> <Gold.Chemscore.Hbond.Weighted>
-12.5471

> <Gold.Chemscore.Metal.Weighted>
-0.0000

> <Gold.Chemscore.Lipo.Weighted>
-10.8886

> <Gold.Chemscore.Internal_Hbond.Weighted>
0.0000

> <Gold.Chemscore.DEClash.Weighted>
0.7457

> <Gold.Chemscore.DEInternal.Weighted>
0.7388

> <Gold.Chemscore.Rot.Weighted>
7.7767

> <Gold.Chemscore.Internal.Correction.Weighted>
   9.000000E+99

> <Gold.Protein.RotatedTorsions>
[ 6907 6896 6895 6894 ] final  -48.31 input  -60.11 | X-H torsion
[ 7974 7965 7964 7962 ] final  174.37 input  175.53 | X-H torsion
[ 8008 7997 7996 7995 ] final  171.17 input   59.86 | X-H torsion
[ 10167 10162 10161 10158 ] final -101.30 input  -65.29 | X-H torsion
[ 10718 10713 10712 10709 ] final  -71.17 input   66.30 | X-H torsion
[ 10763 10752 10751 10750 ] final   99.68 input  -60.55 | X-H torsion
[ 11005 11000 10999 10996 ] final   76.09 input  -57.11 | X-H torsion

> <Gold.Protein.ActiveResidues>
 VAL166  LYS551  ARG553  GLY616  TRP617  ASP618  TYR619  PRO620  LYS621  CYS622 
 ASP623  PHE694  ASN695  SER759  ASP760  ASP761  ALA762  ILE779  LEU786  VAL792 
 PHE793  MET794  SER795  GLU796  ALA797  LYS798  CYS799  TRP800  GLU811  SER814 

> <Gold.Protein.RotatedAtoms>
  150.8919  134.8323  159.7298 H   0  0  0  0  0  0  0  0  0  0  0  0  # atno 6907 bound_to 6896
  152.4842  134.4635  159.9622 H   0  0  0  0  0  0  0  0  0  0  0  0  # atno 6908 bound_to 6896
  151.4697  133.3533  159.2857 H   0  0  0  0  0  0  0  0  0  0  0  0  # atno 6909 bound_to 6896
  144.7223  139.9786  143.6438 H   0  0  0  0  0  0  0  0  0  0  0  0  # atno 7974 bound_to 7965
  156.1296  140.1519  156.9084 H   0  0  0  0  0  0  0  0  0  0  0  0  # atno 8008 bound_to 7997
  154.4899  140.0854  156.7610 H   0  0  0  0  0  0  0  0  0  0  0  0  # atno 8009 bound_to 7997
  155.4280  140.3426  155.4279 H   0  0  0  0  0  0  0  0  0  0  0  0  # atno 8010 bound_to 7997
  140.2427  143.3527  152.0787 H   0  0  0  0  0  0  0  0  0  0  0  0  # atno 10167 bound_to 10162
  156.0375  130.4346  150.2404 H   0  0  0  0  0  0  0  0  0  0  0  0  # atno 10718 bound_to 10713
  153.3044  135.4105  155.1281 H   0  0  0  0  0  0  0  0  0  0  0  0  # atno 10763 bound_to 10752
  154.8558  135.3549  154.5808 H   0  0  0  0  0  0  0  0  0  0  0  0  # atno 10764 bound_to 10752
  153.6235  135.7063  153.5360 H   0  0  0  0  0  0  0  0  0  0  0  0  # atno 10765 bound_to 10752
  139.9314  134.7572  156.1352 H   0  0  0  0  0  0  0  0  0  0  0  0  # atno 11005 bound_to 11000
  146.0505  139.3507  143.0642 LP  0  0  0  0  0  0  0  0  0  0  0  0  # atno 17320 bound_to 7965
  145.8220  140.9674  143.0894 LP  0  0  0  0  0  0  0  0  0  0  0  0  # atno 17321 bound_to 7965
  139.5072  144.6827  151.5966 LP  0  0  0  0  0  0  0  0  0  0  0  0  # atno 17342 bound_to 10162
  140.6101  143.9452  150.6447 LP  0  0  0  0  0  0  0  0  0  0  0  0  # atno 17343 bound_to 10162
  157.0502  131.0060  151.3256 LP  0  0  0  0  0  0  0  0  0  0  0  0  # atno 17370 bound_to 10713
  157.5146  130.7960  149.7742 LP  0  0  0  0  0  0  0  0  0  0  0  0  # atno 17371 bound_to 10713
  141.0904  133.6716  156.2529 LP  0  0  0  0  0  0  0  0  0  0  0  0  # atno 17394 bound_to 11000
  140.6192  134.5379  157.5545 LP  0  0  0  0  0  0  0  0  0  0  0  0  # atno 17395 bound_to 11000

$$$$
