#       Name:                AV-unprocessed.smi:2061
#       Creating user name   scv26
#       Creation time:       Fri Mar 27 11:04:26 2020


#       File generated by GOLD software.
#

@<TRIPOS>MOLECULE
AV-unprocessed.smi:2061
    53    54     1
SMALL
NO_CHARGES


@<TRIPOS>ATOM
      1 ****        -3.7936   7.1491  -2.3036 C.3            1 S1                 0.0000
      2 ****        -3.2918   5.7935  -1.9415 C.2            1 S1                 0.0000
      3 ****        -3.0340   5.1855  -0.7451 C.2            1 S1                 0.0000
      4 ****        -2.5751   3.8987  -1.1330 C.2            1 S1                 0.0000
      5 ****        -2.1883   2.9397  -0.1623 N.am           1 S1                 0.0000
      6 ****        -1.7210   1.6985  -0.3806 C.2            1 S1                 0.0000
      7 ****        -1.5710   1.1794  -1.4871 O.2            1 S1                 0.0000
      8 ****        -1.4247   1.0767   0.7698 N.am           1 S1                 0.0000
      9 ****        -0.8853  -0.2766   0.8670 C.3            1 S1                 0.0000
     10 ****         0.6222  -0.3584   0.5083 C.3            1 S1                 0.0000
     11 ****         1.4418   0.5765   1.4306 C.3            1 S1                 0.0000
     12 ****         1.0779  -1.7866   0.5356 N.4            1 S1                 1.0000
     13 ****         0.6677  -2.5317  -0.6852 C.3            1 S1                 0.0000
     14 ****         1.0304  -4.0256  -0.5912 C.3            1 S1                 0.0000
     15 ****         0.1402  -4.8166   0.3838 C.3            1 S1                 0.0000
     16 ****         2.4190  -4.1728  -0.3046 O.3            1 S1                 0.0000
     17 ****         2.8529  -3.5079   0.8766 C.3            1 S1                 0.0000
     18 ****         4.3566  -3.7620   1.0325 C.3            1 S1                 0.0000
     19 ****         2.5292  -2.0052   0.7806 C.3            1 S1                 0.0000
     20 ****        -2.5566   3.7350  -2.4469 N.2            1 S1                 0.0000
     21 ****        -3.0162   4.9486  -2.9717 O.3            1 S1                 0.0000
     22 ****        -4.0039   7.7383  -1.4107 H              1 S1                 0.0000
     23 ****        -4.7119   7.0787  -2.8866 H              1 S1                 0.0000
     24 ****        -3.0553   7.6880  -2.8976 H              1 S1                 0.0000
     25 ****        -3.1534   5.5991   0.2451 H              1 S1                 0.0000
     26 ****        -2.2649   3.2357   0.7995 H              1 S1                 0.0000
     27 ****        -1.5789   1.5725   1.6357 H              1 S1                 0.0000
     28 ****        -1.0380  -0.6234   1.8895 H              1 S1                 0.0000
     29 ****        -1.4903  -0.9286   0.2377 H              1 S1                 0.0000
     30 ****         0.7641   0.0095  -0.5093 H              1 S1                 0.0000
     31 ****         1.0688   1.6000   1.4008 H              1 S1                 0.0000
     32 ****         2.4871   0.6360   1.1269 H              1 S1                 0.0000
     33 ****         1.4040   0.2466   2.4692 H              1 S1                 0.0000
     34 ****        -0.4006  -2.4359  -0.8716 H              1 S1                 0.0000
     35 ****         1.1698  -2.0940  -1.5496 H              1 S1                 0.0000
     36 ****         0.8811  -4.4646  -1.5782 H              1 S1                 0.0000
     37 ****        -0.8998  -4.7991   0.0574 H              1 S1                 0.0000
     38 ****         0.1672  -4.4104   1.3945 H              1 S1                 0.0000
     39 ****         0.4510  -5.8605   0.4337 H              1 S1                 0.0000
     40 ****         2.3496  -3.9346   1.7445 H              1 S1                 0.0000
     41 ****         4.7459  -3.2824   1.9308 H              1 S1                 0.0000
     42 ****         4.9138  -3.3754   0.1786 H              1 S1                 0.0000
     43 ****         4.5657  -4.8292   1.1100 H              1 S1                 0.0000
     44 ****         3.1086  -1.5392  -0.0182 H              1 S1                 0.0000
     45 ****         2.8375  -1.5479   1.7202 H              1 S1                 0.0000
     46 ****         0.6023  -2.2157   1.3164 H              1 S1                 0.0000
     47 ****        -1.8043   1.6899  -2.3147 LP             1 S1                 0.0000
     48 ****        -1.2159   0.2472  -1.5581 LP             1 S1                 0.0000
     49 ****         2.9377  -3.8067  -1.0773 LP             1 S1                 0.0000
     50 ****         2.6152  -5.1482  -0.2037 LP             1 S1                 0.0000
     51 ****        -2.2752   2.9206  -2.9544 LP             1 S1                 0.0000
     52 ****        -2.3118   5.3502  -3.5570 LP             1 S1                 0.0000
     53 ****        -3.8452   4.7906  -3.5082 LP             1 S1                 0.0000
@<TRIPOS>BOND
    1    1    2 1     
    2    1   22 1     
    3    1   23 1     
    4    1   24 1     
    5    2   21 1     
    6    2    3 2     
    7    3    4 1     
    8    3   25 1     
    9    4    5 1     
   10    4   20 2     
   11    5    6 am    
   12    5   26 1     
   13    6    7 2     
   14    6    8 am    
   15    8    9 1     
   16    8   27 1     
   17    9   10 1     
   18    9   28 1     
   19    9   29 1     
   20   10   11 1     
   21   10   12 1     
   22   10   30 1     
   23   11   31 1     
   24   11   32 1     
   25   11   33 1     
   26   12   19 1     
   27   12   13 1     
   28   12   46 1     
   29   13   14 1     
   30   13   34 1     
   31   13   35 1     
   32   14   15 1     
   33   14   16 1     
   34   14   36 1     
   35   15   37 1     
   36   15   38 1     
   37   15   39 1     
   38   16   17 1     
   39   17   18 1     
   40   17   19 1     
   41   17   40 1     
   42   18   41 1     
   43   18   42 1     
   44   18   43 1     
   45   19   44 1     
   46   19   45 1     
   47   20   21 1     
   48    7   47 1     
   49    7   48 1     
   50   16   49 1     
   51   16   50 1     
   52   20   51 1     
   53   21   52 1     
   54   21   53 1     
@<TRIPOS>SUBSTRUCTURE
      1 S1             1
@<TRIPOS>SET
LONE_PAIRS      STATIC     ATOMS    <user>   **** ""
7 47 48 49 50 51 52 53
DONOR_HYDROGENS      STATIC     ATOMS    <user>   **** ""
3 26 27 46
ATOM$BLUE        STATIC     ATOMS    COLORGROUP SYSTEM
7 47 48 49 50 51 52 53
ATOM$RED        STATIC     ATOMS    COLORGROUP SYSTEM
3 26 27 46
