AV-unprocessed.smi:222|AV-procd|sdf|1702|dock3
  -GOLD-   2262020163D 1   1.00000     0.00000
 Structure written by MMmdl.
 59 61  0  0  0  0  0  0  0  0  1 V2000
  152.0637  138.5614  154.5448 C   0  0  0  0  0  0  0  0  0  0  0  0
  150.8492  139.2512  154.2968 O   0  0  0  0  0  0  0  0  0  0  0  0
  150.6840  140.4460  155.0500 C   0  0  0  0  0  0  0  0  0  0  0  0
  149.3960  140.4490  155.8991 C   0  0  0  0  0  0  0  0  0  0  0  0
  149.6619  140.4404  157.3430 N   0  0  0  0  0  0  0  0  0  0  0  0
  149.9206  141.7274  158.0095 C   0  0  0  0  0  0  0  0  0  0  0  0
  151.4161  142.0705  158.1900 C   0  0  0  0  0  0  0  0  0  0  0  0
  152.2576  141.1729  158.1123 O   0  0  0  0  0  0  0  0  0  0  0  0
  151.7618  143.3571  158.4242 N   0  0  0  0  0  0  0  0  0  0  0  0
  153.1455  143.7904  158.6346 C   0  0  0  0  0  0  0  0  0  0  0  0
  150.7397  144.4047  158.4820 C   0  0  0  0  0  0  0  0  0  0  0  0
  149.8154  139.2551  158.0102 C   0  0  0  0  0  0  0  0  0  0  0  0
  151.0377  138.9581  158.5297 N   0  0  0  0  0  0  0  0  0  0  0  0
  151.2419  137.8299  159.2127 C   0  0  0  0  0  0  0  0  0  0  0  0
  150.3742  136.8587  159.4930 N   0  0  0  0  0  0  0  0  0  0  0  0
  149.1452  137.1320  158.9717 C   0  0  0  0  0  0  0  0  0  0  0  0
  148.7793  138.2920  158.2262 C   0  0  0  0  0  0  0  0  0  0  0  0
  147.4369  138.1996  157.8706 N   0  0  0  0  0  0  0  0  0  0  0  0
  147.0349  137.0711  158.3838 C   0  0  0  0  0  0  0  0  0  0  0  0
  148.0016  136.3544  159.0487 N   0  0  0  0  0  0  0  0  0  0  0  0
  147.8299  135.0722  159.7180 C   0  0  0  0  0  0  0  0  0  0  0  0
  146.5144  134.9252  160.5468 C   0  0  0  0  0  0  0  0  0  0  0  0
  145.3141  134.8675  159.5615 C   0  0  0  0  0  0  0  0  0  0  0  0
  144.0639  134.7134  160.2047 O   0  0  0  0  0  0  0  0  0  0  0  0
  146.5873  133.6186  161.3790 C   0  0  0  0  0  0  0  0  0  0  0  0
  147.5882  133.7122  162.5472 C   0  0  0  0  0  0  0  0  0  0  0  0
  147.2760  134.8271  163.3738 O   0  0  0  0  0  0  0  0  0  0  0  0
  147.3511  136.0701  162.6864 C   0  0  0  0  0  0  0  0  0  0  0  0
  146.3203  136.0971  161.5438 C   0  0  0  0  0  0  0  0  0  0  0  0
  152.1247  137.6940  153.8876 H   0  0  0  0  0  0  0  0  0  0  0  0
  152.1267  138.2006  155.5708 H   0  0  0  0  0  0  0  0  0  0  0  0
  152.9275  139.1953  154.3417 H   0  0  0  0  0  0  0  0  0  0  0  0
  151.5558  140.6041  155.6861 H   0  0  0  0  0  0  0  0  0  0  0  0
  150.6655  141.2834  154.3524 H   0  0  0  0  0  0  0  0  0  0  0  0
  148.7737  141.3086  155.6532 H   0  0  0  0  0  0  0  0  0  0  0  0
  148.7787  139.5932  155.6233 H   0  0  0  0  0  0  0  0  0  0  0  0
  149.4796  142.5290  157.4166 H   0  0  0  0  0  0  0  0  0  0  0  0
  149.3883  141.7528  158.9587 H   0  0  0  0  0  0  0  0  0  0  0  0
  153.6497  143.1641  159.3715 H   0  0  0  0  0  0  0  0  0  0  0  0
  153.2092  144.8148  159.0023 H   0  0  0  0  0  0  0  0  0  0  0  0
  153.7047  143.7414  157.6996 H   0  0  0  0  0  0  0  0  0  0  0  0
  150.0706  144.3464  157.6220 H   0  0  0  0  0  0  0  0  0  0  0  0
  151.1654  145.4082  158.4829 H   0  0  0  0  0  0  0  0  0  0  0  0
  150.1398  144.2961  159.3864 H   0  0  0  0  0  0  0  0  0  0  0  0
  152.2436  137.6865  159.5896 H   0  0  0  0  0  0  0  0  0  0  0  0
  146.0162  136.7264  158.2839 H   0  0  0  0  0  0  0  0  0  0  0  0
  147.8743  134.2909  158.9580 H   0  0  0  0  0  0  0  0  0  0  0  0
  148.7107  134.9161  160.3383 H   0  0  0  0  0  0  0  0  0  0  0  0
  145.2580  135.7785  158.9657 H   0  0  0  0  0  0  0  0  0  0  0  0
  145.4368  134.0390  158.8631 H   0  0  0  0  0  0  0  0  0  0  0  0
  144.2155  134.4108  161.0871 H   0  0  0  0  0  0  0  0  0  0  0  0
  145.6115  133.3891  161.8076 H   0  0  0  0  0  0  0  0  0  0  0  0
  146.8389  132.7721  160.7391 H   0  0  0  0  0  0  0  0  0  0  0  0
  147.5314  132.8078  163.1532 H   0  0  0  0  0  0  0  0  0  0  0  0
  148.6175  133.7814  162.1952 H   0  0  0  0  0  0  0  0  0  0  0  0
  147.1387  136.8708  163.3949 H   0  0  0  0  0  0  0  0  0  0  0  0
  148.3641  136.2391  162.3207 H   0  0  0  0  0  0  0  0  0  0  0  0
  146.3437  137.0592  161.0335 H   0  0  0  0  0  0  0  0  0  0  0  0
  145.3309  136.0357  161.9980 H   0  0  0  0  0  0  0  0  0  0  0  0
  1  2  1  0  0  0  0
  1 30  1  0  0  0  0
  1 31  1  0  0  0  0
  1 32  1  0  0  0  0
  2  3  1  0  0  0  0
  3  4  1  0  0  0  0
  3 33  1  0  0  0  0
  3 34  1  0  0  0  0
  4  5  1  0  0  0  0
  4 35  1  0  0  0  0
  4 36  1  0  0  0  0
  5  6  1  0  0  0  0
  5 12  1  0  0  0  0
  6  7  1  0  0  0  0
  6 37  1  0  0  0  0
  6 38  1  0  0  0  0
  7  8  2  0  0  0  0
  7  9  1  0  0  0  0
  9 10  1  0  0  0  0
  9 11  1  0  0  0  0
 10 39  1  0  0  0  0
 10 40  1  0  0  0  0
 10 41  1  0  0  0  0
 11 42  1  0  0  0  0
 11 43  1  0  0  0  0
 11 44  1  0  0  0  0
 12 17  1  0  0  0  0
 12 13  2  0  0  0  0
 13 14  1  0  0  0  0
 14 15  2  0  0  0  0
 14 45  1  0  0  0  0
 15 16  1  0  0  0  0
 16 20  1  0  0  0  0
 16 17  2  0  0  0  0
 17 18  1  0  0  0  0
 18 19  2  0  0  0  0
 19 20  1  0  0  0  0
 19 46  1  0  0  0  0
 20 21  1  0  0  0  0
 21 22  1  0  0  0  0
 21 47  1  0  0  0  0
 21 48  1  0  0  0  0
 22 29  1  0  0  0  0
 22 23  1  0  0  0  0
 22 25  1  0  0  0  0
 23 24  1  0  0  0  0
 23 49  1  0  0  0  0
 23 50  1  0  0  0  0
 24 51  1  0  0  0  0
 25 26  1  0  0  0  0
 25 52  1  0  0  0  0
 25 53  1  0  0  0  0
 26 27  1  0  0  0  0
 26 54  1  0  0  0  0
 26 55  1  0  0  0  0
 27 28  1  0  0  0  0
 28 29  1  0  0  0  0
 28 56  1  0  0  0  0
 28 57  1  0  0  0  0
 29 58  1  0  0  0  0
 29 59  1  0  0  0  0
M  END
> <s_m_source_file>
AV-unprocessed.smi

> <i_m_source_file_index>
222

> <i_lp_mmshare_version>
43012

> <i_f3d_flags>
0

> <s_epik_input>
W0NIM11PW0NIMl1bQ0gyXU4oW0NIMl1DKD1PKU4oW0NIM10pW0NIM10pYyhuW2NIXW4xKWMoYzEyKW5bY0hdbjJbQ0gyXUMzKFtDSDJdW09IXSlbQ0gyXVtDSDJdT1tDSDJdW0NIMl0z

> <s_epik_cmdline>
J2VwaWtfcHl0aG9uJywgJy1waCcsICc3LjAnLCAnLXRuJywgJzgnLCAnLW1hJywgJzIwMCcsICctbWV0YWxfYmluZGluZycsICctaW1hZScsICc8aW5maWxlLm1hZT4nLCAnLW9tYWUnLCAnPG91dGZpbGUubWFlPic=

> <r_lp_tautomer_probability>
1

> <r_epik_Ionization_Penalty>
0.000796957

> <r_epik_Ionization_Penalty_Charging>
0

> <r_epik_Ionization_Penalty_Neutral>
0.000796957

> <r_epik_State_Penalty>
0.000428513

> <r_epik_Charging_Adjusted_Penalty>
0.000428513

> <i_epik_Tot_Q>
0

> <i_epik_Tot_abs_Q>
0

> <r_epik_Metal_State_Penalty>
-0

> <b_epik_Metal_Only>
0

> <s_lp_Force_Field>
OPLS_2005

> <r_lp_Energy>
34.6666

> <b_lp_Chiralities_Consistent>
1

> <s_lp_Variant>
AV-unprocessed.smi:222-1

> <Gold.Version>
5.8.1

> <Gold.Id.Protein>
6NUR|6NUR_protein|mol2

> <Gold.PLP.Fitness>
42.3659

> <Gold.PLP.PLP>
-45.0446

> <Gold.PLP.part.hbond>
-3.6664

> <Gold.PLP.part.metal>
0.0000

> <Gold.PLP.part.buried>
-6.6695

> <Gold.PLP.part.nonpolar>
-35.1555

> <Gold.PLP.part.repulsive>
0.1527

> <Gold.PLP.ligand.clash>
0.0000

> <Gold.PLP.ligand.torsion>
3.1106

> <Gold.PLP.Chemscore.Hbond>
1.0000

> <Gold.PLP.Chemscore.CHOScore>
0.0000

> <Gold.PLP.Chemscore.Metal>
0.0000

> <Gold.Chemscore.Hbonds>
donor molecule, donor type, donor heavy atom, donor atom, acceptor molecule, acceptor atom, score
      P1  H  6896  6908       L1    15  1.00

> <Gold.PLP.Chemscore.Internal.Correction>
0.5425

> <Gold.Rescore>
     Score         DG    S(hbond)    S(metal)    S(lipo)     H(rot)  DE(clash)    DE(int)     intcor
      5.87     -10.41       0.97        0.00      90.72       3.49       0.13       4.40       ----

> <Gold.Chemscore.Fitness>
5.8722

> <Gold.Chemscore.DG>
-10.4094

> <Gold.Chemscore.ZeroCoef>
-5.4800

> <Gold.Chemscore.Hbond>
0.9730

> <Gold.Chemscore.Metal>
0.0000

> <Gold.Chemscore.Lipo>
90.7212

> <Gold.Chemscore.Internal_Hbond>
0.0000

> <Gold.Chemscore.DEClash>
0.1344

> <Gold.Chemscore.DEInternal>
4.4027

> <Gold.Chemscore.Rot>
3.4901

> <Gold.Chemscore.Internal.Correction>
   9.000000E+99

> <Gold.Chemscore.Hbonds>
donor molecule, donor type, donor heavy atom, donor atom, acceptor molecule, acceptor atom, score
      P1  H  6896  6908       L1    15  0.94

> <Gold.Chemscore.Hbond.Weighted>
-3.2497

> <Gold.Chemscore.Metal.Weighted>
-0.0000

> <Gold.Chemscore.Lipo.Weighted>
-10.6144

> <Gold.Chemscore.Internal_Hbond.Weighted>
0.0000

> <Gold.Chemscore.DEClash.Weighted>
0.1344

> <Gold.Chemscore.DEInternal.Weighted>
4.4027

> <Gold.Chemscore.Rot.Weighted>
8.9347

> <Gold.Chemscore.Internal.Correction.Weighted>
   9.000000E+99

> <Gold.Protein.RotatedTorsions>
[ 6907 6896 6895 6894 ] final -150.43 input  -60.11 | X-H torsion
[ 7974 7965 7964 7962 ] final   81.07 input  175.53 | X-H torsion
[ 8008 7997 7996 7995 ] final  158.11 input   59.86 | X-H torsion
[ 10167 10162 10161 10158 ] final -149.27 input  -65.29 | X-H torsion
[ 10718 10713 10712 10709 ] final  175.78 input   66.30 | X-H torsion
[ 10763 10752 10751 10750 ] final   52.57 input  -60.55 | X-H torsion
[ 11005 11000 10999 10996 ] final -171.10 input  -57.11 | X-H torsion

> <Gold.Protein.ActiveResidues>
 VAL166  LYS551  ARG553  GLY616  TRP617  ASP618  TYR619  PRO620  LYS621  CYS622 
 ASP623  PHE694  ASN695  SER759  ASP760  ASP761  ALA762  ILE779  LEU786  VAL792 
 PHE793  MET794  SER795  GLU796  ALA797  LYS798  CYS799  TRP800  GLU811  SER814 

> <Gold.Protein.RotatedAtoms>
  151.1985  133.4625  159.2595 H   0  0  0  0  0  0  0  0  0  0  0  0  # atno 6907 bound_to 6896
  151.1093  135.0017  159.8496 H   0  0  0  0  0  0  0  0  0  0  0  0  # atno 6908 bound_to 6896
  152.5449  134.1905  159.8725 H   0  0  0  0  0  0  0  0  0  0  0  0  # atno 6909 bound_to 6896
  145.6430  139.2429  143.2020 H   0  0  0  0  0  0  0  0  0  0  0  0  # atno 7974 bound_to 7965
  156.2323  140.1867  156.7211 H   0  0  0  0  0  0  0  0  0  0  0  0  # atno 8008 bound_to 7997
  154.6043  140.0631  156.9438 H   0  0  0  0  0  0  0  0  0  0  0  0  # atno 8009 bound_to 7997
  155.2121  140.3301  155.4330 H   0  0  0  0  0  0  0  0  0  0  0  0  # atno 8010 bound_to 7997
  139.7457  143.8594  152.2574 H   0  0  0  0  0  0  0  0  0  0  0  0  # atno 10167 bound_to 10162
  156.9298  130.9967  151.2989 H   0  0  0  0  0  0  0  0  0  0  0  0  # atno 10718 bound_to 10713
  152.9789  135.5808  154.4600 H   0  0  0  0  0  0  0  0  0  0  0  0  # atno 10763 bound_to 10752
  154.4177  135.2771  155.1998 H   0  0  0  0  0  0  0  0  0  0  0  0  # atno 10764 bound_to 10752
  154.3760  135.6157  153.5819 H   0  0  0  0  0  0  0  0  0  0  0  0  # atno 10765 bound_to 10752
  140.5120  134.5792  157.5022 H   0  0  0  0  0  0  0  0  0  0  0  0  # atno 11005 bound_to 11000
  146.1266  140.7240  142.9432 LP  0  0  0  0  0  0  0  0  0  0  0  0  # atno 17320 bound_to 7965
  144.7150  140.4178  143.7051 LP  0  0  0  0  0  0  0  0  0  0  0  0  # atno 17321 bound_to 7965
  139.8558  144.7142  150.9159 LP  0  0  0  0  0  0  0  0  0  0  0  0  # atno 17342 bound_to 10162
  140.7792  143.3860  151.1393 LP  0  0  0  0  0  0  0  0  0  0  0  0  # atno 17343 bound_to 10162
  157.5854  130.8406  149.8582 LP  0  0  0  0  0  0  0  0  0  0  0  0  # atno 17370 bound_to 10713
  156.0452  130.3729  150.1334 LP  0  0  0  0  0  0  0  0  0  0  0  0  # atno 17371 bound_to 10713
  139.9653  134.7383  156.0150 LP  0  0  0  0  0  0  0  0  0  0  0  0  # atno 17394 bound_to 11000
  141.1380  133.6571  156.3649 LP  0  0  0  0  0  0  0  0  0  0  0  0  # atno 17395 bound_to 11000

$$$$
