AV-unprocessed.smi:2698|AV-procd|sdf|10422|dock6
  -GOLD-   2272014463D 1   1.00000     0.00000
 Structure written by MMmdl.
 33 33  0  0  0  0  0  0  0  0  2 V2000
  153.1639  143.2129  159.4772 C   0  0  0  0  0  0  0  0  0  0  0  0
  152.8372  142.2465  160.6258 C   0  0  0  0  0  0  0  0  0  0  0  0
  152.7896  143.0049  161.9652 C   0  0  0  0  0  0  0  0  0  0  0  0
  153.8241  141.0558  160.6305 C   0  0  0  0  0  0  0  0  0  0  0  0
  153.6202  140.0931  159.4577 C   0  0  0  0  0  0  0  0  0  0  0  0
  154.5918  139.5686  158.9130 O   0  0  0  0  0  0  0  0  0  0  0  0
  152.3499  139.8753  159.0809 N   0  0  0  0  0  0  0  0  0  0  0  0
  151.9031  138.9608  158.0298 C   0  0  1  0  0  0  0  0  0  0  0  0
  152.3227  139.4629  156.6307 C   0  0  0  0  0  0  0  0  0  0  0  0
  151.4813  138.9524  155.4867 C   0  0  0  0  0  0  0  0  0  0  0  0
  151.3148  137.6530  155.0534 C   0  0  0  0  0  0  0  0  0  0  0  0
  150.4248  137.7078  153.9958 N   0  0  0  0  0  0  0  0  0  0  0  0
  150.0959  138.9889  153.8282 C   0  0  0  0  0  0  0  0  0  0  0  0
  150.6974  139.7966  154.6909 N   0  0  0  0  0  0  0  0  0  0  0  0
  152.3890  137.5394  158.3304 C   0  0  0  0  0  0  0  0  0  0  0  0
  151.9197  136.9745  159.3437 O   0  0  0  0  0  0  0  0  0  0  0  0
  153.2254  137.0408  157.5456 O   0  5  0  0  0  0  0  0  0  0  0  0
  150.0828  136.9251  153.4573 H   0  0  0  0  0  0  0  0  0  0  0  0
  154.1522  143.6562  159.6021 H   0  0  0  0  0  0  0  0  0  0  0  0
  152.4380  144.0249  159.4280 H   0  0  0  0  0  0  0  0  0  0  0  0
  153.1470  142.7010  158.5147 H   0  0  0  0  0  0  0  0  0  0  0  0
  151.8368  141.8534  160.4367 H   0  0  0  0  0  0  0  0  0  0  0  0
  153.7736  143.3871  162.2382 H   0  0  0  0  0  0  0  0  0  0  0  0
  152.4399  142.3708  162.7793 H   0  0  0  0  0  0  0  0  0  0  0  0
  152.1079  143.8537  161.9093 H   0  0  0  0  0  0  0  0  0  0  0  0
  154.8502  141.4257  160.6013 H   0  0  0  0  0  0  0  0  0  0  0  0
  153.7327  140.4973  161.5631 H   0  0  0  0  0  0  0  0  0  0  0  0
  151.6202  140.3690  159.5743 H   0  0  0  0  0  0  0  0  0  0  0  0
  150.8120  138.9205  158.0469 H   0  0  0  0  0  0  0  0  0  0  0  0
  152.3191  140.5537  156.6030 H   0  0  0  0  0  0  0  0  0  0  0  0
  153.3527  139.1609  156.4373 H   0  0  0  0  0  0  0  0  0  0  0  0
  151.7354  136.7244  155.4096 H   0  0  0  0  0  0  0  0  0  0  0  0
  149.4078  139.3338  153.0705 H   0  0  0  0  0  0  0  0  0  0  0  0
  1  2  1  0  0  0  0
  1 19  1  0  0  0  0
  1 20  1  0  0  0  0
  1 21  1  0  0  0  0
  2  3  1  0  0  0  0
  2  4  1  0  0  0  0
  2 22  1  0  0  0  0
  3 23  1  0  0  0  0
  3 24  1  0  0  0  0
  3 25  1  0  0  0  0
  4  5  1  0  0  0  0
  4 26  1  0  0  0  0
  4 27  1  0  0  0  0
  5  6  2  0  0  0  0
  5  7  1  0  0  0  0
  7  8  1  0  0  0  0
  7 28  1  0  0  0  0
  8  9  1  0  0  0  0
  8 15  1  0  0  0  0
  8 29  1  0  0  0  0
  9 10  1  0  0  0  0
  9 30  1  0  0  0  0
  9 31  1  0  0  0  0
 10 14  1  0  0  0  0
 10 11  2  0  0  0  0
 11 12  1  0  0  0  0
 11 32  1  0  0  0  0
 12 18  1  0  0  0  0
 12 13  1  0  0  0  0
 13 14  2  0  0  0  0
 13 33  1  0  0  0  0
 15 16  2  0  0  0  0
 15 17  1  0  0  0  0
M  CHG  1  17  -1
M  END
> <s_m_source_file>
AV-unprocessed.smi

> <i_m_source_file_index>
2698

> <i_lp_mmshare_version>
43012

> <i_f3d_flags>
0

> <s_epik_input>
W0NIM11bQ0hdKFtDSDNdKVtDSDJdQyg9TylbTkhdW0NAQEhdKEMoPU8pW09IXSlbQ0gyXWMxW2NIXVtuSF1bY0hdbjE=

> <s_epik_cmdline>
J2VwaWtfcHl0aG9uJywgJy1waCcsICc3LjAnLCAnLXRuJywgJzgnLCAnLW1hJywgJzIwMCcsICctbWV0YWxfYmluZGluZycsICctaW1hZScsICc8aW5maWxlLm1hZT4nLCAnLW9tYWUnLCAnPG91dGZpbGUubWFlPic=

> <r_lp_tautomer_probability>
0.5

> <r_epik_Ionization_Penalty>
0.818672

> <r_epik_Ionization_Penalty_Charging>
0.818672

> <r_epik_Ionization_Penalty_Neutral>
7.99661e-08

> <r_epik_State_Penalty>
0.927032

> <r_epik_Charging_Adjusted_Penalty>
1.7457

> <i_epik_Tot_Q>
-1

> <i_epik_Tot_abs_Q>
1

> <r_epik_Metal_State_Penalty>
0.525537

> <b_epik_Metal_Only>
0

> <s_lp_Force_Field>
OPLS_2005

> <r_lp_Energy>
1.97611

> <b_lp_Chiralities_Consistent>
1

> <s_lp_Variant>
AV-unprocessed.smi:2698-6

> <Gold.Version>
5.8.1

> <Gold.Id.Protein>
6NUR|6NUR_protein|mol2

> <Gold.PLP.Fitness>
49.5188

> <Gold.PLP.PLP>
-33.2927

> <Gold.PLP.part.hbond>
-4.4337

> <Gold.PLP.part.metal>
0.0000

> <Gold.PLP.part.buried>
-2.5442

> <Gold.PLP.part.nonpolar>
-26.3976

> <Gold.PLP.part.repulsive>
0.2634

> <Gold.PLP.ligand.clash>
0.0000

> <Gold.PLP.ligand.torsion>
0.8213

> <Gold.PLP.Chemscore.Hbond>
4.9253

> <Gold.PLP.Chemscore.CHOScore>
0.9892

> <Gold.PLP.Chemscore.Metal>
0.0000

> <Gold.Chemscore.Hbonds>
donor molecule, donor type, donor heavy atom, donor atom, acceptor molecule, acceptor atom, score
      L1  H    12    18       P1  7948  0.83
      P1  H  6896  6908       L1    16  2.00
      P1  H  7989  7998       L1    14  0.95
      P1  H  7997  8009       L1     6  1.00
      L1  C    13    33       P1  7957  1.00

> <Gold.PLP.Chemscore.Internal.Correction>
0.1250

> <Gold.Rescore>
     Score         DG    S(hbond)    S(metal)    S(lipo)     H(rot)  DE(clash)    DE(int)     intcor
     14.35     -15.08       2.75        0.00      69.62       3.01       0.13       0.61       ----

> <Gold.Chemscore.Fitness>
14.3516

> <Gold.Chemscore.DG>
-15.0825

> <Gold.Chemscore.ZeroCoef>
-5.4800

> <Gold.Chemscore.Hbond>
2.7468

> <Gold.Chemscore.Metal>
0.0000

> <Gold.Chemscore.Lipo>
69.6176

> <Gold.Chemscore.Internal_Hbond>
0.0000

> <Gold.Chemscore.DEClash>
0.1256

> <Gold.Chemscore.DEInternal>
0.6053

> <Gold.Chemscore.Rot>
3.0145

> <Gold.Chemscore.Internal.Correction>
   9.000000E+99

> <Gold.Chemscore.Hbonds>
donor molecule, donor type, donor heavy atom, donor atom, acceptor molecule, acceptor atom, score
      L1  H    12    18       P1  7948  0.13
      P1  H  6896  6908       L1    16  0.96
      P1  H  7989  7998       L1    14  0.20
      P1  H  7997  8009       L1     6  0.94

> <Gold.Chemscore.Hbond.Weighted>
-9.1743

> <Gold.Chemscore.Metal.Weighted>
-0.0000

> <Gold.Chemscore.Lipo.Weighted>
-8.1453

> <Gold.Chemscore.Internal_Hbond.Weighted>
0.0000

> <Gold.Chemscore.DEClash.Weighted>
0.1256

> <Gold.Chemscore.DEInternal.Weighted>
0.6053

> <Gold.Chemscore.Rot.Weighted>
7.7171

> <Gold.Chemscore.Internal.Correction.Weighted>
   9.000000E+99

> <Gold.Protein.RotatedTorsions>
[ 6907 6896 6895 6894 ] final -127.04 input  -60.11 | X-H torsion
[ 7974 7965 7964 7962 ] final  -57.47 input  175.53 | X-H torsion
[ 8008 7997 7996 7995 ] final  104.87 input   59.86 | X-H torsion
[ 10167 10162 10161 10158 ] final  173.04 input  -65.29 | X-H torsion
[ 10718 10713 10712 10709 ] final   45.12 input   66.30 | X-H torsion
[ 10763 10752 10751 10750 ] final   92.41 input  -60.55 | X-H torsion
[ 11005 11000 10999 10996 ] final   24.44 input  -57.11 | X-H torsion

> <Gold.Protein.ActiveResidues>
 VAL166  LYS551  ARG553  GLY616  TRP617  ASP618  TYR619  PRO620  LYS621  CYS622 
 ASP623  PHE694  ASN695  SER759  ASP760  ASP761  ALA762  ILE779  LEU786  VAL792 
 PHE793  MET794  SER795  GLU796  ALA797  LYS798  CYS799  TRP800  GLU811  SER814 

> <Gold.Protein.RotatedAtoms>
  150.9031  133.7093  159.2873 H   0  0  0  0  0  0  0  0  0  0  0  0  # atno 6907 bound_to 6896
  151.4605  135.1036  159.9733 H   0  0  0  0  0  0  0  0  0  0  0  0  # atno 6908 bound_to 6896
  152.4888  133.8395  159.7200 H   0  0  0  0  0  0  0  0  0  0  0  0  # atno 6909 bound_to 6896
  145.8507  140.8354  142.9987 H   0  0  0  0  0  0  0  0  0  0  0  0  # atno 7974 bound_to 7965
  156.1611  140.3140  155.8808 H   0  0  0  0  0  0  0  0  0  0  0  0  # atno 8008 bound_to 7997
  155.3781  140.0486  157.3061 H   0  0  0  0  0  0  0  0  0  0  0  0  # atno 8009 bound_to 7997
  154.5147  140.2177  155.9099 H   0  0  0  0  0  0  0  0  0  0  0  0  # atno 8010 bound_to 7997
  139.5095  144.3306  152.0115 H   0  0  0  0  0  0  0  0  0  0  0  0  # atno 10167 bound_to 10162
  157.4342  130.8042  149.7632 H   0  0  0  0  0  0  0  0  0  0  0  0  # atno 10718 bound_to 10713
  153.2189  135.4362  155.0466 H   0  0  0  0  0  0  0  0  0  0  0  0  # atno 10763 bound_to 10752
  154.8239  135.3351  154.6957 H   0  0  0  0  0  0  0  0  0  0  0  0  # atno 10764 bound_to 10752
  153.7391  135.7006  153.5027 H   0  0  0  0  0  0  0  0  0  0  0  0  # atno 10765 bound_to 10752
  140.3587  134.2149  155.7674 H   0  0  0  0  0  0  0  0  0  0  0  0  # atno 11005 bound_to 11000
  144.6729  140.0948  143.7463 LP  0  0  0  0  0  0  0  0  0  0  0  0  # atno 17320 bound_to 7965
  145.9361  139.2638  143.1296 LP  0  0  0  0  0  0  0  0  0  0  0  0  # atno 17321 bound_to 7965
  140.2746  144.3927  150.6139 LP  0  0  0  0  0  0  0  0  0  0  0  0  # atno 17342 bound_to 10162
  140.6063  143.2168  151.6973 LP  0  0  0  0  0  0  0  0  0  0  0  0  # atno 17343 bound_to 10162
  155.9924  130.3931  150.2943 LP  0  0  0  0  0  0  0  0  0  0  0  0  # atno 17370 bound_to 10713
  157.1102  131.0219  151.3051 LP  0  0  0  0  0  0  0  0  0  0  0  0  # atno 17371 bound_to 10713
  141.1990  133.8021  157.0554 LP  0  0  0  0  0  0  0  0  0  0  0  0  # atno 17394 bound_to 11000
  140.0644  134.9737  157.1360 LP  0  0  0  0  0  0  0  0  0  0  0  0  # atno 17395 bound_to 11000

$$$$
