AV-unprocessed.smi:1570|AV-procd|sdf|6314|dock4
  -GOLD-   22720 6513D 1   1.00000     0.00000
 Structure written by MMmdl.
 51 53  0  0  0  0  0  0  0  0  1 V2000
  154.3519  140.0661  161.4568 C   0  0  0  0  0  0  0  0  0  0  0  0
  154.1672  141.5592  161.1589 C   0  0  0  0  0  0  0  0  0  0  0  0
  153.2922  141.7648  160.0074 N   0  0  0  0  0  0  0  0  0  0  0  0
  153.1396  140.9318  158.9511 C   0  0  0  0  0  0  0  0  0  0  0  0
  153.7125  139.8539  158.7906 O   0  0  0  0  0  0  0  0  0  0  0  0
  152.2567  141.4963  158.0939 N   0  0  0  0  0  0  0  0  0  0  0  0
  151.8055  140.9401  156.8192 C   0  0  0  0  0  0  0  0  0  0  0  0
  150.8563  139.7422  157.0210 C   0  0  2  0  0  0  0  0  0  0  0  0
  151.5788  138.7137  157.6680 O   0  0  0  0  0  0  0  0  0  0  0  0
  150.3715  139.1776  155.6702 C   0  0  0  0  0  0  0  0  0  0  0  0
  149.1195  139.7424  155.1627 N   0  0  0  0  0  0  0  0  0  0  0  0
  148.6233  138.9689  154.0315 C   0  0  0  0  0  0  0  0  0  0  0  0
  147.2817  139.5096  153.5060 C   0  0  2  0  0  0  0  0  0  0  0  0
  146.8011  138.7505  152.2647 C   0  0  0  0  0  0  0  0  0  0  0  0
  147.4311  140.8837  153.1544 O   0  0  0  0  0  0  0  0  0  0  0  0
  147.9447  141.7248  154.1885 C   0  0  1  0  0  0  0  0  0  0  0  0
  146.8880  142.0100  155.2694 C   0  0  0  0  0  0  0  0  0  0  0  0
  149.2541  141.1403  154.7555 C   0  0  0  0  0  0  0  0  0  0  0  0
  151.8480  142.7360  158.6066 C   0  0  0  0  0  0  0  0  0  0  0  0
  150.9704  143.7070  158.0932 C   0  0  0  0  0  0  0  0  0  0  0  0
  150.7745  144.8753  158.8661 C   0  0  0  0  0  0  0  0  0  0  0  0
  151.4438  145.0478  160.1054 C   0  0  0  0  0  0  0  0  0  0  0  0
  152.3242  144.0561  160.5978 C   0  0  0  0  0  0  0  0  0  0  0  0
  152.4995  142.9045  159.8107 C   0  0  0  0  0  0  0  0  0  0  0  0
  155.0071  139.9204  162.3158 H   0  0  0  0  0  0  0  0  0  0  0  0
  154.7963  139.5462  160.6077 H   0  0  0  0  0  0  0  0  0  0  0  0
  153.3982  139.5879  161.6816 H   0  0  0  0  0  0  0  0  0  0  0  0
  153.7534  142.0628  162.0336 H   0  0  0  0  0  0  0  0  0  0  0  0
  155.1345  142.0259  160.9717 H   0  0  0  0  0  0  0  0  0  0  0  0
  151.2817  141.7337  156.2837 H   0  0  0  0  0  0  0  0  0  0  0  0
  152.6518  140.6725  156.1855 H   0  0  0  0  0  0  0  0  0  0  0  0
  150.0124  140.0424  157.6408 H   0  0  0  0  0  0  0  0  0  0  0  0
  151.0427  138.3703  158.3668 H   0  0  0  0  0  0  0  0  0  0  0  0
  151.1515  139.3208  154.9206 H   0  0  0  0  0  0  0  0  0  0  0  0
  150.2633  138.0970  155.7773 H   0  0  0  0  0  0  0  0  0  0  0  0
  149.3607  138.9768  153.2271 H   0  0  0  0  0  0  0  0  0  0  0  0
  148.4959  137.9266  154.3263 H   0  0  0  0  0  0  0  0  0  0  0  0
  146.5217  139.4142  154.2820 H   0  0  0  0  0  0  0  0  0  0  0  0
  146.6647  137.6907  152.4811 H   0  0  0  0  0  0  0  0  0  0  0  0
  147.5184  138.8364  151.4482 H   0  0  0  0  0  0  0  0  0  0  0  0
  145.8468  139.1431  151.9129 H   0  0  0  0  0  0  0  0  0  0  0  0
  148.1817  142.6787  153.7167 H   0  0  0  0  0  0  0  0  0  0  0  0
  147.2577  142.7408  155.9889 H   0  0  0  0  0  0  0  0  0  0  0  0
  146.6189  141.1131  155.8268 H   0  0  0  0  0  0  0  0  0  0  0  0
  145.9780  142.4144  154.8259 H   0  0  0  0  0  0  0  0  0  0  0  0
  149.5775  141.7581  155.5918 H   0  0  0  0  0  0  0  0  0  0  0  0
  150.0328  141.2212  153.9953 H   0  0  0  0  0  0  0  0  0  0  0  0
  150.4679  143.5738  157.1468 H   0  0  0  0  0  0  0  0  0  0  0  0
  150.1087  145.6462  158.5069 H   0  0  0  0  0  0  0  0  0  0  0  0
  151.2810  145.9486  160.6787 H   0  0  0  0  0  0  0  0  0  0  0  0
  152.8399  144.1842  161.5378 H   0  0  0  0  0  0  0  0  0  0  0  0
  1  2  1  0  0  0  0
  1 25  1  0  0  0  0
  1 26  1  0  0  0  0
  1 27  1  0  0  0  0
  2  3  1  0  0  0  0
  2 28  1  0  0  0  0
  2 29  1  0  0  0  0
  3 24  1  0  0  0  0
  3  4  1  0  0  0  0
  4  5  2  0  0  0  0
  4  6  1  0  0  0  0
  6  7  1  0  0  0  0
  6 19  1  0  0  0  0
  7  8  1  0  0  0  0
  7 30  1  0  0  0  0
  7 31  1  0  0  0  0
  8  9  1  0  0  0  0
  8 10  1  0  0  0  0
  8 32  1  0  0  0  0
  9 33  1  0  0  0  0
 10 11  1  0  0  0  0
 10 34  1  0  0  0  0
 10 35  1  0  0  0  0
 11 18  1  0  0  0  0
 11 12  1  0  0  0  0
 12 13  1  0  0  0  0
 12 36  1  0  0  0  0
 12 37  1  0  0  0  0
 13 14  1  0  0  0  0
 13 15  1  0  0  0  0
 13 38  1  0  0  0  0
 14 39  1  0  0  0  0
 14 40  1  0  0  0  0
 14 41  1  0  0  0  0
 15 16  1  0  0  0  0
 16 17  1  0  0  0  0
 16 18  1  0  0  0  0
 16 42  1  0  0  0  0
 17 43  1  0  0  0  0
 17 44  1  0  0  0  0
 17 45  1  0  0  0  0
 18 46  1  0  0  0  0
 18 47  1  0  0  0  0
 19 24  2  0  0  0  0
 19 20  1  0  0  0  0
 20 21  2  0  0  0  0
 20 48  1  0  0  0  0
 21 22  1  0  0  0  0
 21 49  1  0  0  0  0
 22 23  2  0  0  0  0
 22 50  1  0  0  0  0
 23 24  1  0  0  0  0
 23 51  1  0  0  0  0
M  END
> <s_m_source_file>
AV-unprocessed.smi

> <i_m_source_file_index>
1570

> <i_lp_mmshare_version>
43012

> <i_f3d_flags>
0

> <s_epik_input>
W2NIXTFbY0hdW2NIXVtjSF1jKGMxMiluKFtDSDJdW0NIM10pYyg9TyluMltDSDJdW0NASF0oW09IXSlbQ0gyXU4zW0NIMl1bQ0BASF0oW0NIM10pT1tDQEBIXShbQ0gzXSlbQ0gyXTM=

> <s_epik_cmdline>
J2VwaWtfcHl0aG9uJywgJy1waCcsICc3LjAnLCAnLXRuJywgJzgnLCAnLW1hJywgJzIwMCcsICctbWV0YWxfYmluZGluZycsICctaW1hZScsICc8aW5maWxlLm1hZT4nLCAnLW9tYWUnLCAnPG91dGZpbGUubWFlPic=

> <r_epik_Ionization_Penalty>
0.214359

> <r_epik_Ionization_Penalty_Charging>
2.30976e-09

> <r_epik_Ionization_Penalty_Neutral>
0.214359

> <r_epik_State_Penalty>
0.204533

> <r_epik_Charging_Adjusted_Penalty>
0.204533

> <i_epik_Tot_Q>
0

> <i_epik_Tot_abs_Q>
0

> <r_epik_Metal_State_Penalty>
0.204533

> <b_epik_Metal_Only>
0

> <s_lp_Force_Field>
OPLS_2005

> <r_lp_Energy>
63.7902

> <b_lp_Chiralities_Consistent>
1

> <s_lp_Variant>
AV-unprocessed.smi:1570-3

> <Gold.Version>
5.8.1

> <Gold.Id.Protein>
6NUR|6NUR_protein|mol2

> <Gold.PLP.Fitness>
51.3794

> <Gold.PLP.PLP>
-50.1088

> <Gold.PLP.part.hbond>
-1.0000

> <Gold.PLP.part.metal>
0.0000

> <Gold.PLP.part.buried>
-5.4635

> <Gold.PLP.part.nonpolar>
-44.4701

> <Gold.PLP.part.repulsive>
0.8829

> <Gold.PLP.ligand.clash>
0.0000

> <Gold.PLP.ligand.torsion>
0.9380

> <Gold.PLP.Chemscore.Hbond>
1.0000

> <Gold.PLP.Chemscore.CHOScore>
0.0000

> <Gold.PLP.Chemscore.Metal>
0.0000

> <Gold.Chemscore.Hbonds>
donor molecule, donor type, donor heavy atom, donor atom, acceptor molecule, acceptor atom, score
      P1  H  7997  8009       L1     5  1.00

> <Gold.PLP.Chemscore.Internal.Correction>
0.1465

> <Gold.Rescore>
     Score         DG    S(hbond)    S(metal)    S(lipo)     H(rot)  DE(clash)    DE(int)     intcor
     15.05     -19.13       0.73        0.00     140.75       2.06       0.89       3.19       ----

> <Gold.Chemscore.Fitness>
15.0525

> <Gold.Chemscore.DG>
-19.1295

> <Gold.Chemscore.ZeroCoef>
-5.4800

> <Gold.Chemscore.Hbond>
0.7330

> <Gold.Chemscore.Metal>
0.0000

> <Gold.Chemscore.Lipo>
140.7534

> <Gold.Chemscore.Internal_Hbond>
0.0000

> <Gold.Chemscore.DEClash>
0.8916

> <Gold.Chemscore.DEInternal>
3.1854

> <Gold.Chemscore.Rot>
2.0574

> <Gold.Chemscore.Internal.Correction>
   9.000000E+99

> <Gold.Chemscore.Hbonds>
donor molecule, donor type, donor heavy atom, donor atom, acceptor molecule, acceptor atom, score
      P1  H  7997  8009       L1     5  0.54

> <Gold.Chemscore.Hbond.Weighted>
-2.4482

> <Gold.Chemscore.Metal.Weighted>
-0.0000

> <Gold.Chemscore.Lipo.Weighted>
-16.4681

> <Gold.Chemscore.Internal_Hbond.Weighted>
0.0000

> <Gold.Chemscore.DEClash.Weighted>
0.8916

> <Gold.Chemscore.DEInternal.Weighted>
3.1854

> <Gold.Chemscore.Rot.Weighted>
5.2669

> <Gold.Chemscore.Internal.Correction.Weighted>
   9.000000E+99

> <Gold.Protein.RotatedTorsions>
[ 6907 6896 6895 6894 ] final  -36.04 input  -60.11 | X-H torsion
[ 7974 7965 7964 7962 ] final -179.88 input  175.53 | X-H torsion
[ 8008 7997 7996 7995 ] final  144.93 input   59.86 | X-H torsion
[ 10167 10162 10161 10158 ] final  -93.32 input  -65.29 | X-H torsion
[ 10718 10713 10712 10709 ] final  -35.77 input   66.30 | X-H torsion
[ 10763 10752 10751 10750 ] final -131.67 input  -60.55 | X-H torsion
[ 11005 11000 10999 10996 ] final  100.72 input  -57.11 | X-H torsion

> <Gold.Protein.ActiveResidues>
 VAL166  LYS551  ARG553  GLY616  TRP617  ASP618  TYR619  PRO620  LYS621  CYS622 
 ASP623  PHE694  ASN695  SER759  ASP760  ASP761  ALA762  ILE779  LEU786  VAL792 
 PHE793  MET794  SER795  GLU796  ALA797  LYS798  CYS799  TRP800  GLU811  SER814 

> <Gold.Protein.RotatedAtoms>
  151.0322  134.9547  159.8116 H   0  0  0  0  0  0  0  0  0  0  0  0  # atno 6907 bound_to 6896
  152.5348  134.2765  159.9001 H   0  0  0  0  0  0  0  0  0  0  0  0  # atno 6908 bound_to 6896
  151.2775  133.4183  159.2659 H   0  0  0  0  0  0  0  0  0  0  0  0  # atno 6909 bound_to 6896
  144.7140  140.0650  143.6431 H   0  0  0  0  0  0  0  0  0  0  0  0  # atno 7974 bound_to 7965
  156.2896  140.2222  156.5133 H   0  0  0  0  0  0  0  0  0  0  0  0  # atno 8008 bound_to 7997
  154.7590  140.0474  157.0979 H   0  0  0  0  0  0  0  0  0  0  0  0  # atno 8009 bound_to 7997
  155.0015  140.3102  155.4869 H   0  0  0  0  0  0  0  0  0  0  0  0  # atno 8010 bound_to 7997
  140.3258  143.3023  151.9996 H   0  0  0  0  0  0  0  0  0  0  0  0  # atno 10167 bound_to 10162
  156.3348  130.4284  149.7840 H   0  0  0  0  0  0  0  0  0  0  0  0  # atno 10718 bound_to 10713
  154.8749  135.3822  154.4285 H   0  0  0  0  0  0  0  0  0  0  0  0  # atno 10763 bound_to 10752
  153.4981  135.7030  153.5852 H   0  0  0  0  0  0  0  0  0  0  0  0  # atno 10764 bound_to 10752
  153.4196  135.3905  155.2069 H   0  0  0  0  0  0  0  0  0  0  0  0  # atno 10765 bound_to 10752
  139.8771  134.9152  156.4798 H   0  0  0  0  0  0  0  0  0  0  0  0  # atno 11005 bound_to 11000
  145.9831  139.2957  143.1030 LP  0  0  0  0  0  0  0  0  0  0  0  0  # atno 17320 bound_to 7965
  145.8988  140.9256  143.0514 LP  0  0  0  0  0  0  0  0  0  0  0  0  # atno 17321 bound_to 7965
  139.4865  144.6275  151.7136 LP  0  0  0  0  0  0  0  0  0  0  0  0  # atno 17342 bound_to 10162
  140.5442  144.0530  150.6100 LP  0  0  0  0  0  0  0  0  0  0  0  0  # atno 17343 bound_to 10162
  156.5099  130.8167  151.3165 LP  0  0  0  0  0  0  0  0  0  0  0  0  # atno 17370 bound_to 10713
  157.7437  130.9917  150.2611 LP  0  0  0  0  0  0  0  0  0  0  0  0  # atno 17371 bound_to 10713
  140.8735  133.7970  155.9390 LP  0  0  0  0  0  0  0  0  0  0  0  0  # atno 17394 bound_to 11000
  140.8928  134.2475  157.5085 LP  0  0  0  0  0  0  0  0  0  0  0  0  # atno 17395 bound_to 11000

$$$$
