AV-unprocessed.smi:1554|AV-procd|sdf|6248|dock10
  -GOLD-   22720 6433D 1   1.00000     0.00000
 Structure written by MMmdl.
 48 50  0  0  0  0  0  0  0  0  2 V2000
  152.4402  143.8352  161.2442 C   0  0  0  0  0  0  0  0  0  0  0  0
  151.8787  143.1864  159.9914 C   0  0  0  0  0  0  0  0  0  0  0  0
  152.5963  142.1320  159.3831 C   0  0  0  0  0  0  0  0  0  0  0  0
  152.1079  141.5004  158.2186 C   0  0  0  0  0  0  0  0  0  0  0  0
  152.6378  140.4656  157.4677 N   0  0  0  0  0  0  0  0  0  0  0  0
  151.7246  140.3335  156.5101 C   0  0  0  0  0  0  0  0  0  0  0  0
  150.6670  141.1673  156.5470 N   0  0  0  0  0  0  0  0  0  0  0  0
  149.5590  141.2193  155.6065 C   0  0  0  0  0  0  0  0  0  0  0  0
  149.6546  140.1660  154.4802 C   0  0  2  0  0  0  0  0  0  0  0  0
  148.7950  140.5508  153.4240 O   0  0  0  0  0  0  0  0  0  0  0  0
  149.2709  138.7432  154.9448 C   0  0  0  0  0  0  0  0  0  0  0  0
  149.9763  137.6756  154.1870 N   0  3  1  0  0  0  0  0  0  0  0  0
  151.3980  137.9738  153.8759 C   0  0  0  0  0  0  0  0  0  0  0  0
  152.3063  137.7496  155.1015 C   0  0  0  0  0  0  0  0  0  0  0  0
  152.1246  136.4319  155.6058 O   0  0  0  0  0  0  0  0  0  0  0  0
  150.7859  136.1877  156.0239 C   0  0  2  0  0  0  0  0  0  0  0  0
  150.7240  134.7833  156.6336 C   0  0  0  0  0  0  0  0  0  0  0  0
  149.8525  136.3321  154.8043 C   0  0  0  0  0  0  0  0  0  0  0  0
  150.8726  141.9574  157.6735 C   0  0  0  0  0  0  0  0  0  0  0  0
  150.1481  143.0040  158.2715 C   0  0  0  0  0  0  0  0  0  0  0  0
  150.6509  143.6245  159.4339 C   0  0  0  0  0  0  0  0  0  0  0  0
  149.8619  144.7552  160.0704 C   0  0  0  0  0  0  0  0  0  0  0  0
  153.3691  143.3578  161.5574 H   0  0  0  0  0  0  0  0  0  0  0  0
  151.7301  143.7545  162.0674 H   0  0  0  0  0  0  0  0  0  0  0  0
  152.6489  144.8906  161.0678 H   0  0  0  0  0  0  0  0  0  0  0  0
  153.5311  141.7973  159.8081 H   0  0  0  0  0  0  0  0  0  0  0  0
  151.8338  139.5933  155.7309 H   0  0  0  0  0  0  0  0  0  0  0  0
  148.6275  141.0987  156.1613 H   0  0  0  0  0  0  0  0  0  0  0  0
  149.5266  142.2198  155.1741 H   0  0  0  0  0  0  0  0  0  0  0  0
  150.6747  140.1823  154.0983 H   0  0  0  0  0  0  0  0  0  0  0  0
  149.1323  140.2067  152.6115 H   0  0  0  0  0  0  0  0  0  0  0  0
  149.4745  138.6306  156.0092 H   0  0  0  0  0  0  0  0  0  0  0  0
  148.1931  138.6170  154.8315 H   0  0  0  0  0  0  0  0  0  0  0  0
  151.7141  137.3075  153.0723 H   0  0  0  0  0  0  0  0  0  0  0  0
  151.5157  138.9871  153.4941 H   0  0  0  0  0  0  0  0  0  0  0  0
  153.3512  137.8730  154.8166 H   0  0  0  0  0  0  0  0  0  0  0  0
  152.1097  138.4812  155.8860 H   0  0  0  0  0  0  0  0  0  0  0  0
  150.5116  136.9091  156.7956 H   0  0  0  0  0  0  0  0  0  0  0  0
  149.7161  134.5491  156.9770 H   0  0  0  0  0  0  0  0  0  0  0  0
  151.3935  134.7000  157.4900 H   0  0  0  0  0  0  0  0  0  0  0  0
  151.0153  134.0233  155.9078 H   0  0  0  0  0  0  0  0  0  0  0  0
  148.8162  136.1320  155.0797 H   0  0  0  0  0  0  0  0  0  0  0  0
  150.1164  135.5861  154.0532 H   0  0  0  0  0  0  0  0  0  0  0  0
  149.2125  143.3267  157.8403 H   0  0  0  0  0  0  0  0  0  0  0  0
  148.9659  144.9892  159.4947 H   0  0  0  0  0  0  0  0  0  0  0  0
  150.4674  145.6600  160.1279 H   0  0  0  0  0  0  0  0  0  0  0  0
  149.5500  144.4817  161.0785 H   0  0  0  0  0  0  0  0  0  0  0  0
  149.4904  137.6160  153.3037 H   0  0  0  0  0  0  0  0  0  0  0  0
  1  2  1  0  0  0  0
  1 23  1  0  0  0  0
  1 24  1  0  0  0  0
  1 25  1  0  0  0  0
  2 21  1  0  0  0  0
  2  3  2  0  0  0  0
  3  4  1  0  0  0  0
  3 26  1  0  0  0  0
  4 19  2  0  0  0  0
  4  5  1  0  0  0  0
  5  6  2  0  0  0  0
  6  7  1  0  0  0  0
  6 27  1  0  0  0  0
  7  8  1  0  0  0  0
  7 19  1  0  0  0  0
  8  9  1  0  0  0  0
  8 28  1  0  0  0  0
  8 29  1  0  0  0  0
  9 10  1  0  0  0  0
  9 11  1  0  0  0  0
  9 30  1  0  0  0  0
 10 31  1  0  0  0  0
 11 12  1  0  0  0  0
 11 32  1  0  0  0  0
 11 33  1  0  0  0  0
 12 18  1  0  0  0  0
 12 13  1  0  0  0  0
 12 48  1  0  0  0  0
 13 14  1  0  0  0  0
 13 34  1  0  0  0  0
 13 35  1  0  0  0  0
 14 15  1  0  0  0  0
 14 36  1  0  0  0  0
 14 37  1  0  0  0  0
 15 16  1  0  0  0  0
 16 17  1  0  0  0  0
 16 18  1  0  0  0  0
 16 38  1  0  0  0  0
 17 39  1  0  0  0  0
 17 40  1  0  0  0  0
 17 41  1  0  0  0  0
 18 42  1  0  0  0  0
 18 43  1  0  0  0  0
 19 20  1  0  0  0  0
 20 21  2  0  0  0  0
 20 44  1  0  0  0  0
 21 22  1  0  0  0  0
 22 45  1  0  0  0  0
 22 46  1  0  0  0  0
 22 47  1  0  0  0  0
M  CHG  1  12   1
M  END
> <s_m_source_file>
AV-unprocessed.smi

> <i_m_source_file_index>
1554

> <i_lp_mmshare_version>
43012

> <i_f3d_flags>
0

> <s_epik_input>
W0NIM11jKFtjSF0xKWMoW0NIM10pW2NIXWMoYzEyKW4oW2NIXW4yKVtDSDJdW0NASF0oW09IXSlbQ0gyXU4zW0NIMl1bQ0gyXU9bQ0BASF0oW0NIM10pW0NIMl0z

> <s_epik_cmdline>
J2VwaWtfcHl0aG9uJywgJy1waCcsICc3LjAnLCAnLXRuJywgJzgnLCAnLW1hJywgJzIwMCcsICctbWV0YWxfYmluZGluZycsICctaW1hZScsICc8aW5maWxlLm1hZT4nLCAnLW9tYWUnLCAnPG91dGZpbGUubWFlPic=

> <r_epik_Ionization_Penalty>
0.695251

> <r_epik_Ionization_Penalty_Charging>
0.608065

> <r_epik_Ionization_Penalty_Neutral>
0.0871863

> <r_epik_State_Penalty>
0.731955

> <r_epik_Charging_Adjusted_Penalty>
1.34002

> <i_epik_Tot_Q>
1

> <i_epik_Tot_abs_Q>
1

> <r_epik_Metal_State_Penalty>
0.652186

> <b_epik_Metal_Only>
0

> <s_lp_Force_Field>
OPLS_2005

> <r_lp_Energy>
22.8588

> <b_lp_Chiralities_Consistent>
1

> <s_lp_Variant>
AV-unprocessed.smi:1554-9

> <Gold.Version>
5.8.1

> <Gold.Id.Protein>
6NUR|6NUR_protein|mol2

> <Gold.PLP.Fitness>
50.7728

> <Gold.PLP.PLP>
-38.5114

> <Gold.PLP.part.hbond>
-3.7049

> <Gold.PLP.part.metal>
0.0000

> <Gold.PLP.part.buried>
-1.5456

> <Gold.PLP.part.nonpolar>
-33.3456

> <Gold.PLP.part.repulsive>
0.0689

> <Gold.PLP.ligand.clash>
0.0039

> <Gold.PLP.ligand.torsion>
0.6371

> <Gold.PLP.Chemscore.Hbond>
4.5024

> <Gold.PLP.Chemscore.CHOScore>
0.0000

> <Gold.PLP.Chemscore.Metal>
0.0000

> <Gold.Chemscore.Hbonds>
donor molecule, donor type, donor heavy atom, donor atom, acceptor molecule, acceptor atom, score
      L1  H    10    31       P1  7957  1.00
      L1  H    12    48       P1  7948  1.59
      P1  H  7997  8010       L1     5  0.85
      P1  H 10752 10765       L1    15  0.84

> <Gold.PLP.Chemscore.Internal.Correction>
0.0324

> <Gold.Rescore>
     Score         DG    S(hbond)    S(metal)    S(lipo)     H(rot)  DE(clash)    DE(int)     intcor
     21.64     -22.74       2.74        0.00     114.34       2.05       0.48       0.63       ----

> <Gold.Chemscore.Fitness>
21.6369

> <Gold.Chemscore.DG>
-22.7421

> <Gold.Chemscore.ZeroCoef>
-5.4800

> <Gold.Chemscore.Hbond>
2.7376

> <Gold.Chemscore.Metal>
0.0000

> <Gold.Chemscore.Lipo>
114.3442

> <Gold.Chemscore.Internal_Hbond>
0.0000

> <Gold.Chemscore.DEClash>
0.4797

> <Gold.Chemscore.DEInternal>
0.6256

> <Gold.Chemscore.Rot>
2.0546

> <Gold.Chemscore.Internal.Correction>
   9.000000E+99

> <Gold.Chemscore.Hbonds>
donor molecule, donor type, donor heavy atom, donor atom, acceptor molecule, acceptor atom, score
      L1  H    10    31       P1  7957  0.93
      L1  H    12    48       P1  7948  0.68
      P1  H  7997  8010       L1     5  0.45
      P1  H 10752 10765       L1    15  0.57

> <Gold.Chemscore.Hbond.Weighted>
-9.1435

> <Gold.Chemscore.Metal.Weighted>
-0.0000

> <Gold.Chemscore.Lipo.Weighted>
-13.3783

> <Gold.Chemscore.Internal_Hbond.Weighted>
0.0000

> <Gold.Chemscore.DEClash.Weighted>
0.4797

> <Gold.Chemscore.DEInternal.Weighted>
0.6256

> <Gold.Chemscore.Rot.Weighted>
5.2597

> <Gold.Chemscore.Internal.Correction.Weighted>
   9.000000E+99

> <Gold.Protein.RotatedTorsions>
[ 6907 6896 6895 6894 ] final  158.52 input  -60.11 | X-H torsion
[ 7974 7965 7964 7962 ] final   87.87 input  175.53 | X-H torsion
[ 8008 7997 7996 7995 ] final   61.51 input   59.86 | X-H torsion
[ 10167 10162 10161 10158 ] final -139.77 input  -65.29 | X-H torsion
[ 10718 10713 10712 10709 ] final   55.75 input   66.30 | X-H torsion
[ 10763 10752 10751 10750 ] final -160.24 input  -60.55 | X-H torsion
[ 11005 11000 10999 10996 ] final   54.25 input  -57.11 | X-H torsion

> <Gold.Protein.ActiveResidues>
 VAL166  LYS551  ARG553  GLY616  TRP617  ASP618  TYR619  PRO620  LYS621  CYS622 
 ASP623  PHE694  ASN695  SER759  ASP760  ASP761  ALA762  ILE779  LEU786  VAL792 
 PHE793  MET794  SER795  GLU796  ALA797  LYS798  CYS799  TRP800  GLU811  SER814 

> <Gold.Protein.RotatedAtoms>
  151.9992  133.3819  159.4174 H   0  0  0  0  0  0  0  0  0  0  0  0  # atno 6907 bound_to 6896
  150.6912  134.3852  159.5061 H   0  0  0  0  0  0  0  0  0  0  0  0  # atno 6908 bound_to 6896
  152.1597  134.8922  160.0593 H   0  0  0  0  0  0  0  0  0  0  0  0  # atno 6909 bound_to 6896
  145.5533  139.2297  143.2500 H   0  0  0  0  0  0  0  0  0  0  0  0  # atno 7974 bound_to 7965
  155.5995  140.3494  155.4589 H   0  0  0  0  0  0  0  0  0  0  0  0  # atno 8008 bound_to 7997
  156.0239  140.1260  157.0353 H   0  0  0  0  0  0  0  0  0  0  0  0  # atno 8009 bound_to 7997
  154.4326  140.1057  156.5989 H   0  0  0  0  0  0  0  0  0  0  0  0  # atno 8010 bound_to 7997
  139.8347  143.7400  152.2665 H   0  0  0  0  0  0  0  0  0  0  0  0  # atno 10167 bound_to 10162
  157.5372  130.8671  149.8770 H   0  0  0  0  0  0  0  0  0  0  0  0  # atno 10718 bound_to 10713
  154.7407  135.3068  154.8732 H   0  0  0  0  0  0  0  0  0  0  0  0  # atno 10763 bound_to 10752
  153.9548  135.6760  153.4748 H   0  0  0  0  0  0  0  0  0  0  0  0  # atno 10764 bound_to 10752
  153.1006  135.4913  154.8785 H   0  0  0  0  0  0  0  0  0  0  0  0  # atno 10765 bound_to 10752
  140.0701  134.5481  155.9055 H   0  0  0  0  0  0  0  0  0  0  0  0  # atno 11005 bound_to 11000
  146.1902  140.6356  142.9149 LP  0  0  0  0  0  0  0  0  0  0  0  0  # atno 17320 bound_to 7965
  144.7519  140.5211  143.6796 LP  0  0  0  0  0  0  0  0  0  0  0  0  # atno 17321 bound_to 7965
  139.7619  144.7504  151.0351 LP  0  0  0  0  0  0  0  0  0  0  0  0  # atno 17342 bound_to 10162
  140.7803  143.4741  151.0106 LP  0  0  0  0  0  0  0  0  0  0  0  0  # atno 17343 bound_to 10162
  156.0468  130.3726  150.1298 LP  0  0  0  0  0  0  0  0  0  0  0  0  # atno 17370 bound_to 10713
  156.9480  130.9766  151.3503 LP  0  0  0  0  0  0  0  0  0  0  0  0  # atno 17371 bound_to 10713
  141.2008  133.6615  156.5919 LP  0  0  0  0  0  0  0  0  0  0  0  0  # atno 17394 bound_to 11000
  140.3639  134.7664  157.4553 LP  0  0  0  0  0  0  0  0  0  0  0  0  # atno 17395 bound_to 11000

$$$$
