AV-unprocessed.smi:1311|AV-procd|sdf|5447|dock1
  -GOLD-   22720 5 13D 1   1.00000     0.00000
 Structure written by MMmdl.
 46 47  0  0  0  0  0  0  0  0  2 V2000
  141.0962  136.1506  153.5253 C   0  0  0  0  0  0  0  0  0  0  0  0
  141.7230  134.7831  153.2098 C   0  0  0  0  0  0  0  0  0  0  0  0
  143.2748  134.7802  153.1084 C   0  0  1  0  0  0  0  0  0  0  0  0
  143.8963  135.1253  154.4937 C   0  0  0  0  0  0  0  0  0  0  0  0
  144.6020  134.0191  155.1318 N   0  0  0  0  0  0  0  0  0  0  0  0
  145.8638  134.0698  155.5894 C   0  0  0  0  0  0  0  0  0  0  0  0
  146.5652  135.0777  155.5137 O   0  0  0  0  0  0  0  0  0  0  0  0
  146.4381  132.7854  156.1945 C   0  0  0  0  0  0  0  0  0  0  0  0
  147.8996  132.9507  156.5320 C   0  0  0  0  0  0  0  0  0  0  0  0
  148.9904  133.1570  155.6383 C   0  0  0  0  0  0  0  0  0  0  0  0
  148.9715  133.2605  154.1403 C   0  0  0  0  0  0  0  0  0  0  0  0
  150.1409  133.2631  156.2813 N   0  0  0  0  0  0  0  0  0  0  0  0
  149.8365  133.1273  157.6391 O   0  0  0  0  0  0  0  0  0  0  0  0
  148.4982  132.9399  157.7622 C   0  0  0  0  0  0  0  0  0  0  0  0
  147.9691  132.7781  159.1474 C   0  0  0  0  0  0  0  0  0  0  0  0
  143.7974  133.4712  152.5921 N   0  3  0  0  0  0  0  0  0  0  0  0
  143.1013  132.8936  151.4199 C   0  0  0  0  0  0  0  0  0  0  0  0
  144.0597  131.8496  150.8612 C   0  0  0  0  0  0  0  0  0  0  0  0
  145.4230  132.4996  151.0547 C   0  0  0  0  0  0  0  0  0  0  0  0
  145.2465  133.4311  152.2615 C   0  0  0  0  0  0  0  0  0  0  0  0
  140.0134  136.1100  153.4054 H   0  0  0  0  0  0  0  0  0  0  0  0
  141.4722  136.9227  152.8533 H   0  0  0  0  0  0  0  0  0  0  0  0
  141.2873  136.4681  154.5498 H   0  0  0  0  0  0  0  0  0  0  0  0
  141.3941  134.0520  153.9496 H   0  0  0  0  0  0  0  0  0  0  0  0
  141.2813  134.4762  152.2627 H   0  0  0  0  0  0  0  0  0  0  0  0
  143.5468  135.5528  152.3876 H   0  0  0  0  0  0  0  0  0  0  0  0
  144.6031  135.9507  154.4189 H   0  0  0  0  0  0  0  0  0  0  0  0
  143.1149  135.4661  155.1739 H   0  0  0  0  0  0  0  0  0  0  0  0
  144.0929  133.1546  155.2474 H   0  0  0  0  0  0  0  0  0  0  0  0
  145.8513  132.5321  157.0779 H   0  0  0  0  0  0  0  0  0  0  0  0
  146.2915  131.9643  155.4917 H   0  0  0  0  0  0  0  0  0  0  0  0
  147.9799  133.5242  153.7727 H   0  0  0  0  0  0  0  0  0  0  0  0
  149.2550  132.3135  153.6807 H   0  0  0  0  0  0  0  0  0  0  0  0
  149.6649  134.0240  153.7862 H   0  0  0  0  0  0  0  0  0  0  0  0
  147.1978  132.0085  159.1815 H   0  0  0  0  0  0  0  0  0  0  0  0
  147.5324  133.7110  159.5035 H   0  0  0  0  0  0  0  0  0  0  0  0
  148.7612  132.4896  159.8386 H   0  0  0  0  0  0  0  0  0  0  0  0
  142.1403  132.4531  151.6873 H   0  0  0  0  0  0  0  0  0  0  0  0
  142.9320  133.6701  150.6717 H   0  0  0  0  0  0  0  0  0  0  0  0
  143.9969  130.9343  151.4515 H   0  0  0  0  0  0  0  0  0  0  0  0
  143.8530  131.5959  149.8210 H   0  0  0  0  0  0  0  0  0  0  0  0
  146.2142  131.7642  151.2051 H   0  0  0  0  0  0  0  0  0  0  0  0
  145.6808  133.0862  150.1719 H   0  0  0  0  0  0  0  0  0  0  0  0
  145.6269  134.4213  152.0081 H   0  0  0  0  0  0  0  0  0  0  0  0
  145.8074  133.0651  153.1219 H   0  0  0  0  0  0  0  0  0  0  0  0
  143.6621  132.7970  153.3319 H   0  0  0  0  0  0  0  0  0  0  0  0
  1  2  1  0  0  0  0
  1 21  1  0  0  0  0
  1 22  1  0  0  0  0
  1 23  1  0  0  0  0
  2  3  1  0  0  0  0
  2 24  1  0  0  0  0
  2 25  1  0  0  0  0
  3  4  1  0  0  0  0
  3 16  1  0  0  0  0
  3 26  1  0  0  0  0
  4  5  1  0  0  0  0
  4 27  1  0  0  0  0
  4 28  1  0  0  0  0
  5  6  1  0  0  0  0
  5 29  1  0  0  0  0
  6  7  2  0  0  0  0
  6  8  1  0  0  0  0
  8  9  1  0  0  0  0
  8 30  1  0  0  0  0
  8 31  1  0  0  0  0
  9 14  2  0  0  0  0
  9 10  1  0  0  0  0
 10 11  1  0  0  0  0
 10 12  2  0  0  0  0
 11 32  1  0  0  0  0
 11 33  1  0  0  0  0
 11 34  1  0  0  0  0
 12 13  1  0  0  0  0
 13 14  1  0  0  0  0
 14 15  1  0  0  0  0
 15 35  1  0  0  0  0
 15 36  1  0  0  0  0
 15 37  1  0  0  0  0
 16 20  1  0  0  0  0
 16 17  1  0  0  0  0
 16 46  1  0  0  0  0
 17 18  1  0  0  0  0
 17 38  1  0  0  0  0
 17 39  1  0  0  0  0
 18 19  1  0  0  0  0
 18 40  1  0  0  0  0
 18 41  1  0  0  0  0
 19 20  1  0  0  0  0
 19 42  1  0  0  0  0
 19 43  1  0  0  0  0
 20 44  1  0  0  0  0
 20 45  1  0  0  0  0
M  CHG  1  16   1
M  END
> <s_m_source_file>
AV-unprocessed.smi

> <i_m_source_file_index>
1311

> <i_lp_mmshare_version>
43012

> <i_f3d_flags>
0

> <s_epik_input>
W0NIMl0xW0NIMl1bQ0gyXVtDSDJdTjFbQ0BIXShbQ0gyXVtDSDNdKVtDSDJdW05IXUMoPU8pW0NIMl1jMmMoW0NIM10pbm9jMltDSDNd

> <s_epik_cmdline>
J2VwaWtfcHl0aG9uJywgJy1waCcsICc3LjAnLCAnLXRuJywgJzgnLCAnLW1hJywgJzIwMCcsICctbWV0YWxfYmluZGluZycsICctaW1hZScsICc8aW5maWxlLm1hZT4nLCAnLW9tYWUnLCAnPG91dGZpbGUubWFlPic=

> <r_epik_Ionization_Penalty>
0.00366311

> <r_epik_Ionization_Penalty_Charging>
0.00366302

> <r_epik_Ionization_Penalty_Neutral>
9.25085e-08

> <r_epik_State_Penalty>
0.00260703

> <r_epik_Charging_Adjusted_Penalty>
0.00627005

> <i_epik_Tot_Q>
1

> <i_epik_Tot_abs_Q>
1

> <r_epik_Metal_State_Penalty>
-0

> <b_epik_Metal_Only>
0

> <s_lp_Force_Field>
OPLS_2005

> <r_lp_Energy>
34.8572

> <b_lp_Chiralities_Consistent>
1

> <s_lp_Variant>
AV-unprocessed.smi:1311-2

> <Gold.Version>
5.8.1

> <Gold.Id.Protein>
6NUR|6NUR_protein|mol2

> <Gold.PLP.Fitness>
37.6831

> <Gold.PLP.PLP>
-27.4162

> <Gold.PLP.part.hbond>
-3.0000

> <Gold.PLP.part.metal>
0.0000

> <Gold.PLP.part.buried>
-4.9288

> <Gold.PLP.part.nonpolar>
-20.3361

> <Gold.PLP.part.repulsive>
0.0202

> <Gold.PLP.ligand.clash>
0.0000

> <Gold.PLP.ligand.torsion>
0.9163

> <Gold.PLP.Chemscore.Hbond>
3.9825

> <Gold.PLP.Chemscore.CHOScore>
0.0000

> <Gold.PLP.Chemscore.Metal>
0.0000

> <Gold.Chemscore.Hbonds>
donor molecule, donor type, donor heavy atom, donor atom, acceptor molecule, acceptor atom, score
      L1  H     5    29       P1 10957  0.99
      L1  H    16    46       P1 10957  2.00
      P1  H  6896  6907       L1    13  1.00

> <Gold.PLP.Chemscore.Internal.Correction>
0.1520

> <Gold.Rescore>
     Score         DG    S(hbond)    S(metal)    S(lipo)     H(rot)  DE(clash)    DE(int)     intcor
     16.16     -17.25       2.66        0.00      64.20       1.80       0.00       1.09       ----

> <Gold.Chemscore.Fitness>
16.1619

> <Gold.Chemscore.DG>
-17.2510

> <Gold.Chemscore.ZeroCoef>
-5.4800

> <Gold.Chemscore.Hbond>
2.6554

> <Gold.Chemscore.Metal>
0.0000

> <Gold.Chemscore.Lipo>
64.1964

> <Gold.Chemscore.Internal_Hbond>
0.0000

> <Gold.Chemscore.DEClash>
0.0000

> <Gold.Chemscore.DEInternal>
1.0891

> <Gold.Chemscore.Rot>
1.8004

> <Gold.Chemscore.Internal.Correction>
   9.000000E+99

> <Gold.Chemscore.Hbonds>
donor molecule, donor type, donor heavy atom, donor atom, acceptor molecule, acceptor atom, score
      L1  H     5    29       P1 10957  0.91
      L1  H    16    46       P1 10957  0.51
      P1  H  6896  6907       L1    13  0.95

> <Gold.Chemscore.Hbond.Weighted>
-8.8690

> <Gold.Chemscore.Metal.Weighted>
-0.0000

> <Gold.Chemscore.Lipo.Weighted>
-7.5110

> <Gold.Chemscore.Internal_Hbond.Weighted>
0.0000

> <Gold.Chemscore.DEClash.Weighted>
0.0000

> <Gold.Chemscore.DEInternal.Weighted>
1.0891

> <Gold.Chemscore.Rot.Weighted>
4.6090

> <Gold.Chemscore.Internal.Correction.Weighted>
   9.000000E+99

> <Gold.Protein.RotatedTorsions>
[ 6907 6896 6895 6894 ] final -128.18 input  -60.11 | X-H torsion
[ 7974 7965 7964 7962 ] final  -60.03 input  175.53 | X-H torsion
[ 8008 7997 7996 7995 ] final   50.36 input   59.86 | X-H torsion
[ 10167 10162 10161 10158 ] final -137.77 input  -65.29 | X-H torsion
[ 10718 10713 10712 10709 ] final   19.65 input   66.30 | X-H torsion
[ 10763 10752 10751 10750 ] final  -36.27 input  -60.55 | X-H torsion
[ 11005 11000 10999 10996 ] final -121.26 input  -57.11 | X-H torsion

> <Gold.Protein.ActiveResidues>
 VAL166  LYS551  ARG553  GLY616  TRP617  ASP618  TYR619  PRO620  LYS621  CYS622 
 ASP623  PHE694  ASN695  SER759  ASP760  ASP761  ALA762  ILE779  LEU786  VAL792 
 PHE793  MET794  SER795  GLU796  ALA797  LYS798  CYS799  TRP800  GLU811  SER814 

> <Gold.Protein.RotatedAtoms>
  150.9152  133.6948  159.2844 H   0  0  0  0  0  0  0  0  0  0  0  0  # atno 6907 bound_to 6896
  151.4421  135.1020  159.9683 H   0  0  0  0  0  0  0  0  0  0  0  0  # atno 6908 bound_to 6896
  152.4951  133.8558  159.7280 H   0  0  0  0  0  0  0  0  0  0  0  0  # atno 6909 bound_to 6896
  145.8204  140.8543  143.0135 H   0  0  0  0  0  0  0  0  0  0  0  0  # atno 7974 bound_to 7965
  155.4174  140.3445  155.4268 H   0  0  0  0  0  0  0  0  0  0  0  0  # atno 8008 bound_to 7997
  156.1413  140.1543  156.8948 H   0  0  0  0  0  0  0  0  0  0  0  0  # atno 8009 bound_to 7997
  154.4973  140.0824  156.7705 H   0  0  0  0  0  0  0  0  0  0  0  0  # atno 8010 bound_to 7997
  139.8545  143.7156  152.2655 H   0  0  0  0  0  0  0  0  0  0  0  0  # atno 10167 bound_to 10162
  157.1134  130.6518  149.5903 H   0  0  0  0  0  0  0  0  0  0  0  0  # atno 10718 bound_to 10713
  153.8770  135.6825  153.4770 H   0  0  0  0  0  0  0  0  0  0  0  0  # atno 10763 bound_to 10752
  153.1255  135.4721  154.9263 H   0  0  0  0  0  0  0  0  0  0  0  0  # atno 10764 bound_to 10752
  154.7687  135.3232  154.8185 H   0  0  0  0  0  0  0  0  0  0  0  0  # atno 10765 bound_to 10752
  141.0083  134.0302  157.3448 H   0  0  0  0  0  0  0  0  0  0  0  0  # atno 11005 bound_to 11000
  144.6748  140.0525  143.7478 LP  0  0  0  0  0  0  0  0  0  0  0  0  # atno 17320 bound_to 7965
  145.9681  139.2849  143.1115 LP  0  0  0  0  0  0  0  0  0  0  0  0  # atno 17321 bound_to 7965
  139.7433  144.7554  151.0618 LP  0  0  0  0  0  0  0  0  0  0  0  0  # atno 17342 bound_to 10162
  140.7783  143.4946  150.9849 LP  0  0  0  0  0  0  0  0  0  0  0  0  # atno 17343 bound_to 10162
  155.9845  130.4870  150.6986 LP  0  0  0  0  0  0  0  0  0  0  0  0  # atno 17370 bound_to 10713
  157.4540  131.0876  151.0816 LP  0  0  0  0  0  0  0  0  0  0  0  0  # atno 17371 bound_to 10713
  139.9075  135.0183  156.7552 LP  0  0  0  0  0  0  0  0  0  0  0  0  # atno 17394 bound_to 11000
  140.6776  133.9503  155.7892 LP  0  0  0  0  0  0  0  0  0  0  0  0  # atno 17395 bound_to 11000

$$$$
