#       Name:                AV-unprocessed.smi:2307
#       Creating user name   scv26
#       Creation time:       Fri Mar 27 12:47:18 2020


#       File generated by GOLD software.
#

@<TRIPOS>MOLECULE
AV-unprocessed.smi:2307
    45    46     1
SMALL
NO_CHARGES


@<TRIPOS>ATOM
      1 ****        -2.7951   5.3921  -0.1755 C.3            1 S1                 0.0000
      2 ****        -2.2332   3.9849  -0.0776 C.2            1 S1                 0.0000
      3 ****        -1.9840   3.5232   1.2182 N.2            1 S1                 0.0000
      4 ****        -1.5077   2.3348   1.3990 C.2            1 S1                 0.0000
      5 ****        -1.2311   1.4794   0.3204 N.am           1 S1                 0.0000
      6 ****        -0.6936   0.1518   0.6618 C.3            1 S1                 0.0000
      7 ****         0.8389   0.0768   0.4836 C.3            1 S1                 0.0000
      8 ****         1.4552   0.6997   1.5937 O.3            1 S1                 0.0000
      9 ****         1.2975  -1.3654   0.3306 C.ar           1 S1                 0.0000
     10 ****         1.6379  -1.8623  -0.9438 C.ar           1 S1                 0.0000
     11 ****         2.0532  -3.1987  -1.0967 C.ar           1 S1                 0.0000
     12 ****         2.1351  -4.0632   0.0140 C.ar           1 S1                 0.0000
     13 ****         2.5529  -5.3553  -0.2324 O.3            1 S1                 0.0000
     14 ****         2.6862  -6.2577   0.7775 C.3            1 S1                 0.0000
     15 ****         3.1199  -7.4377   0.2724 F              1 S1                 0.0000
     16 ****         3.6044  -5.8605   1.6941 F              1 S1                 0.0000
     17 ****         1.5043  -6.5044   1.3964 F              1 S1                 0.0000
     18 ****         1.7866  -3.5611   1.2933 C.ar           1 S1                 0.0000
     19 ****         1.3699  -2.2247   1.4474 C.ar           1 S1                 0.0000
     20 ****        -1.4352   1.8539  -0.9759 C.2            1 S1                 0.0000
     21 ****        -1.1741   1.1001  -1.9156 O.2            1 S1                 0.0000
     22 ****        -1.9802   3.2079  -1.1660 C.2            1 S1                 0.0000
     23 ****        -2.2315   3.6569  -2.6001 C.3            1 S1                 0.0000
     24 ****        -3.7691   5.3812  -0.6653 H              1 S1                 0.0000
     25 ****        -2.1235   6.0328  -0.7475 H              1 S1                 0.0000
     26 ****        -2.9226   5.8391   0.8113 H              1 S1                 0.0000
     27 ****        -1.2907   1.9292   2.3887 H              1 S1                 0.0000
     28 ****        -0.9805  -0.1704   1.6651 H              1 S1                 0.0000
     29 ****        -1.1666  -0.5783   0.0019 H              1 S1                 0.0000
     30 ****         1.1431   0.6247  -0.4092 H              1 S1                 0.0000
     31 ****         2.3887   0.7163   1.4466 H              1 S1                 0.0000
     32 ****         1.5790  -1.2211  -1.8112 H              1 S1                 0.0000
     33 ****         2.3114  -3.5650  -2.0795 H              1 S1                 0.0000
     34 ****         1.8288  -4.1824   2.1744 H              1 S1                 0.0000
     35 ****         1.1028  -1.8626   2.4294 H              1 S1                 0.0000
     36 ****        -1.3016   3.6368  -3.1697 H              1 S1                 0.0000
     37 ****        -2.6369   4.6649  -2.6702 H              1 S1                 0.0000
     38 ****        -2.9398   2.9844  -3.0850 H              1 S1                 0.0000
     39 ****        -2.1739   4.1113   2.0044 LP             1 S1                 0.0000
     40 ****         1.2537   0.1829   2.4258 LP             1 S1                 0.0000
     41 ****         1.1120   1.6340   1.6902 LP             1 S1                 0.0000
     42 ****         3.4495  -5.2848  -0.6696 LP             1 S1                 0.0000
     43 ****         1.8972  -5.7470  -0.8778 LP             1 S1                 0.0000
     44 ****        -0.8030   0.1888  -1.7373 LP             1 S1                 0.0000
     45 ****        -1.3334   1.3999  -2.8562 LP             1 S1                 0.0000
@<TRIPOS>BOND
    1    1    2 1     
    2    1   24 1     
    3    1   25 1     
    4    1   26 1     
    5    2   22 2     
    6    2    3 1     
    7    3    4 2     
    8    4    5 1     
    9    4   27 1     
   10    5    6 1     
   11    5   20 am    
   12    6    7 1     
   13    6   28 1     
   14    6   29 1     
   15    7    8 1     
   16    7    9 1     
   17    7   30 1     
   18    8   31 1     
   19    9   19 ar    
   20    9   10 ar    
   21   10   11 ar    
   22   10   32 1     
   23   11   12 ar    
   24   11   33 1     
   25   12   13 1     
   26   12   18 ar    
   27   13   14 1     
   28   14   15 1     
   29   14   16 1     
   30   14   17 1     
   31   18   19 ar    
   32   18   34 1     
   33   19   35 1     
   34   20   21 2     
   35   20   22 1     
   36   22   23 1     
   37   23   36 1     
   38   23   37 1     
   39   23   38 1     
   40    3   39 1     
   41    8   40 1     
   42    8   41 1     
   43   13   42 1     
   44   13   43 1     
   45   21   44 1     
   46   21   45 1     
@<TRIPOS>SUBSTRUCTURE
      1 S1             1
@<TRIPOS>SET
LONE_PAIRS      STATIC     ATOMS    <user>   **** ""
7 39 40 41 42 43 44 45
DONOR_HYDROGENS      STATIC     ATOMS    <user>   **** ""
1 31
ATOM$BLUE        STATIC     ATOMS    COLORGROUP SYSTEM
7 39 40 41 42 43 44 45
ATOM$RED        STATIC     ATOMS    COLORGROUP SYSTEM
1 31
