AV-unprocessed.smi:863|AV-procd|sdf|3985|dock4
  -GOLD-   22720 1463D 1   1.00000     0.00000
 Structure written by MMmdl.
 42 44  0  0  0  0  0  0  0  0  1 V2000
  146.1694  139.6332  154.3976 O   0  0  0  0  0  0  0  0  0  0  0  0
  146.6611  139.0377  153.4388 C   0  0  0  0  0  0  0  0  0  0  0  0
  145.7942  138.6911  152.2279 C   0  0  0  0  0  0  0  0  0  0  0  0
  145.2781  137.2825  152.3467 C   0  0  0  0  0  0  0  0  0  0  0  0
  144.5675  136.5179  151.3797 C   0  0  0  0  0  0  0  0  0  0  0  0
  144.3533  135.3260  152.0095 C   0  0  0  0  0  0  0  0  0  0  0  0
  144.8857  135.3456  153.2576 O   0  0  0  0  0  0  0  0  0  0  0  0
  145.4763  136.5977  153.4634 N   0  0  0  0  0  0  0  0  0  0  0  0
  147.9473  138.6570  153.3831 N   0  0  0  0  0  0  0  0  0  0  0  0
  148.9360  138.8724  154.4351 C   0  0  1  0  0  0  0  0  0  0  0  0
  150.3224  138.3921  153.9838 C   0  0  0  0  0  0  0  0  0  0  0  0
  151.3846  138.7468  155.0330 C   0  0  0  0  0  0  0  0  0  0  0  0
  151.3668  140.1455  155.3118 O   0  0  0  0  0  0  0  0  0  0  0  0
  150.1329  140.6859  155.8030 C   0  0  0  0  0  0  0  0  0  0  0  0
  149.7966  140.1545  157.2232 C   0  0  0  0  0  0  0  0  0  0  0  0
  150.8566  140.5506  158.2641 C   0  0  0  0  0  0  0  0  0  0  0  0
  151.0466  142.0726  158.3110 C   0  0  0  0  0  0  0  0  0  0  0  0
  151.3945  142.6239  156.9216 C   0  0  0  0  0  0  0  0  0  0  0  0
  150.3412  142.2169  155.8761 C   0  0  0  0  0  0  0  0  0  0  0  0
  149.0116  140.3673  154.7834 C   0  0  0  0  0  0  0  0  0  0  0  0
  144.9630  139.3946  152.1684 H   0  0  0  0  0  0  0  0  0  0  0  0
  146.3736  138.8211  151.3125 H   0  0  0  0  0  0  0  0  0  0  0  0
  144.2624  136.8011  150.3833 H   0  0  0  0  0  0  0  0  0  0  0  0
  143.8624  134.4096  151.7168 H   0  0  0  0  0  0  0  0  0  0  0  0
  148.2610  138.1697  152.5559 H   0  0  0  0  0  0  0  0  0  0  0  0
  148.6327  138.3174  155.3242 H   0  0  0  0  0  0  0  0  0  0  0  0
  150.3175  137.3155  153.8100 H   0  0  0  0  0  0  0  0  0  0  0  0
  150.5857  138.8607  153.0345 H   0  0  0  0  0  0  0  0  0  0  0  0
  151.2434  138.1660  155.9440 H   0  0  0  0  0  0  0  0  0  0  0  0
  152.3738  138.4855  154.6569 H   0  0  0  0  0  0  0  0  0  0  0  0
  148.8326  140.5583  157.5356 H   0  0  0  0  0  0  0  0  0  0  0  0
  149.6722  139.0729  157.2316 H   0  0  0  0  0  0  0  0  0  0  0  0
  150.5638  140.1840  159.2482 H   0  0  0  0  0  0  0  0  0  0  0  0
  151.8050  140.0681  158.0253 H   0  0  0  0  0  0  0  0  0  0  0  0
  150.1331  142.5450  158.6745 H   0  0  0  0  0  0  0  0  0  0  0  0
  151.8326  142.3288  159.0218 H   0  0  0  0  0  0  0  0  0  0  0  0
  151.4735  143.7107  156.9640 H   0  0  0  0  0  0  0  0  0  0  0  0
  152.3758  142.2571  156.6180 H   0  0  0  0  0  0  0  0  0  0  0  0
  150.6357  142.6024  154.8992 H   0  0  0  0  0  0  0  0  0  0  0  0
  149.3950  142.7020  156.1207 H   0  0  0  0  0  0  0  0  0  0  0  0
  149.1959  140.9300  153.8665 H   0  0  0  0  0  0  0  0  0  0  0  0
  148.0493  140.7144  155.1620 H   0  0  0  0  0  0  0  0  0  0  0  0
  1  2  2  0  0  0  0
  2  3  1  0  0  0  0
  2  9  1  0  0  0  0
  3  4  1  0  0  0  0
  3 21  1  0  0  0  0
  3 22  1  0  0  0  0
  4  8  2  0  0  0  0
  4  5  1  0  0  0  0
  5  6  2  0  0  0  0
  5 23  1  0  0  0  0
  6  7  1  0  0  0  0
  6 24  1  0  0  0  0
  7  8  1  0  0  0  0
  9 10  1  0  0  0  0
  9 25  1  0  0  0  0
 10 20  1  0  0  0  0
 10 11  1  0  0  0  0
 10 26  1  0  0  0  0
 11 12  1  0  0  0  0
 11 27  1  0  0  0  0
 11 28  1  0  0  0  0
 12 13  1  0  0  0  0
 12 29  1  0  0  0  0
 12 30  1  0  0  0  0
 13 14  1  0  0  0  0
 14 19  1  0  0  0  0
 14 15  1  0  0  0  0
 14 20  1  0  0  0  0
 15 16  1  0  0  0  0
 15 31  1  0  0  0  0
 15 32  1  0  0  0  0
 16 17  1  0  0  0  0
 16 33  1  0  0  0  0
 16 34  1  0  0  0  0
 17 18  1  0  0  0  0
 17 35  1  0  0  0  0
 17 36  1  0  0  0  0
 18 19  1  0  0  0  0
 18 37  1  0  0  0  0
 18 38  1  0  0  0  0
 19 39  1  0  0  0  0
 19 40  1  0  0  0  0
 20 41  1  0  0  0  0
 20 42  1  0  0  0  0
M  END
> <s_m_source_file>
AV-unprocessed.smi

> <i_m_source_file_index>
863

> <i_lp_mmshare_version>
43012

> <i_f3d_flags>
0

> <s_epik_input>
bjFvW2NIXVtjSF1jMVtDSDJdQyg9TylbTkhdW0NAQEhdKFtDSDJdMilbQ0gyXVtDSDJdT0MyM1tDSDJdW0NIMl1bQ0gyXVtDSDJdW0NIMl0z

> <s_epik_cmdline>
J2VwaWtfcHl0aG9uJywgJy1waCcsICc3LjAnLCAnLXRuJywgJzgnLCAnLW1hJywgJzIwMCcsICctbWV0YWxfYmluZGluZycsICctaW1hZScsICc8aW5maWxlLm1hZT4nLCAnLW9tYWUnLCAnPG91dGZpbGUubWFlPic=

> <r_lp_tautomer_probability>
1

> <r_epik_Ionization_Penalty>
1.10177e-07

> <r_epik_Ionization_Penalty_Charging>
0

> <r_epik_Ionization_Penalty_Neutral>
1.10177e-07

> <r_epik_State_Penalty>
-0

> <r_epik_Charging_Adjusted_Penalty>
0

> <i_epik_Tot_Q>
0

> <i_epik_Tot_abs_Q>
0

> <r_epik_Metal_State_Penalty>
-0

> <b_epik_Metal_Only>
0

> <s_lp_Force_Field>
OPLS_2005

> <r_lp_Energy>
15.5582

> <b_lp_Chiralities_Consistent>
1

> <s_lp_Variant>
AV-unprocessed.smi:863-2

> <Gold.Version>
5.8.1

> <Gold.Id.Protein>
6NUR|6NUR_protein|mol2

> <Gold.PLP.Fitness>
38.3469

> <Gold.PLP.PLP>
-34.1332

> <Gold.PLP.part.hbond>
-3.0000

> <Gold.PLP.part.metal>
0.0000

> <Gold.PLP.part.buried>
-3.0483

> <Gold.PLP.part.nonpolar>
-29.4946

> <Gold.PLP.part.repulsive>
0.5413

> <Gold.PLP.ligand.clash>
0.0000

> <Gold.PLP.ligand.torsion>
0.4136

> <Gold.PLP.Chemscore.Hbond>
1.6800

> <Gold.PLP.Chemscore.CHOScore>
0.0000

> <Gold.PLP.Chemscore.Metal>
0.0000

> <Gold.Chemscore.Hbonds>
donor molecule, donor type, donor heavy atom, donor atom, acceptor molecule, acceptor atom, score
      L1  H     9    25       P1  7948  0.62
      P1  H  7989  7998       L1    13  1.00

> <Gold.PLP.Chemscore.Internal.Correction>
0.0009

> <Gold.Rescore>
     Score         DG    S(hbond)    S(metal)    S(lipo)     H(rot)  DE(clash)    DE(int)     intcor
     13.13     -15.58       1.19        0.00      83.22       1.42       0.14       2.30       ----

> <Gold.Chemscore.Fitness>
13.1341

> <Gold.Chemscore.DG>
-15.5785

> <Gold.Chemscore.ZeroCoef>
-5.4800

> <Gold.Chemscore.Hbond>
1.1938

> <Gold.Chemscore.Metal>
0.0000

> <Gold.Chemscore.Lipo>
83.2225

> <Gold.Chemscore.Internal_Hbond>
0.0000

> <Gold.Chemscore.DEClash>
0.1411

> <Gold.Chemscore.DEInternal>
2.3033

> <Gold.Chemscore.Rot>
1.4164

> <Gold.Chemscore.Internal.Correction>
   9.000000E+99

> <Gold.Chemscore.Hbonds>
donor molecule, donor type, donor heavy atom, donor atom, acceptor molecule, acceptor atom, score
      L1  H     9    25       P1  7948  0.61
      P1  H  7989  7998       L1    13  0.17

> <Gold.Chemscore.Hbond.Weighted>
-3.9874

> <Gold.Chemscore.Metal.Weighted>
-0.0000

> <Gold.Chemscore.Lipo.Weighted>
-9.7370

> <Gold.Chemscore.Internal_Hbond.Weighted>
0.0000

> <Gold.Chemscore.DEClash.Weighted>
0.1411

> <Gold.Chemscore.DEInternal.Weighted>
2.3033

> <Gold.Chemscore.Rot.Weighted>
3.6259

> <Gold.Chemscore.Internal.Correction.Weighted>
   9.000000E+99

> <Gold.Protein.RotatedTorsions>
[ 6907 6896 6895 6894 ] final  172.06 input  -60.11 | X-H torsion
[ 7974 7965 7964 7962 ] final -121.40 input  175.53 | X-H torsion
[ 8008 7997 7996 7995 ] final  128.92 input   59.86 | X-H torsion
[ 10167 10162 10161 10158 ] final  -38.49 input  -65.29 | X-H torsion
[ 10718 10713 10712 10709 ] final    6.94 input   66.30 | X-H torsion
[ 10763 10752 10751 10750 ] final -164.87 input  -60.55 | X-H torsion
[ 11005 11000 10999 10996 ] final  -33.19 input  -57.11 | X-H torsion

> <Gold.Protein.ActiveResidues>
 VAL166  LYS551  ARG553  GLY616  TRP617  ASP618  TYR619  PRO620  LYS621  CYS622 
 ASP623  PHE694  ASN695  SER759  ASP760  ASP761  ALA762  ILE779  LEU786  VAL792 
 PHE793  MET794  SER795  GLU796  ALA797  LYS798  CYS799  TRP800  GLU811  SER814 

> <Gold.Protein.RotatedAtoms>
  151.7904  133.3358  159.3497 H   0  0  0  0  0  0  0  0  0  0  0  0  # atno 6907 bound_to 6896
  150.7394  134.5848  159.5966 H   0  0  0  0  0  0  0  0  0  0  0  0  # atno 6908 bound_to 6896
  152.3214  134.7377  160.0364 H   0  0  0  0  0  0  0  0  0  0  0  0  # atno 6909 bound_to 6896
  145.0407  140.8142  143.4268 H   0  0  0  0  0  0  0  0  0  0  0  0  # atno 7974 bound_to 7965
  156.2925  140.2633  156.2515 H   0  0  0  0  0  0  0  0  0  0  0  0  # atno 8008 bound_to 7997
  154.9878  140.0389  157.2324 H   0  0  0  0  0  0  0  0  0  0  0  0  # atno 8009 bound_to 7997
  154.7713  140.2778  155.6140 H   0  0  0  0  0  0  0  0  0  0  0  0  # atno 8010 bound_to 7997
  140.7091  143.3274  151.2648 H   0  0  0  0  0  0  0  0  0  0  0  0  # atno 10167 bound_to 10162
  156.9295  130.5821  149.5649 H   0  0  0  0  0  0  0  0  0  0  0  0  # atno 10718 bound_to 10713
  154.6987  135.2984  154.9374 H   0  0  0  0  0  0  0  0  0  0  0  0  # atno 10763 bound_to 10752
  154.0313  135.6669  153.4785 H   0  0  0  0  0  0  0  0  0  0  0  0  # atno 10764 bound_to 10752
  153.0665  135.5085  154.8118 H   0  0  0  0  0  0  0  0  0  0  0  0  # atno 10765 bound_to 10752
  140.9614  133.7162  156.1376 H   0  0  0  0  0  0  0  0  0  0  0  0  # atno 11005 bound_to 11000
  145.1651  139.2436  143.5371 LP  0  0  0  0  0  0  0  0  0  0  0  0  # atno 17320 bound_to 7965
  146.3509  140.1388  142.8595 LP  0  0  0  0  0  0  0  0  0  0  0  0  # atno 17321 bound_to 7965
  139.6746  143.9960  152.2773 LP  0  0  0  0  0  0  0  0  0  0  0  0  # atno 17342 bound_to 10162
  139.9570  144.6583  150.8116 LP  0  0  0  0  0  0  0  0  0  0  0  0  # atno 17343 bound_to 10162
  156.0453  130.5531  150.8867 LP  0  0  0  0  0  0  0  0  0  0  0  0  # atno 17370 bound_to 10713
  157.5856  131.0945  150.9202 LP  0  0  0  0  0  0  0  0  0  0  0  0  # atno 17371 bound_to 10713
  140.7462  134.4096  157.5548 LP  0  0  0  0  0  0  0  0  0  0  0  0  # atno 17394 bound_to 11000
  139.8879  134.8869  156.2501 LP  0  0  0  0  0  0  0  0  0  0  0  0  # atno 17395 bound_to 11000

$$$$
