AV-unprocessed.smi:3149|AV-procd|sdf|12005|dock1
  -GOLD-   2272017413D 1   1.00000     0.00000
 Structure written by MMmdl.
 37 38  0  0  0  0  0  0  0  0  1 V2000
  147.6887  142.0521  156.4982 C   0  0  0  0  0  0  0  0  0  0  0  0
  148.9492  141.1994  156.2347 C   0  0  2  0  0  0  0  0  0  0  0  0
  150.0945  142.0790  156.0133 N   0  0  0  0  0  0  0  0  0  0  0  0
  150.9806  142.1926  157.1799 C   0  0  0  0  0  0  0  0  0  0  0  0
  150.3140  142.9636  158.3239 C   0  0  0  0  0  0  0  0  0  0  0  0
  149.3482  142.4806  158.9144 O   0  0  0  0  0  0  0  0  0  0  0  0
  150.8930  144.1716  158.7250 N   0  0  0  0  0  0  0  0  0  0  0  0
  150.7275  144.6756  160.0794 C   0  0  0  0  0  0  0  0  0  0  0  0
  152.0874  145.3518  159.8738 C   0  0  0  0  0  0  0  0  0  0  0  0
  152.3340  144.3734  158.7210 C   0  0  0  0  0  0  0  0  0  0  0  0
  148.8068  140.2687  154.9990 C   0  0  1  0  0  0  0  0  0  0  0  0
  148.5598  141.0486  153.6923 C   0  0  0  0  0  0  0  0  0  0  0  0
  149.9566  139.3859  154.8406 N   0  0  0  0  0  0  0  0  0  0  0  0
  149.9632  138.0172  154.6661 C   0  0  0  0  0  0  0  0  0  0  0  0
  151.2668  137.6232  154.5683 C   0  0  0  0  0  0  0  0  0  0  0  0
  151.9972  138.8375  154.6921 C   0  0  0  0  0  0  0  0  0  0  0  0
  151.2121  139.8898  154.8538 N   0  0  0  0  0  0  0  0  0  0  0  0
  146.8160  141.4295  156.6947 H   0  0  0  0  0  0  0  0  0  0  0  0
  147.4542  142.6873  155.6435 H   0  0  0  0  0  0  0  0  0  0  0  0
  147.8049  142.6958  157.3692 H   0  0  0  0  0  0  0  0  0  0  0  0
  149.1381  140.5732  157.1082 H   0  0  0  0  0  0  0  0  0  0  0  0
  149.7802  142.9820  155.6881 H   0  0  0  0  0  0  0  0  0  0  0  0
  151.2535  141.2002  157.5381 H   0  0  0  0  0  0  0  0  0  0  0  0
  151.9078  142.6960  156.9048 H   0  0  0  0  0  0  0  0  0  0  0  0
  149.8895  145.3628  160.1987 H   0  0  0  0  0  0  0  0  0  0  0  0
  150.7466  143.8945  160.8421 H   0  0  0  0  0  0  0  0  0  0  0  0
  152.0097  146.3913  159.5497 H   0  0  0  0  0  0  0  0  0  0  0  0
  152.7755  145.2385  160.7122 H   0  0  0  0  0  0  0  0  0  0  0  0
  152.9023  143.4920  159.0249 H   0  0  0  0  0  0  0  0  0  0  0  0
  152.7186  144.8314  157.8095 H   0  0  0  0  0  0  0  0  0  0  0  0
  147.9432  139.6213  155.1621 H   0  0  0  0  0  0  0  0  0  0  0  0
  147.6237  141.6055  153.7304 H   0  0  0  0  0  0  0  0  0  0  0  0
  148.4971  140.3728  152.8390 H   0  0  0  0  0  0  0  0  0  0  0  0
  149.3604  141.7618  153.4933 H   0  0  0  0  0  0  0  0  0  0  0  0
  149.0492  137.4430  154.6289 H   0  0  0  0  0  0  0  0  0  0  0  0
  151.6420  136.6201  154.4288 H   0  0  0  0  0  0  0  0  0  0  0  0
  153.0668  138.9844  154.6692 H   0  0  0  0  0  0  0  0  0  0  0  0
  1  2  1  0  0  0  0
  1 18  1  0  0  0  0
  1 19  1  0  0  0  0
  1 20  1  0  0  0  0
  2  3  1  0  0  0  0
  2 11  1  0  0  0  0
  2 21  1  0  0  0  0
  3  4  1  0  0  0  0
  3 22  1  0  0  0  0
  4  5  1  0  0  0  0
  4 23  1  0  0  0  0
  4 24  1  0  0  0  0
  5  6  2  0  0  0  0
  5  7  1  0  0  0  0
  7 10  1  0  0  0  0
  7  8  1  0  0  0  0
  8  9  1  0  0  0  0
  8 25  1  0  0  0  0
  8 26  1  0  0  0  0
  9 10  1  0  0  0  0
  9 27  1  0  0  0  0
  9 28  1  0  0  0  0
 10 29  1  0  0  0  0
 10 30  1  0  0  0  0
 11 12  1  0  0  0  0
 11 13  1  0  0  0  0
 11 31  1  0  0  0  0
 12 32  1  0  0  0  0
 12 33  1  0  0  0  0
 12 34  1  0  0  0  0
 13 17  1  0  0  0  0
 13 14  1  0  0  0  0
 14 15  2  0  0  0  0
 14 35  1  0  0  0  0
 15 16  1  0  0  0  0
 15 36  1  0  0  0  0
 16 17  2  0  0  0  0
 16 37  1  0  0  0  0
M  END
> <s_m_source_file>
AV-unprocessed.smi

> <i_m_source_file_index>
3149

> <i_lp_mmshare_version>
43012

> <i_f3d_flags>
0

> <s_epik_input>
bjFbY0hdW2NIXVtjSF1uMVtDQEBIXShbQ0gzXSlbQ0BIXShbQ0gzXSlbTkhdW0NIMl1DKD1PKU4yW0NIMl1bQ0gyXVtDSDJdMg==

> <s_epik_cmdline>
J2VwaWtfcHl0aG9uJywgJy1waCcsICc3LjAnLCAnLXRuJywgJzgnLCAnLW1hJywgJzIwMCcsICctbWV0YWxfYmluZGluZycsICctaW1hZScsICc8aW5maWxlLm1hZT4nLCAnLW9tYWUnLCAnPG91dGZpbGUubWFlPic=

> <r_lp_tautomer_probability>
1

> <r_epik_Ionization_Penalty>
0.918674

> <r_epik_Ionization_Penalty_Charging>
0

> <r_epik_Ionization_Penalty_Neutral>
0.918674

> <r_epik_State_Penalty>
0.958258

> <r_epik_Charging_Adjusted_Penalty>
0.958258

> <i_epik_Tot_Q>
0

> <i_epik_Tot_abs_Q>
0

> <r_epik_Metal_State_Penalty>
0.956881

> <b_epik_Metal_Only>
0

> <s_lp_Force_Field>
OPLS_2005

> <r_lp_Energy>
23.4504

> <b_lp_Chiralities_Consistent>
1

> <s_lp_Variant>
AV-unprocessed.smi:3149-7

> <Gold.Version>
5.8.1

> <Gold.Id.Protein>
6NUR|6NUR_protein|mol2

> <Gold.PLP.Fitness>
42.8748

> <Gold.PLP.PLP>
-38.6386

> <Gold.PLP.part.hbond>
-3.0000

> <Gold.PLP.part.metal>
0.0000

> <Gold.PLP.part.buried>
-3.8351

> <Gold.PLP.part.nonpolar>
-31.5756

> <Gold.PLP.part.repulsive>
0.1663

> <Gold.PLP.ligand.clash>
0.0000

> <Gold.PLP.ligand.torsion>
1.3717

> <Gold.PLP.Chemscore.Hbond>
2.0000

> <Gold.PLP.Chemscore.CHOScore>
0.0000

> <Gold.PLP.Chemscore.Metal>
0.0000

> <Gold.Chemscore.Hbonds>
donor molecule, donor type, donor heavy atom, donor atom, acceptor molecule, acceptor atom, score
      L1  H     3    22       P1  8028  1.00
      P1  H  7989  7998       L1    17  1.00

> <Gold.PLP.Chemscore.Internal.Correction>
0.9795

> <Gold.Rescore>
     Score         DG    S(hbond)    S(metal)    S(lipo)     H(rot)  DE(clash)    DE(int)     intcor
     13.39     -16.32       1.58        0.00      86.60       1.79       0.17       2.77       ----

> <Gold.Chemscore.Fitness>
13.3881

> <Gold.Chemscore.DG>
-16.3190

> <Gold.Chemscore.ZeroCoef>
-5.4800

> <Gold.Chemscore.Hbond>
1.5816

> <Gold.Chemscore.Metal>
0.0000

> <Gold.Chemscore.Lipo>
86.5999

> <Gold.Chemscore.Internal_Hbond>
0.0000

> <Gold.Chemscore.DEClash>
0.1657

> <Gold.Chemscore.DEInternal>
2.7653

> <Gold.Chemscore.Rot>
1.7874

> <Gold.Chemscore.Internal.Correction>
   9.000000E+99

> <Gold.Chemscore.Hbonds>
donor molecule, donor type, donor heavy atom, donor atom, acceptor molecule, acceptor atom, score
      L1  H     3    22       P1  8028  0.99
      P1  H  7989  7998       L1    17  0.32

> <Gold.Chemscore.Hbond.Weighted>
-5.2827

> <Gold.Chemscore.Metal.Weighted>
-0.0000

> <Gold.Chemscore.Lipo.Weighted>
-10.1322

> <Gold.Chemscore.Internal_Hbond.Weighted>
0.0000

> <Gold.Chemscore.DEClash.Weighted>
0.1657

> <Gold.Chemscore.DEInternal.Weighted>
2.7653

> <Gold.Chemscore.Rot.Weighted>
4.5758

> <Gold.Chemscore.Internal.Correction.Weighted>
   9.000000E+99

> <Gold.Protein.RotatedTorsions>
[ 6907 6896 6895 6894 ] final -121.04 input  -60.11 | X-H torsion
[ 7974 7965 7964 7962 ] final    7.55 input  175.53 | X-H torsion
[ 8008 7997 7996 7995 ] final -138.16 input   59.86 | X-H torsion
[ 10167 10162 10161 10158 ] final -146.53 input  -65.29 | X-H torsion
[ 10718 10713 10712 10709 ] final -139.51 input   66.30 | X-H torsion
[ 10763 10752 10751 10750 ] final   64.83 input  -60.55 | X-H torsion
[ 11005 11000 10999 10996 ] final  132.74 input  -57.11 | X-H torsion

> <Gold.Protein.ActiveResidues>
 VAL166  LYS551  ARG553  GLY616  TRP617  ASP618  TYR619  PRO620  LYS621  CYS622 
 ASP623  PHE694  ASN695  SER759  ASP760  ASP761  ALA762  ILE779  LEU786  VAL792 
 PHE793  MET794  SER795  GLU796  ALA797  LYS798  CYS799  TRP800  GLU811  SER814 

> <Gold.Protein.RotatedAtoms>
  150.8447  133.7880  159.3047 H   0  0  0  0  0  0  0  0  0  0  0  0  # atno 6907 bound_to 6896
  151.5571  135.1065  159.9973 H   0  0  0  0  0  0  0  0  0  0  0  0  # atno 6908 bound_to 6896
  152.4503  133.7574  159.6784 H   0  0  0  0  0  0  0  0  0  0  0  0  # atno 6909 bound_to 6896
  146.2425  140.0066  142.8410 H   0  0  0  0  0  0  0  0  0  0  0  0  # atno 7974 bound_to 7965
  155.4237  140.0520  157.3024 H   0  0  0  0  0  0  0  0  0  0  0  0  # atno 8008 bound_to 7997
  154.4891  140.2113  155.9548 H   0  0  0  0  0  0  0  0  0  0  0  0  # atno 8009 bound_to 7997
  156.1317  140.3170  155.8363 H   0  0  0  0  0  0  0  0  0  0  0  0  # atno 8010 bound_to 7997
  139.7705  143.8245  152.2623 H   0  0  0  0  0  0  0  0  0  0  0  0  # atno 10167 bound_to 10162
  156.3116  130.7485  151.1562 H   0  0  0  0  0  0  0  0  0  0  0  0  # atno 10718 bound_to 10713
  153.0071  135.5379  154.6571 H   0  0  0  0  0  0  0  0  0  0  0  0  # atno 10763 bound_to 10752
  154.5789  135.2848  155.0755 H   0  0  0  0  0  0  0  0  0  0  0  0  # atno 10764 bound_to 10752
  154.1892  135.6503  153.5107 H   0  0  0  0  0  0  0  0  0  0  0  0  # atno 10765 bound_to 10752
  139.9808  134.9548  156.9625 H   0  0  0  0  0  0  0  0  0  0  0  0  # atno 11005 bound_to 11000
  145.1366  140.9548  143.4513 LP  0  0  0  0  0  0  0  0  0  0  0  0  # atno 17320 bound_to 7965
  145.0336  139.3320  143.6012 LP  0  0  0  0  0  0  0  0  0  0  0  0  # atno 17321 bound_to 7965
  139.8278  144.7267  150.9490 LP  0  0  0  0  0  0  0  0  0  0  0  0  # atno 17342 bound_to 10162
  140.7813  143.4099  151.1010 LP  0  0  0  0  0  0  0  0  0  0  0  0  # atno 17343 bound_to 10162
  157.7392  131.0532  150.5246 LP  0  0  0  0  0  0  0  0  0  0  0  0  # atno 17370 bound_to 10713
  156.5386  130.4202  149.6165 LP  0  0  0  0  0  0  0  0  0  0  0  0  # atno 17371 bound_to 10713
  140.5100  134.1012  155.7268 LP  0  0  0  0  0  0  0  0  0  0  0  0  # atno 17394 bound_to 11000
  141.1480  133.9019  157.2167 LP  0  0  0  0  0  0  0  0  0  0  0  0  # atno 17395 bound_to 11000

$$$$
