AV-unprocessed.smi:993|AV-procd|sdf|4338|dock2
  -GOLD-   22720 2233D 1   1.00000     0.00000
 Structure written by MMmdl.
 30 31  0  0  0  0  0  0  0  0  3 V2000
  152.7993  138.6414  158.0791 C   0  0  0  0  0  0  0  0  0  0  0  0
  152.0824  139.8758  157.5608 C   0  0  0  0  0  0  0  0  0  0  0  0
  152.2094  141.0322  158.3449 N   0  0  0  0  0  0  0  0  0  0  0  0
  151.6201  142.1315  157.9846 C   0  0  0  0  0  0  0  0  0  0  0  0
  151.7276  143.2968  158.7448 N   0  0  0  0  0  0  0  0  0  0  0  0
  152.2815  143.3534  160.0922 C   0  0  0  0  0  0  0  0  0  0  0  0
  151.9392  144.7387  160.6404 C   0  0  0  0  0  0  0  0  0  0  0  0
  151.8787  145.5991  159.3855 C   0  0  0  0  0  0  0  0  0  0  0  0
  151.3261  144.6385  158.3317 C   0  0  0  0  0  0  0  0  0  0  0  0
  150.8509  142.2238  156.8354 N   0  5  0  0  0  0  0  0  0  0  0  0
  150.6951  141.1428  156.0185 C   0  0  0  0  0  0  0  0  0  0  0  0
  150.0315  141.2023  154.9838 O   0  0  0  0  0  0  0  0  0  0  0  0
  151.3496  139.8816  156.4113 C   0  0  0  0  0  0  0  0  0  0  0  0
  151.1660  138.6414  155.5311 C   0  0  0  0  0  0  0  0  0  0  0  0
  152.3575  138.2961  154.6286 C   0  0  0  0  0  0  0  0  0  0  0  0
  153.3238  139.0893  154.6595 O   0  0  0  0  0  0  0  0  0  0  0  0
  152.2979  137.2641  153.9236 O   0  5  0  0  0  0  0  0  0  0  0  0
  152.0803  137.8668  158.3454 H   0  0  0  0  0  0  0  0  0  0  0  0
  153.3900  138.8711  158.9665 H   0  0  0  0  0  0  0  0  0  0  0  0
  153.4756  138.2439  157.3222 H   0  0  0  0  0  0  0  0  0  0  0  0
  151.8787  142.5643  160.7284 H   0  0  0  0  0  0  0  0  0  0  0  0
  153.3623  143.2212  160.0310 H   0  0  0  0  0  0  0  0  0  0  0  0
  150.9580  144.7146  161.1165 H   0  0  0  0  0  0  0  0  0  0  0  0
  152.6631  145.0971  161.3726 H   0  0  0  0  0  0  0  0  0  0  0  0
  151.2670  146.4933  159.5072 H   0  0  0  0  0  0  0  0  0  0  0  0
  152.8857  145.9120  159.1067 H   0  0  0  0  0  0  0  0  0  0  0  0
  151.7010  144.8855  157.3378 H   0  0  0  0  0  0  0  0  0  0  0  0
  150.2367  144.6847  158.3041 H   0  0  0  0  0  0  0  0  0  0  0  0
  150.9726  137.7818  156.1727 H   0  0  0  0  0  0  0  0  0  0  0  0
  150.2742  138.7339  154.9108 H   0  0  0  0  0  0  0  0  0  0  0  0
  1  2  1  0  0  0  0
  1 18  1  0  0  0  0
  1 19  1  0  0  0  0
  1 20  1  0  0  0  0
  2 13  2  0  0  0  0
  2  3  1  0  0  0  0
  3  4  2  0  0  0  0
  4  5  1  0  0  0  0
  4 10  1  0  0  0  0
  5  9  1  0  0  0  0
  5  6  1  0  0  0  0
  6  7  1  0  0  0  0
  6 21  1  0  0  0  0
  6 22  1  0  0  0  0
  7  8  1  0  0  0  0
  7 23  1  0  0  0  0
  7 24  1  0  0  0  0
  8  9  1  0  0  0  0
  8 25  1  0  0  0  0
  8 26  1  0  0  0  0
  9 27  1  0  0  0  0
  9 28  1  0  0  0  0
 10 11  1  0  0  0  0
 11 12  2  0  0  0  0
 11 13  1  0  0  0  0
 13 14  1  0  0  0  0
 14 15  1  0  0  0  0
 14 29  1  0  0  0  0
 14 30  1  0  0  0  0
 15 16  2  0  0  0  0
 15 17  1  0  0  0  0
M  CHG  1  10  -1
M  CHG  1  17  -1
M  END
> <s_m_source_file>
AV-unprocessed.smi

> <i_m_source_file_index>
993

> <i_lp_mmshare_version>
43012

> <i_f3d_flags>
0

> <s_epik_input>
W0NIMl0xW0NIMl1bQ0gyXVtDSDJdTjFjKG5jMltDSDNdKVtuSF1jKD1PKWMyW0NIMl1DKD1PKVtPSF0=

> <s_epik_cmdline>
J2VwaWtfcHl0aG9uJywgJy1waCcsICc3LjAnLCAnLXRuJywgJzgnLCAnLW1hJywgJzIwMCcsICctbWV0YWxfYmluZGluZycsICctaW1hZScsICc8aW5maWxlLm1hZT4nLCAnLW9tYWUnLCAnPG91dGZpbGUubWFlPic=

> <r_lp_tautomer_probability>
0.878553

> <r_epik_Ionization_Penalty>
9.99622

> <r_epik_Ionization_Penalty_Charging>
0.001774

> <r_epik_Ionization_Penalty_Neutral>
9.99445

> <r_epik_State_Penalty>
6.17728

> <r_epik_Charging_Adjusted_Penalty>
6.17906

> <i_epik_Tot_Q>
-2

> <i_epik_Tot_abs_Q>
2

> <r_epik_Metal_State_Penalty>
2.31379

> <b_epik_Metal_Only>
1

> <s_lp_Force_Field>
OPLS_2005

> <r_lp_Energy>
32.9743

> <b_lp_Chiralities_Consistent>
1

> <s_lp_Variant>
AV-unprocessed.smi:993-4

> <Gold.Version>
5.8.1

> <Gold.Id.Protein>
6NUR|6NUR_protein|mol2

> <Gold.PLP.Fitness>
49.4106

> <Gold.PLP.PLP>
-37.4068

> <Gold.PLP.part.hbond>
-3.0000

> <Gold.PLP.part.metal>
0.0000

> <Gold.PLP.part.buried>
-5.5517

> <Gold.PLP.part.nonpolar>
-30.7411

> <Gold.PLP.part.repulsive>
1.2592

> <Gold.PLP.ligand.clash>
0.0000

> <Gold.PLP.ligand.torsion>
0.3122

> <Gold.PLP.Chemscore.Hbond>
4.2093

> <Gold.PLP.Chemscore.CHOScore>
0.0000

> <Gold.PLP.Chemscore.Metal>
0.0000

> <Gold.Chemscore.Hbonds>
donor molecule, donor type, donor heavy atom, donor atom, acceptor molecule, acceptor atom, score
      P1  H  7989  7998       L1    12  0.36
      P1  H  7997  8009       L1    16  2.00
      P1  H 10752 10764       L1    17  1.76

> <Gold.PLP.Chemscore.Internal.Correction>
0.0005

> <Gold.Rescore>
     Score         DG    S(hbond)    S(metal)    S(lipo)     H(rot)  DE(clash)    DE(int)     intcor
     16.45     -16.94       2.13        0.00      69.94       1.49       0.16       0.33       ----

> <Gold.Chemscore.Fitness>
16.4515

> <Gold.Chemscore.DG>
-16.9422

> <Gold.Chemscore.ZeroCoef>
-5.4800

> <Gold.Chemscore.Hbond>
2.1261

> <Gold.Chemscore.Metal>
0.0000

> <Gold.Chemscore.Lipo>
69.9436

> <Gold.Chemscore.Internal_Hbond>
0.0000

> <Gold.Chemscore.DEClash>
0.1587

> <Gold.Chemscore.DEInternal>
0.3320

> <Gold.Chemscore.Rot>
1.4931

> <Gold.Chemscore.Internal.Correction>
   9.000000E+99

> <Gold.Chemscore.Hbonds>
donor molecule, donor type, donor heavy atom, donor atom, acceptor molecule, acceptor atom, score
      P1  H  7989  7998       L1    12  0.09
      P1  H  7997  8009       L1    16  0.97
      P1  H 10752 10764       L1    17  0.86

> <Gold.Chemscore.Hbond.Weighted>
-7.1010

> <Gold.Chemscore.Metal.Weighted>
-0.0000

> <Gold.Chemscore.Lipo.Weighted>
-8.1834

> <Gold.Chemscore.Internal_Hbond.Weighted>
0.0000

> <Gold.Chemscore.DEClash.Weighted>
0.1587

> <Gold.Chemscore.DEInternal.Weighted>
0.3320

> <Gold.Chemscore.Rot.Weighted>
3.8222

> <Gold.Chemscore.Internal.Correction.Weighted>
   9.000000E+99

> <Gold.Protein.RotatedTorsions>
[ 6907 6896 6895 6894 ] final -168.94 input  -60.11 | X-H torsion
[ 7974 7965 7964 7962 ] final  -24.77 input  175.53 | X-H torsion
[ 8008 7997 7996 7995 ] final -129.40 input   59.86 | X-H torsion
[ 10167 10162 10161 10158 ] final   34.97 input  -65.29 | X-H torsion
[ 10718 10713 10712 10709 ] final  -19.35 input   66.30 | X-H torsion
[ 10763 10752 10751 10750 ] final  -93.63 input  -60.55 | X-H torsion
[ 11005 11000 10999 10996 ] final -124.45 input  -57.11 | X-H torsion

> <Gold.Protein.ActiveResidues>
 VAL166  LYS551  ARG553  GLY616  TRP617  ASP618  TYR619  PRO620  LYS621  CYS622 
 ASP623  PHE694  ASN695  SER759  ASP760  ASP761  ALA762  ILE779  LEU786  VAL792 
 PHE793  MET794  SER795  GLU796  ALA797  LYS798  CYS799  TRP800  GLU811  SER814 

> <Gold.Protein.RotatedAtoms>
  151.4836  133.3541  159.2841 H   0  0  0  0  0  0  0  0  0  0  0  0  # atno 6907 bound_to 6896
  150.8881  134.8283  159.7284 H   0  0  0  0  0  0  0  0  0  0  0  0  # atno 6908 bound_to 6896
  152.4805  134.4742  159.9697 H   0  0  0  0  0  0  0  0  0  0  0  0  # atno 6909 bound_to 6896
  146.1534  140.4796  142.8602 H   0  0  0  0  0  0  0  0  0  0  0  0  # atno 7974 bound_to 7965
  155.2787  140.0443  157.3013 H   0  0  0  0  0  0  0  0  0  0  0  0  # atno 8008 bound_to 7997
  154.5610  140.2346  155.8304 H   0  0  0  0  0  0  0  0  0  0  0  0  # atno 8009 bound_to 7997
  156.2047  140.3016  155.9608 H   0  0  0  0  0  0  0  0  0  0  0  0  # atno 8010 bound_to 7997
  140.4266  144.1385  150.6154 H   0  0  0  0  0  0  0  0  0  0  0  0  # atno 10167 bound_to 10162
  156.5469  130.4692  149.6471 H   0  0  0  0  0  0  0  0  0  0  0  0  # atno 10718 bound_to 10713
  154.6977  135.5187  153.8482 H   0  0  0  0  0  0  0  0  0  0  0  0  # atno 10763 bound_to 10752
  153.0680  135.6591  154.0320 H   0  0  0  0  0  0  0  0  0  0  0  0  # atno 10764 bound_to 10752
  154.0184  135.2996  155.3363 H   0  0  0  0  0  0  0  0  0  0  0  0  # atno 10765 bound_to 10752
  140.9840  134.0633  157.3732 H   0  0  0  0  0  0  0  0  0  0  0  0  # atno 11005 bound_to 11000
  144.7932  140.6072  143.6527 LP  0  0  0  0  0  0  0  0  0  0  0  0  # atno 17320 bound_to 7965
  145.4769  139.1498  143.3783 LP  0  0  0  0  0  0  0  0  0  0  0  0  # atno 17321 bound_to 7965
  140.4475  143.2500  151.9392 LP  0  0  0  0  0  0  0  0  0  0  0  0  # atno 17342 bound_to 10162
  139.4783  144.5595  151.8261 LP  0  0  0  0  0  0  0  0  0  0  0  0  # atno 17343 bound_to 10162
  156.2920  130.7129  151.1980 LP  0  0  0  0  0  0  0  0  0  0  0  0  # atno 17370 bound_to 10713
  157.7395  131.0528  150.5228 LP  0  0  0  0  0  0  0  0  0  0  0  0  # atno 17371 bound_to 10713
  139.8962  135.0145  156.7041 LP  0  0  0  0  0  0  0  0  0  0  0  0  # atno 17394 bound_to 11000
  140.7143  133.9196  155.8105 LP  0  0  0  0  0  0  0  0  0  0  0  0  # atno 17395 bound_to 11000

$$$$
