AV-unprocessed.smi:2523|AV-procd|sdf|9921|dock3
  -GOLD-   2272013553D 1   1.00000     0.00000
 Structure written by MMmdl.
 34 36  0  0  0  0  0  0  0  0  1 V2000
  153.6172  141.5890  160.6264 C   0  0  0  0  0  0  0  0  0  0  0  0
  152.7760  141.6738  159.4348 N   0  0  0  0  0  0  0  0  0  0  0  0
  151.9724  142.8177  159.3640 N   0  0  0  0  0  0  0  0  0  0  0  0
  151.1806  143.0236  158.3583 C   0  0  0  0  0  0  0  0  0  0  0  0
  151.1437  142.0267  157.2927 C   0  0  0  0  0  0  0  0  0  0  0  0
  150.4393  141.8882  156.0653 C   0  0  0  0  0  0  0  0  0  0  0  0
  150.7641  140.7656  155.4268 N   0  0  0  0  0  0  0  0  0  0  0  0
  151.6801  140.1449  156.2143 N   0  0  0  0  0  0  0  0  0  0  0  0
  152.2447  138.8723  155.7922 C   0  0  0  0  0  0  0  0  0  0  0  0
  151.5863  138.3211  154.5114 C   0  0  1  0  0  0  0  0  0  0  0  0
  152.2911  137.1867  154.0440 O   0  0  0  0  0  0  0  0  0  0  0  0
  150.1128  138.0215  154.7370 C   0  0  0  0  0  0  0  0  0  0  0  0
  149.1200  138.8837  154.2216 C   0  0  0  0  0  0  0  0  0  0  0  0
  147.7560  138.5969  154.4234 C   0  0  0  0  0  0  0  0  0  0  0  0
  147.3767  137.4464  155.1410 C   0  0  0  0  0  0  0  0  0  0  0  0
  148.3623  136.5824  155.6562 C   0  0  0  0  0  0  0  0  0  0  0  0
  147.8988  135.1714  156.5343 Cl  0  0  0  0  0  0  0  0  0  0  0  0
  149.7269  136.8687  155.4539 C   0  0  0  0  0  0  0  0  0  0  0  0
  151.9102  140.9092  157.3412 C   0  0  0  0  0  0  0  0  0  0  0  0
  152.8162  140.6834  158.4934 C   0  0  0  0  0  0  0  0  0  0  0  0
  153.5331  139.6857  158.5736 O   0  0  0  0  0  0  0  0  0  0  0  0
  153.3962  140.6815  161.1901 H   0  0  0  0  0  0  0  0  0  0  0  0
  153.4654  142.4376  161.2955 H   0  0  0  0  0  0  0  0  0  0  0  0
  154.6724  141.5715  160.3499 H   0  0  0  0  0  0  0  0  0  0  0  0
  150.5567  143.9156  158.3044 H   0  0  0  0  0  0  0  0  0  0  0  0
  149.7144  142.5546  155.6213 H   0  0  0  0  0  0  0  0  0  0  0  0
  153.3199  138.9868  155.6588 H   0  0  0  0  0  0  0  0  0  0  0  0
  152.1195  138.1575  156.6072 H   0  0  0  0  0  0  0  0  0  0  0  0
  151.6662  139.0774  153.7291 H   0  0  0  0  0  0  0  0  0  0  0  0
  151.8815  136.8876  153.2467 H   0  0  0  0  0  0  0  0  0  0  0  0
  149.4029  139.7662  153.6663 H   0  0  0  0  0  0  0  0  0  0  0  0
  147.0009  139.2593  154.0264 H   0  0  0  0  0  0  0  0  0  0  0  0
  146.3301  137.2279  155.2941 H   0  0  0  0  0  0  0  0  0  0  0  0
  150.4768  136.1989  155.8488 H   0  0  0  0  0  0  0  0  0  0  0  0
  1  2  1  0  0  0  0
  1 22  1  0  0  0  0
  1 23  1  0  0  0  0
  1 24  1  0  0  0  0
  2 20  1  0  0  0  0
  2  3  1  0  0  0  0
  3  4  2  0  0  0  0
  4  5  1  0  0  0  0
  4 25  1  0  0  0  0
  5 19  2  0  0  0  0
  5  6  1  0  0  0  0
  6  7  2  0  0  0  0
  6 26  1  0  0  0  0
  7  8  1  0  0  0  0
  8  9  1  0  0  0  0
  8 19  1  0  0  0  0
  9 10  1  0  0  0  0
  9 27  1  0  0  0  0
  9 28  1  0  0  0  0
 10 11  1  0  0  0  0
 10 12  1  0  0  0  0
 10 29  1  0  0  0  0
 11 30  1  0  0  0  0
 12 18  1  0  0  0  0
 12 13  2  0  0  0  0
 13 14  1  0  0  0  0
 13 31  1  0  0  0  0
 14 15  2  0  0  0  0
 14 32  1  0  0  0  0
 15 16  1  0  0  0  0
 15 33  1  0  0  0  0
 16 17  1  0  0  0  0
 16 18  2  0  0  0  0
 18 34  1  0  0  0  0
 19 20  1  0  0  0  0
 20 21  2  0  0  0  0
M  END
> <s_m_source_file>
AV-unprocessed.smi

> <i_m_source_file_index>
2523

> <i_lp_mmshare_version>
43012

> <i_f3d_flags>
0

> <s_epik_input>
W2NIXTFubihbQ0gzXSljKD1PKWMoYzEyKW4obltjSF0yKVtDSDJdW0NASF0oW09IXSljM1tjSF1bY0hdW2NIXWMoQ2wpW2NIXTM=

> <s_epik_cmdline>
J2VwaWtfcHl0aG9uJywgJy1waCcsICc3LjAnLCAnLXRuJywgJzgnLCAnLW1hJywgJzIwMCcsICctbWV0YWxfYmluZGluZycsICctaW1hZScsICc8aW5maWxlLm1hZT4nLCAnLW9tYWUnLCAnPG91dGZpbGUubWFlPic=

> <r_lp_tautomer_probability>
1

> <r_epik_Ionization_Penalty>
8.52698e-06

> <r_epik_Ionization_Penalty_Charging>
1.65421e-10

> <r_epik_Ionization_Penalty_Neutral>
8.52681e-06

> <r_epik_State_Penalty>
-0

> <r_epik_Charging_Adjusted_Penalty>
1.65421e-10

> <i_epik_Tot_Q>
0

> <i_epik_Tot_abs_Q>
0

> <r_epik_Metal_State_Penalty>
-0

> <b_epik_Metal_Only>
0

> <s_lp_Force_Field>
OPLS_2005

> <r_lp_Energy>
26.9154

> <b_lp_Chiralities_Consistent>
1

> <s_lp_Variant>
AV-unprocessed.smi:2523-2

> <Gold.Version>
5.8.1

> <Gold.Id.Protein>
6NUR|6NUR_protein|mol2

> <Gold.PLP.Fitness>
49.1432

> <Gold.PLP.PLP>
-36.5077

> <Gold.PLP.part.hbond>
-4.0000

> <Gold.PLP.part.metal>
0.0000

> <Gold.PLP.part.buried>
-4.3430

> <Gold.PLP.part.nonpolar>
-27.1601

> <Gold.PLP.part.repulsive>
0.0659

> <Gold.PLP.ligand.clash>
0.0000

> <Gold.PLP.ligand.torsion>
0.3815

> <Gold.PLP.Chemscore.Hbond>
3.4576

> <Gold.PLP.Chemscore.CHOScore>
1.0000

> <Gold.PLP.Chemscore.Metal>
0.0000

> <Gold.Chemscore.Hbonds>
donor molecule, donor type, donor heavy atom, donor atom, acceptor molecule, acceptor atom, score
      L1  H    11    30       P1  7949  0.84
      P1  H  7989  7998       L1     7  0.66
      P1  H  7997  8008       L1    21  0.90
      P1  H 10752 10764       L1    11  0.47
      L1  C     6    26       P1  8028  1.00

> <Gold.PLP.Chemscore.Internal.Correction>
0.0258

> <Gold.Rescore>
     Score         DG    S(hbond)    S(metal)    S(lipo)     H(rot)  DE(clash)    DE(int)     intcor
     16.51     -16.98       2.18        0.00      78.20       1.93       0.27       0.20       ----

> <Gold.Chemscore.Fitness>
16.5077

> <Gold.Chemscore.DG>
-16.9818

> <Gold.Chemscore.ZeroCoef>
-5.4800

> <Gold.Chemscore.Hbond>
2.1810

> <Gold.Chemscore.Metal>
0.0000

> <Gold.Chemscore.Lipo>
78.1954

> <Gold.Chemscore.Internal_Hbond>
0.0000

> <Gold.Chemscore.DEClash>
0.2697

> <Gold.Chemscore.DEInternal>
0.2044

> <Gold.Chemscore.Rot>
1.9265

> <Gold.Chemscore.Internal.Correction>
   9.000000E+99

> <Gold.Chemscore.Hbonds>
donor molecule, donor type, donor heavy atom, donor atom, acceptor molecule, acceptor atom, score
      L1  H    11    30       P1  7949  0.82
      P1  H  7989  7998       L1     7  0.35
      P1  H  7997  8008       L1    21  0.18
      P1  H 10752 10764       L1    11  0.04

> <Gold.Chemscore.Hbond.Weighted>
-7.2846

> <Gold.Chemscore.Metal.Weighted>
-0.0000

> <Gold.Chemscore.Lipo.Weighted>
-9.1489

> <Gold.Chemscore.Internal_Hbond.Weighted>
0.0000

> <Gold.Chemscore.DEClash.Weighted>
0.2697

> <Gold.Chemscore.DEInternal.Weighted>
0.2044

> <Gold.Chemscore.Rot.Weighted>
4.9317

> <Gold.Chemscore.Internal.Correction.Weighted>
   9.000000E+99

> <Gold.Protein.RotatedTorsions>
[ 6907 6896 6895 6894 ] final -155.02 input  -60.11 | X-H torsion
[ 7974 7965 7964 7962 ] final  -36.45 input  175.53 | X-H torsion
[ 8008 7997 7996 7995 ] final  -89.70 input   59.86 | X-H torsion
[ 10167 10162 10161 10158 ] final -103.23 input  -65.29 | X-H torsion
[ 10718 10713 10712 10709 ] final  -73.16 input   66.30 | X-H torsion
[ 10763 10752 10751 10750 ] final  -69.71 input  -60.55 | X-H torsion
[ 11005 11000 10999 10996 ] final  177.22 input  -57.11 | X-H torsion

> <Gold.Protein.ActiveResidues>
 VAL166  LYS551  ARG553  GLY616  TRP617  ASP618  TYR619  PRO620  LYS621  CYS622 
 ASP623  PHE694  ASN695  SER759  ASP760  ASP761  ALA762  ILE779  LEU786  VAL792 
 PHE793  MET794  SER795  GLU796  ALA797  LYS798  CYS799  TRP800  GLU811  SER814 

> <Gold.Protein.RotatedAtoms>
  151.2663  133.4277  159.2618 H   0  0  0  0  0  0  0  0  0  0  0  0  # atno 6907 bound_to 6896
  151.0485  134.9657  159.8209 H   0  0  0  0  0  0  0  0  0  0  0  0  # atno 6908 bound_to 6896
  152.5378  134.2618  159.8991 H   0  0  0  0  0  0  0  0  0  0  0  0  # atno 6909 bound_to 6896
  146.0661  140.6279  142.8974 H   0  0  0  0  0  0  0  0  0  0  0  0  # atno 7974 bound_to 7965
  154.6897  140.0539  157.0351 H   0  0  0  0  0  0  0  0  0  0  0  0  # atno 8008 bound_to 7997
  155.0834  140.3212  155.4576 H   0  0  0  0  0  0  0  0  0  0  0  0  # atno 8009 bound_to 7997
  156.2724  140.2061  156.5961 H   0  0  0  0  0  0  0  0  0  0  0  0  # atno 8010 bound_to 7997
  140.2222  143.3667  152.0960 H   0  0  0  0  0  0  0  0  0  0  0  0  # atno 10167 bound_to 10162
  156.0291  130.4388  150.2701 H   0  0  0  0  0  0  0  0  0  0  0  0  # atno 10718 bound_to 10713
  154.4074  135.6017  153.5932 H   0  0  0  0  0  0  0  0  0  0  0  0  # atno 10763 bound_to 10752
  152.9789  135.5921  154.4112 H   0  0  0  0  0  0  0  0  0  0  0  0  # atno 10764 bound_to 10752
  154.3919  135.2842  155.2128 H   0  0  0  0  0  0  0  0  0  0  0  0  # atno 10765 bound_to 10752
  140.3817  134.6941  157.4455 H   0  0  0  0  0  0  0  0  0  0  0  0  # atno 11005 bound_to 11000
  144.7203  140.4350  143.7013 LP  0  0  0  0  0  0  0  0  0  0  0  0  # atno 17320 bound_to 7965
  145.6475  139.1559  143.2880 LP  0  0  0  0  0  0  0  0  0  0  0  0  # atno 17321 bound_to 7965
  139.5140  144.6941  151.5679 LP  0  0  0  0  0  0  0  0  0  0  0  0  # atno 17342 bound_to 10162
  140.6247  143.9192  150.6554 LP  0  0  0  0  0  0  0  0  0  0  0  0  # atno 17343 bound_to 10162
  157.0804  131.0142  151.3158 LP  0  0  0  0  0  0  0  0  0  0  0  0  # atno 17370 bound_to 10713
  157.4931  130.7834  149.7528 LP  0  0  0  0  0  0  0  0  0  0  0  0  # atno 17371 bound_to 10713
  140.0474  134.6180  155.8904 LP  0  0  0  0  0  0  0  0  0  0  0  0  # atno 17394 bound_to 11000
  141.1921  133.6574  156.5487 LP  0  0  0  0  0  0  0  0  0  0  0  0  # atno 17395 bound_to 11000

$$$$
