#       Name:                AV-unprocessed.smi:2991
#       Creating user name   scv26
#       Creation time:       Fri Mar 27 16:32:25 2020


#       File generated by GOLD software.
#

@<TRIPOS>MOLECULE
AV-unprocessed.smi:2991
    42    43     1
SMALL
NO_CHARGES


@<TRIPOS>ATOM
      1 ****        -5.6874   2.9344   1.1403 C.3            1 S1                 0.0000
      2 ****        -4.7759   1.7231   1.0930 C.ar           1 S1                 0.0000
      3 ****        -5.3316   0.5096   1.3040 N.pl3          1 S1                 1.0000
      4 ****        -4.6204  -0.6369   1.2927 C.ar           1 S1                 0.0000
      5 ****        -3.2342  -0.6012   1.0465 C.ar           1 S1                 0.0000
      6 ****        -2.6016   0.6440   0.8011 C.ar           1 S1                 0.0000
      7 ****        -1.2044   0.7689   0.5623 N.am           1 S1                 0.0000
      8 ****        -0.3621  -0.1378   0.0389 C.2            1 S1                 0.0000
      9 ****        -0.6772  -1.2688  -0.3311 O.2            1 S1                 0.0000
     10 ****         0.8825   0.3522  -0.0503 N.am           1 S1                 0.0000
     11 ****         2.0385  -0.3472  -0.6111 C.3            1 S1                 0.0000
     12 ****         2.6343  -1.3375   0.4226 C.3            1 S1                 0.0000
     13 ****         4.1236  -1.6965   0.2377 C.3            1 S1                 0.0000
     14 ****         4.5139  -2.2126  -1.1622 C.3            1 S1                 0.0000
     15 ****         4.1587  -1.3032  -2.3631 C.3            1 S1                 0.0000
     16 ****         4.0115   0.1125  -2.0271 N.am           1 S1                 0.0000
     17 ****         3.0466   0.6295  -1.2470 C.2            1 S1                 0.0000
     18 ****         2.9771   1.8381  -1.0267 O.2            1 S1                 0.0000
     19 ****        -3.3871   1.8229   0.8404 C.ar           1 S1                 0.0000
     20 ****        -2.6622   3.3731   0.5740 Cl             1 S1                 0.0000
     21 ****        -5.3619   3.6247   1.9193 H              1 S1                 0.0000
     22 ****        -6.7192   2.6493   1.3497 H              1 S1                 0.0000
     23 ****        -5.6689   3.4597   0.1851 H              1 S1                 0.0000
     24 ****        -5.1771  -1.5424   1.4858 H              1 S1                 0.0000
     25 ****        -2.6806  -1.5276   1.0627 H              1 S1                 0.0000
     26 ****        -0.8170   1.6856   0.7335 H              1 S1                 0.0000
     27 ****         1.0477   1.2955   0.2704 H              1 S1                 0.0000
     28 ****         1.6552  -0.9383  -1.4440 H              1 S1                 0.0000
     29 ****         2.5211  -0.9239   1.4258 H              1 S1                 0.0000
     30 ****         2.0417  -2.2532   0.4152 H              1 S1                 0.0000
     31 ****         4.7385  -0.8303   0.4859 H              1 S1                 0.0000
     32 ****         4.3932  -2.4527   0.9756 H              1 S1                 0.0000
     33 ****         5.5924  -2.3741  -1.1624 H              1 S1                 0.0000
     34 ****         4.0734  -3.1971  -1.3235 H              1 S1                 0.0000
     35 ****         4.9293  -1.3955  -3.1289 H              1 S1                 0.0000
     36 ****         3.2414  -1.6531  -2.8379 H              1 S1                 0.0000
     37 ****         4.6819   0.7500  -2.4322 H              1 S1                 0.0000
     38 ****        -6.3344   0.4582   1.4850 H              1 S1                 0.0000
     39 ****        -1.6260  -1.5745  -0.2522 LP             1 S1                 0.0000
     40 ****         0.0157  -1.8819  -0.7106 LP             1 S1                 0.0000
     41 ****         2.2603   2.1969  -0.4289 LP             1 S1                 0.0000
     42 ****         3.6374   2.4614  -1.4455 LP             1 S1                 0.0000
@<TRIPOS>BOND
    1    1    2 1     
    2    1   21 1     
    3    1   22 1     
    4    1   23 1     
    5    2   19 ar    
    6    2    3 ar    
    7    3    4 ar    
    8    3   38 1     
    9    4    5 ar    
   10    4   24 1     
   11    5    6 ar    
   12    5   25 1     
   13    6    7 1     
   14    6   19 ar    
   15    7    8 am    
   16    7   26 1     
   17    8    9 2     
   18    8   10 am    
   19   10   11 1     
   20   10   27 1     
   21   11   17 1     
   22   11   12 1     
   23   11   28 1     
   24   12   13 1     
   25   12   29 1     
   26   12   30 1     
   27   13   14 1     
   28   13   31 1     
   29   13   32 1     
   30   14   15 1     
   31   14   33 1     
   32   14   34 1     
   33   15   16 1     
   34   15   35 1     
   35   15   36 1     
   36   16   17 am    
   37   16   37 1     
   38   17   18 2     
   39   19   20 1     
   40    9   39 1     
   41    9   40 1     
   42   18   41 1     
   43   18   42 1     
@<TRIPOS>SUBSTRUCTURE
      1 S1             1
@<TRIPOS>SET
LONE_PAIRS      STATIC     ATOMS    <user>   **** ""
4 39 40 41 42
DONOR_HYDROGENS      STATIC     ATOMS    <user>   **** ""
4 38 26 27 37
ATOM$BLUE        STATIC     ATOMS    COLORGROUP SYSTEM
4 39 40 41 42
ATOM$RED        STATIC     ATOMS    COLORGROUP SYSTEM
4 38 26 27 37
