AV-unprocessed.smi:5|AV-procd|sdf|37|dock1
  -GOLD-   2262015153D 1   1.00000     0.00000
 Structure written by MMmdl.
 44 45  0  0  0  0  0  0  0  0  1 V2000
  144.0538  131.7609  150.4701 C   0  0  0  0  0  0  0  0  0  0  0  0
  144.7468  133.0493  150.8644 C   0  0  0  0  0  0  0  0  0  0  0  0
  144.2800  134.2588  150.5031 C   0  0  0  0  0  0  0  0  0  0  0  0
  144.9778  135.5527  150.8738 C   0  0  0  0  0  0  0  0  0  0  0  0
  146.4092  135.2928  151.3744 C   0  0  0  0  0  0  0  0  0  0  0  0
  146.4244  134.1691  152.3297 N   0  0  0  0  0  0  0  0  0  0  0  0
  146.8742  134.2258  153.6087 C   0  0  0  0  0  0  0  0  0  0  0  0
  146.5249  133.4315  154.4829 O   0  0  0  0  0  0  0  0  0  0  0  0
  147.6954  135.2571  153.8708 N   0  0  0  0  0  0  0  0  0  0  0  0
  148.3088  135.5432  155.1634 C   0  0  0  0  0  0  0  0  0  0  0  0
  149.2212  136.7623  155.0984 C   0  0  0  0  0  0  0  0  0  0  0  0
  148.7961  137.9375  154.5702 C   0  0  0  0  0  0  0  0  0  0  0  0
  149.5776  139.0810  154.4802 N   0  0  0  0  0  0  0  0  0  0  0  0
  149.0621  140.3103  153.9005 C   0  0  0  0  0  0  0  0  0  0  0  0
  149.1676  141.4750  154.8990 C   0  0  0  0  0  0  0  0  0  0  0  0
  147.6322  140.1294  153.3585 C   0  0  0  0  0  0  0  0  0  0  0  0
  150.9010  139.0495  154.9884 C   0  0  0  0  0  0  0  0  0  0  0  0
  151.6694  140.0110  154.9761 O   0  0  0  0  0  0  0  0  0  0  0  0
  151.3350  137.8431  155.5359 N   0  0  0  0  0  0  0  0  0  0  0  0
  150.5837  136.6700  155.6326 C   0  0  0  0  0  0  0  0  0  0  0  0
  151.0886  135.6706  156.1411 O   0  0  0  0  0  0  0  0  0  0  0  0
  145.9973  132.8941  151.7252 C   0  0  0  0  0  0  0  0  0  0  0  0
  152.2776  137.8152  155.8967 H   0  0  0  0  0  0  0  0  0  0  0  0
  144.7387  131.1188  149.9159 H   0  0  0  0  0  0  0  0  0  0  0  0
  143.1835  131.9523  149.8418 H   0  0  0  0  0  0  0  0  0  0  0  0
  143.7209  131.2230  151.3581 H   0  0  0  0  0  0  0  0  0  0  0  0
  143.3740  134.3446  149.9210 H   0  0  0  0  0  0  0  0  0  0  0  0
  145.0005  136.2114  150.0053 H   0  0  0  0  0  0  0  0  0  0  0  0
  144.3892  136.0538  151.6430 H   0  0  0  0  0  0  0  0  0  0  0  0
  147.0389  135.0133  150.5282 H   0  0  0  0  0  0  0  0  0  0  0  0
  146.8405  136.2188  151.7545 H   0  0  0  0  0  0  0  0  0  0  0  0
  147.9171  135.8856  153.1123 H   0  0  0  0  0  0  0  0  0  0  0  0
  147.5109  135.7460  155.8781 H   0  0  0  0  0  0  0  0  0  0  0  0
  148.8305  134.6604  155.5365 H   0  0  0  0  0  0  0  0  0  0  0  0
  147.7838  137.9779  154.1951 H   0  0  0  0  0  0  0  0  0  0  0  0
  149.6710  140.5747  153.0363 H   0  0  0  0  0  0  0  0  0  0  0  0
  148.8489  142.4112  154.4403 H   0  0  0  0  0  0  0  0  0  0  0  0
  150.1954  141.6088  155.2384 H   0  0  0  0  0  0  0  0  0  0  0  0
  148.5446  141.3110  155.7786 H   0  0  0  0  0  0  0  0  0  0  0  0
  147.3095  141.0176  152.8149 H   0  0  0  0  0  0  0  0  0  0  0  0
  146.9075  139.9582  154.1544 H   0  0  0  0  0  0  0  0  0  0  0  0
  147.5771  139.2866  152.6685 H   0  0  0  0  0  0  0  0  0  0  0  0
  145.7728  132.1465  152.4878 H   0  0  0  0  0  0  0  0  0  0  0  0
  146.8064  132.4897  151.1157 H   0  0  0  0  0  0  0  0  0  0  0  0
  1  2  1  0  0  0  0
  1 24  1  0  0  0  0
  1 25  1  0  0  0  0
  1 26  1  0  0  0  0
  2 22  1  0  0  0  0
  2  3  2  0  0  0  0
  3  4  1  0  0  0  0
  3 27  1  0  0  0  0
  4  5  1  0  0  0  0
  4 28  1  0  0  0  0
  4 29  1  0  0  0  0
  5  6  1  0  0  0  0
  5 30  1  0  0  0  0
  5 31  1  0  0  0  0
  6  7  1  0  0  0  0
  6 22  1  0  0  0  0
  7  8  2  0  0  0  0
  7  9  1  0  0  0  0
  9 10  1  0  0  0  0
  9 32  1  0  0  0  0
 10 11  1  0  0  0  0
 10 33  1  0  0  0  0
 10 34  1  0  0  0  0
 11 20  1  0  0  0  0
 11 12  2  0  0  0  0
 12 13  1  0  0  0  0
 12 35  1  0  0  0  0
 13 14  1  0  0  0  0
 13 17  1  0  0  0  0
 14 15  1  0  0  0  0
 14 16  1  0  0  0  0
 14 36  1  0  0  0  0
 15 37  1  0  0  0  0
 15 38  1  0  0  0  0
 15 39  1  0  0  0  0
 16 40  1  0  0  0  0
 16 41  1  0  0  0  0
 16 42  1  0  0  0  0
 17 18  2  0  0  0  0
 17 19  1  0  0  0  0
 19 23  1  0  0  0  0
 19 20  1  0  0  0  0
 20 21  2  0  0  0  0
 22 43  1  0  0  0  0
 22 44  1  0  0  0  0
M  END
> <s_m_source_file>
AV-unprocessed.smi

> <i_m_source_file_index>
5

> <i_lp_mmshare_version>
43012

> <i_f3d_flags>
0

> <s_epik_input>
W0NIM11DMT1bQ0hdW0NIMl1bQ0gyXU4oW0NIMl0xKUMoPU8pW05IXVtDSDJdYzJbY0hdbihbQ0hdKFtDSDNdKVtDSDNdKWMoPU8pW25IXWMyPU8=

> <s_epik_cmdline>
J2VwaWtfcHl0aG9uJywgJy1waCcsICc3LjAnLCAnLXRuJywgJzgnLCAnLW1hJywgJzIwMCcsICctbWV0YWxfYmluZGluZycsICctaW1hZScsICc8aW5maWxlLm1hZT4nLCAnLW9tYWUnLCAnPG91dGZpbGUubWFlPic=

> <r_lp_tautomer_probability>
0.999537

> <r_epik_Ionization_Penalty>
0.000965624

> <r_epik_Ionization_Penalty_Charging>
0.000915459

> <r_epik_Ionization_Penalty_Neutral>
5.01649e-05

> <r_epik_State_Penalty>
0.000593189

> <r_epik_Charging_Adjusted_Penalty>
0.00150865

> <i_epik_Tot_Q>
0

> <i_epik_Tot_abs_Q>
0

> <r_epik_Metal_State_Penalty>
0.281504

> <b_epik_Metal_Only>
0

> <s_lp_Force_Field>
OPLS_2005

> <r_lp_Energy>
30.7874

> <b_lp_Chiralities_Consistent>
1

> <s_lp_Variant>
AV-unprocessed.smi:5-1

> <Gold.Version>
5.8.1

> <Gold.Id.Protein>
6NUR|6NUR_protein|mol2

> <Gold.PLP.Fitness>
41.0255

> <Gold.PLP.PLP>
-33.4374

> <Gold.PLP.part.hbond>
-2.8062

> <Gold.PLP.part.metal>
0.0000

> <Gold.PLP.part.buried>
-1.1791

> <Gold.PLP.part.nonpolar>
-29.5319

> <Gold.PLP.part.repulsive>
0.2621

> <Gold.PLP.ligand.clash>
0.0000

> <Gold.PLP.ligand.torsion>
0.3543

> <Gold.PLP.Chemscore.Hbond>
2.7440

> <Gold.PLP.Chemscore.CHOScore>
0.0000

> <Gold.PLP.Chemscore.Metal>
0.0000

> <Gold.Chemscore.Hbonds>
donor molecule, donor type, donor heavy atom, donor atom, acceptor molecule, acceptor atom, score
      L1  H     9    32       P1  7948  0.91
      P1  H  7989  7998       L1    18  1.00
      P1  H 10752 10764       L1    21  0.28

> <Gold.PLP.Chemscore.Internal.Correction>
0.0646

> <Gold.Rescore>
     Score         DG    S(hbond)    S(metal)    S(lipo)     H(rot)  DE(clash)    DE(int)     intcor
     16.13     -18.73       2.69        0.00      68.82       1.48       1.14       1.46       ----

> <Gold.Chemscore.Fitness>
16.1257

> <Gold.Chemscore.DG>
-18.7276

> <Gold.Chemscore.ZeroCoef>
-5.4800

> <Gold.Chemscore.Hbond>
2.6934

> <Gold.Chemscore.Metal>
0.0000

> <Gold.Chemscore.Lipo>
68.8223

> <Gold.Chemscore.Internal_Hbond>
0.0000

> <Gold.Chemscore.DEClash>
1.1414

> <Gold.Chemscore.DEInternal>
1.4605

> <Gold.Chemscore.Rot>
1.4846

> <Gold.Chemscore.Internal.Correction>
   9.000000E+99

> <Gold.Chemscore.Hbonds>
donor molecule, donor type, donor heavy atom, donor atom, acceptor molecule, acceptor atom, score
      L1  H     9    32       P1  7948  0.89
      P1  H  7989  7998       L1    18  0.84
      P1  H 10752 10764       L1    21  0.12

> <Gold.Chemscore.Hbond.Weighted>
-8.9959

> <Gold.Chemscore.Metal.Weighted>
-0.0000

> <Gold.Chemscore.Lipo.Weighted>
-8.0522

> <Gold.Chemscore.Internal_Hbond.Weighted>
0.0000

> <Gold.Chemscore.DEClash.Weighted>
1.1414

> <Gold.Chemscore.DEInternal.Weighted>
1.4605

> <Gold.Chemscore.Rot.Weighted>
3.8005

> <Gold.Chemscore.Internal.Correction.Weighted>
   9.000000E+99

> <Gold.Protein.RotatedTorsions>
[ 6907 6896 6895 6894 ] final  -82.32 input  -60.11 | X-H torsion
[ 7974 7965 7964 7962 ] final   -1.52 input  175.53 | X-H torsion
[ 8008 7997 7996 7995 ] final   65.48 input   59.86 | X-H torsion
[ 10167 10162 10161 10158 ] final  120.33 input  -65.29 | X-H torsion
[ 10718 10713 10712 10709 ] final  -58.51 input   66.30 | X-H torsion
[ 10763 10752 10751 10750 ] final  -30.85 input  -60.55 | X-H torsion
[ 11005 11000 10999 10996 ] final   91.98 input  -57.11 | X-H torsion

> <Gold.Protein.ActiveResidues>
 VAL166  LYS551  ARG553  GLY616  TRP617  ASP618  TYR619  PRO620  LYS621  CYS622 
 ASP623  PHE694  ASN695  SER759  ASP760  ASP761  ALA762  ILE779  LEU786  VAL792 
 PHE793  MET794  SER795  GLU796  ALA797  LYS798  CYS799  TRP800  GLU811  SER814 

> <Gold.Protein.RotatedAtoms>
  150.6899  134.3682  159.4980 H   0  0  0  0  0  0  0  0  0  0  0  0  # atno 6907 bound_to 6896
  152.1501  134.8992  160.0557 H   0  0  0  0  0  0  0  0  0  0  0  0  # atno 6908 bound_to 6896
  152.0092  133.3820  159.4250 H   0  0  0  0  0  0  0  0  0  0  0  0  # atno 6909 bound_to 6896
  146.2416  140.1433  142.8335 H   0  0  0  0  0  0  0  0  0  0  0  0  # atno 7974 bound_to 7965
  155.6624  140.3497  155.4787 H   0  0  0  0  0  0  0  0  0  0  0  0  # atno 8008 bound_to 7997
  155.9757  140.1164  157.0795 H   0  0  0  0  0  0  0  0  0  0  0  0  # atno 8009 bound_to 7997
  154.4178  140.1148  156.5353 H   0  0  0  0  0  0  0  0  0  0  0  0  # atno 8010 bound_to 7997
  139.5989  144.7050  151.3110 H   0  0  0  0  0  0  0  0  0  0  0  0  # atno 10167 bound_to 10162
  156.1130  130.4173  150.0587 H   0  0  0  0  0  0  0  0  0  0  0  0  # atno 10718 bound_to 10713
  153.7876  135.6900  153.4877 H   0  0  0  0  0  0  0  0  0  0  0  0  # atno 10763 bound_to 10752
  153.1770  135.4521  154.9977 H   0  0  0  0  0  0  0  0  0  0  0  0  # atno 10764 bound_to 10752
  154.8057  135.3356  154.7375 H   0  0  0  0  0  0  0  0  0  0  0  0  # atno 10765 bound_to 10752
  139.8830  134.8706  156.3506 H   0  0  0  0  0  0  0  0  0  0  0  0  # atno 11005 bound_to 11000
  145.0228  140.8808  143.5156 LP  0  0  0  0  0  0  0  0  0  0  0  0  # atno 17320 bound_to 7965
  145.1485  139.2529  143.5453 LP  0  0  0  0  0  0  0  0  0  0  0  0  # atno 17321 bound_to 7965
  140.7234  143.7073  150.7797 LP  0  0  0  0  0  0  0  0  0  0  0  0  # atno 17342 bound_to 10162
  140.0645  143.5122  152.2611 LP  0  0  0  0  0  0  0  0  0  0  0  0  # atno 17343 bound_to 10162
  156.8545  130.9470  151.3623 LP  0  0  0  0  0  0  0  0  0  0  0  0  # atno 17370 bound_to 10713
  157.6312  130.8731  149.9277 LP  0  0  0  0  0  0  0  0  0  0  0  0  # atno 17371 bound_to 10713
  140.9597  133.7397  156.0384 LP  0  0  0  0  0  0  0  0  0  0  0  0  # atno 17394 bound_to 11000
  140.8005  134.3514  157.5441 LP  0  0  0  0  0  0  0  0  0  0  0  0  # atno 17395 bound_to 11000

$$$$
