AV-unprocessed.smi:2516|AV-procd|sdf|9898|dock1
  -GOLD-   2272013533D 1   1.00000     0.00000
 Structure written by MMmdl.
 47 48  0  0  0  0  0  0  0  0  1 V2000
  146.0292  128.7893  151.9661 C   0  0  0  0  0  0  0  0  0  0  0  0
  145.7786  130.2661  151.6400 C   0  0  0  0  0  0  0  0  0  0  0  0
  146.7363  131.1319  152.3082 N   0  0  0  0  0  0  0  0  0  0  0  0
  147.7512  130.5596  153.0004 N   0  0  0  0  0  0  0  0  0  0  0  0
  148.4511  131.5662  153.4959 C   0  0  0  0  0  0  0  0  0  0  0  0
  149.6756  131.2866  154.3187 C   0  0  0  0  0  0  0  0  0  0  0  0
  147.8613  132.8098  153.1462 C   0  0  0  0  0  0  0  0  0  0  0  0
  148.3818  134.0753  153.5149 N   0  0  0  0  0  0  0  0  0  0  0  0
  148.8225  134.4356  154.7301 C   0  0  0  0  0  0  0  0  0  0  0  0
  148.7845  133.7223  155.7328 O   0  0  0  0  0  0  0  0  0  0  0  0
  149.3328  135.6752  154.7147 N   0  0  0  0  0  0  0  0  0  0  0  0
  149.9309  136.3649  155.8572 C   0  0  2  0  0  0  0  0  0  0  0  0
  149.0027  137.5198  156.2765 C   0  0  0  0  0  0  0  0  0  0  0  0
  151.3696  136.8261  155.5056 C   0  0  0  0  0  0  0  0  0  0  0  0
  152.1953  137.1858  156.7600 C   0  0  0  0  0  0  0  0  0  0  0  0
  153.5906  137.7074  156.3812 C   0  0  0  0  0  0  0  0  0  0  0  0
  153.4712  138.8339  155.5216 O   0  0  0  0  0  0  0  0  0  0  0  0
  152.8280  138.5197  154.2929 C   0  0  0  0  0  0  0  0  0  0  0  0
  151.3909  138.0409  154.5556 C   0  0  0  0  0  0  0  0  0  0  0  0
  146.7823  132.5179  152.3537 C   0  0  0  0  0  0  0  0  0  0  0  0
  145.8002  133.3855  151.6282 C   0  0  0  0  0  0  0  0  0  0  0  0
  145.3162  128.1508  151.4447 H   0  0  0  0  0  0  0  0  0  0  0  0
  145.9283  128.5971  153.0345 H   0  0  0  0  0  0  0  0  0  0  0  0
  147.0319  128.4853  151.6637 H   0  0  0  0  0  0  0  0  0  0  0  0
  145.8452  130.4244  150.5624 H   0  0  0  0  0  0  0  0  0  0  0  0
  144.7693  130.5573  151.9296 H   0  0  0  0  0  0  0  0  0  0  0  0
  150.1029  132.2038  154.7239 H   0  0  0  0  0  0  0  0  0  0  0  0
  150.4456  130.7992  153.7201 H   0  0  0  0  0  0  0  0  0  0  0  0
  149.4423  130.6325  155.1592 H   0  0  0  0  0  0  0  0  0  0  0  0
  148.5692  134.7151  152.7569 H   0  0  0  0  0  0  0  0  0  0  0  0
  149.3195  136.1797  153.8404 H   0  0  0  0  0  0  0  0  0  0  0  0
  150.0016  135.6680  156.6945 H   0  0  0  0  0  0  0  0  0  0  0  0
  149.3339  137.9899  157.2017 H   0  0  0  0  0  0  0  0  0  0  0  0
  147.9874  137.1624  156.4528 H   0  0  0  0  0  0  0  0  0  0  0  0
  148.9533  138.2901  155.5061 H   0  0  0  0  0  0  0  0  0  0  0  0
  151.8751  136.0006  155.0011 H   0  0  0  0  0  0  0  0  0  0  0  0
  151.6716  137.9469  157.3400 H   0  0  0  0  0  0  0  0  0  0  0  0
  152.3073  136.3207  157.4139 H   0  0  0  0  0  0  0  0  0  0  0  0
  154.1336  138.0068  157.2778 H   0  0  0  0  0  0  0  0  0  0  0  0
  154.1805  136.9267  155.8983 H   0  0  0  0  0  0  0  0  0  0  0  0
  152.8156  139.4114  153.6659 H   0  0  0  0  0  0  0  0  0  0  0  0
  153.3984  137.7611  153.7545 H   0  0  0  0  0  0  0  0  0  0  0  0
  150.9251  137.7951  153.6018 H   0  0  0  0  0  0  0  0  0  0  0  0
  150.8108  138.8578  154.9866 H   0  0  0  0  0  0  0  0  0  0  0  0
  146.2338  134.3585  151.3985 H   0  0  0  0  0  0  0  0  0  0  0  0
  144.9076  133.5462  152.2327 H   0  0  0  0  0  0  0  0  0  0  0  0
  145.4930  132.9428  150.6816 H   0  0  0  0  0  0  0  0  0  0  0  0
  1  2  1  0  0  0  0
  1 22  1  0  0  0  0
  1 23  1  0  0  0  0
  1 24  1  0  0  0  0
  2  3  1  0  0  0  0
  2 25  1  0  0  0  0
  2 26  1  0  0  0  0
  3 20  1  0  0  0  0
  3  4  1  0  0  0  0
  4  5  2  0  0  0  0
  5  6  1  0  0  0  0
  5  7  1  0  0  0  0
  6 27  1  0  0  0  0
  6 28  1  0  0  0  0
  6 29  1  0  0  0  0
  7  8  1  0  0  0  0
  7 20  2  0  0  0  0
  8  9  1  0  0  0  0
  8 30  1  0  0  0  0
  9 10  2  0  0  0  0
  9 11  1  0  0  0  0
 11 12  1  0  0  0  0
 11 31  1  0  0  0  0
 12 13  1  0  0  0  0
 12 14  1  0  0  0  0
 12 32  1  0  0  0  0
 13 33  1  0  0  0  0
 13 34  1  0  0  0  0
 13 35  1  0  0  0  0
 14 19  1  0  0  0  0
 14 15  1  0  0  0  0
 14 36  1  0  0  0  0
 15 16  1  0  0  0  0
 15 37  1  0  0  0  0
 15 38  1  0  0  0  0
 16 17  1  0  0  0  0
 16 39  1  0  0  0  0
 16 40  1  0  0  0  0
 17 18  1  0  0  0  0
 18 19  1  0  0  0  0
 18 41  1  0  0  0  0
 18 42  1  0  0  0  0
 19 43  1  0  0  0  0
 19 44  1  0  0  0  0
 20 21  1  0  0  0  0
 21 45  1  0  0  0  0
 21 46  1  0  0  0  0
 21 47  1  0  0  0  0
M  END
> <s_m_source_file>
AV-unprocessed.smi

> <i_m_source_file_index>
2516

> <i_lp_mmshare_version>
43012

> <i_f3d_flags>
0

> <s_epik_input>
W0NIM11bQ0gyXW4xbmMoW0NIM10pYyhjMVtDSDNdKVtOSF1DKD1PKVtOSF1bQ0BIXShbQ0gzXSlbQ0hdMltDSDJdW0NIMl1PW0NIMl1bQ0gyXTI=

> <s_epik_cmdline>
J2VwaWtfcHl0aG9uJywgJy1waCcsICc3LjAnLCAnLXRuJywgJzgnLCAnLW1hJywgJzIwMCcsICctbWV0YWxfYmluZGluZycsICctaW1hZScsICc8aW5maWxlLm1hZT4nLCAnLW9tYWUnLCAnPG91dGZpbGUubWFlPic=

> <r_lp_tautomer_probability>
1

> <r_epik_Ionization_Penalty>
0.00383358

> <r_epik_Ionization_Penalty_Charging>
0

> <r_epik_Ionization_Penalty_Neutral>
0.00383358

> <r_epik_State_Penalty>
0.00270714

> <r_epik_Charging_Adjusted_Penalty>
0.00270714

> <i_epik_Tot_Q>
0

> <i_epik_Tot_abs_Q>
0

> <r_epik_Metal_State_Penalty>
-0

> <b_epik_Metal_Only>
0

> <s_lp_Force_Field>
OPLS_2005

> <r_lp_Energy>
15.1794

> <b_lp_Chiralities_Consistent>
1

> <s_lp_Variant>
AV-unprocessed.smi:2516-1

> <Gold.Version>
5.8.1

> <Gold.Id.Protein>
6NUR|6NUR_protein|mol2

> <Gold.PLP.Fitness>
42.3545

> <Gold.PLP.PLP>
-34.1803

> <Gold.PLP.part.hbond>
-3.0000

> <Gold.PLP.part.metal>
0.0000

> <Gold.PLP.part.buried>
-4.1452

> <Gold.PLP.part.nonpolar>
-26.9051

> <Gold.PLP.part.repulsive>
0.5634

> <Gold.PLP.ligand.clash>
0.0000

> <Gold.PLP.ligand.torsion>
0.6421

> <Gold.PLP.Chemscore.Hbond>
3.0000

> <Gold.PLP.Chemscore.CHOScore>
0.0000

> <Gold.PLP.Chemscore.Metal>
0.0000

> <Gold.Chemscore.Hbonds>
donor molecule, donor type, donor heavy atom, donor atom, acceptor molecule, acceptor atom, score
      L1  H     8    30       P1  7948  0.95
      L1  H    11    31       P1  7948  1.00
      P1  H  7997  8010       L1    17  0.88

> <Gold.PLP.Chemscore.Internal.Correction>
0.4583

> <Gold.Rescore>
     Score         DG    S(hbond)    S(metal)    S(lipo)     H(rot)  DE(clash)    DE(int)     intcor
     19.05     -19.88       2.42        0.00      82.39       1.30       0.08       0.75       ----

> <Gold.Chemscore.Fitness>
19.0531

> <Gold.Chemscore.DG>
-19.8843

> <Gold.Chemscore.ZeroCoef>
-5.4800

> <Gold.Chemscore.Hbond>
2.4221

> <Gold.Chemscore.Metal>
0.0000

> <Gold.Chemscore.Lipo>
82.3926

> <Gold.Chemscore.Internal_Hbond>
0.0000

> <Gold.Chemscore.DEClash>
0.0782

> <Gold.Chemscore.DEInternal>
0.7531

> <Gold.Chemscore.Rot>
1.2990

> <Gold.Chemscore.Internal.Correction>
   9.000000E+99

> <Gold.Chemscore.Hbonds>
donor molecule, donor type, donor heavy atom, donor atom, acceptor molecule, acceptor atom, score
      L1  H     8    30       P1  7948  0.22
      L1  H    11    31       P1  7948  0.78
      P1  H  7997  8010       L1    17  0.48

> <Gold.Chemscore.Hbond.Weighted>
-8.0898

> <Gold.Chemscore.Metal.Weighted>
-0.0000

> <Gold.Chemscore.Lipo.Weighted>
-9.6399

> <Gold.Chemscore.Internal_Hbond.Weighted>
0.0000

> <Gold.Chemscore.DEClash.Weighted>
0.0782

> <Gold.Chemscore.DEInternal.Weighted>
0.7531

> <Gold.Chemscore.Rot.Weighted>
3.3254

> <Gold.Chemscore.Internal.Correction.Weighted>
   9.000000E+99

> <Gold.Protein.RotatedTorsions>
[ 6907 6896 6895 6894 ] final   27.22 input  -60.11 | X-H torsion
[ 7974 7965 7964 7962 ] final   10.29 input  175.53 | X-H torsion
[ 8008 7997 7996 7995 ] final   80.75 input   59.86 | X-H torsion
[ 10167 10162 10161 10158 ] final  107.91 input  -65.29 | X-H torsion
[ 10718 10713 10712 10709 ] final  120.30 input   66.30 | X-H torsion
[ 10763 10752 10751 10750 ] final  -40.02 input  -60.55 | X-H torsion
[ 11005 11000 10999 10996 ] final  -42.26 input  -57.11 | X-H torsion

> <Gold.Protein.ActiveResidues>
 VAL166  LYS551  ARG553  GLY616  TRP617  ASP618  TYR619  PRO620  LYS621  CYS622 
 ASP623  PHE694  ASN695  SER759  ASP760  ASP761  ALA762  ILE779  LEU786  VAL792 
 PHE793  MET794  SER795  GLU796  ALA797  LYS798  CYS799  TRP800  GLU811  SER814 

> <Gold.Protein.RotatedAtoms>
  151.9991  134.9938  160.0564 H   0  0  0  0  0  0  0  0  0  0  0  0  # atno 6907 bound_to 6896
  152.1536  133.4533  159.4834 H   0  0  0  0  0  0  0  0  0  0  0  0  # atno 6908 bound_to 6896
  150.6878  134.2076  159.4390 H   0  0  0  0  0  0  0  0  0  0  0  0  # atno 6909 bound_to 6896
  146.2390  139.9656  142.8453 H   0  0  0  0  0  0  0  0  0  0  0  0  # atno 7974 bound_to 7965
  155.8877  140.3440  155.5934 H   0  0  0  0  0  0  0  0  0  0  0  0  # atno 8008 bound_to 7997
  155.7646  140.0837  157.2157 H   0  0  0  0  0  0  0  0  0  0  0  0  # atno 8009 bound_to 7997
  154.4030  140.1529  156.2859 H   0  0  0  0  0  0  0  0  0  0  0  0  # atno 8010 bound_to 7997
  139.6889  144.7110  151.1383 H   0  0  0  0  0  0  0  0  0  0  0  0  # atno 10167 bound_to 10162
  157.5900  131.1065  150.8017 H   0  0  0  0  0  0  0  0  0  0  0  0  # atno 10718 bound_to 10713
  153.9391  135.6763  153.4744 H   0  0  0  0  0  0  0  0  0  0  0  0  # atno 10763 bound_to 10752
  153.0941  135.4860  154.8742 H   0  0  0  0  0  0  0  0  0  0  0  0  # atno 10764 bound_to 10752
  154.7387  135.3155  154.8725 H   0  0  0  0  0  0  0  0  0  0  0  0  # atno 10765 bound_to 10752
  141.0303  133.6823  156.2570 H   0  0  0  0  0  0  0  0  0  0  0  0  # atno 11005 bound_to 11000
  145.1729  140.9730  143.4311 LP  0  0  0  0  0  0  0  0  0  0  0  0  # atno 17320 bound_to 7965
  145.0012  139.3597  143.6167 LP  0  0  0  0  0  0  0  0  0  0  0  0  # atno 17321 bound_to 7965
  140.7676  143.5589  150.9121 LP  0  0  0  0  0  0  0  0  0  0  0  0  # atno 17342 bound_to 10162
  139.9265  143.6544  152.3086 LP  0  0  0  0  0  0  0  0  0  0  0  0  # atno 17343 bound_to 10162
  156.8441  130.5058  149.5318 LP  0  0  0  0  0  0  0  0  0  0  0  0  # atno 17370 bound_to 10713
  156.0954  130.5928  150.9804 LP  0  0  0  0  0  0  0  0  0  0  0  0  # atno 17371 bound_to 10713
  140.6418  134.5158  157.5570 LP  0  0  0  0  0  0  0  0  0  0  0  0  # atno 17394 bound_to 11000
  139.9203  134.8161  156.1231 LP  0  0  0  0  0  0  0  0  0  0  0  0  # atno 17395 bound_to 11000

$$$$
