AV-unprocessed.smi:285|AV-procd|sdf|2172|dock10
  -GOLD-   2262021533D 1   1.00000     0.00000
 Structure written by MMmdl.
 31 33  0  0  0  0  0  0  0  0  1 V2000
  141.2404  138.0732  154.8539 N   0  0  0  0  0  0  0  0  0  0  0  0
  141.6134  137.0254  154.1056 C   0  0  0  0  0  0  0  0  0  0  0  0
  140.7469  135.9950  153.9650 N   0  0  0  0  0  0  0  0  0  0  0  0
  141.0952  134.9366  153.2261 C   0  0  0  0  0  0  0  0  0  0  0  0
  142.2338  134.7181  152.5631 N   0  0  0  0  0  0  0  0  0  0  0  0
  143.1072  135.7588  152.7025 C   0  0  0  0  0  0  0  0  0  0  0  0
  142.8718  136.9457  153.4571 C   0  0  0  0  0  0  0  0  0  0  0  0
  143.9748  137.7874  153.3845 N   0  0  0  0  0  0  0  0  0  0  0  0
  144.7986  137.1165  152.6285 C   0  0  0  0  0  0  0  0  0  0  0  0
  146.5171  137.8255  152.2132 Br  0  0  0  0  0  0  0  0  0  0  0  0
  144.3738  135.8905  152.1676 N   0  0  0  0  0  0  0  0  0  0  0  0
  145.0921  134.9122  151.2932 C   0  0  1  0  0  0  0  0  0  0  0  0
  145.7290  133.7992  152.1238 C   0  0  0  0  0  0  0  0  0  0  0  0
  145.6313  132.6267  151.1715 C   0  0  2  0  0  0  0  0  0  0  0  0
  146.7200  132.6258  150.2649 O   0  0  0  0  0  0  0  0  0  0  0  0
  144.2855  132.8942  150.4768 C   0  0  2  0  0  0  0  0  0  0  0  0
  144.1303  132.2761  149.0757 C   0  0  0  0  0  0  0  0  0  0  0  0
  142.8178  132.4747  148.5953 O   0  0  0  0  0  0  0  0  0  0  0  0
  144.1729  134.3174  150.4273 O   0  0  0  0  0  0  0  0  0  0  0  0
  141.8694  138.8540  154.9754 H   0  0  0  0  0  0  0  0  0  0  0  0
  140.3317  138.0802  155.2941 H   0  0  0  0  0  0  0  0  0  0  0  0
  140.3567  134.1515  153.1565 H   0  0  0  0  0  0  0  0  0  0  0  0
  145.8147  135.4892  150.7169 H   0  0  0  0  0  0  0  0  0  0  0  0
  146.7446  134.0566  152.4272 H   0  0  0  0  0  0  0  0  0  0  0  0
  145.1296  133.6081  153.0149 H   0  0  0  0  0  0  0  0  0  0  0  0
  145.6279  131.6744  151.7026 H   0  0  0  0  0  0  0  0  0  0  0  0
  147.4257  132.1228  150.6418 H   0  0  0  0  0  0  0  0  0  0  0  0
  143.4975  132.5236  151.1348 H   0  0  0  0  0  0  0  0  0  0  0  0
  144.8570  132.6903  148.3760 H   0  0  0  0  0  0  0  0  0  0  0  0
  144.2971  131.1994  149.1193 H   0  0  0  0  0  0  0  0  0  0  0  0
  142.2331  131.9057  149.0722 H   0  0  0  0  0  0  0  0  0  0  0  0
  1  2  1  0  0  0  0
  1 20  1  0  0  0  0
  1 21  1  0  0  0  0
  2  7  1  0  0  0  0
  2  3  2  0  0  0  0
  3  4  1  0  0  0  0
  4  5  2  0  0  0  0
  4 22  1  0  0  0  0
  5  6  1  0  0  0  0
  6 11  1  0  0  0  0
  6  7  2  0  0  0  0
  7  8  1  0  0  0  0
  8  9  2  0  0  0  0
  9 10  1  0  0  0  0
  9 11  1  0  0  0  0
 11 12  1  0  0  0  0
 12 19  1  0  0  0  0
 12 13  1  0  0  0  0
 12 23  1  0  0  0  0
 13 14  1  0  0  0  0
 13 24  1  0  0  0  0
 13 25  1  0  0  0  0
 14 15  1  0  0  0  0
 14 16  1  0  0  0  0
 14 26  1  0  0  0  0
 15 27  1  0  0  0  0
 16 17  1  0  0  0  0
 16 19  1  0  0  0  0
 16 28  1  0  0  0  0
 17 18  1  0  0  0  0
 17 29  1  0  0  0  0
 17 30  1  0  0  0  0
 18 31  1  0  0  0  0
M  END
> <s_m_source_file>
AV-unprocessed.smi

> <i_m_source_file_index>
285

> <i_lp_mmshare_version>
43012

> <i_f3d_flags>
0

> <s_epik_input>
bjFbY0hdbmMoW05IMl0pYyhjMTIpbmMoQnIpbjJbQ0BASF0zW0NIMl1bQ0BASF0oW09IXSlbQ0BIXShPMylbQ0gyXVtPSF0=

> <s_epik_cmdline>
J2VwaWtfcHl0aG9uJywgJy1waCcsICc3LjAnLCAnLXRuJywgJzgnLCAnLW1hJywgJzIwMCcsICctbWV0YWxfYmluZGluZycsICctaW1hZScsICc8aW5maWxlLm1hZT4nLCAnLW9tYWUnLCAnPG91dGZpbGUubWFlPic=

> <r_lp_tautomer_probability>
1

> <r_epik_Ionization_Penalty>
0.000103242

> <r_epik_Ionization_Penalty_Charging>
0

> <r_epik_Ionization_Penalty_Neutral>
0.000103242

> <r_epik_State_Penalty>
-0

> <r_epik_Charging_Adjusted_Penalty>
0

> <i_epik_Tot_Q>
0

> <i_epik_Tot_abs_Q>
0

> <r_epik_Metal_State_Penalty>
-0

> <b_epik_Metal_Only>
0

> <s_epik_Chemistry_Notes>
This compound contains an acetal/aminal-like group ( X-CH(R)-Y where X, Y are N, S, or O) that may be acid/base labile, releasing an aldehyde.

> <s_lp_Force_Field>
OPLS_2005

> <r_lp_Energy>
37.1806

> <b_lp_Chiralities_Consistent>
1

> <s_lp_Variant>
AV-unprocessed.smi:285-8

> <Gold.Version>
5.8.1

> <Gold.Id.Protein>
6NUR|6NUR_protein|mol2

> <Gold.PLP.Fitness>
41.0753

> <Gold.PLP.PLP>
-33.3851

> <Gold.PLP.part.hbond>
-6.3499

> <Gold.PLP.part.metal>
0.0000

> <Gold.PLP.part.buried>
-4.5649

> <Gold.PLP.part.nonpolar>
-26.2220

> <Gold.PLP.part.repulsive>
1.5491

> <Gold.PLP.ligand.clash>
0.0000

> <Gold.PLP.ligand.torsion>
0.6434

> <Gold.PLP.Chemscore.Hbond>
2.9913

> <Gold.PLP.Chemscore.CHOScore>
0.0000

> <Gold.PLP.Chemscore.Metal>
0.0000

> <Gold.Chemscore.Hbonds>
donor molecule, donor type, donor heavy atom, donor atom, acceptor molecule, acceptor atom, score
      L1  H    15    27       P1 10747  0.91
      L1  H    18    31       P1 10952  0.70
      L1  C     4    22       P1 10187  0.04

> <Gold.PLP.Chemscore.Internal.Correction>
0.0032

> <Gold.Rescore>
     Score         DG    S(hbond)    S(metal)    S(lipo)     H(rot)  DE(clash)    DE(int)     intcor
      8.18     -10.80       2.35        0.00      45.27       3.06       0.77       1.84       ----

> <Gold.Chemscore.Fitness>
8.1843

> <Gold.Chemscore.DG>
-10.7983

> <Gold.Chemscore.ZeroCoef>
-5.4800

> <Gold.Chemscore.Hbond>
2.3524

> <Gold.Chemscore.Metal>
0.0000

> <Gold.Chemscore.Lipo>
45.2721

> <Gold.Chemscore.Internal_Hbond>
0.0000

> <Gold.Chemscore.DEClash>
0.7721

> <Gold.Chemscore.DEInternal>
1.8420

> <Gold.Chemscore.Rot>
3.0607

> <Gold.Chemscore.Internal.Correction>
   9.000000E+99

> <Gold.Chemscore.Hbonds>
donor molecule, donor type, donor heavy atom, donor atom, acceptor molecule, acceptor atom, score
      L1  H    15    27       P1 10747  0.82
      L1  H    18    31       P1 10952  0.69

> <Gold.Chemscore.Hbond.Weighted>
-7.8569

> <Gold.Chemscore.Metal.Weighted>
-0.0000

> <Gold.Chemscore.Lipo.Weighted>
-5.2968

> <Gold.Chemscore.Internal_Hbond.Weighted>
0.0000

> <Gold.Chemscore.DEClash.Weighted>
0.7721

> <Gold.Chemscore.DEInternal.Weighted>
1.8420

> <Gold.Chemscore.Rot.Weighted>
7.8354

> <Gold.Chemscore.Internal.Correction.Weighted>
   9.000000E+99

> <Gold.Protein.RotatedTorsions>
[ 6907 6896 6895 6894 ] final   55.94 input  -60.11 | X-H torsion
[ 7974 7965 7964 7962 ] final   80.32 input  175.53 | X-H torsion
[ 8008 7997 7996 7995 ] final  -15.59 input   59.86 | X-H torsion
[ 10167 10162 10161 10158 ] final   -8.93 input  -65.29 | X-H torsion
[ 10718 10713 10712 10709 ] final  100.64 input   66.30 | X-H torsion
[ 10763 10752 10751 10750 ] final  119.32 input  -60.55 | X-H torsion
[ 11005 11000 10999 10996 ] final   43.82 input  -57.11 | X-H torsion

> <Gold.Protein.ActiveResidues>
 VAL166  LYS551  ARG553  GLY616  TRP617  ASP618  TYR619  PRO620  LYS621  CYS622 
 ASP623  PHE694  ASN695  SER759  ASP760  ASP761  ALA762  ILE779  LEU786  VAL792 
 PHE793  MET794  SER795  GLU796  ALA797  LYS798  CYS799  TRP800  GLU811  SER814 

> <Gold.Protein.RotatedAtoms>
  152.3587  134.6903  160.0213 H   0  0  0  0  0  0  0  0  0  0  0  0  # atno 6907 bound_to 6896
  151.7233  133.3310  159.3329 H   0  0  0  0  0  0  0  0  0  0  0  0  # atno 6908 bound_to 6896
  150.7590  134.6363  159.6257 H   0  0  0  0  0  0  0  0  0  0  0  0  # atno 6909 bound_to 6896
  145.6527  139.2451  143.1967 H   0  0  0  0  0  0  0  0  0  0  0  0  # atno 7974 bound_to 7965
  154.5118  140.2192  155.9141 H   0  0  0  0  0  0  0  0  0  0  0  0  # atno 8008 bound_to 7997
  156.1561  140.3151  155.8695 H   0  0  0  0  0  0  0  0  0  0  0  0  # atno 8009 bound_to 7997
  155.3843  140.0474  157.3033 H   0  0  0  0  0  0  0  0  0  0  0  0  # atno 8010 bound_to 7997
  140.7073  143.5914  150.8890 H   0  0  0  0  0  0  0  0  0  0  0  0  # atno 10167 bound_to 10162
  157.6849  131.0704  150.5132 H   0  0  0  0  0  0  0  0  0  0  0  0  # atno 10718 bound_to 10713
  153.5812  135.3483  155.2875 H   0  0  0  0  0  0  0  0  0  0  0  0  # atno 10763 bound_to 10752
  154.8667  135.4182  154.2618 H   0  0  0  0  0  0  0  0  0  0  0  0  # atno 10764 bound_to 10752
  153.3405  135.7049  153.6941 H   0  0  0  0  0  0  0  0  0  0  0  0  # atno 10765 bound_to 10752
  140.1609  134.4342  155.8318 H   0  0  0  0  0  0  0  0  0  0  0  0  # atno 11005 bound_to 11000
  146.1190  140.7332  142.9466 LP  0  0  0  0  0  0  0  0  0  0  0  0  # atno 17320 bound_to 7965
  144.7117  140.4062  143.7075 LP  0  0  0  0  0  0  0  0  0  0  0  0  # atno 17321 bound_to 7965
  139.9639  143.6133  152.2994 LP  0  0  0  0  0  0  0  0  0  0  0  0  # atno 17342 bound_to 10162
  139.6695  144.7661  151.1810 LP  0  0  0  0  0  0  0  0  0  0  0  0  # atno 17343 bound_to 10162
  156.5448  130.4217  149.6136 LP  0  0  0  0  0  0  0  0  0  0  0  0  # atno 17370 bound_to 10713
  156.2954  130.7147  151.2006 LP  0  0  0  0  0  0  0  0  0  0  0  0  # atno 17371 bound_to 10713
  141.2209  133.6913  156.7592 LP  0  0  0  0  0  0  0  0  0  0  0  0  # atno 17394 bound_to 11000
  140.2491  134.8555  157.3649 LP  0  0  0  0  0  0  0  0  0  0  0  0  # atno 17395 bound_to 11000

$$$$
