AV-unprocessed.smi:1644|AV-procd|sdf|6594|dock2
  -GOLD-   22720 7293D 1   1.00000     0.00000
 Structure written by MMmdl.
 48 50  0  0  0  0  0  0  0  0  2 V2000
  154.7346  132.0759  159.7446 C   0  0  0  0  0  0  0  0  0  0  0  0
  155.7501  133.1744  159.4112 C   0  0  0  0  0  0  0  0  0  0  0  0
  156.0210  134.0998  160.6068 C   0  0  0  0  0  0  0  0  0  0  0  0
  154.7387  134.6753  161.2401 C   0  0  2  0  0  0  0  0  0  0  0  0
  154.0448  135.5608  160.3283 N   0  5  0  0  0  0  0  0  0  0  0  0
  153.9000  136.7676  160.9237 C   0  0  0  0  0  0  0  0  0  0  0  0
  153.3251  137.7505  160.4578 O   0  0  0  0  0  0  0  0  0  0  0  0
  154.4727  136.7802  162.1429 N   0  0  0  0  0  0  0  0  0  0  0  0
  154.4280  137.9043  163.0873 C   0  0  0  0  0  0  0  0  0  0  0  0
  155.2208  139.1536  162.6404 C   0  0  1  0  0  0  0  0  0  0  0  0
  156.4786  138.7014  162.1826 O   0  0  0  0  0  0  0  0  0  0  0  0
  154.5757  139.9709  161.4997 C   0  0  0  0  0  0  0  0  0  0  0  0
  153.9821  141.2236  161.9358 N   0  0  0  0  0  0  0  0  0  0  0  0
  153.9919  141.7341  163.1833 C   0  0  0  0  0  0  0  0  0  0  0  0
  153.4454  142.9332  163.3581 N   0  0  0  0  0  0  0  0  0  0  0  0
  153.0381  143.2419  162.0726 C   0  0  0  0  0  0  0  0  0  0  0  0
  152.3849  144.3894  161.5712 C   0  0  0  0  0  0  0  0  0  0  0  0
  152.0465  144.4905  160.2032 C   0  0  0  0  0  0  0  0  0  0  0  0
  151.3256  145.7327  159.7110 C   0  0  0  0  0  0  0  0  0  0  0  0
  152.3738  143.4381  159.3112 C   0  0  0  0  0  0  0  0  0  0  0  0
  152.0088  143.5180  157.8401 C   0  0  0  0  0  0  0  0  0  0  0  0
  153.0398  142.2919  159.7927 C   0  0  0  0  0  0  0  0  0  0  0  0
  153.3588  142.1950  161.1590 C   0  0  0  0  0  0  0  0  0  0  0  0
  155.0230  135.5915  162.4133 C   0  0  0  0  0  0  0  0  0  0  0  0
  155.6377  135.2573  163.4271 O   0  0  0  0  0  0  0  0  0  0  0  0
  154.5627  131.4315  158.8826 H   0  0  0  0  0  0  0  0  0  0  0  0
  153.7757  132.5032  160.0387 H   0  0  0  0  0  0  0  0  0  0  0  0
  155.0885  131.4500  160.5644 H   0  0  0  0  0  0  0  0  0  0  0  0
  156.6824  132.7131  159.0841 H   0  0  0  0  0  0  0  0  0  0  0  0
  155.3834  133.7619  158.5689 H   0  0  0  0  0  0  0  0  0  0  0  0
  156.5835  133.5412  161.3566 H   0  0  0  0  0  0  0  0  0  0  0  0
  156.6686  134.9137  160.2865 H   0  0  0  0  0  0  0  0  0  0  0  0
  154.1039  133.8630  161.5967 H   0  0  0  0  0  0  0  0  0  0  0  0
  153.3792  138.1734  163.2259 H   0  0  0  0  0  0  0  0  0  0  0  0
  154.7743  137.5901  164.0736 H   0  0  0  0  0  0  0  0  0  0  0  0
  155.4267  139.7964  163.4960 H   0  0  0  0  0  0  0  0  0  0  0  0
  156.5309  138.8565  161.2520 H   0  0  0  0  0  0  0  0  0  0  0  0
  155.3326  140.2313  160.7583 H   0  0  0  0  0  0  0  0  0  0  0  0
  153.8282  139.3736  160.9767 H   0  0  0  0  0  0  0  0  0  0  0  0
  154.4368  141.2003  164.0101 H   0  0  0  0  0  0  0  0  0  0  0  0
  152.1334  145.1883  162.2527 H   0  0  0  0  0  0  0  0  0  0  0  0
  151.9342  146.2615  158.9774 H   0  0  0  0  0  0  0  0  0  0  0  0
  151.1132  146.4200  160.5304 H   0  0  0  0  0  0  0  0  0  0  0  0
  150.3763  145.4654  159.2465 H   0  0  0  0  0  0  0  0  0  0  0  0
  152.3422  142.6318  157.2994 H   0  0  0  0  0  0  0  0  0  0  0  0
  152.4733  144.3883  157.3764 H   0  0  0  0  0  0  0  0  0  0  0  0
  150.9278  143.5947  157.7206 H   0  0  0  0  0  0  0  0  0  0  0  0
  153.2885  141.4818  159.1234 H   0  0  0  0  0  0  0  0  0  0  0  0
  1  2  1  0  0  0  0
  1 26  1  0  0  0  0
  1 27  1  0  0  0  0
  1 28  1  0  0  0  0
  2  3  1  0  0  0  0
  2 29  1  0  0  0  0
  2 30  1  0  0  0  0
  3  4  1  0  0  0  0
  3 31  1  0  0  0  0
  3 32  1  0  0  0  0
  4 24  1  0  0  0  0
  4  5  1  0  0  0  0
  4 33  1  0  0  0  0
  5  6  1  0  0  0  0
  6  7  2  0  0  0  0
  6  8  1  0  0  0  0
  8  9  1  0  0  0  0
  8 24  1  0  0  0  0
  9 10  1  0  0  0  0
  9 34  1  0  0  0  0
  9 35  1  0  0  0  0
 10 11  1  0  0  0  0
 10 12  1  0  0  0  0
 10 36  1  0  0  0  0
 11 37  1  0  0  0  0
 12 13  1  0  0  0  0
 12 38  1  0  0  0  0
 12 39  1  0  0  0  0
 13 23  1  0  0  0  0
 13 14  1  0  0  0  0
 14 15  2  0  0  0  0
 14 40  1  0  0  0  0
 15 16  1  0  0  0  0
 16 23  2  0  0  0  0
 16 17  1  0  0  0  0
 17 18  2  0  0  0  0
 17 41  1  0  0  0  0
 18 19  1  0  0  0  0
 18 20  1  0  0  0  0
 19 42  1  0  0  0  0
 19 43  1  0  0  0  0
 19 44  1  0  0  0  0
 20 21  1  0  0  0  0
 20 22  2  0  0  0  0
 21 45  1  0  0  0  0
 21 46  1  0  0  0  0
 21 47  1  0  0  0  0
 22 23  1  0  0  0  0
 22 48  1  0  0  0  0
 24 25  2  0  0  0  0
M  CHG  1   5  -1
M  END
> <s_m_source_file>
AV-unprocessed.smi

> <i_m_source_file_index>
1644

> <i_lp_mmshare_version>
43012

> <i_f3d_flags>
0

> <s_epik_input>
W0NIM11bQ0gyXVtDSDJdW0NAQEhdMVtOSF1DKD1PKU4oQzE9TylbQ0gyXVtDQEhdKFtPSF0pW0NIMl1uKFtjSF1uMiljKGMyMylbY0hdYyhbQ0gzXSljKFtjSF0zKVtDSDNd

> <s_epik_cmdline>
J2VwaWtfcHl0aG9uJywgJy1waCcsICc3LjAnLCAnLXRuJywgJzgnLCAnLW1hJywgJzIwMCcsICctbWV0YWxfYmluZGluZycsICctaW1hZScsICc8aW5maWxlLm1hZT4nLCAnLW9tYWUnLCAnPG91dGZpbGUubWFlPic=

> <r_lp_tautomer_probability>
1

> <r_epik_Ionization_Penalty>
5.95212

> <r_epik_Ionization_Penalty_Charging>
5.84419

> <r_epik_Ionization_Penalty_Neutral>
0.107924

> <r_epik_State_Penalty>
5.94088

> <r_epik_Charging_Adjusted_Penalty>
11.7851

> <i_epik_Tot_Q>
-1

> <i_epik_Tot_abs_Q>
1

> <r_epik_Metal_State_Penalty>
1.99095

> <b_epik_Metal_Only>
1

> <s_lp_Force_Field>
OPLS_2005

> <r_lp_Energy>
16.2411

> <b_lp_Chiralities_Consistent>
1

> <s_lp_Variant>
AV-unprocessed.smi:1644-11

> <Gold.Version>
5.8.1

> <Gold.Id.Protein>
6NUR|6NUR_protein|mol2

> <Gold.PLP.Fitness>
52.5366

> <Gold.PLP.PLP>
-47.8794

> <Gold.PLP.part.hbond>
-1.0000

> <Gold.PLP.part.metal>
0.0000

> <Gold.PLP.part.buried>
-3.9868

> <Gold.PLP.part.nonpolar>
-41.6963

> <Gold.PLP.part.repulsive>
0.1250

> <Gold.PLP.ligand.clash>
0.0000

> <Gold.PLP.ligand.torsion>
0.8082

> <Gold.PLP.Chemscore.Hbond>
2.0000

> <Gold.PLP.Chemscore.CHOScore>
0.0000

> <Gold.PLP.Chemscore.Metal>
0.0000

> <Gold.Chemscore.Hbonds>
donor molecule, donor type, donor heavy atom, donor atom, acceptor molecule, acceptor atom, score
      P1  H  6896  6909       L1     5  2.00

> <Gold.PLP.Chemscore.Internal.Correction>
0.2736

> <Gold.Rescore>
     Score         DG    S(hbond)    S(metal)    S(lipo)     H(rot)  DE(clash)    DE(int)     intcor
     13.37     -15.65       0.81        0.00     121.66       2.65       0.10       2.17       ----

> <Gold.Chemscore.Fitness>
13.3694

> <Gold.Chemscore.DG>
-15.6478

> <Gold.Chemscore.ZeroCoef>
-5.4800

> <Gold.Chemscore.Hbond>
0.8125

> <Gold.Chemscore.Metal>
0.0000

> <Gold.Chemscore.Lipo>
121.6631

> <Gold.Chemscore.Internal_Hbond>
0.0000

> <Gold.Chemscore.DEClash>
0.1035

> <Gold.Chemscore.DEInternal>
2.1750

> <Gold.Chemscore.Rot>
2.6486

> <Gold.Chemscore.Internal.Correction>
   9.000000E+99

> <Gold.Chemscore.Hbonds>
donor molecule, donor type, donor heavy atom, donor atom, acceptor molecule, acceptor atom, score
      P1  H  6896  6909       L1     5  0.41

> <Gold.Chemscore.Hbond.Weighted>
-2.7137

> <Gold.Chemscore.Metal.Weighted>
-0.0000

> <Gold.Chemscore.Lipo.Weighted>
-14.2346

> <Gold.Chemscore.Internal_Hbond.Weighted>
0.0000

> <Gold.Chemscore.DEClash.Weighted>
0.1035

> <Gold.Chemscore.DEInternal.Weighted>
2.1750

> <Gold.Chemscore.Rot.Weighted>
6.7804

> <Gold.Chemscore.Internal.Correction.Weighted>
   9.000000E+99

> <Gold.Protein.RotatedTorsions>
[ 6907 6896 6895 6894 ] final  169.82 input  -60.11 | X-H torsion
[ 7974 7965 7964 7962 ] final  -49.50 input  175.53 | X-H torsion
[ 8008 7997 7996 7995 ] final  -67.55 input   59.86 | X-H torsion
[ 10167 10162 10161 10158 ] final -146.45 input  -65.29 | X-H torsion
[ 10718 10713 10712 10709 ] final  -54.55 input   66.30 | X-H torsion
[ 10763 10752 10751 10750 ] final   91.99 input  -60.55 | X-H torsion
[ 11005 11000 10999 10996 ] final  151.88 input  -57.11 | X-H torsion

> <Gold.Protein.ActiveResidues>
 VAL166  LYS551  ARG553  GLY616  TRP617  ASP618  TYR619  PRO620  LYS621  CYS622 
 ASP623  PHE694  ASN695  SER759  ASP760  ASP761  ALA762  ILE779  LEU786  VAL792 
 PHE793  MET794  SER795  GLU796  ALA797  LYS798  CYS799  TRP800  GLU811  SER814 

> <Gold.Protein.RotatedAtoms>
  151.8259  133.3401  159.3598 H   0  0  0  0  0  0  0  0  0  0  0  0  # atno 6907 bound_to 6896
  150.7280  134.5529  159.5813 H   0  0  0  0  0  0  0  0  0  0  0  0  # atno 6908 bound_to 6896
  152.2972  134.7654  160.0416 H   0  0  0  0  0  0  0  0  0  0  0  0  # atno 6909 bound_to 6896
  145.9399  140.7672  142.9557 H   0  0  0  0  0  0  0  0  0  0  0  0  # atno 7974 bound_to 7965
  154.4807  140.0890  156.7371 H   0  0  0  0  0  0  0  0  0  0  0  0  # atno 8008 bound_to 7997
  155.4478  140.3456  155.4279 H   0  0  0  0  0  0  0  0  0  0  0  0  # atno 8009 bound_to 7997
  156.1187  140.1468  156.9224 H   0  0  0  0  0  0  0  0  0  0  0  0  # atno 8010 bound_to 7997
  139.7712  143.8235  152.2624 H   0  0  0  0  0  0  0  0  0  0  0  0  # atno 10167 bound_to 10162
  156.1441  130.4153  150.0053 H   0  0  0  0  0  0  0  0  0  0  0  0  # atno 10718 bound_to 10713
  153.2142  135.4378  155.0415 H   0  0  0  0  0  0  0  0  0  0  0  0  # atno 10763 bound_to 10752
  154.8216  135.3340  154.7023 H   0  0  0  0  0  0  0  0  0  0  0  0  # atno 10764 bound_to 10752
  153.7459  135.7001  153.5012 H   0  0  0  0  0  0  0  0  0  0  0  0  # atno 10765 bound_to 10752
  140.1258  134.8834  157.2136 H   0  0  0  0  0  0  0  0  0  0  0  0  # atno 11005 bound_to 11000
  144.6777  140.2263  143.7360 LP  0  0  0  0  0  0  0  0  0  0  0  0  # atno 17320 bound_to 7965
  145.8314  139.2087  143.1880 LP  0  0  0  0  0  0  0  0  0  0  0  0  # atno 17321 bound_to 7965
  139.8270  144.7270  150.9499 LP  0  0  0  0  0  0  0  0  0  0  0  0  # atno 17342 bound_to 10162
  140.7814  143.4105  151.1000 LP  0  0  0  0  0  0  0  0  0  0  0  0  # atno 17343 bound_to 10162
  156.7930  130.9263  151.3646 LP  0  0  0  0  0  0  0  0  0  0  0  0  # atno 17370 bound_to 10713
  157.6601  130.8959  149.9812 LP  0  0  0  0  0  0  0  0  0  0  0  0  # atno 17371 bound_to 10713
  140.2906  134.3245  155.7316 LP  0  0  0  0  0  0  0  0  0  0  0  0  # atno 17394 bound_to 11000
  141.2161  133.7532  156.9497 LP  0  0  0  0  0  0  0  0  0  0  0  0  # atno 17395 bound_to 11000

$$$$
