AV-unprocessed.smi:2154|AV-procd|sdf|8772|dock9
  -GOLD-   2272011553D 1   1.00000     0.00000
 Structure written by MMmdl.
 32 33  0  0  0  0  0  0  0  0  1 V2000
  152.9241  142.6526  159.9675 C   0  0  0  0  0  0  0  0  0  0  0  0
  152.7873  144.0693  159.4460 C   0  0  2  0  0  0  0  0  0  0  0  0
  151.9032  145.0697  160.1539 C   0  0  0  0  0  0  0  0  0  0  0  0
  151.5226  144.5727  158.7785 C   0  0  2  0  0  0  0  0  0  0  0  0
  150.3061  143.6847  158.5772 C   0  0  0  0  0  0  0  0  0  0  0  0
  150.1670  143.1339  157.2356 N   0  0  0  0  0  0  0  0  0  0  0  0
  150.0681  141.8281  156.9446 C   0  0  0  0  0  0  0  0  0  0  0  0
  150.0574  140.9450  157.8033 O   0  0  0  0  0  0  0  0  0  0  0  0
  149.9413  141.4747  155.4560 C   0  0  0  0  0  0  0  0  0  0  0  0
  150.4137  140.1170  155.1476 N   0  0  0  0  0  0  0  0  0  0  0  0
  151.6684  139.6982  155.5670 C   0  0  0  0  0  0  0  0  0  0  0  0
  152.1669  138.4655  155.3113 C   0  0  0  0  0  0  0  0  0  0  0  0
  151.3818  137.4926  154.5590 C   0  0  0  0  0  0  0  0  0  0  0  0
  151.7449  136.3522  154.2792 O   0  0  0  0  0  0  0  0  0  0  0  0
  150.1267  137.9524  154.1518 N   0  0  0  0  0  0  0  0  0  0  0  0
  149.6076  139.2218  154.4108 C   0  0  0  0  0  0  0  0  0  0  0  0
  148.4878  139.5270  154.0023 O   0  0  0  0  0  0  0  0  0  0  0  0
  149.5476  137.3144  153.6255 H   0  0  0  0  0  0  0  0  0  0  0  0
  152.0184  142.3283  160.4792 H   0  0  0  0  0  0  0  0  0  0  0  0
  153.7526  142.5956  160.6733 H   0  0  0  0  0  0  0  0  0  0  0  0
  153.1241  141.9682  159.1429 H   0  0  0  0  0  0  0  0  0  0  0  0
  153.7143  144.4619  159.0328 H   0  0  0  0  0  0  0  0  0  0  0  0
  151.3159  144.7180  161.0001 H   0  0  0  0  0  0  0  0  0  0  0  0
  152.2653  146.0927  160.2343 H   0  0  0  0  0  0  0  0  0  0  0  0
  151.6933  145.2626  157.9538 H   0  0  0  0  0  0  0  0  0  0  0  0
  150.3426  142.8720  159.3044 H   0  0  0  0  0  0  0  0  0  0  0  0
  149.4007  144.2503  158.7952 H   0  0  0  0  0  0  0  0  0  0  0  0
  150.1620  143.7925  156.4704 H   0  0  0  0  0  0  0  0  0  0  0  0
  148.8943  141.5863  155.1707 H   0  0  0  0  0  0  0  0  0  0  0  0
  150.4836  142.2047  154.8514 H   0  0  0  0  0  0  0  0  0  0  0  0
  152.2870  140.3873  156.1244 H   0  0  0  0  0  0  0  0  0  0  0  0
  153.1523  138.1978  155.6645 H   0  0  0  0  0  0  0  0  0  0  0  0
  1  2  1  0  0  0  0
  1 19  1  0  0  0  0
  1 20  1  0  0  0  0
  1 21  1  0  0  0  0
  2  4  1  0  0  0  0
  2  3  1  0  0  0  0
  2 22  1  0  0  0  0
  3  4  1  0  0  0  0
  3 23  1  0  0  0  0
  3 24  1  0  0  0  0
  4  5  1  0  0  0  0
  4 25  1  0  0  0  0
  5  6  1  0  0  0  0
  5 26  1  0  0  0  0
  5 27  1  0  0  0  0
  6  7  1  0  0  0  0
  6 28  1  0  0  0  0
  7  8  2  0  0  0  0
  7  9  1  0  0  0  0
  9 10  1  0  0  0  0
  9 29  1  0  0  0  0
  9 30  1  0  0  0  0
 10 16  1  0  0  0  0
 10 11  1  0  0  0  0
 11 12  2  0  0  0  0
 11 31  1  0  0  0  0
 12 13  1  0  0  0  0
 12 32  1  0  0  0  0
 13 14  2  0  0  0  0
 13 15  1  0  0  0  0
 15 18  1  0  0  0  0
 15 16  1  0  0  0  0
 16 17  2  0  0  0  0
M  END
> <s_m_source_file>
AV-unprocessed.smi

> <i_m_source_file_index>
2154

> <i_lp_mmshare_version>
43012

> <i_f3d_flags>
0

> <s_epik_input>
W0NIM11bQ0BASF0xW0NIMl1bQ0BIXTFbQ0gyXVtOSF1DKD1PKVtDSDJdbjJbY0hdW2NIXWMoPU8pW25IXWMyPU8=

> <s_epik_cmdline>
J2VwaWtfcHl0aG9uJywgJy1waCcsICc3LjAnLCAnLXRuJywgJzgnLCAnLW1hJywgJzIwMCcsICctbWV0YWxfYmluZGluZycsICctaW1hZScsICc8aW5maWxlLm1hZT4nLCAnLW9tYWUnLCAnPG91dGZpbGUubWFlPic=

> <r_lp_tautomer_probability>
0.999537

> <r_epik_Ionization_Penalty>
0.00305319

> <r_epik_Ionization_Penalty_Charging>
0.00305317

> <r_epik_Ionization_Penalty_Neutral>
2.06703e-08

> <r_epik_State_Penalty>
0.00214626

> <r_epik_Charging_Adjusted_Penalty>
0.00519944

> <i_epik_Tot_Q>
0

> <i_epik_Tot_abs_Q>
0

> <r_epik_Metal_State_Penalty>
0.361976

> <b_epik_Metal_Only>
0

> <s_lp_Force_Field>
OPLS_2005

> <r_lp_Energy>
15.9584

> <b_lp_Chiralities_Consistent>
1

> <s_lp_Variant>
AV-unprocessed.smi:2154-3

> <Gold.Version>
5.8.1

> <Gold.Id.Protein>
6NUR|6NUR_protein|mol2

> <Gold.PLP.Fitness>
44.7359

> <Gold.PLP.PLP>
-38.4671

> <Gold.PLP.part.hbond>
-2.9284

> <Gold.PLP.part.metal>
0.0000

> <Gold.PLP.part.buried>
-5.7577

> <Gold.PLP.part.nonpolar>
-33.9773

> <Gold.PLP.part.repulsive>
2.2403

> <Gold.PLP.ligand.clash>
0.0000

> <Gold.PLP.ligand.torsion>
0.7378

> <Gold.PLP.Chemscore.Hbond>
2.4038

> <Gold.PLP.Chemscore.CHOScore>
0.0000

> <Gold.PLP.Chemscore.Metal>
0.0000

> <Gold.Chemscore.Hbonds>
donor molecule, donor type, donor heavy atom, donor atom, acceptor molecule, acceptor atom, score
      L1  H     6    28       P1  8028  0.69
      L1  H    15    18       P1  7948  0.76
      P1  H 10752 10763       L1    14  0.65

> <Gold.PLP.Chemscore.Internal.Correction>
0.5332

> <Gold.Rescore>
     Score         DG    S(hbond)    S(metal)    S(lipo)     H(rot)  DE(clash)    DE(int)     intcor
     15.48     -18.44       2.71        0.00      77.23       2.01       1.60       1.36       ----

> <Gold.Chemscore.Fitness>
15.4834

> <Gold.Chemscore.DG>
-18.4416

> <Gold.Chemscore.ZeroCoef>
-5.4800

> <Gold.Chemscore.Hbond>
2.7133

> <Gold.Chemscore.Metal>
0.0000

> <Gold.Chemscore.Lipo>
77.2293

> <Gold.Chemscore.Internal_Hbond>
0.0000

> <Gold.Chemscore.DEClash>
1.5963

> <Gold.Chemscore.DEInternal>
1.3618

> <Gold.Chemscore.Rot>
2.0065

> <Gold.Chemscore.Internal.Correction>
   9.000000E+99

> <Gold.Chemscore.Hbonds>
donor molecule, donor type, donor heavy atom, donor atom, acceptor molecule, acceptor atom, score
      L1  H     6    28       P1  8028  0.68
      L1  H    15    18       P1  7948  0.67
      P1  H 10752 10763       L1    14  0.65

> <Gold.Chemscore.Hbond.Weighted>
-9.0624

> <Gold.Chemscore.Metal.Weighted>
-0.0000

> <Gold.Chemscore.Lipo.Weighted>
-9.0358

> <Gold.Chemscore.Internal_Hbond.Weighted>
0.0000

> <Gold.Chemscore.DEClash.Weighted>
1.5963

> <Gold.Chemscore.DEInternal.Weighted>
1.3618

> <Gold.Chemscore.Rot.Weighted>
5.1366

> <Gold.Chemscore.Internal.Correction.Weighted>
   9.000000E+99

> <Gold.Protein.RotatedTorsions>
[ 6907 6896 6895 6894 ] final  175.32 input  -60.11 | X-H torsion
[ 7974 7965 7964 7962 ] final -131.42 input  175.53 | X-H torsion
[ 8008 7997 7996 7995 ] final  149.92 input   59.86 | X-H torsion
[ 10167 10162 10161 10158 ] final  -62.26 input  -65.29 | X-H torsion
[ 10718 10713 10712 10709 ] final   42.71 input   66.30 | X-H torsion
[ 10763 10752 10751 10750 ] final   36.10 input  -60.55 | X-H torsion
[ 11005 11000 10999 10996 ] final  123.56 input  -57.11 | X-H torsion

> <Gold.Protein.ActiveResidues>
 VAL166  LYS551  ARG553  GLY616  TRP617  ASP618  TYR619  PRO620  LYS621  CYS622 
 ASP623  PHE694  ASN695  SER759  ASP760  ASP761  ALA762  ILE779  LEU786  VAL792 
 PHE793  MET794  SER795  GLU796  ALA797  LYS798  CYS799  TRP800  GLU811  SER814 

> <Gold.Protein.RotatedAtoms>
  151.7381  133.3320  159.3357 H   0  0  0  0  0  0  0  0  0  0  0  0  # atno 6907 bound_to 6896
  150.7585  134.6303  159.6192 H   0  0  0  0  0  0  0  0  0  0  0  0  # atno 6908 bound_to 6896
  152.3548  134.6957  160.0277 H   0  0  0  0  0  0  0  0  0  0  0  0  # atno 6909 bound_to 6896
  144.9381  140.7207  143.4864 H   0  0  0  0  0  0  0  0  0  0  0  0  # atno 7974 bound_to 7965
  156.2736  140.2089  156.5935 H   0  0  0  0  0  0  0  0  0  0  0  0  # atno 8008 bound_to 7997
  154.6963  140.0525  157.0437 H   0  0  0  0  0  0  0  0  0  0  0  0  # atno 8009 bound_to 7997
  155.0796  140.3185  155.4608 H   0  0  0  0  0  0  0  0  0  0  0  0  # atno 8010 bound_to 7997
  140.5951  143.2349  151.6054 H   0  0  0  0  0  0  0  0  0  0  0  0  # atno 10167 bound_to 10162
  157.4079  130.7897  149.7405 H   0  0  0  0  0  0  0  0  0  0  0  0  # atno 10718 bound_to 10713
  153.0091  135.6315  154.1932 H   0  0  0  0  0  0  0  0  0  0  0  0  # atno 10763 bound_to 10752
  154.1675  135.2820  155.3092 H   0  0  0  0  0  0  0  0  0  0  0  0  # atno 10764 bound_to 10752
  154.5934  135.5610  153.7361 H   0  0  0  0  0  0  0  0  0  0  0  0  # atno 10765 bound_to 10752
  139.9318  134.9641  156.8278 H   0  0  0  0  0  0  0  0  0  0  0  0  # atno 11005 bound_to 11000
  145.3035  139.1842  143.4677 LP  0  0  0  0  0  0  0  0  0  0  0  0  # atno 17320 bound_to 7965
  146.3275  140.3029  142.8622 LP  0  0  0  0  0  0  0  0  0  0  0  0  # atno 17321 bound_to 7965
  139.5253  144.3079  152.1018 LP  0  0  0  0  0  0  0  0  0  0  0  0  # atno 17342 bound_to 10162
  140.2250  144.4427  150.6325 LP  0  0  0  0  0  0  0  0  0  0  0  0  # atno 17343 bound_to 10162
  155.9842  130.3994  150.3325 LP  0  0  0  0  0  0  0  0  0  0  0  0  # atno 17370 bound_to 10713
  157.1460  131.0308  151.2907 LP  0  0  0  0  0  0  0  0  0  0  0  0  # atno 17371 bound_to 10713
  140.6181  134.0019  155.7606 LP  0  0  0  0  0  0  0  0  0  0  0  0  # atno 17394 bound_to 11000
  141.0911  133.9915  157.3235 LP  0  0  0  0  0  0  0  0  0  0  0  0  # atno 17395 bound_to 11000

$$$$
