AV-unprocessed.smi:2773|AV-procd|sdf|10679|dock5
  -GOLD-   2272015123D 1   1.00000     0.00000
 Structure written by MMmdl.
 30 31  0  0  0  0  0  0  0  0  1 V2000
  152.5302  143.9143  161.7417 C   0  0  0  0  0  0  0  0  0  0  0  0
  151.5782  144.1891  160.5977 C   0  0  1  0  0  0  0  0  0  0  0  0
  151.3876  145.5970  160.1008 C   0  0  0  0  0  0  0  0  0  0  0  0
  152.0980  144.5839  159.2303 C   0  0  2  0  0  0  0  0  0  0  0  0
  151.3861  144.1255  158.0749 N   0  0  0  0  0  0  0  0  0  0  0  0
  151.3497  142.8818  157.5628 C   0  0  0  0  0  0  0  0  0  0  0  0
  152.0004  141.9696  158.0697 O   0  0  0  0  0  0  0  0  0  0  0  0
  150.5857  142.7564  156.4589 N   0  0  0  0  0  0  0  0  0  0  0  0
  150.3121  141.5851  155.7044 C   0  0  0  0  0  0  0  0  0  0  0  0
  149.1576  141.6514  154.8935 C   0  0  0  0  0  0  0  0  0  0  0  0
  148.7987  140.5392  154.1086 C   0  0  0  0  0  0  0  0  0  0  0  0
  149.6025  139.3866  154.1554 C   0  0  0  0  0  0  0  0  0  0  0  0
  150.7390  139.3973  154.9919 C   0  0  0  0  0  0  0  0  0  0  0  0
  151.6584  138.1894  155.1055 C   0  0  0  0  0  0  0  0  0  0  0  0
  151.2392  137.1770  154.3452 F   0  0  0  0  0  0  0  0  0  0  0  0
  152.8902  138.5231  154.7203 F   0  0  0  0  0  0  0  0  0  0  0  0
  151.7009  137.7753  156.3718 F   0  0  0  0  0  0  0  0  0  0  0  0
  151.0799  140.4687  155.7432 N   0  0  0  0  0  0  0  0  0  0  0  0
  153.4055  144.5620  161.6828 H   0  0  0  0  0  0  0  0  0  0  0  0
  152.8633  142.8770  161.7098 H   0  0  0  0  0  0  0  0  0  0  0  0
  152.0307  144.0906  162.6945 H   0  0  0  0  0  0  0  0  0  0  0  0
  150.6868  143.5642  160.6130 H   0  0  0  0  0  0  0  0  0  0  0  0
  150.3790  145.8951  159.8200 H   0  0  0  0  0  0  0  0  0  0  0  0
  151.9940  146.3811  160.5499 H   0  0  0  0  0  0  0  0  0  0  0  0
  153.1724  144.7361  159.1380 H   0  0  0  0  0  0  0  0  0  0  0  0
  150.9011  144.8390  157.5500 H   0  0  0  0  0  0  0  0  0  0  0  0
  150.1361  143.5986  156.1316 H   0  0  0  0  0  0  0  0  0  0  0  0
  148.5501  142.5445  154.8694 H   0  0  0  0  0  0  0  0  0  0  0  0
  147.9199  140.5705  153.4817 H   0  0  0  0  0  0  0  0  0  0  0  0
  149.3456  138.5211  153.5628 H   0  0  0  0  0  0  0  0  0  0  0  0
  1  2  1  0  0  0  0
  1 19  1  0  0  0  0
  1 20  1  0  0  0  0
  1 21  1  0  0  0  0
  2  4  1  0  0  0  0
  2  3  1  0  0  0  0
  2 22  1  0  0  0  0
  3  4  1  0  0  0  0
  3 23  1  0  0  0  0
  3 24  1  0  0  0  0
  4  5  1  0  0  0  0
  4 25  1  0  0  0  0
  5  6  1  0  0  0  0
  5 26  1  0  0  0  0
  6  7  2  0  0  0  0
  6  8  1  0  0  0  0
  8  9  1  0  0  0  0
  8 27  1  0  0  0  0
  9 18  1  0  0  0  0
  9 10  2  0  0  0  0
 10 11  1  0  0  0  0
 10 28  1  0  0  0  0
 11 12  2  0  0  0  0
 11 29  1  0  0  0  0
 12 13  1  0  0  0  0
 12 30  1  0  0  0  0
 13 14  1  0  0  0  0
 13 18  2  0  0  0  0
 14 15  1  0  0  0  0
 14 16  1  0  0  0  0
 14 17  1  0  0  0  0
M  END
> <s_m_source_file>
AV-unprocessed.smi

> <i_m_source_file_index>
2773

> <i_lp_mmshare_version>
43012

> <i_f3d_flags>
0

> <s_epik_input>
W0NIM11bQ0BASF0xW0NIMl1bQ0BIXTFbTkhdQyg9TylbTkhdYzJbY0hdW2NIXVtjSF1jKG4yKUMoRikoRilG

> <s_epik_cmdline>
J2VwaWtfcHl0aG9uJywgJy1waCcsICc3LjAnLCAnLXRuJywgJzgnLCAnLW1hJywgJzIwMCcsICctbWV0YWxfYmluZGluZycsICctaW1hZScsICc8aW5maWxlLm1hZT4nLCAnLW9tYWUnLCAnPG91dGZpbGUubWFlPic=

> <r_lp_tautomer_probability>
1

> <r_epik_Ionization_Penalty>
4.04275e-05

> <r_epik_Ionization_Penalty_Charging>
0

> <r_epik_Ionization_Penalty_Neutral>
4.04275e-05

> <r_epik_State_Penalty>
-0

> <r_epik_Charging_Adjusted_Penalty>
0

> <i_epik_Tot_Q>
0

> <i_epik_Tot_abs_Q>
0

> <r_epik_Metal_State_Penalty>
-0

> <b_epik_Metal_Only>
0

> <s_lp_Force_Field>
OPLS_2005

> <r_lp_Energy>
31.9266

> <b_lp_Chiralities_Consistent>
1

> <s_lp_Variant>
AV-unprocessed.smi:2773-4

> <Gold.Version>
5.8.1

> <Gold.Id.Protein>
6NUR|6NUR_protein|mol2

> <Gold.PLP.Fitness>
44.8154

> <Gold.PLP.PLP>
-42.4206

> <Gold.PLP.part.hbond>
-1.4273

> <Gold.PLP.part.metal>
0.0000

> <Gold.PLP.part.buried>
-1.1578

> <Gold.PLP.part.nonpolar>
-39.1139

> <Gold.PLP.part.repulsive>
0.1329

> <Gold.PLP.ligand.clash>
0.0000

> <Gold.PLP.ligand.torsion>
0.3198

> <Gold.PLP.Chemscore.Hbond>
1.0000

> <Gold.PLP.Chemscore.CHOScore>
0.0000

> <Gold.PLP.Chemscore.Metal>
0.0000

> <Gold.Chemscore.Hbonds>
donor molecule, donor type, donor heavy atom, donor atom, acceptor molecule, acceptor atom, score
      L1  H     8    27       P1  8028  1.00

> <Gold.PLP.Chemscore.Internal.Correction>
0.0345

> <Gold.Rescore>
     Score         DG    S(hbond)    S(metal)    S(lipo)     H(rot)  DE(clash)    DE(int)     intcor
     14.52     -16.38       1.00        0.00      86.50       1.00       0.31       1.55       ----

> <Gold.Chemscore.Fitness>
14.5221

> <Gold.Chemscore.DG>
-16.3788

> <Gold.Chemscore.ZeroCoef>
-5.4800

> <Gold.Chemscore.Hbond>
0.9995

> <Gold.Chemscore.Metal>
0.0000

> <Gold.Chemscore.Lipo>
86.4999

> <Gold.Chemscore.Internal_Hbond>
0.0000

> <Gold.Chemscore.DEClash>
0.3059

> <Gold.Chemscore.DEInternal>
1.5508

> <Gold.Chemscore.Rot>
1.0000

> <Gold.Chemscore.Internal.Correction>
   9.000000E+99

> <Gold.Chemscore.Hbonds>
donor molecule, donor type, donor heavy atom, donor atom, acceptor molecule, acceptor atom, score
      L1  H     8    27       P1  8028  1.00

> <Gold.Chemscore.Hbond.Weighted>
-3.3383

> <Gold.Chemscore.Metal.Weighted>
-0.0000

> <Gold.Chemscore.Lipo.Weighted>
-10.1205

> <Gold.Chemscore.Internal_Hbond.Weighted>
0.0000

> <Gold.Chemscore.DEClash.Weighted>
0.3059

> <Gold.Chemscore.DEInternal.Weighted>
1.5508

> <Gold.Chemscore.Rot.Weighted>
2.5600

> <Gold.Chemscore.Internal.Correction.Weighted>
   9.000000E+99

> <Gold.Protein.RotatedTorsions>
[ 6907 6896 6895 6894 ] final    6.70 input  -60.11 | X-H torsion
[ 7974 7965 7964 7962 ] final   23.55 input  175.53 | X-H torsion
[ 8008 7997 7996 7995 ] final -149.00 input   59.86 | X-H torsion
[ 10167 10162 10161 10158 ] final  138.11 input  -65.29 | X-H torsion
[ 10718 10713 10712 10709 ] final -134.36 input   66.30 | X-H torsion
[ 10763 10752 10751 10750 ] final  -36.52 input  -60.55 | X-H torsion
[ 11005 11000 10999 10996 ] final  121.72 input  -57.11 | X-H torsion

> <Gold.Protein.ActiveResidues>
 VAL166  LYS551  ARG553  GLY616  TRP617  ASP618  TYR619  PRO620  LYS621  CYS622 
 ASP623  PHE694  ASN695  SER759  ASP760  ASP761  ALA762  ILE779  LEU786  VAL792 
 PHE793  MET794  SER795  GLU796  ALA797  LYS798  CYS799  TRP800  GLU811  SER814 

> <Gold.Protein.RotatedAtoms>
  151.6779  135.0966  160.0210 H   0  0  0  0  0  0  0  0  0  0  0  0  # atno 6907 bound_to 6896
  152.3853  133.6598  159.6202 H   0  0  0  0  0  0  0  0  0  0  0  0  # atno 6908 bound_to 6896
  150.7780  133.8962  159.3369 H   0  0  0  0  0  0  0  0  0  0  0  0  # atno 6909 bound_to 6896
  146.1979  139.7729  142.8783 H   0  0  0  0  0  0  0  0  0  0  0  0  # atno 7974 bound_to 7965
  155.6007  140.0662  157.2734 H   0  0  0  0  0  0  0  0  0  0  0  0  # atno 8008 bound_to 7997
  154.4279  140.1819  156.1217 H   0  0  0  0  0  0  0  0  0  0  0  0  # atno 8009 bound_to 7997
  156.0161  140.3321  155.6994 H   0  0  0  0  0  0  0  0  0  0  0  0  # atno 8010 bound_to 7997
  139.5121  144.6372  151.5666 H   0  0  0  0  0  0  0  0  0  0  0  0  # atno 10167 bound_to 10162
  156.2546  130.7174  151.1085 H   0  0  0  0  0  0  0  0  0  0  0  0  # atno 10718 bound_to 10713
  153.8811  135.6821  153.4767 H   0  0  0  0  0  0  0  0  0  0  0  0  # atno 10763 bound_to 10752
  153.1233  135.4730  154.9229 H   0  0  0  0  0  0  0  0  0  0  0  0  # atno 10764 bound_to 10752
  154.7668  135.3227  154.8221 H   0  0  0  0  0  0  0  0  0  0  0  0  # atno 10765 bound_to 10752
  139.9238  134.9639  156.8001 H   0  0  0  0  0  0  0  0  0  0  0  0  # atno 11005 bound_to 11000
  145.3582  141.0321  143.3300 LP  0  0  0  0  0  0  0  0  0  0  0  0  # atno 17320 bound_to 7965
  144.8620  139.5164  143.6808 LP  0  0  0  0  0  0  0  0  0  0  0  0  # atno 17321 bound_to 7965
  140.6125  143.9410  150.6464 LP  0  0  0  0  0  0  0  0  0  0  0  0  # atno 17342 bound_to 10162
  140.2657  143.3492  152.1283 LP  0  0  0  0  0  0  0  0  0  0  0  0  # atno 17343 bound_to 10162
  157.7228  131.0670  150.6064 LP  0  0  0  0  0  0  0  0  0  0  0  0  # atno 17370 bound_to 10713
  156.6147  130.4389  149.5845 LP  0  0  0  0  0  0  0  0  0  0  0  0  # atno 17371 bound_to 10713
  140.6396  133.9830  155.7701 LP  0  0  0  0  0  0  0  0  0  0  0  0  # atno 17394 bound_to 11000
  141.0780  134.0106  157.3429 LP  0  0  0  0  0  0  0  0  0  0  0  0  # atno 17395 bound_to 11000

$$$$
