AV-unprocessed.smi:2542|AV-procd|sdf|9992|dock9
  -GOLD-   2272014 43D 1   1.00000     0.00000
 Structure written by MMmdl.
 42 43  0  0  0  0  0  0  0  0  2 V2000
  147.2255  141.6281  156.0897 C   0  0  0  0  0  0  0  0  0  0  0  0
  147.9053  141.3785  154.7270 C   0  0  0  0  0  0  0  0  0  0  0  0
  147.6144  142.6179  153.8458 C   0  0  0  0  0  0  0  0  0  0  0  0
  149.4392  141.2710  154.9459 C   0  0  0  0  0  0  0  0  0  0  0  0
  149.9196  142.1739  155.9900 N   0  0  0  0  0  0  0  0  0  0  0  0
  150.6693  141.8317  157.0505 C   0  0  0  0  0  0  0  0  0  0  0  0
  151.0988  140.6894  157.2162 O   0  0  0  0  0  0  0  0  0  0  0  0
  150.9681  142.9358  158.0882 C   0  0  0  0  0  0  0  0  0  0  0  0
  149.7391  143.4467  158.7312 C   0  0  0  0  0  0  0  0  0  0  0  0
  148.7768  143.8450  159.2373 N   0  0  0  0  0  0  0  0  0  0  0  0
  151.9471  142.4520  159.1744 C   0  0  0  0  0  0  0  0  0  0  0  0
  152.6022  143.7213  159.7304 C   0  0  0  0  0  0  0  0  0  0  0  0
  152.5008  144.7724  158.6173 C   0  0  0  0  0  0  0  0  0  0  0  0
  151.7564  144.0972  157.4587 C   0  0  0  0  0  0  0  0  0  0  0  0
  147.3619  140.0728  154.1109 C   0  0  0  0  0  0  0  0  0  0  0  0
  147.0015  139.9634  152.7424 C   0  0  0  0  0  0  0  0  0  0  0  0
  146.5366  138.7328  152.2358 C   0  0  0  0  0  0  0  0  0  0  0  0
  146.4345  137.6629  153.0513 N   0  3  0  0  0  0  0  0  0  0  0  0
  146.7608  137.7120  154.3593 C   0  0  0  0  0  0  0  0  0  0  0  0
  147.2315  138.9162  154.9199 C   0  0  0  0  0  0  0  0  0  0  0  0
  147.5739  142.5578  156.5416 H   0  0  0  0  0  0  0  0  0  0  0  0
  147.4306  140.8311  156.8045 H   0  0  0  0  0  0  0  0  0  0  0  0
  146.1425  141.7022  155.9839 H   0  0  0  0  0  0  0  0  0  0  0  0
  148.0146  143.5257  154.2989 H   0  0  0  0  0  0  0  0  0  0  0  0
  146.5433  142.7745  153.7128 H   0  0  0  0  0  0  0  0  0  0  0  0
  148.0641  142.5361  152.8560 H   0  0  0  0  0  0  0  0  0  0  0  0
  149.7284  140.2384  155.1493 H   0  0  0  0  0  0  0  0  0  0  0  0
  149.9678  141.5430  154.0319 H   0  0  0  0  0  0  0  0  0  0  0  0
  149.6201  143.1361  155.9228 H   0  0  0  0  0  0  0  0  0  0  0  0
  151.4483  141.8796  159.9575 H   0  0  0  0  0  0  0  0  0  0  0  0
  152.7249  141.8116  158.7554 H   0  0  0  0  0  0  0  0  0  0  0  0
  152.0622  144.0665  160.6129 H   0  0  0  0  0  0  0  0  0  0  0  0
  153.6350  143.5396  160.0297 H   0  0  0  0  0  0  0  0  0  0  0  0
  151.9396  145.6364  158.9754 H   0  0  0  0  0  0  0  0  0  0  0  0
  153.4822  145.1290  158.3028 H   0  0  0  0  0  0  0  0  0  0  0  0
  152.4848  143.7281  156.7343 H   0  0  0  0  0  0  0  0  0  0  0  0
  151.1086  144.8002  156.9331 H   0  0  0  0  0  0  0  0  0  0  0  0
  147.0758  140.7979  152.0623 H   0  0  0  0  0  0  0  0  0  0  0  0
  146.2475  138.5734  151.2072 H   0  0  0  0  0  0  0  0  0  0  0  0
  146.6396  136.7927  154.9133 H   0  0  0  0  0  0  0  0  0  0  0  0
  147.4963  138.9413  155.9665 H   0  0  0  0  0  0  0  0  0  0  0  0
  146.0981  136.7814  152.6628 H   0  0  0  0  0  0  0  0  0  0  0  0
  1  2  1  0  0  0  0
  1 21  1  0  0  0  0
  1 22  1  0  0  0  0
  1 23  1  0  0  0  0
  2  3  1  0  0  0  0
  2  4  1  0  0  0  0
  2 15  1  0  0  0  0
  3 24  1  0  0  0  0
  3 25  1  0  0  0  0
  3 26  1  0  0  0  0
  4  5  1  0  0  0  0
  4 27  1  0  0  0  0
  4 28  1  0  0  0  0
  5  6  1  0  0  0  0
  5 29  1  0  0  0  0
  6  7  2  0  0  0  0
  6  8  1  0  0  0  0
  8 14  1  0  0  0  0
  8  9  1  0  0  0  0
  8 11  1  0  0  0  0
  9 10  3  0  0  0  0
 11 12  1  0  0  0  0
 11 30  1  0  0  0  0
 11 31  1  0  0  0  0
 12 13  1  0  0  0  0
 12 32  1  0  0  0  0
 12 33  1  0  0  0  0
 13 14  1  0  0  0  0
 13 34  1  0  0  0  0
 13 35  1  0  0  0  0
 14 36  1  0  0  0  0
 14 37  1  0  0  0  0
 15 20  1  0  0  0  0
 15 16  2  0  0  0  0
 16 17  1  0  0  0  0
 16 38  1  0  0  0  0
 17 18  2  0  0  0  0
 17 39  1  0  0  0  0
 18 19  1  0  0  0  0
 18 42  1  0  0  0  0
 19 20  2  0  0  0  0
 19 40  1  0  0  0  0
 20 41  1  0  0  0  0
M  CHG  1  18   1
M  END
> <s_m_source_file>
AV-unprocessed.smi

> <i_m_source_file_index>
2542

> <i_lp_mmshare_version>
43012

> <i_f3d_flags>
0

> <s_epik_input>
W2NIXTFbY0hdbltjSF1bY0hdYzFDKFtDSDNdKShbQ0gzXSlbQ0gyXVtOSF1DKD1PKUMyKEMjTilbQ0gyXVtDSDJdW0NIMl1bQ0gyXTI=

> <s_epik_cmdline>
J2VwaWtfcHl0aG9uJywgJy1waCcsICc3LjAnLCAnLXRuJywgJzgnLCAnLW1hJywgJzIwMCcsICctbWV0YWxfYmluZGluZycsICctaW1hZScsICc8aW5maWxlLm1hZT4nLCAnLW9tYWUnLCAnPG91dGZpbGUubWFlPic=

> <r_epik_Ionization_Penalty>
1.51272

> <r_epik_Ionization_Penalty_Charging>
1.51272

> <r_epik_Ionization_Penalty_Neutral>
6.26824e-07

> <r_epik_State_Penalty>
1.60388

> <r_epik_Charging_Adjusted_Penalty>
3.1166

> <i_epik_Tot_Q>
1

> <i_epik_Tot_abs_Q>
1

> <r_epik_Metal_State_Penalty>
1.64935

> <b_epik_Metal_Only>
0

> <s_lp_Force_Field>
OPLS_2005

> <r_lp_Energy>
37.2322

> <b_lp_Chiralities_Consistent>
1

> <s_lp_Variant>
AV-unprocessed.smi:2542-2

> <Gold.Version>
5.8.1

> <Gold.Id.Protein>
6NUR|6NUR_protein|mol2

> <Gold.PLP.Fitness>
42.0466

> <Gold.PLP.PLP>
-40.5400

> <Gold.PLP.part.hbond>
-3.0000

> <Gold.PLP.part.metal>
0.0000

> <Gold.PLP.part.buried>
-1.8693

> <Gold.PLP.part.nonpolar>
-36.5784

> <Gold.PLP.part.repulsive>
0.3074

> <Gold.PLP.ligand.clash>
0.0000

> <Gold.PLP.ligand.torsion>
1.0353

> <Gold.PLP.Chemscore.Hbond>
1.1685

> <Gold.PLP.Chemscore.CHOScore>
0.0000

> <Gold.PLP.Chemscore.Metal>
0.0000

> <Gold.Chemscore.Hbonds>
donor molecule, donor type, donor heavy atom, donor atom, acceptor molecule, acceptor atom, score
      L1  H     5    29       P1  8028  1.00

> <Gold.PLP.Chemscore.Internal.Correction>
0.0718

> <Gold.Rescore>
     Score         DG    S(hbond)    S(metal)    S(lipo)     H(rot)  DE(clash)    DE(int)     intcor
     16.91     -19.19       1.30        0.00     114.21       1.56       1.54       0.75       ----

> <Gold.Chemscore.Fitness>
16.9068

> <Gold.Chemscore.DG>
-19.1936

> <Gold.Chemscore.ZeroCoef>
-5.4800

> <Gold.Chemscore.Hbond>
1.3045

> <Gold.Chemscore.Metal>
0.0000

> <Gold.Chemscore.Lipo>
114.2123

> <Gold.Chemscore.Internal_Hbond>
0.0000

> <Gold.Chemscore.DEClash>
1.5417

> <Gold.Chemscore.DEInternal>
0.7452

> <Gold.Chemscore.Rot>
1.5649

> <Gold.Chemscore.Internal.Correction>
   9.000000E+99

> <Gold.Chemscore.Hbonds>
donor molecule, donor type, donor heavy atom, donor atom, acceptor molecule, acceptor atom, score
      L1  H     5    29       P1  8028  1.00

> <Gold.Chemscore.Hbond.Weighted>
-4.3569

> <Gold.Chemscore.Metal.Weighted>
-0.0000

> <Gold.Chemscore.Lipo.Weighted>
-13.3628

> <Gold.Chemscore.Internal_Hbond.Weighted>
0.0000

> <Gold.Chemscore.DEClash.Weighted>
1.5417

> <Gold.Chemscore.DEInternal.Weighted>
0.7452

> <Gold.Chemscore.Rot.Weighted>
4.0061

> <Gold.Chemscore.Internal.Correction.Weighted>
   9.000000E+99

> <Gold.Protein.RotatedTorsions>
[ 6907 6896 6895 6894 ] final   36.49 input  -60.11 | X-H torsion
[ 7974 7965 7964 7962 ] final    3.35 input  175.53 | X-H torsion
[ 8008 7997 7996 7995 ] final  105.99 input   59.86 | X-H torsion
[ 10167 10162 10161 10158 ] final   45.48 input  -65.29 | X-H torsion
[ 10718 10713 10712 10709 ] final  160.37 input   66.30 | X-H torsion
[ 10763 10752 10751 10750 ] final -100.08 input  -60.55 | X-H torsion
[ 11005 11000 10999 10996 ] final  135.81 input  -57.11 | X-H torsion

> <Gold.Protein.ActiveResidues>
 VAL166  LYS551  ARG553  GLY616  TRP617  ASP618  TYR619  PRO620  LYS621  CYS622 
 ASP623  PHE694  ASN695  SER759  ASP760  ASP761  ALA762  ILE779  LEU786  VAL792 
 PHE793  MET794  SER795  GLU796  ALA797  LYS798  CYS799  TRP800  GLU811  SER814 

> <Gold.Protein.RotatedAtoms>
  152.1305  134.9138  160.0558 H   0  0  0  0  0  0  0  0  0  0  0  0  # atno 6907 bound_to 6896
  152.0245  133.3907  159.4280 H   0  0  0  0  0  0  0  0  0  0  0  0  # atno 6908 bound_to 6896
  150.6856  134.3511  159.4953 H   0  0  0  0  0  0  0  0  0  0  0  0  # atno 6909 bound_to 6896
  146.2445  140.0698  142.8363 H   0  0  0  0  0  0  0  0  0  0  0  0  # atno 7974 bound_to 7965
  156.1705  140.3121  155.8966 H   0  0  0  0  0  0  0  0  0  0  0  0  # atno 8008 bound_to 7997
  155.3596  140.0475  157.3063 H   0  0  0  0  0  0  0  0  0  0  0  0  # atno 8009 bound_to 7997
  154.5236  140.2207  155.8940 H   0  0  0  0  0  0  0  0  0  0  0  0  # atno 8010 bound_to 7997
  140.3237  144.2674  150.6178 H   0  0  0  0  0  0  0  0  0  0  0  0  # atno 10167 bound_to 10162
  157.1514  131.0565  151.2278 H   0  0  0  0  0  0  0  0  0  0  0  0  # atno 10718 bound_to 10713
  154.7550  135.4948  153.9358 H   0  0  0  0  0  0  0  0  0  0  0  0  # atno 10763 bound_to 10752
  153.1186  135.6726  153.9383 H   0  0  0  0  0  0  0  0  0  0  0  0  # atno 10764 bound_to 10752
  153.9122  135.3097  155.3427 H   0  0  0  0  0  0  0  0  0  0  0  0  # atno 10765 bound_to 10752
  140.0004  134.9480  157.0059 H   0  0  0  0  0  0  0  0  0  0  0  0  # atno 11005 bound_to 11000
  145.0826  140.9231  143.4816 LP  0  0  0  0  0  0  0  0  0  0  0  0  # atno 17320 bound_to 7965
  145.0854  139.2929  143.5762 LP  0  0  0  0  0  0  0  0  0  0  0  0  # atno 17321 bound_to 7965
  140.5460  143.2214  151.8006 LP  0  0  0  0  0  0  0  0  0  0  0  0  # atno 17342 bound_to 10162
  139.4869  144.4538  151.9622 LP  0  0  0  0  0  0  0  0  0  0  0  0  # atno 17343 bound_to 10162
  157.4217  130.7441  149.6918 LP  0  0  0  0  0  0  0  0  0  0  0  0  # atno 17370 bound_to 10713
  155.9770  130.4069  150.3742 LP  0  0  0  0  0  0  0  0  0  0  0  0  # atno 17371 bound_to 10713
  140.4738  134.1359  155.7207 LP  0  0  0  0  0  0  0  0  0  0  0  0  # atno 17394 bound_to 11000
  141.1637  133.8743  157.1774 LP  0  0  0  0  0  0  0  0  0  0  0  0  # atno 17395 bound_to 11000

$$$$
