#       Name:                AV-unprocessed.smi:2015
#       Creating user name   scv26
#       Creation time:       Fri Mar 27 10:41:14 2020


#       File generated by GOLD software.
#

@<TRIPOS>MOLECULE
AV-unprocessed.smi:2015
    55    56     1
SMALL
NO_CHARGES


@<TRIPOS>ATOM
      1 ****        -8.3326  -0.2729  -3.2509 C.3            1 S1                 0.0000
      2 ****        -6.9424  -0.0050  -3.2040 O.3            1 S1                 0.0000
      3 ****        -6.6160   1.0178  -2.2774 C.3            1 S1                 0.0000
      4 ****        -5.0963   1.2259  -2.2633 C.3            1 S1                 0.0000
      5 ****        -4.3351   0.0018  -1.7214 C.3            1 S1                 0.0000
      6 ****        -2.8222   0.2267  -1.6406 C.2            1 S1                 0.0000
      7 ****        -2.2441   0.8202  -2.5503 O.2            1 S1                 0.0000
      8 ****        -2.2191  -0.2841  -0.5510 N.am           1 S1                 0.0000
      9 ****        -0.8482  -0.2412  -0.1750 C.ar           1 S1                 0.0000
     10 ****         0.1211   0.6161  -0.7468 C.ar           1 S1                 0.0000
     11 ****         1.4444   0.5661  -0.2681 C.ar           1 S1                 0.0000
     12 ****         1.7716  -0.3307   0.7760 C.ar           1 S1                 0.0000
     13 ****         3.0923  -0.3950   1.2708 N.3            1 S1                 0.0000
     14 ****         3.6813   0.8766   1.6787 C.3            1 S1                 0.0000
     15 ****         5.2063   0.7357   1.8343 C.3            1 S1                 0.0000
     16 ****         5.8450   2.0134   2.3893 C.3            1 S1                 0.0000
     17 ****         5.4997  -0.3310   2.7357 O.3            1 S1                 0.0000
     18 ****         4.9660  -1.6007   2.3534 C.3            1 S1                 0.0000
     19 ****         5.6991  -2.1985   1.1393 C.3            1 S1                 0.0000
     20 ****         3.4399  -1.5009   2.1609 C.3            1 S1                 0.0000
     21 ****         0.8393  -1.1483   1.3236 N.ar           1 S1                 0.0000
     22 ****        -0.4275  -1.0969   0.8625 C.ar           1 S1                 0.0000
     23 ****        -8.5306  -1.0530  -3.9860 H              1 S1                 0.0000
     24 ****        -8.8970   0.6144  -3.5411 H              1 S1                 0.0000
     25 ****        -8.6986  -0.6206  -2.2841 H              1 S1                 0.0000
     26 ****        -7.1116   1.9457  -2.5670 H              1 S1                 0.0000
     27 ****        -6.9704   0.7564  -1.2789 H              1 S1                 0.0000
     28 ****        -4.7592   1.4672  -3.2724 H              1 S1                 0.0000
     29 ****        -4.8665   2.0957  -1.6462 H              1 S1                 0.0000
     30 ****        -4.7183  -0.2558  -0.7329 H              1 S1                 0.0000
     31 ****        -4.5161  -0.8634  -2.3600 H              1 S1                 0.0000
     32 ****        -2.8179  -0.8028   0.0752 H              1 S1                 0.0000
     33 ****        -0.1160   1.3155  -1.5324 H              1 S1                 0.0000
     34 ****         2.1911   1.2065  -0.7135 H              1 S1                 0.0000
     35 ****         3.4685   1.6694   0.9632 H              1 S1                 0.0000
     36 ****         3.2336   1.1793   2.6262 H              1 S1                 0.0000
     37 ****         5.6555   0.5305   0.8624 H              1 S1                 0.0000
     38 ****         5.6638   2.8614   1.7285 H              1 S1                 0.0000
     39 ****         6.9241   1.8965   2.4914 H              1 S1                 0.0000
     40 ****         5.4426   2.2618   3.3719 H              1 S1                 0.0000
     41 ****         5.1498  -2.2722   3.1925 H              1 S1                 0.0000
     42 ****         5.3687  -3.2208   0.9550 H              1 S1                 0.0000
     43 ****         6.7754  -2.2260   1.3100 H              1 S1                 0.0000
     44 ****         5.5184  -1.6321   0.2261 H              1 S1                 0.0000
     45 ****         2.9595  -1.3360   3.1264 H              1 S1                 0.0000
     46 ****         3.0586  -2.4447   1.7688 H              1 S1                 0.0000
     47 ****        -1.1287  -1.7662   1.3394 H              1 S1                 0.0000
     48 ****        -6.6398   0.2785  -4.1139 LP             1 S1                 0.0000
     49 ****        -6.4635  -0.8420  -2.9392 LP             1 S1                 0.0000
     50 ****        -2.7619   1.1534  -3.3382 LP             1 S1                 0.0000
     51 ****        -1.2565   0.9692  -2.5017 LP             1 S1                 0.0000
     52 ****         3.5563  -0.6477   0.4218 LP             1 S1                 0.0000
     53 ****         5.1255  -0.0931   3.6321 LP             1 S1                 0.0000
     54 ****         6.4937  -0.4182   2.8020 LP             1 S1                 0.0000
     55 ****         1.0868  -1.7800   2.0583 LP             1 S1                 0.0000
@<TRIPOS>BOND
    1    1    2 1     
    2    1   23 1     
    3    1   24 1     
    4    1   25 1     
    5    2    3 1     
    6    3    4 1     
    7    3   26 1     
    8    3   27 1     
    9    4    5 1     
   10    4   28 1     
   11    4   29 1     
   12    5    6 1     
   13    5   30 1     
   14    5   31 1     
   15    6    7 2     
   16    6    8 am    
   17    8    9 1     
   18    8   32 1     
   19    9   22 ar    
   20    9   10 ar    
   21   10   11 ar    
   22   10   33 1     
   23   11   12 ar    
   24   11   34 1     
   25   12   13 1     
   26   12   21 ar    
   27   13   20 1     
   28   13   14 1     
   29   14   15 1     
   30   14   35 1     
   31   14   36 1     
   32   15   16 1     
   33   15   17 1     
   34   15   37 1     
   35   16   38 1     
   36   16   39 1     
   37   16   40 1     
   38   17   18 1     
   39   18   19 1     
   40   18   20 1     
   41   18   41 1     
   42   19   42 1     
   43   19   43 1     
   44   19   44 1     
   45   20   45 1     
   46   20   46 1     
   47   21   22 ar    
   48   22   47 1     
   49    2   48 1     
   50    2   49 1     
   51    7   50 1     
   52    7   51 1     
   53   13   52 1     
   54   17   53 1     
   55   17   54 1     
   56   21   55 1     
@<TRIPOS>SUBSTRUCTURE
      1 S1             1
@<TRIPOS>SET
LONE_PAIRS      STATIC     ATOMS    <user>   **** ""
8 48 49 50 51 52 53 54 55
DONOR_HYDROGENS      STATIC     ATOMS    <user>   **** ""
1 32
ATOM$BLUE        STATIC     ATOMS    COLORGROUP SYSTEM
8 48 49 50 51 52 53 54 55
ATOM$RED        STATIC     ATOMS    COLORGROUP SYSTEM
1 32
