AV-unprocessed.smi:2840|AV-procd|sdf|10932|dock7
  -GOLD-   2272015383D 1   1.00000     0.00000
 Structure written by MMmdl.
 36 37  0  0  0  0  0  0  0  0  1 V2000
  145.3001  143.5008  155.3899 C   0  0  0  0  0  0  0  0  0  0  0  0
  145.8475  142.1234  154.9785 C   0  0  1  0  0  0  0  0  0  0  0  0
  146.6053  142.1922  153.6364 C   0  0  0  0  0  0  0  0  0  0  0  0
  147.0954  140.8046  153.1932 C   0  0  0  0  0  0  0  0  0  0  0  0
  147.9648  140.1469  154.2749 C   0  0  0  0  0  0  0  0  0  0  0  0
  147.2208  140.0745  155.6198 C   0  0  0  0  0  0  0  0  0  0  0  0
  146.7102  141.4551  156.0802 C   0  0  1  0  0  0  0  0  0  0  0  0
  147.8440  142.2951  156.4735 N   0  0  0  0  0  0  0  0  0  0  0  0
  148.7601  142.0012  157.4086 C   0  0  0  0  0  0  0  0  0  0  0  0
  148.7372  140.9746  158.0880 O   0  0  0  0  0  0  0  0  0  0  0  0
  149.6882  142.9702  157.4957 N   0  0  0  0  0  0  0  0  0  0  0  0
  150.8318  143.0188  158.3369 C   0  0  0  0  0  0  0  0  0  0  0  0
  151.6266  144.1794  158.1995 C   0  0  0  0  0  0  0  0  0  0  0  0
  152.7876  144.3216  158.9842 C   0  0  0  0  0  0  0  0  0  0  0  0
  153.1234  143.2988  159.8888 C   0  0  0  0  0  0  0  0  0  0  0  0
  152.2767  142.1777  159.9661 C   0  0  0  0  0  0  0  0  0  0  0  0
  151.1643  142.0389  159.2143 N   0  0  0  0  0  0  0  0  0  0  0  0
  146.0973  144.2360  155.5005 H   0  0  0  0  0  0  0  0  0  0  0  0
  144.7656  143.4421  156.3385 H   0  0  0  0  0  0  0  0  0  0  0  0
  144.6032  143.8825  154.6434 H   0  0  0  0  0  0  0  0  0  0  0  0
  144.9800  141.4801  154.8232 H   0  0  0  0  0  0  0  0  0  0  0  0
  145.9577  142.6105  152.8650 H   0  0  0  0  0  0  0  0  0  0  0  0
  147.4557  142.8698  153.7225 H   0  0  0  0  0  0  0  0  0  0  0  0
  146.2375  140.1666  152.9771 H   0  0  0  0  0  0  0  0  0  0  0  0
  147.6595  140.8892  152.2640 H   0  0  0  0  0  0  0  0  0  0  0  0
  148.2546  139.1448  153.9579 H   0  0  0  0  0  0  0  0  0  0  0  0
  148.8909  140.7105  154.3930 H   0  0  0  0  0  0  0  0  0  0  0  0
  146.3730  139.3957  155.5191 H   0  0  0  0  0  0  0  0  0  0  0  0
  147.8678  139.6374  156.3815 H   0  0  0  0  0  0  0  0  0  0  0  0
  146.0732  141.2856  156.9499 H   0  0  0  0  0  0  0  0  0  0  0  0
  147.9451  143.1678  155.9765 H   0  0  0  0  0  0  0  0  0  0  0  0
  149.5744  143.7564  156.8734 H   0  0  0  0  0  0  0  0  0  0  0  0
  151.3542  144.9555  157.4990 H   0  0  0  0  0  0  0  0  0  0  0  0
  153.4095  145.1999  158.8922 H   0  0  0  0  0  0  0  0  0  0  0  0
  154.0057  143.3714  160.5072 H   0  0  0  0  0  0  0  0  0  0  0  0
  152.4986  141.3706  160.6486 H   0  0  0  0  0  0  0  0  0  0  0  0
  1  2  1  0  0  0  0
  1 18  1  0  0  0  0
  1 19  1  0  0  0  0
  1 20  1  0  0  0  0
  2  7  1  0  0  0  0
  2  3  1  0  0  0  0
  2 21  1  0  0  0  0
  3  4  1  0  0  0  0
  3 22  1  0  0  0  0
  3 23  1  0  0  0  0
  4  5  1  0  0  0  0
  4 24  1  0  0  0  0
  4 25  1  0  0  0  0
  5  6  1  0  0  0  0
  5 26  1  0  0  0  0
  5 27  1  0  0  0  0
  6  7  1  0  0  0  0
  6 28  1  0  0  0  0
  6 29  1  0  0  0  0
  7  8  1  0  0  0  0
  7 30  1  0  0  0  0
  8  9  1  0  0  0  0
  8 31  1  0  0  0  0
  9 10  2  0  0  0  0
  9 11  1  0  0  0  0
 11 12  1  0  0  0  0
 11 32  1  0  0  0  0
 12 17  1  0  0  0  0
 12 13  2  0  0  0  0
 13 14  1  0  0  0  0
 13 33  1  0  0  0  0
 14 15  2  0  0  0  0
 14 34  1  0  0  0  0
 15 16  1  0  0  0  0
 15 35  1  0  0  0  0
 16 17  2  0  0  0  0
 16 36  1  0  0  0  0
M  END
> <s_m_source_file>
AV-unprocessed.smi

> <i_m_source_file_index>
2840

> <i_lp_mmshare_version>
43012

> <i_f3d_flags>
0

> <s_epik_input>
W0NIM11bQ0BASF0xW0NIMl1bQ0gyXVtDSDJdW0NIMl1bQ0BIXTFbTkhdQyg9TylbTkhdYzJbY0hdW2NIXVtjSF1bY0hdbjI=

> <s_epik_cmdline>
J2VwaWtfcHl0aG9uJywgJy1waCcsICc3LjAnLCAnLXRuJywgJzgnLCAnLW1hJywgJzIwMCcsICctbWV0YWxfYmluZGluZycsICctaW1hZScsICc8aW5maWxlLm1hZT4nLCAnLW9tYWUnLCAnPG91dGZpbGUubWFlPic=

> <r_lp_tautomer_probability>
1

> <r_epik_Ionization_Penalty>
5.29956e-05

> <r_epik_Ionization_Penalty_Charging>
0

> <r_epik_Ionization_Penalty_Neutral>
5.29956e-05

> <r_epik_State_Penalty>
-0

> <r_epik_Charging_Adjusted_Penalty>
0

> <i_epik_Tot_Q>
0

> <i_epik_Tot_abs_Q>
0

> <r_epik_Metal_State_Penalty>
-0

> <b_epik_Metal_Only>
0

> <s_lp_Force_Field>
OPLS_2005

> <r_lp_Energy>
11.7155

> <b_lp_Chiralities_Consistent>
1

> <s_lp_Variant>
AV-unprocessed.smi:2840-2

> <Gold.Version>
5.8.1

> <Gold.Id.Protein>
6NUR|6NUR_protein|mol2

> <Gold.PLP.Fitness>
40.0514

> <Gold.PLP.PLP>
-34.0535

> <Gold.PLP.part.hbond>
-2.3607

> <Gold.PLP.part.metal>
0.0000

> <Gold.PLP.part.buried>
-4.9870

> <Gold.PLP.part.nonpolar>
-26.0291

> <Gold.PLP.part.repulsive>
0.0588

> <Gold.PLP.ligand.clash>
0.0000

> <Gold.PLP.ligand.torsion>
0.0045

> <Gold.PLP.Chemscore.Hbond>
2.0000

> <Gold.PLP.Chemscore.CHOScore>
0.0000

> <Gold.PLP.Chemscore.Metal>
0.0000

> <Gold.Chemscore.Hbonds>
donor molecule, donor type, donor heavy atom, donor atom, acceptor molecule, acceptor atom, score
      L1  H     8    31       P1  8028  1.00
      L1  H    11    32       P1  8028  1.00

> <Gold.PLP.Chemscore.Internal.Correction>
0.0069

> <Gold.Rescore>
     Score         DG    S(hbond)    S(metal)    S(lipo)     H(rot)  DE(clash)    DE(int)     intcor
     17.29     -18.73       1.78        0.00      84.22       1.00       0.12       1.32       ----

> <Gold.Chemscore.Fitness>
17.2929

> <Gold.Chemscore.DG>
-18.7336

> <Gold.Chemscore.ZeroCoef>
-5.4800

> <Gold.Chemscore.Hbond>
1.7843

> <Gold.Chemscore.Metal>
0.0000

> <Gold.Chemscore.Lipo>
84.2210

> <Gold.Chemscore.Internal_Hbond>
0.0000

> <Gold.Chemscore.DEClash>
0.1169

> <Gold.Chemscore.DEInternal>
1.3237

> <Gold.Chemscore.Rot>
1.0000

> <Gold.Chemscore.Internal.Correction>
   9.000000E+99

> <Gold.Chemscore.Hbonds>
donor molecule, donor type, donor heavy atom, donor atom, acceptor molecule, acceptor atom, score
      L1  H     8    31       P1  8028  0.38
      L1  H    11    32       P1  8028  0.94

> <Gold.Chemscore.Hbond.Weighted>
-5.9597

> <Gold.Chemscore.Metal.Weighted>
-0.0000

> <Gold.Chemscore.Lipo.Weighted>
-9.8539

> <Gold.Chemscore.Internal_Hbond.Weighted>
0.0000

> <Gold.Chemscore.DEClash.Weighted>
0.1169

> <Gold.Chemscore.DEInternal.Weighted>
1.3237

> <Gold.Chemscore.Rot.Weighted>
2.5600

> <Gold.Chemscore.Internal.Correction.Weighted>
   9.000000E+99

> <Gold.Protein.RotatedTorsions>
[ 6907 6896 6895 6894 ] final   25.95 input  -60.11 | X-H torsion
[ 7974 7965 7964 7962 ] final  -11.96 input  175.53 | X-H torsion
[ 8008 7997 7996 7995 ] final -127.77 input   59.86 | X-H torsion
[ 10167 10162 10161 10158 ] final  -12.45 input  -65.29 | X-H torsion
[ 10718 10713 10712 10709 ] final  174.89 input   66.30 | X-H torsion
[ 10763 10752 10751 10750 ] final  116.99 input  -60.55 | X-H torsion
[ 11005 11000 10999 10996 ] final  -95.80 input  -57.11 | X-H torsion

> <Gold.Protein.ActiveResidues>
 VAL166  LYS551  ARG553  GLY616  TRP617  ASP618  TYR619  PRO620  LYS621  CYS622 
 ASP623  PHE694  ASN695  SER759  ASP760  ASP761  ALA762  ILE779  LEU786  VAL792 
 PHE793  MET794  SER795  GLU796  ALA797  LYS798  CYS799  TRP800  GLU811  SER814 

> <Gold.Protein.RotatedAtoms>
  151.9802  135.0032  160.0556 H   0  0  0  0  0  0  0  0  0  0  0  0  # atno 6907 bound_to 6896
  152.1703  133.4634  159.4914 H   0  0  0  0  0  0  0  0  0  0  0  0  # atno 6908 bound_to 6896
  150.6900  134.1879  159.4317 H   0  0  0  0  0  0  0  0  0  0  0  0  # atno 6909 bound_to 6896
  146.2169  140.2988  142.8373 H   0  0  0  0  0  0  0  0  0  0  0  0  # atno 7974 bound_to 7965
  155.2517  140.0432  157.2987 H   0  0  0  0  0  0  0  0  0  0  0  0  # atno 8008 bound_to 7997
  154.5765  140.2388  155.8085 H   0  0  0  0  0  0  0  0  0  0  0  0  # atno 8009 bound_to 7997
  156.2161  140.2984  155.9852 H   0  0  0  0  0  0  0  0  0  0  0  0  # atno 8010 bound_to 7997
  140.7161  143.5531  150.9278 H   0  0  0  0  0  0  0  0  0  0  0  0  # atno 10167 bound_to 10162
  156.9429  131.0007  151.2964 H   0  0  0  0  0  0  0  0  0  0  0  0  # atno 10718 bound_to 10713
  153.5456  135.3550  155.2737 H   0  0  0  0  0  0  0  0  0  0  0  0  # atno 10763 bound_to 10752
  154.8712  135.4101  154.2994 H   0  0  0  0  0  0  0  0  0  0  0  0  # atno 10764 bound_to 10752
  153.3710  135.7064  153.6706 H   0  0  0  0  0  0  0  0  0  0  0  0  # atno 10765 bound_to 10752
  141.1431  133.8052  157.0485 H   0  0  0  0  0  0  0  0  0  0  0  0  # atno 11005 bound_to 11000
  144.9072  140.7714  143.5830 LP  0  0  0  0  0  0  0  0  0  0  0  0  # atno 17320 bound_to 7965
  145.2917  139.1881  143.4737 LP  0  0  0  0  0  0  0  0  0  0  0  0  # atno 17321 bound_to 7965
  139.9256  143.6554  152.3087 LP  0  0  0  0  0  0  0  0  0  0  0  0  # atno 17342 bound_to 10162
  139.6986  144.7638  151.1312 LP  0  0  0  0  0  0  0  0  0  0  0  0  # atno 17343 bound_to 10162
  157.5773  130.8352  149.8473 LP  0  0  0  0  0  0  0  0  0  0  0  0  # atno 17370 bound_to 10713
  156.0396  130.3742  150.1469 LP  0  0  0  0  0  0  0  0  0  0  0  0  # atno 17371 bound_to 10713
  140.0647  134.9735  157.1365 LP  0  0  0  0  0  0  0  0  0  0  0  0  # atno 17394 bound_to 11000
  140.3797  134.2300  155.7172 LP  0  0  0  0  0  0  0  0  0  0  0  0  # atno 17395 bound_to 11000

$$$$
