AV-unprocessed.smi:1085|AV-procd|sdf|4720|dock3
  -GOLD-   22720 3243D 1   1.00000     0.00000
 Structure written by MMmdl.
 33 34  0  0  0  0  0  0  0  0  1 V2000
  150.6668  140.9233  158.1040 O   0  0  0  0  0  0  0  0  0  0  0  0
  150.3238  142.0012  157.6197 C   0  0  0  0  0  0  0  0  0  0  0  0
  151.2292  143.2256  157.7536 C   0  0  0  0  0  0  0  0  0  0  0  0
  151.5032  143.5112  159.1503 N   0  0  0  0  0  0  0  0  0  0  0  0
  152.6529  143.5567  159.8267 C   0  0  0  0  0  0  0  0  0  0  0  0
  152.4611  143.8889  161.0943 N   0  0  0  0  0  0  0  0  0  0  0  0
  151.0879  144.0525  161.1729 N   0  0  0  0  0  0  0  0  0  0  0  0
  150.5142  143.8298  160.0227 N   0  0  0  0  0  0  0  0  0  0  0  0
  149.1792  142.1808  156.9425 N   0  0  0  0  0  0  0  0  0  0  0  0
  148.2171  141.1380  156.5956 C   0  0  2  0  0  0  0  0  0  0  0  0
  148.6003  140.4440  155.2715 C   0  0  0  0  0  0  0  0  0  0  0  0
  148.4425  141.3836  154.0645 C   0  0  0  0  0  0  0  0  0  0  0  0
  147.0186  141.9571  153.9898 C   0  0  0  0  0  0  0  0  0  0  0  0
  146.6233  142.6818  155.2942 C   0  0  1  0  0  0  0  0  0  0  0  0
  145.1973  143.2655  155.2214 C   0  0  0  0  0  0  0  0  0  0  0  0
  144.2846  142.2935  155.2379 F   0  0  0  0  0  0  0  0  0  0  0  0
  144.9830  144.0754  156.2584 F   0  0  0  0  0  0  0  0  0  0  0  0
  145.0506  143.9756  154.1028 F   0  0  0  0  0  0  0  0  0  0  0  0
  146.7992  141.7363  156.5060 C   0  0  0  0  0  0  0  0  0  0  0  0
  152.1678  143.0565  157.2236 H   0  0  0  0  0  0  0  0  0  0  0  0
  150.7531  144.0980  157.3039 H   0  0  0  0  0  0  0  0  0  0  0  0
  153.6214  143.3573  159.3922 H   0  0  0  0  0  0  0  0  0  0  0  0
  148.9852  143.1073  156.5901 H   0  0  0  0  0  0  0  0  0  0  0  0
  148.2200  140.3952  157.3955 H   0  0  0  0  0  0  0  0  0  0  0  0
  149.6215  140.0639  155.3172 H   0  0  0  0  0  0  0  0  0  0  0  0
  147.9620  139.5711  155.1285 H   0  0  0  0  0  0  0  0  0  0  0  0
  149.1650  142.1985  154.1314 H   0  0  0  0  0  0  0  0  0  0  0  0
  148.6732  140.8454  153.1449 H   0  0  0  0  0  0  0  0  0  0  0  0
  146.9503  142.6421  153.1444 H   0  0  0  0  0  0  0  0  0  0  0  0
  146.3139  141.1492  153.7882 H   0  0  0  0  0  0  0  0  0  0  0  0
  147.3064  143.5231  155.4226 H   0  0  0  0  0  0  0  0  0  0  0  0
  146.0775  140.9216  156.4338 H   0  0  0  0  0  0  0  0  0  0  0  0
  146.5647  142.2628  157.4320 H   0  0  0  0  0  0  0  0  0  0  0  0
  1  2  2  0  0  0  0
  2  3  1  0  0  0  0
  2  9  1  0  0  0  0
  3  4  1  0  0  0  0
  3 20  1  0  0  0  0
  3 21  1  0  0  0  0
  4  8  1  0  0  0  0
  4  5  1  0  0  0  0
  5  6  2  0  0  0  0
  5 22  1  0  0  0  0
  6  7  1  0  0  0  0
  7  8  2  0  0  0  0
  9 10  1  0  0  0  0
  9 23  1  0  0  0  0
 10 19  1  0  0  0  0
 10 11  1  0  0  0  0
 10 24  1  0  0  0  0
 11 12  1  0  0  0  0
 11 25  1  0  0  0  0
 11 26  1  0  0  0  0
 12 13  1  0  0  0  0
 12 27  1  0  0  0  0
 12 28  1  0  0  0  0
 13 14  1  0  0  0  0
 13 29  1  0  0  0  0
 13 30  1  0  0  0  0
 14 15  1  0  0  0  0
 14 19  1  0  0  0  0
 14 31  1  0  0  0  0
 15 16  1  0  0  0  0
 15 17  1  0  0  0  0
 15 18  1  0  0  0  0
 19 32  1  0  0  0  0
 19 33  1  0  0  0  0
M  END
> <s_m_source_file>
AV-unprocessed.smi

> <i_m_source_file_index>
1085

> <i_lp_mmshare_version>
43012

> <i_f3d_flags>
0

> <s_epik_input>
bjFubltjSF1uMVtDSDJdQyg9TylbTkhdW0NAQEhdMltDSDJdW0NIMl1bQ0gyXVtDQEBIXShDKEYpKEYpRilbQ0gyXTI=

> <s_epik_cmdline>
J2VwaWtfcHl0aG9uJywgJy1waCcsICc3LjAnLCAnLXRuJywgJzgnLCAnLW1hJywgJzIwMCcsICctbWV0YWxfYmluZGluZycsICctaW1hZScsICc8aW5maWxlLm1hZT4nLCAnLW9tYWUnLCAnPG91dGZpbGUubWFlPic=

> <r_lp_tautomer_probability>
1

> <r_epik_Ionization_Penalty>
8.41315e-07

> <r_epik_Ionization_Penalty_Charging>
0

> <r_epik_Ionization_Penalty_Neutral>
8.41315e-07

> <r_epik_State_Penalty>
-0

> <r_epik_Charging_Adjusted_Penalty>
0

> <i_epik_Tot_Q>
0

> <i_epik_Tot_abs_Q>
0

> <r_epik_Metal_State_Penalty>
-0

> <b_epik_Metal_Only>
0

> <s_lp_Force_Field>
OPLS_2005

> <r_lp_Energy>
11.1057

> <b_lp_Chiralities_Consistent>
1

> <s_lp_Variant>
AV-unprocessed.smi:1085-1

> <Gold.Version>
5.8.1

> <Gold.Id.Protein>
6NUR|6NUR_protein|mol2

> <Gold.PLP.Fitness>
34.6060

> <Gold.PLP.PLP>
-32.5456

> <Gold.PLP.part.hbond>
-2.4751

> <Gold.PLP.part.metal>
0.0000

> <Gold.PLP.part.buried>
-4.6500

> <Gold.PLP.part.nonpolar>
-25.8722

> <Gold.PLP.part.repulsive>
0.3973

> <Gold.PLP.ligand.clash>
0.0000

> <Gold.PLP.ligand.torsion>
0.4875

> <Gold.PLP.Chemscore.Hbond>
1.0000

> <Gold.PLP.Chemscore.CHOScore>
0.0000

> <Gold.PLP.Chemscore.Metal>
0.0000

> <Gold.Chemscore.Hbonds>
donor molecule, donor type, donor heavy atom, donor atom, acceptor molecule, acceptor atom, score
      L1  H     9    23       P1  8028  1.00

> <Gold.PLP.Chemscore.Internal.Correction>
0.0354

> <Gold.Rescore>
     Score         DG    S(hbond)    S(metal)    S(lipo)     H(rot)  DE(clash)    DE(int)     intcor
      8.07      -8.61       0.99        0.00      43.29       2.05       0.04       0.50       ----

> <Gold.Chemscore.Fitness>
8.0657

> <Gold.Chemscore.DG>
-8.6076

> <Gold.Chemscore.ZeroCoef>
-5.4800

> <Gold.Chemscore.Hbond>
0.9880

> <Gold.Chemscore.Metal>
0.0000

> <Gold.Chemscore.Lipo>
43.2859

> <Gold.Chemscore.Internal_Hbond>
0.0000

> <Gold.Chemscore.DEClash>
0.0387

> <Gold.Chemscore.DEInternal>
0.5032

> <Gold.Chemscore.Rot>
2.0456

> <Gold.Chemscore.Internal.Correction>
   9.000000E+99

> <Gold.Chemscore.Hbonds>
donor molecule, donor type, donor heavy atom, donor atom, acceptor molecule, acceptor atom, score
      L1  H     9    23       P1  8028  0.98

> <Gold.Chemscore.Hbond.Weighted>
-3.2999

> <Gold.Chemscore.Metal.Weighted>
-0.0000

> <Gold.Chemscore.Lipo.Weighted>
-5.0644

> <Gold.Chemscore.Internal_Hbond.Weighted>
0.0000

> <Gold.Chemscore.DEClash.Weighted>
0.0387

> <Gold.Chemscore.DEInternal.Weighted>
0.5032

> <Gold.Chemscore.Rot.Weighted>
5.2368

> <Gold.Chemscore.Internal.Correction.Weighted>
   9.000000E+99

> <Gold.Protein.RotatedTorsions>
[ 6907 6896 6895 6894 ] final  -83.04 input  -60.11 | X-H torsion
[ 7974 7965 7964 7962 ] final   89.07 input  175.53 | X-H torsion
[ 8008 7997 7996 7995 ] final  -59.49 input   59.86 | X-H torsion
[ 10167 10162 10161 10158 ] final  176.01 input  -65.29 | X-H torsion
[ 10718 10713 10712 10709 ] final   45.07 input   66.30 | X-H torsion
[ 10763 10752 10751 10750 ] final  115.85 input  -60.55 | X-H torsion
[ 11005 11000 10999 10996 ] final -129.17 input  -57.11 | X-H torsion

> <Gold.Protein.ActiveResidues>
 VAL166  LYS551  ARG553  GLY616  TRP617  ASP618  TYR619  PRO620  LYS621  CYS622 
 ASP623  PHE694  ASN695  SER759  ASP760  ASP761  ALA762  ILE779  LEU786  VAL792 
 PHE793  MET794  SER795  GLU796  ALA797  LYS798  CYS799  TRP800  GLU811  SER814 

> <Gold.Protein.RotatedAtoms>
  150.6890  134.3573  159.4934 H   0  0  0  0  0  0  0  0  0  0  0  0  # atno 6907 bound_to 6896
  152.1406  134.9063  160.0563 H   0  0  0  0  0  0  0  0  0  0  0  0  # atno 6908 bound_to 6896
  152.0198  133.3859  159.4290 H   0  0  0  0  0  0  0  0  0  0  0  0  # atno 6909 bound_to 6896
  145.5372  139.2286  143.2586 H   0  0  0  0  0  0  0  0  0  0  0  0  # atno 7974 bound_to 7965
  154.4355  140.1060  156.6123 H   0  0  0  0  0  0  0  0  0  0  0  0  # atno 8008 bound_to 7997
  155.5796  140.3490  155.4518 H   0  0  0  0  0  0  0  0  0  0  0  0  # atno 8009 bound_to 7997
  156.0329  140.1264  157.0229 H   0  0  0  0  0  0  0  0  0  0  0  0  # atno 8010 bound_to 7997
  139.5198  144.2964  152.0417 H   0  0  0  0  0  0  0  0  0  0  0  0  # atno 10167 bound_to 10162
  157.4337  130.8040  149.7627 H   0  0  0  0  0  0  0  0  0  0  0  0  # atno 10718 bound_to 10713
  153.5284  135.3583  155.2664 H   0  0  0  0  0  0  0  0  0  0  0  0  # atno 10763 bound_to 10752
  154.8729  135.4062  154.3180 H   0  0  0  0  0  0  0  0  0  0  0  0  # atno 10764 bound_to 10752
  153.3864  135.7070  153.6595 H   0  0  0  0  0  0  0  0  0  0  0  0  # atno 10765 bound_to 10752
  140.9454  134.1137  157.4112 H   0  0  0  0  0  0  0  0  0  0  0  0  # atno 11005 bound_to 11000
  146.2005  140.6191  142.9104 LP  0  0  0  0  0  0  0  0  0  0  0  0  # atno 17320 bound_to 7965
  144.7595  140.5388  143.6745 LP  0  0  0  0  0  0  0  0  0  0  0  0  # atno 17321 bound_to 7965
  140.2414  144.4266  150.6258 LP  0  0  0  0  0  0  0  0  0  0  0  0  # atno 17342 bound_to 10162
  140.6288  143.2185  151.6539 LP  0  0  0  0  0  0  0  0  0  0  0  0  # atno 17343 bound_to 10162
  155.9922  130.3932  150.2951 LP  0  0  0  0  0  0  0  0  0  0  0  0  # atno 17370 bound_to 10713
  157.1109  131.0221  151.3048 LP  0  0  0  0  0  0  0  0  0  0  0  0  # atno 17371 bound_to 10713
  139.8832  135.0050  156.6283 LP  0  0  0  0  0  0  0  0  0  0  0  0  # atno 17394 bound_to 11000
  140.7676  133.8765  155.8466 LP  0  0  0  0  0  0  0  0  0  0  0  0  # atno 17395 bound_to 11000

$$$$
