AV-unprocessed.smi:3090|AV-procd|sdf|11775|dock8
  -GOLD-   2272017153D 1   1.00000     0.00000
 Structure written by MMmdl.
 22 22  0  0  0  0  0  0  0  0  2 V2000
  145.9316  129.1599  152.3549 C   0  0  0  0  0  0  0  0  0  0  0  0
  145.7324  130.4880  151.8158 N   0  0  0  0  0  0  0  0  0  0  0  0
  144.6704  130.9679  151.0807 C   0  0  0  0  0  0  0  0  0  0  0  0
  144.9271  132.2805  150.7938 C   0  0  0  0  0  0  0  0  0  0  0  0
  144.0926  133.2713  150.0256 C   0  0  1  0  0  0  0  0  0  0  0  0
  144.7746  134.4984  149.8561 O   0  0  0  0  0  0  0  0  0  0  0  0
  143.7351  132.7167  148.6355 C   0  0  0  0  0  0  0  0  0  0  0  0
  142.2783  132.5940  148.4525 N   0  3  0  0  0  0  0  0  0  0  0  0
  146.1908  132.5084  151.4108 C   0  0  0  0  0  0  0  0  0  0  0  0
  146.6689  131.4362  152.0203 N   0  0  0  0  0  0  0  0  0  0  0  0
  145.0843  128.5219  152.1019 H   0  0  0  0  0  0  0  0  0  0  0  0
  146.0242  129.2116  153.4402 H   0  0  0  0  0  0  0  0  0  0  0  0
  146.8398  128.7242  151.9375 H   0  0  0  0  0  0  0  0  0  0  0  0
  143.8271  130.3429  150.8250 H   0  0  0  0  0  0  0  0  0  0  0  0
  143.1726  133.4847  150.5714 H   0  0  0  0  0  0  0  0  0  0  0  0
  144.9767  134.6056  148.9385 H   0  0  0  0  0  0  0  0  0  0  0  0
  144.1427  133.3517  147.8476 H   0  0  0  0  0  0  0  0  0  0  0  0
  144.1728  131.7263  148.5044 H   0  0  0  0  0  0  0  0  0  0  0  0
  142.0535  132.6599  147.4701 H   0  0  0  0  0  0  0  0  0  0  0  0
  141.8176  133.3392  148.9554 H   0  0  0  0  0  0  0  0  0  0  0  0
  146.7712  133.4191  151.4342 H   0  0  0  0  0  0  0  0  0  0  0  0
  141.9668  131.7032  148.8123 H   0  0  0  0  0  0  0  0  0  0  0  0
  1  2  1  0  0  0  0
  1 11  1  0  0  0  0
  1 12  1  0  0  0  0
  1 13  1  0  0  0  0
  2 10  1  0  0  0  0
  2  3  1  0  0  0  0
  3  4  2  0  0  0  0
  3 14  1  0  0  0  0
  4  5  1  0  0  0  0
  4  9  1  0  0  0  0
  5  6  1  0  0  0  0
  5  7  1  0  0  0  0
  5 15  1  0  0  0  0
  6 16  1  0  0  0  0
  7  8  1  0  0  0  0
  7 17  1  0  0  0  0
  7 18  1  0  0  0  0
  8 19  1  0  0  0  0
  8 20  1  0  0  0  0
  8 22  1  0  0  0  0
  9 10  2  0  0  0  0
  9 21  1  0  0  0  0
M  CHG  1   8   1
M  END
> <s_m_source_file>
AV-unprocessed.smi

> <i_m_source_file_index>
3090

> <i_lp_mmshare_version>
43012

> <i_f3d_flags>
0

> <s_epik_input>
W0NIM11uMVtjSF1jKFtjSF1uMSlbQ0BIXShbT0hdKVtDSDJdW05IMl0=

> <s_epik_cmdline>
J2VwaWtfcHl0aG9uJywgJy1waCcsICc3LjAnLCAnLXRuJywgJzgnLCAnLW1hJywgJzIwMCcsICctbWV0YWxfYmluZGluZycsICctaW1hZScsICc8aW5maWxlLm1hZT4nLCAnLW9tYWUnLCAnPG91dGZpbGUubWFlPic=

> <r_lp_tautomer_probability>
1

> <r_epik_Ionization_Penalty>
0.014056

> <r_epik_Ionization_Penalty_Charging>
0.0140431

> <r_epik_Ionization_Penalty_Neutral>
1.29738e-05

> <r_epik_State_Penalty>
0.0109628

> <r_epik_Charging_Adjusted_Penalty>
0.0250059

> <i_epik_Tot_Q>
1

> <i_epik_Tot_abs_Q>
1

> <r_epik_Metal_State_Penalty>
0.0109636

> <b_epik_Metal_Only>
0

> <s_lp_Force_Field>
OPLS_2005

> <r_lp_Energy>
1.35566

> <b_lp_Chiralities_Consistent>
1

> <s_lp_Variant>
AV-unprocessed.smi:3090-2

> <Gold.Version>
5.8.1

> <Gold.Id.Protein>
6NUR|6NUR_protein|mol2

> <Gold.PLP.Fitness>
39.5665

> <Gold.PLP.PLP>
-26.1961

> <Gold.PLP.part.hbond>
-4.0000

> <Gold.PLP.part.metal>
0.0000

> <Gold.PLP.part.buried>
-5.8640

> <Gold.PLP.part.nonpolar>
-17.6812

> <Gold.PLP.part.repulsive>
1.1380

> <Gold.PLP.ligand.clash>
0.0000

> <Gold.PLP.ligand.torsion>
0.8160

> <Gold.PLP.Chemscore.Hbond>
5.0000

> <Gold.PLP.Chemscore.CHOScore>
0.0000

> <Gold.PLP.Chemscore.Metal>
0.0000

> <Gold.Chemscore.Hbonds>
donor molecule, donor type, donor heavy atom, donor atom, acceptor molecule, acceptor atom, score
      L1  H     6    16       P1  7921  1.00
      L1  H     8    19       P1 10195  1.00
      L1  H     8    20       P1 10186  1.62
      L1  H     8    22       P1 10952  1.00

> <Gold.PLP.Chemscore.Internal.Correction>
0.0024

> <Gold.Rescore>
     Score         DG    S(hbond)    S(metal)    S(lipo)     H(rot)  DE(clash)    DE(int)     intcor
     18.72     -20.65       3.88        0.00      61.60       1.96       1.19       0.74       ----

> <Gold.Chemscore.Fitness>
18.7190

> <Gold.Chemscore.DG>
-20.6501

> <Gold.Chemscore.ZeroCoef>
-5.4800

> <Gold.Chemscore.Hbond>
3.8825

> <Gold.Chemscore.Metal>
0.0000

> <Gold.Chemscore.Lipo>
61.6026

> <Gold.Chemscore.Internal_Hbond>
0.0000

> <Gold.Chemscore.DEClash>
1.1876

> <Gold.Chemscore.DEInternal>
0.7434

> <Gold.Chemscore.Rot>
1.9551

> <Gold.Chemscore.Internal.Correction>
   9.000000E+99

> <Gold.Chemscore.Hbonds>
donor molecule, donor type, donor heavy atom, donor atom, acceptor molecule, acceptor atom, score
      L1  H     6    16       P1  7921  0.95
      L1  H     8    19       P1 10195  0.94
      L1  H     8    20       P1 10186  0.80
      L1  H     8    22       P1 10952  0.99

> <Gold.Chemscore.Hbond.Weighted>
-12.9677

> <Gold.Chemscore.Metal.Weighted>
-0.0000

> <Gold.Chemscore.Lipo.Weighted>
-7.2075

> <Gold.Chemscore.Internal_Hbond.Weighted>
0.0000

> <Gold.Chemscore.DEClash.Weighted>
1.1876

> <Gold.Chemscore.DEInternal.Weighted>
0.7434

> <Gold.Chemscore.Rot.Weighted>
5.0051

> <Gold.Chemscore.Internal.Correction.Weighted>
   9.000000E+99

> <Gold.Protein.RotatedTorsions>
[ 6907 6896 6895 6894 ] final  -80.86 input  -60.11 | X-H torsion
[ 7974 7965 7964 7962 ] final  -34.72 input  175.53 | X-H torsion
[ 8008 7997 7996 7995 ] final   64.57 input   59.86 | X-H torsion
[ 10167 10162 10161 10158 ] final -175.14 input  -65.29 | X-H torsion
[ 10718 10713 10712 10709 ] final   44.24 input   66.30 | X-H torsion
[ 10763 10752 10751 10750 ] final   56.70 input  -60.55 | X-H torsion
[ 11005 11000 10999 10996 ] final  135.66 input  -57.11 | X-H torsion

> <Gold.Protein.ActiveResidues>
 VAL166  LYS551  ARG553  GLY616  TRP617  ASP618  TYR619  PRO620  LYS621  CYS622 
 ASP623  PHE694  ASN695  SER759  ASP760  ASP761  ALA762  ILE779  LEU786  VAL792 
 PHE793  MET794  SER795  GLU796  ALA797  LYS798  CYS799  TRP800  GLU811  SER814 

> <Gold.Protein.RotatedAtoms>
  150.6922  134.3906  159.5074 H   0  0  0  0  0  0  0  0  0  0  0  0  # atno 6907 bound_to 6896
  152.1695  134.8843  160.0544 H   0  0  0  0  0  0  0  0  0  0  0  0  # atno 6908 bound_to 6896
  151.9875  133.3744  159.4168 H   0  0  0  0  0  0  0  0  0  0  0  0  # atno 6909 bound_to 6896
  146.0806  140.6073  142.8910 H   0  0  0  0  0  0  0  0  0  0  0  0  # atno 7974 bound_to 7965
  155.6482  140.3497  155.4738 H   0  0  0  0  0  0  0  0  0  0  0  0  # atno 8008 bound_to 7997
  155.9870  140.1186  157.0697 H   0  0  0  0  0  0  0  0  0  0  0  0  # atno 8009 bound_to 7997
  154.4208  140.1127  156.5499 H   0  0  0  0  0  0  0  0  0  0  0  0  # atno 8010 bound_to 7997
  139.5597  144.1901  152.1218 H   0  0  0  0  0  0  0  0  0  0  0  0  # atno 10167 bound_to 10162
  157.4246  130.7989  149.7547 H   0  0  0  0  0  0  0  0  0  0  0  0  # atno 10718 bound_to 10713
  152.9836  135.5667  154.5271 H   0  0  0  0  0  0  0  0  0  0  0  0  # atno 10763 bound_to 10752
  154.4749  135.2786  155.1617 H   0  0  0  0  0  0  0  0  0  0  0  0  # atno 10764 bound_to 10752
  154.3149  135.6281  153.5535 H   0  0  0  0  0  0  0  0  0  0  0  0  # atno 10765 bound_to 10752
  139.9994  134.9484  157.0038 H   0  0  0  0  0  0  0  0  0  0  0  0  # atno 11005 bound_to 11000
  144.7290  140.4615  143.6951 LP  0  0  0  0  0  0  0  0  0  0  0  0  # atno 17320 bound_to 7965
  145.6225  139.1526  143.3014 LP  0  0  0  0  0  0  0  0  0  0  0  0  # atno 17321 bound_to 7965
  140.1412  144.5200  150.6743 LP  0  0  0  0  0  0  0  0  0  0  0  0  # atno 17342 bound_to 10162
  140.6875  143.2357  151.5222 LP  0  0  0  0  0  0  0  0  0  0  0  0  # atno 17343 bound_to 10162
  155.9892  130.3953  150.3083 LP  0  0  0  0  0  0  0  0  0  0  0  0  # atno 17370 bound_to 10713
  157.1234  131.0253  151.2999 LP  0  0  0  0  0  0  0  0  0  0  0  0  # atno 17371 bound_to 10713
  140.4756  134.1341  155.7209 LP  0  0  0  0  0  0  0  0  0  0  0  0  # atno 17394 bound_to 11000
  141.1630  133.8757  157.1795 LP  0  0  0  0  0  0  0  0  0  0  0  0  # atno 17395 bound_to 11000

$$$$
