AV-unprocessed.smi:1736|AV-procd|sdf|6992|dock4
  -GOLD-   22720 8203D 1   1.00000     0.00000
 Structure written by MMmdl.
 44 45  0  0  0  0  0  0  0  0  1 V2000
  152.5634  139.5905  156.4996 C   0  0  0  0  0  0  0  0  0  0  0  0
  151.1250  139.5876  156.2816 N   0  0  0  0  0  0  0  0  0  0  0  0
  150.6158  140.9340  156.0381 C   0  0  0  0  0  0  0  0  0  0  0  0
  149.0915  140.9305  155.8200 C   0  0  0  0  0  0  0  0  0  0  0  0
  148.7018  140.0729  154.6882 N   0  0  0  0  0  0  0  0  0  0  0  0
  147.2552  140.1227  154.3337 C   0  0  0  0  0  0  0  0  0  0  0  0
  146.3273  139.7891  155.5269 C   0  0  0  0  0  0  0  0  0  0  0  0
  146.8563  141.5320  153.8268 C   0  0  0  0  0  0  0  0  0  0  0  0
  146.9074  139.1232  153.1907 C   0  0  0  0  0  0  0  0  0  0  0  0
  145.4938  138.7481  153.1724 N   0  0  0  0  0  0  0  0  0  0  0  0
  144.9942  137.5553  153.5247 C   0  0  0  0  0  0  0  0  0  0  0  0
  145.6856  136.6083  153.8997 O   0  0  0  0  0  0  0  0  0  0  0  0
  143.6557  137.5404  153.4208 N   0  0  0  0  0  0  0  0  0  0  0  0
  142.7847  136.4605  153.7096 C   0  0  0  0  0  0  0  0  0  0  0  0
  141.3673  136.4606  153.8648 C   0  0  0  0  0  0  0  0  0  0  0  0
  140.9143  135.2439  154.1331 N   0  0  0  0  0  0  0  0  0  0  0  0
  142.0235  134.4710  154.1505 N   0  0  0  0  0  0  0  0  0  0  0  0
  143.1826  135.1708  153.8986 C   0  0  0  0  0  0  0  0  0  0  0  0
  149.2307  138.7220  154.9378 C   0  0  0  0  0  0  0  0  0  0  0  0
  150.7547  138.7366  155.1550 C   0  0  0  0  0  0  0  0  0  0  0  0
  141.9729  133.4789  154.3337 H   0  0  0  0  0  0  0  0  0  0  0  0
  152.8228  140.2145  157.3554 H   0  0  0  0  0  0  0  0  0  0  0  0
  153.0943  139.9726  155.6268 H   0  0  0  0  0  0  0  0  0  0  0  0
  152.9248  138.5819  156.7028 H   0  0  0  0  0  0  0  0  0  0  0  0
  150.8560  141.5766  156.8860 H   0  0  0  0  0  0  0  0  0  0  0  0
  151.1087  141.3697  155.1674 H   0  0  0  0  0  0  0  0  0  0  0  0
  148.6010  140.6003  156.7359 H   0  0  0  0  0  0  0  0  0  0  0  0
  148.7832  141.9605  155.6498 H   0  0  0  0  0  0  0  0  0  0  0  0
  145.2782  139.8481  155.2344 H   0  0  0  0  0  0  0  0  0  0  0  0
  146.4590  140.4810  156.3585 H   0  0  0  0  0  0  0  0  0  0  0  0
  146.4901  138.7806  155.9062 H   0  0  0  0  0  0  0  0  0  0  0  0
  145.8566  141.5327  153.3907 H   0  0  0  0  0  0  0  0  0  0  0  0
  147.5438  141.8951  153.0621 H   0  0  0  0  0  0  0  0  0  0  0  0
  146.8380  142.2700  154.6285 H   0  0  0  0  0  0  0  0  0  0  0  0
  147.1494  139.5456  152.2157 H   0  0  0  0  0  0  0  0  0  0  0  0
  147.5374  138.2346  153.2614 H   0  0  0  0  0  0  0  0  0  0  0  0
  144.8444  139.4667  152.8881 H   0  0  0  0  0  0  0  0  0  0  0  0
  143.2137  138.3913  153.1056 H   0  0  0  0  0  0  0  0  0  0  0  0
  140.6619  137.2754  153.7953 H   0  0  0  0  0  0  0  0  0  0  0  0
  144.1561  134.7030  153.8770 H   0  0  0  0  0  0  0  0  0  0  0  0
  148.7501  138.2795  155.8106 H   0  0  0  0  0  0  0  0  0  0  0  0
  149.0259  138.0633  154.0963 H   0  0  0  0  0  0  0  0  0  0  0  0
  151.2509  139.0808  154.2460 H   0  0  0  0  0  0  0  0  0  0  0  0
  151.1022  137.7184  155.3331 H   0  0  0  0  0  0  0  0  0  0  0  0
  1  2  1  0  0  0  0
  1 22  1  0  0  0  0
  1 23  1  0  0  0  0
  1 24  1  0  0  0  0
  2 20  1  0  0  0  0
  2  3  1  0  0  0  0
  3  4  1  0  0  0  0
  3 25  1  0  0  0  0
  3 26  1  0  0  0  0
  4  5  1  0  0  0  0
  4 27  1  0  0  0  0
  4 28  1  0  0  0  0
  5  6  1  0  0  0  0
  5 19  1  0  0  0  0
  6  7  1  0  0  0  0
  6  8  1  0  0  0  0
  6  9  1  0  0  0  0
  7 29  1  0  0  0  0
  7 30  1  0  0  0  0
  7 31  1  0  0  0  0
  8 32  1  0  0  0  0
  8 33  1  0  0  0  0
  8 34  1  0  0  0  0
  9 10  1  0  0  0  0
  9 35  1  0  0  0  0
  9 36  1  0  0  0  0
 10 11  1  0  0  0  0
 10 37  1  0  0  0  0
 11 12  2  0  0  0  0
 11 13  1  0  0  0  0
 13 14  1  0  0  0  0
 13 38  1  0  0  0  0
 14 18  2  0  0  0  0
 14 15  1  0  0  0  0
 15 16  2  0  0  0  0
 15 39  1  0  0  0  0
 16 17  1  0  0  0  0
 17 21  1  0  0  0  0
 17 18  1  0  0  0  0
 18 40  1  0  0  0  0
 19 20  1  0  0  0  0
 19 41  1  0  0  0  0
 19 42  1  0  0  0  0
 20 43  1  0  0  0  0
 20 44  1  0  0  0  0
M  END
> <s_m_source_file>
AV-unprocessed.smi

> <i_m_source_file_index>
1736

> <i_lp_mmshare_version>
43012

> <i_f3d_flags>
0

> <s_epik_input>
W0NIM11OMVtDSDJdW0NIMl1OKFtDSDJdW0NIMl0xKUMoW0NIM10pKFtDSDNdKVtDSDJdW05IXUMoPU8pW05IXWMyW2NIXW5bbkhdW2NIXTI=

> <s_epik_cmdline>
J2VwaWtfcHl0aG9uJywgJy1waCcsICc3LjAnLCAnLXRuJywgJzgnLCAnLW1hJywgJzIwMCcsICctbWV0YWxfYmluZGluZycsICctaW1hZScsICc8aW5maWxlLm1hZT4nLCAnLW9tYWUnLCAnPG91dGZpbGUubWFlPic=

> <r_lp_tautomer_probability>
0.5

> <r_epik_Ionization_Penalty>
3.08539

> <r_epik_Ionization_Penalty_Charging>
0

> <r_epik_Ionization_Penalty_Neutral>
3.08539

> <r_epik_State_Penalty>
2.1584

> <r_epik_Charging_Adjusted_Penalty>
2.1584

> <i_epik_Tot_Q>
0

> <i_epik_Tot_abs_Q>
0

> <r_epik_Metal_State_Penalty>
2.1584

> <b_epik_Metal_Only>
0

> <s_lp_Force_Field>
OPLS_2005

> <r_lp_Energy>
53.1153

> <b_lp_Chiralities_Consistent>
1

> <s_lp_Variant>
AV-unprocessed.smi:1736-3

> <Gold.Version>
5.8.1

> <Gold.Id.Protein>
6NUR|6NUR_protein|mol2

> <Gold.PLP.Fitness>
38.3022

> <Gold.PLP.PLP>
-30.3412

> <Gold.PLP.part.hbond>
-4.4514

> <Gold.PLP.part.metal>
0.0000

> <Gold.PLP.part.buried>
-3.2220

> <Gold.PLP.part.nonpolar>
-22.8056

> <Gold.PLP.part.repulsive>
0.5448

> <Gold.PLP.ligand.clash>
1.5868

> <Gold.PLP.ligand.torsion>
0.5861

> <Gold.PLP.Chemscore.Hbond>
3.5559

> <Gold.PLP.Chemscore.CHOScore>
0.0000

> <Gold.PLP.Chemscore.Metal>
0.0000

> <Gold.Chemscore.Hbonds>
donor molecule, donor type, donor heavy atom, donor atom, acceptor molecule, acceptor atom, score
      L1  H    10    37       P1 10175  1.00
      L1  H    13    38       P1 10175  0.55
      L1  H    17    21       P1 10957  1.00
      P1  H 11000 11005       L1    16  0.70

> <Gold.PLP.Chemscore.Internal.Correction>
0.0524

> <Gold.Rescore>
     Score         DG    S(hbond)    S(metal)    S(lipo)     H(rot)  DE(clash)    DE(int)     intcor
     16.22     -18.68       2.75        0.00      69.07       1.59       0.44       2.02       ----

> <Gold.Chemscore.Fitness>
16.2151

> <Gold.Chemscore.DG>
-18.6750

> <Gold.Chemscore.ZeroCoef>
-5.4800

> <Gold.Chemscore.Hbond>
2.7497

> <Gold.Chemscore.Metal>
0.0000

> <Gold.Chemscore.Lipo>
69.0740

> <Gold.Chemscore.Internal_Hbond>
0.0000

> <Gold.Chemscore.DEClash>
0.4424

> <Gold.Chemscore.DEInternal>
2.0175

> <Gold.Chemscore.Rot>
1.5901

> <Gold.Chemscore.Internal.Correction>
   9.000000E+99

> <Gold.Chemscore.Hbonds>
donor molecule, donor type, donor heavy atom, donor atom, acceptor molecule, acceptor atom, score
      L1  H    10    37       P1 10175  0.98
      L1  H    13    38       P1 10175  0.53
      L1  H    17    21       P1 10957  0.99
      P1  H 11000 11005       L1    16  0.08

> <Gold.Chemscore.Hbond.Weighted>
-9.1840

> <Gold.Chemscore.Metal.Weighted>
-0.0000

> <Gold.Chemscore.Lipo.Weighted>
-8.0817

> <Gold.Chemscore.Internal_Hbond.Weighted>
0.0000

> <Gold.Chemscore.DEClash.Weighted>
0.4424

> <Gold.Chemscore.DEInternal.Weighted>
2.0175

> <Gold.Chemscore.Rot.Weighted>
4.0706

> <Gold.Chemscore.Internal.Correction.Weighted>
   9.000000E+99

> <Gold.Protein.RotatedTorsions>
[ 6907 6896 6895 6894 ] final   81.27 input  -60.11 | X-H torsion
[ 7974 7965 7964 7962 ] final   96.43 input  175.53 | X-H torsion
[ 8008 7997 7996 7995 ] final  155.99 input   59.86 | X-H torsion
[ 10167 10162 10161 10158 ] final   75.22 input  -65.29 | X-H torsion
[ 10718 10713 10712 10709 ] final  163.47 input   66.30 | X-H torsion
[ 10763 10752 10751 10750 ] final  -89.56 input  -60.55 | X-H torsion
[ 11005 11000 10999 10996 ] final   47.33 input  -57.11 | X-H torsion

> <Gold.Protein.ActiveResidues>
 VAL166  LYS551  ARG553  GLY616  TRP617  ASP618  TYR619  PRO620  LYS621  CYS622 
 ASP623  PHE694  ASN695  SER759  ASP760  ASP761  ALA762  ILE779  LEU786  VAL792 
 PHE793  MET794  SER795  GLU796  ALA797  LYS798  CYS799  TRP800  GLU811  SER814 

> <Gold.Protein.RotatedAtoms>
  152.5263  134.3229  159.9154 H   0  0  0  0  0  0  0  0  0  0  0  0  # atno 6907 bound_to 6896
  151.3178  133.4046  159.2659 H   0  0  0  0  0  0  0  0  0  0  0  0  # atno 6908 bound_to 6896
  150.9984  134.9319  159.7997 H   0  0  0  0  0  0  0  0  0  0  0  0  # atno 6909 bound_to 6896
  145.4389  139.2303  143.3103 H   0  0  0  0  0  0  0  0  0  0  0  0  # atno 7974 bound_to 7965
  156.2448  140.1924  156.6886 H   0  0  0  0  0  0  0  0  0  0  0  0  # atno 8008 bound_to 7997
  154.6269  140.0601  156.9710 H   0  0  0  0  0  0  0  0  0  0  0  0  # atno 8009 bound_to 7997
  155.1773  140.3273  155.4384 H   0  0  0  0  0  0  0  0  0  0  0  0  # atno 8010 bound_to 7997
  140.0053  144.5655  150.7703 H   0  0  0  0  0  0  0  0  0  0  0  0  # atno 10167 bound_to 10162
  157.1081  131.0460  151.2469 H   0  0  0  0  0  0  0  0  0  0  0  0  # atno 10718 bound_to 10713
  154.6565  135.5336  153.7965 H   0  0  0  0  0  0  0  0  0  0  0  0  # atno 10763 bound_to 10752
  153.0416  135.6495  154.0937 H   0  0  0  0  0  0  0  0  0  0  0  0  # atno 10764 bound_to 10752
  154.0850  135.2944  155.3263 H   0  0  0  0  0  0  0  0  0  0  0  0  # atno 10765 bound_to 10752
  140.1289  134.4732  155.8537 H   0  0  0  0  0  0  0  0  0  0  0  0  # atno 11005 bound_to 11000
  146.2567  140.5135  142.8870 LP  0  0  0  0  0  0  0  0  0  0  0  0  # atno 17320 bound_to 7965
  144.8134  140.6426  143.6400 LP  0  0  0  0  0  0  0  0  0  0  0  0  # atno 17321 bound_to 7965
  140.7403  143.2802  151.3620 LP  0  0  0  0  0  0  0  0  0  0  0  0  # atno 17342 bound_to 10162
  139.6243  144.0845  152.2420 LP  0  0  0  0  0  0  0  0  0  0  0  0  # atno 17343 bound_to 10162
  157.4583  130.7638  149.7213 LP  0  0  0  0  0  0  0  0  0  0  0  0  # atno 17370 bound_to 10713
  155.9857  130.3981  150.3248 LP  0  0  0  0  0  0  0  0  0  0  0  0  # atno 17371 bound_to 10713
  141.2166  133.6788  156.7030 LP  0  0  0  0  0  0  0  0  0  0  0  0  # atno 17394 bound_to 11000
  140.2868  134.8272  157.3982 LP  0  0  0  0  0  0  0  0  0  0  0  0  # atno 17395 bound_to 11000

$$$$
