AV-unprocessed.smi:1021|AV-procd|sdf|4455|dock9
  -GOLD-   22720 2423D 1   1.00000     0.00000
 Structure written by MMmdl.
 42 44  0  0  0  0  0  0  0  0  1 V2000
  152.5975  136.8833  155.0509 O   0  0  0  0  0  0  0  0  0  0  0  0
  152.0929  138.0563  154.4490 C   0  0  0  0  0  0  0  0  0  0  0  0
  152.9507  139.2713  154.8303 C   0  0  0  0  0  0  0  0  0  0  0  0
  152.2659  140.2069  155.8414 C   0  0  0  0  0  0  0  0  0  0  0  0
  150.8711  140.5768  155.4289 C   0  0  0  0  0  0  0  0  0  0  0  0
  150.3770  140.2040  154.2476 N   0  0  0  0  0  0  0  0  0  0  0  0
  149.1119  140.7566  154.2561 C   0  0  0  0  0  0  0  0  0  0  0  0
  148.0893  140.7242  153.2808 C   0  0  0  0  0  0  0  0  0  0  0  0
  146.8598  141.3748  153.5137 C   0  0  0  0  0  0  0  0  0  0  0  0
  146.6360  142.0657  154.7220 C   0  0  0  0  0  0  0  0  0  0  0  0
  147.6417  142.1097  155.7066 C   0  0  0  0  0  0  0  0  0  0  0  0
  148.8672  141.4578  155.4703 C   0  0  0  0  0  0  0  0  0  0  0  0
  150.0367  141.3103  156.2114 N   0  0  0  0  0  0  0  0  0  0  0  0
  150.2724  141.8438  157.5481 C   0  0  0  0  0  0  0  0  0  0  0  0
  151.4717  142.8102  157.6138 C   0  0  1  0  0  0  0  0  0  0  0  0
  151.1085  144.0678  157.0767 O   0  0  0  0  0  0  0  0  0  0  0  0
  152.0130  142.9203  159.0307 C   0  0  0  0  0  0  0  0  0  0  0  0
  151.3972  143.7940  159.9527 C   0  0  0  0  0  0  0  0  0  0  0  0
  151.8962  143.9081  161.2651 C   0  0  0  0  0  0  0  0  0  0  0  0
  153.0150  143.1510  161.6624 C   0  0  0  0  0  0  0  0  0  0  0  0
  153.4937  143.2604  162.9241 F   0  0  0  0  0  0  0  0  0  0  0  0
  153.6365  142.2814  160.7459 C   0  0  0  0  0  0  0  0  0  0  0  0
  153.1388  142.1678  159.4332 C   0  0  0  0  0  0  0  0  0  0  0  0
  152.0759  136.6879  155.8144 H   0  0  0  0  0  0  0  0  0  0  0  0
  152.0610  137.9270  153.3667 H   0  0  0  0  0  0  0  0  0  0  0  0
  151.0667  138.2029  154.7862 H   0  0  0  0  0  0  0  0  0  0  0  0
  153.8864  138.9094  155.2563 H   0  0  0  0  0  0  0  0  0  0  0  0
  153.2257  139.8277  153.9334 H   0  0  0  0  0  0  0  0  0  0  0  0
  152.2157  139.7233  156.8177 H   0  0  0  0  0  0  0  0  0  0  0  0
  152.8708  141.1003  155.9845 H   0  0  0  0  0  0  0  0  0  0  0  0
  148.2520  140.1990  152.3515 H   0  0  0  0  0  0  0  0  0  0  0  0
  146.0857  141.3444  152.7610 H   0  0  0  0  0  0  0  0  0  0  0  0
  145.6924  142.5629  154.8926 H   0  0  0  0  0  0  0  0  0  0  0  0
  147.4735  142.6420  156.6307 H   0  0  0  0  0  0  0  0  0  0  0  0
  149.3684  142.3554  157.8794 H   0  0  0  0  0  0  0  0  0  0  0  0
  150.4069  141.0131  158.2410 H   0  0  0  0  0  0  0  0  0  0  0  0
  152.2720  142.4257  156.9828 H   0  0  0  0  0  0  0  0  0  0  0  0
  150.1686  144.1536  157.1235 H   0  0  0  0  0  0  0  0  0  0  0  0
  150.5403  144.3814  159.6566 H   0  0  0  0  0  0  0  0  0  0  0  0
  151.4213  144.5775  161.9669 H   0  0  0  0  0  0  0  0  0  0  0  0
  154.4961  141.7022  161.0491 H   0  0  0  0  0  0  0  0  0  0  0  0
  153.6262  141.5017  158.7363 H   0  0  0  0  0  0  0  0  0  0  0  0
  1  2  1  0  0  0  0
  1 24  1  0  0  0  0
  2  3  1  0  0  0  0
  2 25  1  0  0  0  0
  2 26  1  0  0  0  0
  3  4  1  0  0  0  0
  3 27  1  0  0  0  0
  3 28  1  0  0  0  0
  4  5  1  0  0  0  0
  4 29  1  0  0  0  0
  4 30  1  0  0  0  0
  5 13  1  0  0  0  0
  5  6  2  0  0  0  0
  6  7  1  0  0  0  0
  7 12  2  0  0  0  0
  7  8  1  0  0  0  0
  8  9  2  0  0  0  0
  8 31  1  0  0  0  0
  9 10  1  0  0  0  0
  9 32  1  0  0  0  0
 10 11  2  0  0  0  0
 10 33  1  0  0  0  0
 11 12  1  0  0  0  0
 11 34  1  0  0  0  0
 12 13  1  0  0  0  0
 13 14  1  0  0  0  0
 14 15  1  0  0  0  0
 14 35  1  0  0  0  0
 14 36  1  0  0  0  0
 15 16  1  0  0  0  0
 15 17  1  0  0  0  0
 15 37  1  0  0  0  0
 16 38  1  0  0  0  0
 17 23  1  0  0  0  0
 17 18  2  0  0  0  0
 18 19  1  0  0  0  0
 18 39  1  0  0  0  0
 19 20  2  0  0  0  0
 19 40  1  0  0  0  0
 20 21  1  0  0  0  0
 20 22  1  0  0  0  0
 22 23  2  0  0  0  0
 22 41  1  0  0  0  0
 23 42  1  0  0  0  0
M  END
> <s_m_source_file>
AV-unprocessed.smi

> <i_m_source_file_index>
1021

> <i_lp_mmshare_version>
43012

> <i_f3d_flags>
0

> <s_epik_input>
W09IXVtDSDJdW0NIMl1bQ0gyXWMobjEpbihjKGMxMilbY0hdW2NIXVtjSF1bY0hdMilbQ0gyXVtDQEhdKFtPSF0pYzNbY0hdW2NIXWMoRilbY0hdW2NIXTM=

> <s_epik_cmdline>
J2VwaWtfcHl0aG9uJywgJy1waCcsICc3LjAnLCAnLXRuJywgJzgnLCAnLW1hJywgJzIwMCcsICctbWV0YWxfYmluZGluZycsICctaW1hZScsICc8aW5maWxlLm1hZT4nLCAnLW9tYWUnLCAnPG91dGZpbGUubWFlPic=

> <r_epik_Ionization_Penalty>
0.182562

> <r_epik_Ionization_Penalty_Charging>
0

> <r_epik_Ionization_Penalty_Neutral>
0.182562

> <r_epik_State_Penalty>
0.172086

> <r_epik_Charging_Adjusted_Penalty>
0.172086

> <i_epik_Tot_Q>
0

> <i_epik_Tot_abs_Q>
0

> <r_epik_Metal_State_Penalty>
0.000199649

> <b_epik_Metal_Only>
0

> <s_lp_Force_Field>
OPLS_2005

> <r_lp_Energy>
11.397

> <b_lp_Chiralities_Consistent>
1

> <s_lp_Variant>
AV-unprocessed.smi:1021-2

> <Gold.Version>
5.8.1

> <Gold.Id.Protein>
6NUR|6NUR_protein|mol2

> <Gold.PLP.Fitness>
60.5907

> <Gold.PLP.PLP>
-55.7847

> <Gold.PLP.part.hbond>
-3.0000

> <Gold.PLP.part.metal>
0.0000

> <Gold.PLP.part.buried>
-1.8267

> <Gold.PLP.part.nonpolar>
-51.9114

> <Gold.PLP.part.repulsive>
0.1044

> <Gold.PLP.ligand.clash>
0.0000

> <Gold.PLP.ligand.torsion>
1.1298

> <Gold.PLP.Chemscore.Hbond>
2.3320

> <Gold.PLP.Chemscore.CHOScore>
0.0000

> <Gold.PLP.Chemscore.Metal>
0.0000

> <Gold.Chemscore.Hbonds>
donor molecule, donor type, donor heavy atom, donor atom, acceptor molecule, acceptor atom, score
      L1  H    16    38       P1  8028  0.56
      P1  H  7989  7998       L1     6  0.55
      P1  H 10752 10763       L1     1  0.42

> <Gold.PLP.Chemscore.Internal.Correction>
0.0697

> <Gold.Rescore>
     Score         DG    S(hbond)    S(metal)    S(lipo)     H(rot)  DE(clash)    DE(int)     intcor
     16.38     -20.47       1.97        0.00     139.15       3.07       2.06       2.04       ----

> <Gold.Chemscore.Fitness>
16.3754

> <Gold.Chemscore.DG>
-20.4739

> <Gold.Chemscore.ZeroCoef>
-5.4800

> <Gold.Chemscore.Hbond>
1.9709

> <Gold.Chemscore.Metal>
0.0000

> <Gold.Chemscore.Lipo>
139.1513

> <Gold.Chemscore.Internal_Hbond>
0.0000

> <Gold.Chemscore.DEClash>
2.0593

> <Gold.Chemscore.DEInternal>
2.0392

> <Gold.Chemscore.Rot>
3.0741

> <Gold.Chemscore.Internal.Correction>
   9.000000E+99

> <Gold.Chemscore.Hbonds>
donor molecule, donor type, donor heavy atom, donor atom, acceptor molecule, acceptor atom, score
      L1  H    16    38       P1  8028  0.46
      P1  H  7989  7998       L1     6  0.03
      P1  H 10752 10763       L1     1  0.19

> <Gold.Chemscore.Hbond.Weighted>
-6.5830

> <Gold.Chemscore.Metal.Weighted>
-0.0000

> <Gold.Chemscore.Lipo.Weighted>
-16.2807

> <Gold.Chemscore.Internal_Hbond.Weighted>
0.0000

> <Gold.Chemscore.DEClash.Weighted>
2.0593

> <Gold.Chemscore.DEInternal.Weighted>
2.0392

> <Gold.Chemscore.Rot.Weighted>
7.8698

> <Gold.Chemscore.Internal.Correction.Weighted>
   9.000000E+99

> <Gold.Protein.RotatedTorsions>
[ 6907 6896 6895 6894 ] final  -87.14 input  -60.11 | X-H torsion
[ 7974 7965 7964 7962 ] final   76.84 input  175.53 | X-H torsion
[ 8008 7997 7996 7995 ] final   72.51 input   59.86 | X-H torsion
[ 10167 10162 10161 10158 ] final -163.51 input  -65.29 | X-H torsion
[ 10718 10713 10712 10709 ] final  -60.19 input   66.30 | X-H torsion
[ 10763 10752 10751 10750 ] final   58.36 input  -60.55 | X-H torsion
[ 11005 11000 10999 10996 ] final   84.83 input  -57.11 | X-H torsion

> <Gold.Protein.ActiveResidues>
 VAL166  LYS551  ARG553  GLY616  TRP617  ASP618  TYR619  PRO620  LYS621  CYS622 
 ASP623  PHE694  ASN695  SER759  ASP760  ASP761  ALA762  ILE779  LEU786  VAL792 
 PHE793  MET794  SER795  GLU796  ALA797  LYS798  CYS799  TRP800  GLU811  SER814 

> <Gold.Protein.RotatedAtoms>
  150.6866  134.2942  159.4678 H   0  0  0  0  0  0  0  0  0  0  0  0  # atno 6907 bound_to 6896
  152.0844  134.9447  160.0582 H   0  0  0  0  0  0  0  0  0  0  0  0  # atno 6908 bound_to 6896
  152.0787  133.4107  159.4528 H   0  0  0  0  0  0  0  0  0  0  0  0  # atno 6909 bound_to 6896
  145.6976  139.2572  143.1723 H   0  0  0  0  0  0  0  0  0  0  0  0  # atno 7974 bound_to 7965
  155.7700  140.3484  155.5242 H   0  0  0  0  0  0  0  0  0  0  0  0  # atno 8008 bound_to 7997
  155.8831  140.1005  157.1492 H   0  0  0  0  0  0  0  0  0  0  0  0  # atno 8009 bound_to 7997
  154.4026  140.1318  156.4209 H   0  0  0  0  0  0  0  0  0  0  0  0  # atno 8010 bound_to 7997
  139.6316  144.0429  152.2020 H   0  0  0  0  0  0  0  0  0  0  0  0  # atno 10167 bound_to 10162
  156.1008  130.4186  150.0819 H   0  0  0  0  0  0  0  0  0  0  0  0  # atno 10718 bound_to 10713
  152.9869  135.5609  154.5539 H   0  0  0  0  0  0  0  0  0  0  0  0  # atno 10763 bound_to 10752
  154.4971  135.2795  155.1453 H   0  0  0  0  0  0  0  0  0  0  0  0  # atno 10764 bound_to 10752
  154.2899  135.6328  153.5434 H   0  0  0  0  0  0  0  0  0  0  0  0  # atno 10765 bound_to 10752
  139.8989  134.8244  156.2498 H   0  0  0  0  0  0  0  0  0  0  0  0  # atno 11005 bound_to 11000
  146.0826  140.7747  142.9634 LP  0  0  0  0  0  0  0  0  0  0  0  0  # atno 17320 bound_to 7965
  144.6978  140.3513  143.7181 LP  0  0  0  0  0  0  0  0  0  0  0  0  # atno 17321 bound_to 7965
  140.0096  144.6233  150.7659 LP  0  0  0  0  0  0  0  0  0  0  0  0  # atno 17342 bound_to 10162
  140.7442  143.2857  151.3470 LP  0  0  0  0  0  0  0  0  0  0  0  0  # atno 17343 bound_to 10162
  156.8807  130.9555  151.3599 LP  0  0  0  0  0  0  0  0  0  0  0  0  # atno 17370 bound_to 10713
  157.6178  130.8631  149.9057 LP  0  0  0  0  0  0  0  0  0  0  0  0  # atno 17371 bound_to 10713
  141.0231  133.7030  156.1301 LP  0  0  0  0  0  0  0  0  0  0  0  0  # atno 17394 bound_to 11000
  140.7205  134.4363  157.5575 LP  0  0  0  0  0  0  0  0  0  0  0  0  # atno 17395 bound_to 11000

$$$$
