AV-unprocessed.smi:2031|AV-procd|sdf|8230|dock1
  -GOLD-   2272010503D 1   1.00000     0.00000
 Structure written by MMmdl.
 41 42  0  0  0  0  0  0  0  0  3 V2000
  147.5686  136.2700  163.3731 C   0  0  0  0  0  0  0  0  0  0  0  0
  147.5946  136.0232  161.9038 C   0  0  0  0  0  0  0  0  0  0  0  0
  147.5840  134.8828  161.1512 C   0  0  0  0  0  0  0  0  0  0  0  0
  147.6234  135.3759  159.8196 C   0  0  0  0  0  0  0  0  0  0  0  0
  147.6275  134.4813  158.7167 N   0  0  0  0  0  0  0  0  0  0  0  0
  147.6280  134.7646  157.4012 C   0  0  0  0  0  0  0  0  0  0  0  0
  147.6228  135.9398  157.0157 O   0  0  0  0  0  0  0  0  0  0  0  0
  147.6341  133.6403  156.6330 N   0  5  0  0  0  0  0  0  0  0  0  0
  147.1626  133.5662  155.2511 C   0  0  0  0  0  0  0  0  0  0  0  0
  145.7767  132.8946  155.2098 C   0  0  0  0  0  0  0  0  0  0  0  0
  145.1908  132.9365  153.8392 N   0  3  0  0  0  0  0  0  0  0  0  0
  145.9536  132.1641  152.8215 C   0  0  0  0  0  0  0  0  0  0  0  0
  144.9952  131.3252  151.9589 C   0  0  0  0  0  0  0  0  0  0  0  0
  144.2138  132.1226  150.9037 C   0  0  0  0  0  0  0  0  0  0  0  0
  143.4102  133.3068  151.4661 C   0  0  0  0  0  0  0  0  0  0  0  0
  144.3188  134.4456  151.9567 C   0  0  0  0  0  0  0  0  0  0  0  0
  144.8103  134.3154  153.4123 C   0  0  0  0  0  0  0  0  0  0  0  0
  147.6567  136.6993  159.7660 N   0  0  0  0  0  0  0  0  0  0  0  0
  147.6382  137.1205  161.1009 O   0  0  0  0  0  0  0  0  0  0  0  0
  147.5631  135.3309  163.9267 H   0  0  0  0  0  0  0  0  0  0  0  0
  146.6789  136.8339  163.6537 H   0  0  0  0  0  0  0  0  0  0  0  0
  148.4439  136.8405  163.6841 H   0  0  0  0  0  0  0  0  0  0  0  0
  147.5519  133.8608  161.4983 H   0  0  0  0  0  0  0  0  0  0  0  0
  147.6229  133.5002  158.9527 H   0  0  0  0  0  0  0  0  0  0  0  0
  147.0849  134.5592  154.8076 H   0  0  0  0  0  0  0  0  0  0  0  0
  147.8390  133.0088  154.6016 H   0  0  0  0  0  0  0  0  0  0  0  0
  145.8382  131.8640  155.5635 H   0  0  0  0  0  0  0  0  0  0  0  0
  145.1396  133.4100  155.9289 H   0  0  0  0  0  0  0  0  0  0  0  0
  146.5886  132.8138  152.2177 H   0  0  0  0  0  0  0  0  0  0  0  0
  146.6307  131.4576  153.3011 H   0  0  0  0  0  0  0  0  0  0  0  0
  145.5720  130.5576  151.4417 H   0  0  0  0  0  0  0  0  0  0  0  0
  144.2998  130.7865  152.6047 H   0  0  0  0  0  0  0  0  0  0  0  0
  144.9000  132.4799  150.1349 H   0  0  0  0  0  0  0  0  0  0  0  0
  143.5297  131.4426  150.3947 H   0  0  0  0  0  0  0  0  0  0  0  0
  142.7807  133.6935  150.6639 H   0  0  0  0  0  0  0  0  0  0  0  0
  142.7280  132.9826  152.2533 H   0  0  0  0  0  0  0  0  0  0  0  0
  145.1707  134.5491  151.2838 H   0  0  0  0  0  0  0  0  0  0  0  0
  143.7776  135.3887  151.8730 H   0  0  0  0  0  0  0  0  0  0  0  0
  144.0245  134.6740  154.0780 H   0  0  0  0  0  0  0  0  0  0  0  0
  145.6575  134.9886  153.5505 H   0  0  0  0  0  0  0  0  0  0  0  0
  144.3234  132.4269  153.9292 H   0  0  0  0  0  0  0  0  0  0  0  0
  1  2  1  0  0  0  0
  1 20  1  0  0  0  0
  1 21  1  0  0  0  0
  1 22  1  0  0  0  0
  2 19  1  0  0  0  0
  2  3  2  0  0  0  0
  3  4  1  0  0  0  0
  3 23  1  0  0  0  0
  4  5  1  0  0  0  0
  4 18  2  0  0  0  0
  5  6  1  0  0  0  0
  5 24  1  0  0  0  0
  6  7  2  0  0  0  0
  6  8  1  0  0  0  0
  8  9  1  0  0  0  0
  9 10  1  0  0  0  0
  9 25  1  0  0  0  0
  9 26  1  0  0  0  0
 10 11  1  0  0  0  0
 10 27  1  0  0  0  0
 10 28  1  0  0  0  0
 11 17  1  0  0  0  0
 11 12  1  0  0  0  0
 11 41  1  0  0  0  0
 12 13  1  0  0  0  0
 12 29  1  0  0  0  0
 12 30  1  0  0  0  0
 13 14  1  0  0  0  0
 13 31  1  0  0  0  0
 13 32  1  0  0  0  0
 14 15  1  0  0  0  0
 14 33  1  0  0  0  0
 14 34  1  0  0  0  0
 15 16  1  0  0  0  0
 15 35  1  0  0  0  0
 15 36  1  0  0  0  0
 16 17  1  0  0  0  0
 16 37  1  0  0  0  0
 16 38  1  0  0  0  0
 17 39  1  0  0  0  0
 17 40  1  0  0  0  0
 18 19  1  0  0  0  0
M  CHG  1   8  -1
M  CHG  1  11   1
M  END
> <s_m_source_file>
AV-unprocessed.smi

> <i_m_source_file_index>
2031

> <i_lp_mmshare_version>
43012

> <i_f3d_flags>
0

> <s_epik_input>
W0NIM11jMVtjSF1jKG5vMSlbTkhdQyg9TylbTkhdW0NIMl1bQ0gyXU4yW0NIMl1bQ0gyXVtDSDJdW0NIMl1bQ0gyXVtDSDJdMg==

> <s_epik_cmdline>
J2VwaWtfcHl0aG9uJywgJy1waCcsICc3LjAnLCAnLXRuJywgJzgnLCAnLW1hJywgJzIwMCcsICctbWV0YWxfYmluZGluZycsICctaW1hZScsICc8aW5maWxlLm1hZT4nLCAnLW9tYWUnLCAnPG91dGZpbGUubWFlPic=

> <r_epik_Ionization_Penalty>
6.7666

> <r_epik_Ionization_Penalty_Charging>
6.7666

> <r_epik_Ionization_Penalty_Neutral>
5.77131e-06

> <r_epik_State_Penalty>
6.79217

> <r_epik_Charging_Adjusted_Penalty>
13.5588

> <i_epik_Tot_Q>
0

> <i_epik_Tot_abs_Q>
2

> <r_epik_Metal_State_Penalty>
2.72569

> <b_epik_Metal_Only>
1

> <s_lp_Force_Field>
OPLS_2005

> <r_lp_Energy>
19.0994

> <b_lp_Chiralities_Consistent>
1

> <s_lp_Variant>
AV-unprocessed.smi:2031-3

> <Gold.Version>
5.8.1

> <Gold.Id.Protein>
6NUR|6NUR_protein|mol2

> <Gold.PLP.Fitness>
37.2829

> <Gold.PLP.PLP>
-26.3689

> <Gold.PLP.part.hbond>
-3.0000

> <Gold.PLP.part.metal>
0.0000

> <Gold.PLP.part.buried>
-4.8415

> <Gold.PLP.part.nonpolar>
-19.5357

> <Gold.PLP.part.repulsive>
0.0535

> <Gold.PLP.ligand.clash>
0.0000

> <Gold.PLP.ligand.torsion>
0.2642

> <Gold.PLP.Chemscore.Hbond>
3.7920

> <Gold.PLP.Chemscore.CHOScore>
0.0000

> <Gold.PLP.Chemscore.Metal>
0.0000

> <Gold.Chemscore.Hbonds>
donor molecule, donor type, donor heavy atom, donor atom, acceptor molecule, acceptor atom, score
      L1  H    11    41       P1 10957  2.00
      P1  H  6931  6943       L1    19  0.94
      P1  H  6934  6947       L1    19  0.91

> <Gold.PLP.Chemscore.Internal.Correction>
0.0664

> <Gold.Rescore>
     Score         DG    S(hbond)    S(metal)    S(lipo)     H(rot)  DE(clash)    DE(int)     intcor
     13.88     -15.63       2.06        0.00      61.58       1.54       0.07       1.68       ----

> <Gold.Chemscore.Fitness>
13.8850

> <Gold.Chemscore.DG>
-15.6325

> <Gold.Chemscore.ZeroCoef>
-5.4800

> <Gold.Chemscore.Hbond>
2.0637

> <Gold.Chemscore.Metal>
0.0000

> <Gold.Chemscore.Lipo>
61.5752

> <Gold.Chemscore.Internal_Hbond>
0.0000

> <Gold.Chemscore.DEClash>
0.0679

> <Gold.Chemscore.DEInternal>
1.6796

> <Gold.Chemscore.Rot>
1.5409

> <Gold.Chemscore.Internal.Correction>
   9.000000E+99

> <Gold.Chemscore.Hbonds>
donor molecule, donor type, donor heavy atom, donor atom, acceptor molecule, acceptor atom, score
      L1  H    11    41       P1 10957  0.44
      P1  H  6931  6943       L1    19  0.40
      P1  H  6934  6947       L1    19  0.31

> <Gold.Chemscore.Hbond.Weighted>
-6.8928

> <Gold.Chemscore.Metal.Weighted>
-0.0000

> <Gold.Chemscore.Lipo.Weighted>
-7.2043

> <Gold.Chemscore.Internal_Hbond.Weighted>
0.0000

> <Gold.Chemscore.DEClash.Weighted>
0.0679

> <Gold.Chemscore.DEInternal.Weighted>
1.6796

> <Gold.Chemscore.Rot.Weighted>
3.9446

> <Gold.Chemscore.Internal.Correction.Weighted>
   9.000000E+99

> <Gold.Protein.RotatedTorsions>
[ 6907 6896 6895 6894 ] final   -5.69 input  -60.11 | X-H torsion
[ 7974 7965 7964 7962 ] final -157.14 input  175.53 | X-H torsion
[ 8008 7997 7996 7995 ] final   56.41 input   59.86 | X-H torsion
[ 10167 10162 10161 10158 ] final  112.15 input  -65.29 | X-H torsion
[ 10718 10713 10712 10709 ] final -107.84 input   66.30 | X-H torsion
[ 10763 10752 10751 10750 ] final   56.60 input  -60.55 | X-H torsion
[ 11005 11000 10999 10996 ] final -160.02 input  -57.11 | X-H torsion

> <Gold.Protein.ActiveResidues>
 VAL166  LYS551  ARG553  GLY616  TRP617  ASP618  TYR619  PRO620  LYS621  CYS622 
 ASP623  PHE694  ASN695  SER759  ASP760  ASP761  ALA762  ILE779  LEU786  VAL792 
 PHE793  MET794  SER795  GLU796  ALA797  LYS798  CYS799  TRP800  GLU811  SER814 

> <Gold.Protein.RotatedAtoms>
  151.4775  135.1050  159.9768 H   0  0  0  0  0  0  0  0  0  0  0  0  # atno 6907 bound_to 6896
  152.4792  133.8209  159.7063 H   0  0  0  0  0  0  0  0  0  0  0  0  # atno 6908 bound_to 6896
  150.8852  133.7257  159.2947 H   0  0  0  0  0  0  0  0  0  0  0  0  # atno 6909 bound_to 6896
  144.7561  140.4011  143.6011 H   0  0  0  0  0  0  0  0  0  0  0  0  # atno 7974 bound_to 7965
  155.5170  140.3478  155.4399 H   0  0  0  0  0  0  0  0  0  0  0  0  # atno 8008 bound_to 7997
  156.0811  140.1386  156.9738 H   0  0  0  0  0  0  0  0  0  0  0  0  # atno 8009 bound_to 7997
  154.4580  140.0946  156.6789 H   0  0  0  0  0  0  0  0  0  0  0  0  # atno 8010 bound_to 7997
  139.6557  144.7129  151.1962 H   0  0  0  0  0  0  0  0  0  0  0  0  # atno 10167 bound_to 10162
  156.0456  130.5682  150.7877 H   0  0  0  0  0  0  0  0  0  0  0  0  # atno 10718 bound_to 10713
  152.9835  135.5670  154.5255 H   0  0  0  0  0  0  0  0  0  0  0  0  # atno 10763 bound_to 10752
  154.4736  135.2786  155.1626 H   0  0  0  0  0  0  0  0  0  0  0  0  # atno 10764 bound_to 10752
  154.3164  135.6278  153.5541 H   0  0  0  0  0  0  0  0  0  0  0  0  # atno 10765 bound_to 10752
  140.6362  134.4599  157.5231 H   0  0  0  0  0  0  0  0  0  0  0  0  # atno 11005 bound_to 11000
  145.6774  139.1611  143.2720 LP  0  0  0  0  0  0  0  0  0  0  0  0  # atno 17320 bound_to 7965
  146.1573  140.6839  142.9294 LP  0  0  0  0  0  0  0  0  0  0  0  0  # atno 17321 bound_to 7965
  140.7558  143.6076  150.8637 LP  0  0  0  0  0  0  0  0  0  0  0  0  # atno 17342 bound_to 10162
  139.9729  143.6037  152.2968 LP  0  0  0  0  0  0  0  0  0  0  0  0  # atno 17343 bound_to 10162
  157.5327  131.0937  150.9934 LP  0  0  0  0  0  0  0  0  0  0  0  0  # atno 17370 bound_to 10713
  157.0236  130.5684  149.5334 LP  0  0  0  0  0  0  0  0  0  0  0  0  # atno 17371 bound_to 10713
  139.9097  134.8371  156.1573 LP  0  0  0  0  0  0  0  0  0  0  0  0  # atno 17394 bound_to 11000
  141.0640  133.6828  156.2008 LP  0  0  0  0  0  0  0  0  0  0  0  0  # atno 17395 bound_to 11000

$$$$
