AV-unprocessed.smi:587|AV-procd|sdf|3002|dock10
  -GOLD-   2262023513D 1   1.00000     0.00000
 Structure written by MMmdl.
 46 48  0  0  0  0  0  0  0  0  1 V2000
  149.8180  130.8997  154.3958 C   0  0  0  0  0  0  0  0  0  0  0  0
  148.9899  132.0548  154.1189 N   0  0  0  0  0  0  0  0  0  0  0  0
  148.0151  132.1080  153.1250 C   0  0  0  0  0  0  0  0  0  0  0  0
  147.8493  131.0022  152.3074 N   0  0  0  0  0  0  0  0  0  0  0  0
  147.2614  133.2236  152.9205 C   0  0  0  0  0  0  0  0  0  0  0  0
  146.2771  133.3189  151.9356 N   0  0  0  0  0  0  0  0  0  0  0  0
  146.1970  134.4270  150.9848 C   0  0  0  0  0  0  0  0  0  0  0  0
  144.8370  135.1456  151.0680 C   0  0  0  0  0  0  0  0  0  0  0  0
  143.6766  134.1494  150.9188 C   0  0  0  0  0  0  0  0  0  0  0  0
  143.8269  133.0016  151.9289 C   0  0  0  0  0  0  0  0  0  0  0  0
  145.2055  132.3345  151.7927 C   0  0  0  0  0  0  0  0  0  0  0  0
  147.4522  134.4163  153.7565 C   0  0  0  0  0  0  0  0  0  0  0  0
  146.7880  135.4484  153.6316 O   0  0  0  0  0  0  0  0  0  0  0  0
  148.4643  134.3379  154.7393 N   0  0  0  0  0  0  0  0  0  0  0  0
  148.7376  135.5290  155.5759 C   0  0  0  0  0  0  0  0  0  0  0  0
  149.9557  136.3409  155.1075 C   0  0  0  0  0  0  0  0  0  0  0  0
  151.0607  135.8112  154.9776 O   0  0  0  0  0  0  0  0  0  0  0  0
  149.7281  137.6379  154.8553 N   0  0  0  0  0  0  0  0  0  0  0  0
  150.7015  138.5758  154.3976 C   0  0  0  0  0  0  0  0  0  0  0  0
  152.0063  138.6682  155.1584 C   0  0  0  0  0  0  0  0  0  0  0  0
  150.9905  139.7705  155.2807 C   0  0  0  0  0  0  0  0  0  0  0  0
  149.2523  133.1843  154.9269 C   0  0  0  0  0  0  0  0  0  0  0  0
  150.1492  133.1691  155.7757 O   0  0  0  0  0  0  0  0  0  0  0  0
  149.4452  130.0302  153.8584 H   0  0  0  0  0  0  0  0  0  0  0  0
  149.7693  130.6966  155.4673 H   0  0  0  0  0  0  0  0  0  0  0  0
  150.8316  131.1453  154.0746 H   0  0  0  0  0  0  0  0  0  0  0  0
  148.4172  130.1752  152.4236 H   0  0  0  0  0  0  0  0  0  0  0  0
  147.0764  130.9287  151.6619 H   0  0  0  0  0  0  0  0  0  0  0  0
  147.0062  135.1363  151.1630 H   0  0  0  0  0  0  0  0  0  0  0  0
  146.3504  134.0326  149.9795 H   0  0  0  0  0  0  0  0  0  0  0  0
  144.7471  135.6646  152.0221 H   0  0  0  0  0  0  0  0  0  0  0  0
  144.7729  135.9122  150.2956 H   0  0  0  0  0  0  0  0  0  0  0  0
  142.7222  134.6567  151.0624 H   0  0  0  0  0  0  0  0  0  0  0  0
  143.6677  133.7461  149.9054 H   0  0  0  0  0  0  0  0  0  0  0  0
  143.7060  133.3858  152.9427 H   0  0  0  0  0  0  0  0  0  0  0  0
  143.0378  132.2644  151.7786 H   0  0  0  0  0  0  0  0  0  0  0  0
  145.2980  131.8469  150.8212 H   0  0  0  0  0  0  0  0  0  0  0  0
  145.3064  131.5520  152.5460 H   0  0  0  0  0  0  0  0  0  0  0  0
  147.8725  136.1931  155.6078 H   0  0  0  0  0  0  0  0  0  0  0  0
  148.8877  135.2490  156.6197 H   0  0  0  0  0  0  0  0  0  0  0  0
  148.7902  137.9872  154.9901 H   0  0  0  0  0  0  0  0  0  0  0  0
  150.7572  138.7554  153.3247 H   0  0  0  0  0  0  0  0  0  0  0  0
  152.1431  138.0129  156.0168 H   0  0  0  0  0  0  0  0  0  0  0  0
  152.9067  138.8754  154.5834 H   0  0  0  0  0  0  0  0  0  0  0  0
  151.2136  140.7157  154.7896 H   0  0  0  0  0  0  0  0  0  0  0  0
  150.4506  139.8515  156.2224 H   0  0  0  0  0  0  0  0  0  0  0  0
  1  2  1  0  0  0  0
  1 24  1  0  0  0  0
  1 25  1  0  0  0  0
  1 26  1  0  0  0  0
  2 22  1  0  0  0  0
  2  3  1  0  0  0  0
  3  4  1  0  0  0  0
  3  5  2  0  0  0  0
  4 27  1  0  0  0  0
  4 28  1  0  0  0  0
  5  6  1  0  0  0  0
  5 12  1  0  0  0  0
  6 11  1  0  0  0  0
  6  7  1  0  0  0  0
  7  8  1  0  0  0  0
  7 29  1  0  0  0  0
  7 30  1  0  0  0  0
  8  9  1  0  0  0  0
  8 31  1  0  0  0  0
  8 32  1  0  0  0  0
  9 10  1  0  0  0  0
  9 33  1  0  0  0  0
  9 34  1  0  0  0  0
 10 11  1  0  0  0  0
 10 35  1  0  0  0  0
 10 36  1  0  0  0  0
 11 37  1  0  0  0  0
 11 38  1  0  0  0  0
 12 13  2  0  0  0  0
 12 14  1  0  0  0  0
 14 15  1  0  0  0  0
 14 22  1  0  0  0  0
 15 16  1  0  0  0  0
 15 39  1  0  0  0  0
 15 40  1  0  0  0  0
 16 17  2  0  0  0  0
 16 18  1  0  0  0  0
 18 19  1  0  0  0  0
 18 41  1  0  0  0  0
 19 21  1  0  0  0  0
 19 20  1  0  0  0  0
 19 42  1  0  0  0  0
 20 21  1  0  0  0  0
 20 43  1  0  0  0  0
 20 44  1  0  0  0  0
 21 45  1  0  0  0  0
 21 46  1  0  0  0  0
 22 23  2  0  0  0  0
M  END
> <s_m_source_file>
AV-unprocessed.smi

> <i_m_source_file_index>
587

> <i_lp_mmshare_version>
43012

> <i_f3d_flags>
0

> <s_epik_input>
W0NIMl0xW0NIMl1bQ0gyXVtDSDJdW0NIMl1OMWMoYyhbTkgyXSluMltDSDNdKWMoPU8pbihjMj1PKVtDSDJdQyg9TylbTkhdW0NIXTNbQ0gyXVtDSDJdMw==

> <s_epik_cmdline>
J2VwaWtfcHl0aG9uJywgJy1waCcsICc3LjAnLCAnLXRuJywgJzgnLCAnLW1hJywgJzIwMCcsICctbWV0YWxfYmluZGluZycsICctaW1hZScsICc8aW5maWxlLm1hZT4nLCAnLW9tYWUnLCAnPG91dGZpbGUubWFlPic=

> <r_lp_tautomer_probability>
0.999881

> <r_epik_Ionization_Penalty>
0.00852669

> <r_epik_Ionization_Penalty_Charging>
2.6249e-08

> <r_epik_Ionization_Penalty_Neutral>
0.00852666

> <r_epik_State_Penalty>
0.00667057

> <r_epik_Charging_Adjusted_Penalty>
0.00667059

> <i_epik_Tot_Q>
0

> <i_epik_Tot_abs_Q>
0

> <r_epik_Metal_State_Penalty>
0.00667057

> <b_epik_Metal_Only>
0

> <s_lp_Force_Field>
OPLS_2005

> <r_lp_Energy>
38.4775

> <b_lp_Chiralities_Consistent>
1

> <s_lp_Variant>
AV-unprocessed.smi:587-1

> <Gold.Version>
5.8.1

> <Gold.Id.Protein>
6NUR|6NUR_protein|mol2

> <Gold.PLP.Fitness>
37.5436

> <Gold.PLP.PLP>
-35.1607

> <Gold.PLP.part.hbond>
-1.3165

> <Gold.PLP.part.metal>
0.0000

> <Gold.PLP.part.buried>
-1.3075

> <Gold.PLP.part.nonpolar>
-34.2656

> <Gold.PLP.part.repulsive>
1.8004

> <Gold.PLP.ligand.clash>
0.0000

> <Gold.PLP.ligand.torsion>
1.2412

> <Gold.PLP.Chemscore.Hbond>
1.0000

> <Gold.PLP.Chemscore.CHOScore>
0.0000

> <Gold.PLP.Chemscore.Metal>
0.0000

> <Gold.Chemscore.Hbonds>
donor molecule, donor type, donor heavy atom, donor atom, acceptor molecule, acceptor atom, score
      P1  H 10752 10764       L1    17  1.00

> <Gold.PLP.Chemscore.Internal.Correction>
1.8654

> <Gold.Rescore>
     Score         DG    S(hbond)    S(metal)    S(lipo)     H(rot)  DE(clash)    DE(int)     intcor
      7.35     -11.93       1.07        0.00      58.68       1.56       0.12       4.47       ----

> <Gold.Chemscore.Fitness>
7.3482

> <Gold.Chemscore.DG>
-11.9338

> <Gold.Chemscore.ZeroCoef>
-5.4800

> <Gold.Chemscore.Hbond>
1.0707

> <Gold.Chemscore.Metal>
0.0000

> <Gold.Chemscore.Lipo>
58.6776

> <Gold.Chemscore.Internal_Hbond>
0.0000

> <Gold.Chemscore.DEClash>
0.1205

> <Gold.Chemscore.DEInternal>
4.4652

> <Gold.Chemscore.Rot>
1.5577

> <Gold.Chemscore.Internal.Correction>
   9.000000E+99

> <Gold.Chemscore.Hbonds>
donor molecule, donor type, donor heavy atom, donor atom, acceptor molecule, acceptor atom, score
      P1  H 10752 10764       L1    17  0.99

> <Gold.Chemscore.Hbond.Weighted>
-3.5763

> <Gold.Chemscore.Metal.Weighted>
-0.0000

> <Gold.Chemscore.Lipo.Weighted>
-6.8653

> <Gold.Chemscore.Internal_Hbond.Weighted>
0.0000

> <Gold.Chemscore.DEClash.Weighted>
0.1205

> <Gold.Chemscore.DEInternal.Weighted>
4.4652

> <Gold.Chemscore.Rot.Weighted>
3.9877

> <Gold.Chemscore.Internal.Correction.Weighted>
   9.000000E+99

> <Gold.Protein.RotatedTorsions>
[ 6907 6896 6895 6894 ] final  -13.68 input  -60.11 | X-H torsion
[ 7974 7965 7964 7962 ] final   41.05 input  175.53 | X-H torsion
[ 8008 7997 7996 7995 ] final   80.22 input   59.86 | X-H torsion
[ 10167 10162 10161 10158 ] final   79.78 input  -65.29 | X-H torsion
[ 10718 10713 10712 10709 ] final   40.83 input   66.30 | X-H torsion
[ 10763 10752 10751 10750 ] final  -52.80 input  -60.55 | X-H torsion
[ 11005 11000 10999 10996 ] final -128.50 input  -57.11 | X-H torsion

> <Gold.Protein.ActiveResidues>
 VAL166  LYS551  ARG553  GLY616  TRP617  ASP618  TYR619  PRO620  LYS621  CYS622 
 ASP623  PHE694  ASN695  SER759  ASP760  ASP761  ALA762  ILE779  LEU786  VAL792 
 PHE793  MET794  SER795  GLU796  ALA797  LYS798  CYS799  TRP800  GLU811  SER814 

> <Gold.Protein.RotatedAtoms>
  151.3511  135.0884  159.9402 H   0  0  0  0  0  0  0  0  0  0  0  0  # atno 6907 bound_to 6896
  152.5187  133.9351  159.7610 H   0  0  0  0  0  0  0  0  0  0  0  0  # atno 6908 bound_to 6896
  150.9727  133.6273  159.2765 H   0  0  0  0  0  0  0  0  0  0  0  0  # atno 6909 bound_to 6896
  146.0855  139.5462  142.9509 H   0  0  0  0  0  0  0  0  0  0  0  0  # atno 7974 bound_to 7965
  155.8805  140.3444  155.5885 H   0  0  0  0  0  0  0  0  0  0  0  0  # atno 8008 bound_to 7997
  155.7725  140.0847  157.2120 H   0  0  0  0  0  0  0  0  0  0  0  0  # atno 8009 bound_to 7997
  154.4024  140.1516  156.2945 H   0  0  0  0  0  0  0  0  0  0  0  0  # atno 8010 bound_to 7997
  139.9567  144.5989  150.8110 H   0  0  0  0  0  0  0  0  0  0  0  0  # atno 10167 bound_to 10162
  157.3867  130.7783  149.7236 H   0  0  0  0  0  0  0  0  0  0  0  0  # atno 10718 bound_to 10713
  154.1485  135.6494  153.4958 H   0  0  0  0  0  0  0  0  0  0  0  0  # atno 10763 bound_to 10752
  153.0144  135.5332  154.6832 H   0  0  0  0  0  0  0  0  0  0  0  0  # atno 10764 bound_to 10752
  154.6113  135.2954  155.0400 H   0  0  0  0  0  0  0  0  0  0  0  0  # atno 10765 bound_to 10752
  140.9511  134.1064  157.4061 H   0  0  0  0  0  0  0  0  0  0  0  0  # atno 11005 bound_to 11000
  145.6137  141.0335  143.1952 LP  0  0  0  0  0  0  0  0  0  0  0  0  # atno 17320 bound_to 7965
  144.7323  139.7689  143.7342 LP  0  0  0  0  0  0  0  0  0  0  0  0  # atno 17321 bound_to 7965
  140.7566  143.3069  151.2939 LP  0  0  0  0  0  0  0  0  0  0  0  0  # atno 17342 bound_to 10162
  139.6586  144.0230  152.2677 LP  0  0  0  0  0  0  0  0  0  0  0  0  # atno 17343 bound_to 10162
  155.9788  130.4047  150.3624 LP  0  0  0  0  0  0  0  0  0  0  0  0  # atno 17370 bound_to 10713
  157.1735  131.0374  151.2784 LP  0  0  0  0  0  0  0  0  0  0  0  0  # atno 17371 bound_to 10713
  139.8848  135.0066  156.6391 LP  0  0  0  0  0  0  0  0  0  0  0  0  # atno 17394 bound_to 11000
  140.7601  133.8824  155.8412 LP  0  0  0  0  0  0  0  0  0  0  0  0  # atno 17395 bound_to 11000

$$$$
