#       Name:                AV-unprocessed.smi:1709
#       Creating user name   scv26
#       Creation time:       Fri Mar 27 08:09:51 2020


#       File generated by GOLD software.
#

@<TRIPOS>MOLECULE
AV-unprocessed.smi:1709
    46    48     1
SMALL
NO_CHARGES


@<TRIPOS>ATOM
      1 ****        -2.0962  -4.4553  -0.7763 C.3            1 S1                 0.0000
      2 ****        -0.7053  -4.7674  -1.3054 C.ar           1 S1                 0.0000
      3 ****        -0.4866  -5.9849  -1.9844 C.ar           1 S1                 0.0000
      4 ****         0.7972  -6.2755  -2.4752 C.ar           1 S1                 0.0000
      5 ****         1.8146  -5.3303  -2.2638 C.ar           1 S1                 0.0000
      6 ****         1.6140  -4.1646  -1.6155 N.ar           1 S1                 0.0000
      7 ****         0.3793  -3.8644  -1.1359 C.ar           1 S1                 0.0000
      8 ****         0.0764  -2.6550  -0.4357 N.am           1 S1                 0.0000
      9 ****         0.8272  -1.5739  -0.1339 C.2            1 S1                 0.0000
     10 ****         2.0074  -1.5080  -0.4730 O.2            1 S1                 0.0000
     11 ****         0.2152  -0.5935   0.5500 N.am           1 S1                 0.0000
     12 ****         0.8324   0.6542   0.9875 C.3            1 S1                 0.0000
     13 ****         0.2020   1.2159   2.2560 C.3            1 S1                 0.0000
     14 ****         0.6378   2.6814   2.2123 C.3            1 S1                 0.0000
     15 ****         0.6880   3.0505   0.7788 N.4            1 S1                 1.0000
     16 ****         1.7741   3.9968   0.4250 C.3            1 S1                 0.0000
     17 ****         1.7325   4.3395  -1.0758 C.3            1 S1                 0.0000
     18 ****         1.6346   3.0926  -1.9798 C.3            1 S1                 0.0000
     19 ****         1.6743   1.7829  -1.1775 C.3            1 S1                 0.0000
     20 ****         0.6440   1.7961  -0.0254 C.3            1 S1                 0.0000
     21 ****        -2.7899  -5.2729  -0.9743 H              1 S1                 0.0000
     22 ****        -2.4923  -3.5573  -1.2514 H              1 S1                 0.0000
     23 ****        -2.0694  -4.2949   0.3019 H              1 S1                 0.0000
     24 ****        -1.2920  -6.6901  -2.1294 H              1 S1                 0.0000
     25 ****         0.9963  -7.1985  -2.9995 H              1 S1                 0.0000
     26 ****         2.8158  -5.5132  -2.6244 H              1 S1                 0.0000
     27 ****        -0.8738  -2.6036  -0.0986 H              1 S1                 0.0000
     28 ****        -0.7574  -0.7310   0.7886 H              1 S1                 0.0000
     29 ****         1.8963   0.5029   1.1824 H              1 S1                 0.0000
     30 ****        -0.8860   1.1476   2.2051 H              1 S1                 0.0000
     31 ****         0.5333   0.7030   3.1597 H              1 S1                 0.0000
     32 ****        -0.0358   3.3340   2.7681 H              1 S1                 0.0000
     33 ****         1.6309   2.7730   2.6553 H              1 S1                 0.0000
     34 ****         1.6726   4.9061   1.0186 H              1 S1                 0.0000
     35 ****         2.7402   3.5602   0.6833 H              1 S1                 0.0000
     36 ****         0.8797   4.9900  -1.2741 H              1 S1                 0.0000
     37 ****         2.6177   4.9195  -1.3383 H              1 S1                 0.0000
     38 ****         0.7037   3.1348  -2.5465 H              1 S1                 0.0000
     39 ****         2.4373   3.0996  -2.7180 H              1 S1                 0.0000
     40 ****         1.4856   0.9374  -1.8395 H              1 S1                 0.0000
     41 ****         2.6796   1.6353  -0.7803 H              1 S1                 0.0000
     42 ****        -0.3615   1.7444  -0.4466 H              1 S1                 0.0000
     43 ****        -0.1781   3.5285   0.5748 H              1 S1                 0.0000
     44 ****         2.3714  -3.5241  -1.4884 LP             1 S1                 0.0000
     45 ****         2.4248  -2.2621  -0.9801 LP             1 S1                 0.0000
     46 ****         2.5497  -0.7004  -0.2417 LP             1 S1                 0.0000
@<TRIPOS>BOND
    1    1    2 1     
    2    1   21 1     
    3    1   22 1     
    4    1   23 1     
    5    2    7 ar    
    6    2    3 ar    
    7    3    4 ar    
    8    3   24 1     
    9    4    5 ar    
   10    4   25 1     
   11    5    6 ar    
   12    5   26 1     
   13    6    7 ar    
   14    7    8 1     
   15    8    9 am    
   16    8   27 1     
   17    9   10 2     
   18    9   11 am    
   19   11   12 1     
   20   11   28 1     
   21   12   20 1     
   22   12   13 1     
   23   12   29 1     
   24   13   14 1     
   25   13   30 1     
   26   13   31 1     
   27   14   15 1     
   28   14   32 1     
   29   14   33 1     
   30   15   20 1     
   31   15   16 1     
   32   15   43 1     
   33   16   17 1     
   34   16   34 1     
   35   16   35 1     
   36   17   18 1     
   37   17   36 1     
   38   17   37 1     
   39   18   19 1     
   40   18   38 1     
   41   18   39 1     
   42   19   20 1     
   43   19   40 1     
   44   19   41 1     
   45   20   42 1     
   46    6   44 1     
   47   10   45 1     
   48   10   46 1     
@<TRIPOS>SUBSTRUCTURE
      1 S1             1
@<TRIPOS>SET
LONE_PAIRS      STATIC     ATOMS    <user>   **** ""
3 44 45 46
DONOR_HYDROGENS      STATIC     ATOMS    <user>   **** ""
3 27 28 43
ATOM$BLUE        STATIC     ATOMS    COLORGROUP SYSTEM
3 44 45 46
ATOM$RED        STATIC     ATOMS    COLORGROUP SYSTEM
3 27 28 43
