AV-unprocessed.smi:3150|AV-procd|sdf|12011|dock4
  -GOLD-   2272017423D 1   1.00000     0.00000
 Structure written by MMmdl.
 32 33  0  0  0  0  0  0  0  0  2 V2000
  154.3570  141.3080  160.3138 C   0  0  0  0  0  0  0  0  0  0  0  0
  153.7342  141.3635  158.9123 C   0  0  2  0  0  0  0  0  0  0  0  0
  152.6348  142.2690  158.9613 O   0  0  0  0  0  0  0  0  0  0  0  0
  152.9884  143.6489  158.9682 C   0  0  0  0  0  0  0  0  0  0  0  0
  151.7620  144.5280  159.1297 C   0  0  0  0  0  0  0  0  0  0  0  0
  151.7931  145.7622  160.0076 C   0  0  0  0  0  0  0  0  0  0  0  0
  150.9958  144.5602  160.4360 C   0  0  0  0  0  0  0  0  0  0  0  0
  153.2616  139.9684  158.4711 C   0  0  0  0  0  0  0  0  0  0  0  0
  153.3397  139.0373  159.2777 O   0  0  0  0  0  0  0  0  0  0  0  0
  152.7916  139.9687  157.1605 N   0  0  0  0  0  0  0  0  0  0  0  0
  152.2367  138.9327  156.5926 C   0  0  0  0  0  0  0  0  0  0  0  0
  152.0516  137.7011  157.2448 N   0  0  0  0  0  0  0  0  0  0  0  0
  151.4640  136.6103  156.6399 C   0  0  0  0  0  0  0  0  0  0  0  0
  151.0298  136.6612  155.3797 C   0  0  0  0  0  0  0  0  0  0  0  0
  151.1823  137.8951  154.6365 C   0  0  0  0  0  0  0  0  0  0  0  0
  151.7708  139.0344  155.1977 C   0  0  0  0  0  0  0  0  0  0  0  0
  151.8815  140.0809  154.5175 O   0  5  0  0  0  0  0  0  0  0  0  0
  155.2172  140.6378  160.3382 H   0  0  0  0  0  0  0  0  0  0  0  0
  153.6388  140.9608  161.0576 H   0  0  0  0  0  0  0  0  0  0  0  0
  154.7007  142.2955  160.6224 H   0  0  0  0  0  0  0  0  0  0  0  0
  154.4836  141.7498  158.2179 H   0  0  0  0  0  0  0  0  0  0  0  0
  153.6735  143.8530  159.7917 H   0  0  0  0  0  0  0  0  0  0  0  0
  153.4925  143.9318  158.0437 H   0  0  0  0  0  0  0  0  0  0  0  0
  151.1600  144.6037  158.2263 H   0  0  0  0  0  0  0  0  0  0  0  0
  152.7077  145.9794  160.5556 H   0  0  0  0  0  0  0  0  0  0  0  0
  151.2405  146.6340  159.6640 H   0  0  0  0  0  0  0  0  0  0  0  0
  149.9116  144.6311  160.3789 H   0  0  0  0  0  0  0  0  0  0  0  0
  151.3792  143.9732  161.2683 H   0  0  0  0  0  0  0  0  0  0  0  0
  151.3894  135.7315  157.2630 H   0  0  0  0  0  0  0  0  0  0  0  0
  150.5724  135.7973  154.9209 H   0  0  0  0  0  0  0  0  0  0  0  0
  150.8264  137.9248  153.6167 H   0  0  0  0  0  0  0  0  0  0  0  0
  152.3508  137.5738  158.2002 H   0  0  0  0  0  0  0  0  0  0  0  0
  1  2  1  0  0  0  0
  1 18  1  0  0  0  0
  1 19  1  0  0  0  0
  1 20  1  0  0  0  0
  2  3  1  0  0  0  0
  2  8  1  0  0  0  0
  2 21  1  0  0  0  0
  3  4  1  0  0  0  0
  4  5  1  0  0  0  0
  4 22  1  0  0  0  0
  4 23  1  0  0  0  0
  5  7  1  0  0  0  0
  5  6  1  0  0  0  0
  5 24  1  0  0  0  0
  6  7  1  0  0  0  0
  6 25  1  0  0  0  0
  6 26  1  0  0  0  0
  7 27  1  0  0  0  0
  7 28  1  0  0  0  0
  8  9  2  0  0  0  0
  8 10  1  0  0  0  0
 10 11  2  0  0  0  0
 11 16  1  0  0  0  0
 11 12  1  0  0  0  0
 12 32  1  0  0  0  0
 12 13  1  0  0  0  0
 13 29  1  0  0  0  0
 13 14  2  0  0  0  0
 14 30  1  0  0  0  0
 14 15  1  0  0  0  0
 15 16  2  0  0  0  0
 15 31  1  0  0  0  0
 16 17  1  0  0  0  0
M  CHG  1  17  -1
M  END
> <s_m_source_file>
AV-unprocessed.smi

> <i_m_source_file_index>
3150

> <i_lp_mmshare_version>
43012

> <i_f3d_flags>
0

> <s_epik_input>
W0NIMl0xW0NIMl1bQ0hdMVtDSDJdT1tDQEBIXShbQ0gzXSlDKD1PKVtOSF1jMm5bY0hdW2NIXVtjSF1jMltPSF0=

> <s_epik_cmdline>
J2VwaWtfcHl0aG9uJywgJy1waCcsICc3LjAnLCAnLXRuJywgJzgnLCAnLW1hJywgJzIwMCcsICctbWV0YWxfYmluZGluZycsICctaW1hZScsICc8aW5maWxlLm1hZT4nLCAnLW9tYWUnLCAnPG91dGZpbGUubWFlPic=

> <r_epik_Ionization_Penalty>
0.784632

> <r_epik_Ionization_Penalty_Charging>
0.784632

> <r_epik_Ionization_Penalty_Neutral>
7.02258e-13

> <r_epik_State_Penalty>
1.43154

> <r_epik_Charging_Adjusted_Penalty>
2.21617

> <i_epik_Tot_Q>
-1

> <i_epik_Tot_abs_Q>
1

> <r_epik_Metal_State_Penalty>
1.39244

> <b_epik_Metal_Only>
0

> <s_lp_Force_Field>
OPLS_2005

> <r_lp_Energy>
43.7392

> <b_lp_Chiralities_Consistent>
1

> <s_lp_Variant>
AV-unprocessed.smi:3150-5

> <Gold.Version>
5.8.1

> <Gold.Id.Protein>
6NUR|6NUR_protein|mol2

> <Gold.PLP.Fitness>
40.1630

> <Gold.PLP.PLP>
-35.6698

> <Gold.PLP.part.hbond>
-1.9504

> <Gold.PLP.part.metal>
0.0000

> <Gold.PLP.part.buried>
-5.3502

> <Gold.PLP.part.nonpolar>
-28.8266

> <Gold.PLP.part.repulsive>
0.1336

> <Gold.PLP.ligand.clash>
0.0000

> <Gold.PLP.ligand.torsion>
0.5113

> <Gold.PLP.Chemscore.Hbond>
1.6560

> <Gold.PLP.Chemscore.CHOScore>
0.0000

> <Gold.PLP.Chemscore.Metal>
0.0000

> <Gold.Chemscore.Hbonds>
donor molecule, donor type, donor heavy atom, donor atom, acceptor molecule, acceptor atom, score
      P1  H  7989  7998       L1    17  0.39
      P1  H  7997  8009       L1    10  0.45

> <Gold.PLP.Chemscore.Internal.Correction>
0.5479

> <Gold.Rescore>
     Score         DG    S(hbond)    S(metal)    S(lipo)     H(rot)  DE(clash)    DE(int)     intcor
     14.96     -15.55       1.22        0.00      87.22       1.64       0.00       0.59       ----

> <Gold.Chemscore.Fitness>
14.9593

> <Gold.Chemscore.DG>
-15.5530

> <Gold.Chemscore.ZeroCoef>
-5.4800

> <Gold.Chemscore.Hbond>
1.2165

> <Gold.Chemscore.Metal>
0.0000

> <Gold.Chemscore.Lipo>
87.2231

> <Gold.Chemscore.Internal_Hbond>
0.0000

> <Gold.Chemscore.DEClash>
0.0000

> <Gold.Chemscore.DEInternal>
0.5937

> <Gold.Chemscore.Rot>
1.6387

> <Gold.Chemscore.Internal.Correction>
   9.000000E+99

> <Gold.Chemscore.Hbonds>
donor molecule, donor type, donor heavy atom, donor atom, acceptor molecule, acceptor atom, score
      P1  H  7989  7998       L1    17  0.37
      P1  H  7997  8009       L1    10  0.01

> <Gold.Chemscore.Hbond.Weighted>
-4.0630

> <Gold.Chemscore.Metal.Weighted>
-0.0000

> <Gold.Chemscore.Lipo.Weighted>
-10.2051

> <Gold.Chemscore.Internal_Hbond.Weighted>
0.0000

> <Gold.Chemscore.DEClash.Weighted>
0.0000

> <Gold.Chemscore.DEInternal.Weighted>
0.5937

> <Gold.Chemscore.Rot.Weighted>
4.1950

> <Gold.Chemscore.Internal.Correction.Weighted>
   9.000000E+99

> <Gold.Protein.RotatedTorsions>
[ 6907 6896 6895 6894 ] final -124.08 input  -60.11 | X-H torsion
[ 7974 7965 7964 7962 ] final -163.58 input  175.53 | X-H torsion
[ 8008 7997 7996 7995 ] final -179.16 input   59.86 | X-H torsion
[ 10167 10162 10161 10158 ] final    2.90 input  -65.29 | X-H torsion
[ 10718 10713 10712 10709 ] final   18.27 input   66.30 | X-H torsion
[ 10763 10752 10751 10750 ] final  -79.54 input  -60.55 | X-H torsion
[ 11005 11000 10999 10996 ] final   73.54 input  -57.11 | X-H torsion

> <Gold.Protein.ActiveResidues>
 VAL166  LYS551  ARG553  GLY616  TRP617  ASP618  TYR619  PRO620  LYS621  CYS622 
 ASP623  PHE694  ASN695  SER759  ASP760  ASP761  ALA762  ILE779  LEU786  VAL792 
 PHE793  MET794  SER795  GLU796  ALA797  LYS798  CYS799  TRP800  GLU811  SER814 

> <Gold.Protein.RotatedAtoms>
  150.8733  133.7474  159.2954 H   0  0  0  0  0  0  0  0  0  0  0  0  # atno 6907 bound_to 6896
  151.5079  135.1062  159.9856 H   0  0  0  0  0  0  0  0  0  0  0  0  # atno 6908 bound_to 6896
  152.4710  133.7985  159.6996 H   0  0  0  0  0  0  0  0  0  0  0  0  # atno 6909 bound_to 6896
  144.7322  140.3086  143.6192 H   0  0  0  0  0  0  0  0  0  0  0  0  # atno 7974 bound_to 7965
  156.0272  140.1274  157.0296 H   0  0  0  0  0  0  0  0  0  0  0  0  # atno 8008 bound_to 7997
  154.4335  140.1057  156.6118 H   0  0  0  0  0  0  0  0  0  0  0  0  # atno 8009 bound_to 7997
  155.5859  140.3468  155.4555 H   0  0  0  0  0  0  0  0  0  0  0  0  # atno 8010 bound_to 7997
  140.6612  143.7298  150.7743 H   0  0  0  0  0  0  0  0  0  0  0  0  # atno 10167 bound_to 10162
  157.0939  130.6439  149.5855 H   0  0  0  0  0  0  0  0  0  0  0  0  # atno 10718 bound_to 10713
  154.5400  135.5692  153.6831 H   0  0  0  0  0  0  0  0  0  0  0  0  # atno 10763 bound_to 10752
  152.9961  135.6225  154.2515 H   0  0  0  0  0  0  0  0  0  0  0  0  # atno 10764 bound_to 10752
  154.2446  135.2861  155.2820 H   0  0  0  0  0  0  0  0  0  0  0  0  # atno 10765 bound_to 10752
  139.9435  134.7355  156.1038 H   0  0  0  0  0  0  0  0  0  0  0  0  # atno 11005 bound_to 11000
  145.7688  139.1850  143.2224 LP  0  0  0  0  0  0  0  0  0  0  0  0  # atno 17320 bound_to 7965
  146.0927  140.7636  142.9587 LP  0  0  0  0  0  0  0  0  0  0  0  0  # atno 17321 bound_to 7965
  140.0967  143.4826  152.2448 LP  0  0  0  0  0  0  0  0  0  0  0  0  # atno 17342 bound_to 10162
  139.5847  144.7526  151.3550 LP  0  0  0  0  0  0  0  0  0  0  0  0  # atno 17343 bound_to 10162
  155.9891  130.4937  150.7198 LP  0  0  0  0  0  0  0  0  0  0  0  0  # atno 17370 bound_to 10713
  157.4698  131.0892  151.0655 LP  0  0  0  0  0  0  0  0  0  0  0  0  # atno 17371 bound_to 10713
  141.1078  133.6654  156.2905 LP  0  0  0  0  0  0  0  0  0  0  0  0  # atno 17394 bound_to 11000
  140.5892  134.5667  157.5496 LP  0  0  0  0  0  0  0  0  0  0  0  0  # atno 17395 bound_to 11000

$$$$
