AV-unprocessed.smi:1902|AV-procd|sdf|7720|dock5
  -GOLD-   22720 9463D 1   1.00000     0.00000
 Structure written by MMmdl.
 44 45  0  0  0  0  0  0  0  0  2 V2000
  145.0495  133.0825  150.5713 C   0  0  0  0  0  0  0  0  0  0  0  0
  145.0611  134.2429  151.5765 C   0  0  2  0  0  0  0  0  0  0  0  0
  145.2193  135.6026  150.8758 C   0  0  0  0  0  0  0  0  0  0  0  0
  145.2653  136.7553  151.8932 C   0  0  0  0  0  0  0  0  0  0  0  0
  146.3519  136.5544  152.8867 N   0  3  1  0  0  0  0  0  0  0  0  0
  146.5008  137.7183  153.7961 C   0  0  0  0  0  0  0  0  0  0  0  0
  146.4732  139.0633  153.0435 C   0  0  0  0  0  0  0  0  0  0  0  0
  147.7161  139.8014  153.2322 N   0  0  0  0  0  0  0  0  0  0  0  0
  148.0567  140.4538  154.3537 C   0  0  0  0  0  0  0  0  0  0  0  0
  147.3236  140.5211  155.3412 O   0  0  0  0  0  0  0  0  0  0  0  0
  149.4295  141.1407  154.3489 C   0  0  0  0  0  0  0  0  0  0  0  0
  150.0992  141.0942  155.6595 N   0  0  0  0  0  0  0  0  0  0  0  0
  149.5622  141.8959  156.6864 C   0  0  0  0  0  0  0  0  0  0  0  0
  150.0949  141.9223  157.9183 C   0  0  0  0  0  0  0  0  0  0  0  0
  151.2514  141.0986  158.1799 C   0  0  0  0  0  0  0  0  0  0  0  0
  151.7719  140.3265  157.2055 C   0  0  0  0  0  0  0  0  0  0  0  0
  151.1923  140.2935  155.8579 C   0  0  0  0  0  0  0  0  0  0  0  0
  151.6582  139.5878  154.9624 O   0  0  0  0  0  0  0  0  0  0  0  0
  146.1966  135.2619  153.6057 C   0  0  0  0  0  0  0  0  0  0  0  0
  146.1764  134.0797  152.6223 C   0  0  0  0  0  0  0  0  0  0  0  0
  145.9834  133.0321  150.0106 H   0  0  0  0  0  0  0  0  0  0  0  0
  144.2362  133.1929  149.8535 H   0  0  0  0  0  0  0  0  0  0  0  0
  144.9134  132.1263  151.0771 H   0  0  0  0  0  0  0  0  0  0  0  0
  144.1030  134.2389  152.0987 H   0  0  0  0  0  0  0  0  0  0  0  0
  146.1321  135.6084  150.2783 H   0  0  0  0  0  0  0  0  0  0  0  0
  144.3946  135.7616  150.1803 H   0  0  0  0  0  0  0  0  0  0  0  0
  145.4217  137.6934  151.3591 H   0  0  0  0  0  0  0  0  0  0  0  0
  144.3082  136.8407  152.4107 H   0  0  0  0  0  0  0  0  0  0  0  0
  145.6790  137.7101  154.5135 H   0  0  0  0  0  0  0  0  0  0  0  0
  147.4175  137.6186  154.3794 H   0  0  0  0  0  0  0  0  0  0  0  0
  146.3505  138.9089  151.9723 H   0  0  0  0  0  0  0  0  0  0  0  0
  145.6256  139.6689  153.3699 H   0  0  0  0  0  0  0  0  0  0  0  0
  148.3711  139.8034  152.4633 H   0  0  0  0  0  0  0  0  0  0  0  0
  150.0689  140.6824  153.5917 H   0  0  0  0  0  0  0  0  0  0  0  0
  149.2913  142.1719  154.0207 H   0  0  0  0  0  0  0  0  0  0  0  0
  148.6941  142.4774  156.4117 H   0  0  0  0  0  0  0  0  0  0  0  0
  149.6679  142.5408  158.6941 H   0  0  0  0  0  0  0  0  0  0  0  0
  151.7005  141.1003  159.1621 H   0  0  0  0  0  0  0  0  0  0  0  0
  152.6366  139.7159  157.4202 H   0  0  0  0  0  0  0  0  0  0  0  0
  147.0142  135.1160  154.3103 H   0  0  0  0  0  0  0  0  0  0  0  0
  145.2758  135.2780  154.1914 H   0  0  0  0  0  0  0  0  0  0  0  0
  146.0391  133.1480  153.1724 H   0  0  0  0  0  0  0  0  0  0  0  0
  147.1441  134.0041  152.1245 H   0  0  0  0  0  0  0  0  0  0  0  0
  147.2089  136.4970  152.3551 H   0  0  0  0  0  0  0  0  0  0  0  0
  1  2  1  0  0  0  0
  1 21  1  0  0  0  0
  1 22  1  0  0  0  0
  1 23  1  0  0  0  0
  2 20  1  0  0  0  0
  2  3  1  0  0  0  0
  2 24  1  0  0  0  0
  3  4  1  0  0  0  0
  3 25  1  0  0  0  0
  3 26  1  0  0  0  0
  4  5  1  0  0  0  0
  4 27  1  0  0  0  0
  4 28  1  0  0  0  0
  5  6  1  0  0  0  0
  5 19  1  0  0  0  0
  5 44  1  0  0  0  0
  6  7  1  0  0  0  0
  6 29  1  0  0  0  0
  6 30  1  0  0  0  0
  7  8  1  0  0  0  0
  7 31  1  0  0  0  0
  7 32  1  0  0  0  0
  8  9  1  0  0  0  0
  8 33  1  0  0  0  0
  9 10  2  0  0  0  0
  9 11  1  0  0  0  0
 11 12  1  0  0  0  0
 11 34  1  0  0  0  0
 11 35  1  0  0  0  0
 12 17  1  0  0  0  0
 12 13  1  0  0  0  0
 13 14  2  0  0  0  0
 13 36  1  0  0  0  0
 14 15  1  0  0  0  0
 14 37  1  0  0  0  0
 15 16  2  0  0  0  0
 15 38  1  0  0  0  0
 16 17  1  0  0  0  0
 16 39  1  0  0  0  0
 17 18  2  0  0  0  0
 19 20  1  0  0  0  0
 19 40  1  0  0  0  0
 19 41  1  0  0  0  0
 20 42  1  0  0  0  0
 20 43  1  0  0  0  0
M  CHG  1   5   1
M  END
> <s_m_source_file>
AV-unprocessed.smi

> <i_m_source_file_index>
1902

> <i_lp_mmshare_version>
43012

> <i_f3d_flags>
0

> <s_epik_input>
W0NIM11bQ0hdMVtDSDJdW0NIMl1OKFtDSDJdW0NIMl0xKVtDSDJdW0NIMl1bTkhdQyg9TylbQ0gyXW4yW2NIXVtjSF1bY0hdW2NIXWMyPU8=

> <s_epik_cmdline>
J2VwaWtfcHl0aG9uJywgJy1waCcsICc3LjAnLCAnLXRuJywgJzgnLCAnLW1hJywgJzIwMCcsICctbWV0YWxfYmluZGluZycsICctaW1hZScsICc8aW5maWxlLm1hZT4nLCAnLW9tYWUnLCAnPG91dGZpbGUubWFlPic=

> <r_lp_tautomer_probability>
1

> <r_epik_Ionization_Penalty>
0.00156146

> <r_epik_Ionization_Penalty_Charging>
0.00156137

> <r_epik_Ionization_Penalty_Neutral>
8.12891e-08

> <r_epik_State_Penalty>
0.00104868

> <r_epik_Charging_Adjusted_Penalty>
0.00261006

> <i_epik_Tot_Q>
1

> <i_epik_Tot_abs_Q>
1

> <r_epik_Metal_State_Penalty>
-0

> <b_epik_Metal_Only>
0

> <s_lp_Force_Field>
OPLS_2005

> <r_lp_Energy>
24.6388

> <b_lp_Chiralities_Consistent>
1

> <s_lp_Variant>
AV-unprocessed.smi:1902-1

> <Gold.Version>
5.8.1

> <Gold.Id.Protein>
6NUR|6NUR_protein|mol2

> <Gold.PLP.Fitness>
47.1621

> <Gold.PLP.PLP>
-34.5422

> <Gold.PLP.part.hbond>
-3.0000

> <Gold.PLP.part.metal>
0.0000

> <Gold.PLP.part.buried>
-2.4213

> <Gold.PLP.part.nonpolar>
-29.0807

> <Gold.PLP.part.repulsive>
0.1622

> <Gold.PLP.ligand.clash>
0.0000

> <Gold.PLP.ligand.torsion>
0.9960

> <Gold.PLP.Chemscore.Hbond>
4.0000

> <Gold.PLP.Chemscore.CHOScore>
0.8456

> <Gold.PLP.Chemscore.Metal>
0.0000

> <Gold.Chemscore.Hbonds>
donor molecule, donor type, donor heavy atom, donor atom, acceptor molecule, acceptor atom, score
      L1  H     5    44       P1  7948  2.00
      L1  H     8    33       P1  7957  1.00
      P1  H  7989  7998       L1    18  1.00
      L1  C    13    36       P1  8028  0.85

> <Gold.PLP.Chemscore.Internal.Correction>
0.0752

> <Gold.Rescore>
     Score         DG    S(hbond)    S(metal)    S(lipo)     H(rot)  DE(clash)    DE(int)     intcor
     16.31     -18.62       2.88        0.00      70.68       1.86       0.06       2.25       ----

> <Gold.Chemscore.Fitness>
16.3133

> <Gold.Chemscore.DG>
-18.6197

> <Gold.Chemscore.ZeroCoef>
-5.4800

> <Gold.Chemscore.Hbond>
2.8829

> <Gold.Chemscore.Metal>
0.0000

> <Gold.Chemscore.Lipo>
70.6756

> <Gold.Chemscore.Internal_Hbond>
0.0000

> <Gold.Chemscore.DEClash>
0.0568

> <Gold.Chemscore.DEInternal>
2.2496

> <Gold.Chemscore.Rot>
1.8586

> <Gold.Chemscore.Internal.Correction>
   9.000000E+99

> <Gold.Chemscore.Hbonds>
donor molecule, donor type, donor heavy atom, donor atom, acceptor molecule, acceptor atom, score
      L1  H     5    44       P1  7948  1.00
      L1  H     8    33       P1  7957  1.00
      P1  H  7989  7998       L1    18  0.25

> <Gold.Chemscore.Hbond.Weighted>
-9.6287

> <Gold.Chemscore.Metal.Weighted>
-0.0000

> <Gold.Chemscore.Lipo.Weighted>
-8.2690

> <Gold.Chemscore.Internal_Hbond.Weighted>
0.0000

> <Gold.Chemscore.DEClash.Weighted>
0.0568

> <Gold.Chemscore.DEInternal.Weighted>
2.2496

> <Gold.Chemscore.Rot.Weighted>
4.7581

> <Gold.Chemscore.Internal.Correction.Weighted>
   9.000000E+99

> <Gold.Protein.RotatedTorsions>
[ 6907 6896 6895 6894 ] final -118.70 input  -60.11 | X-H torsion
[ 7974 7965 7964 7962 ] final -171.89 input  175.53 | X-H torsion
[ 8008 7997 7996 7995 ] final  119.23 input   59.86 | X-H torsion
[ 10167 10162 10161 10158 ] final   89.27 input  -65.29 | X-H torsion
[ 10718 10713 10712 10709 ] final -150.93 input   66.30 | X-H torsion
[ 10763 10752 10751 10750 ] final  -25.28 input  -60.55 | X-H torsion
[ 11005 11000 10999 10996 ] final  154.57 input  -57.11 | X-H torsion

> <Gold.Protein.ActiveResidues>
 VAL166  LYS551  ARG553  GLY616  TRP617  ASP618  TYR619  PRO620  LYS621  CYS622 
 ASP623  PHE694  ASN695  SER759  ASP760  ASP761  ALA762  ILE779  LEU786  VAL792 
 PHE793  MET794  SER795  GLU796  ALA797  LYS798  CYS799  TRP800  GLU811  SER814 

> <Gold.Protein.RotatedAtoms>
  150.8242  133.8201  159.3125 H   0  0  0  0  0  0  0  0  0  0  0  0  # atno 6907 bound_to 6896
  151.5950  135.1049  160.0057 H   0  0  0  0  0  0  0  0  0  0  0  0  # atno 6908 bound_to 6896
  152.4328  133.7267  159.6621 H   0  0  0  0  0  0  0  0  0  0  0  0  # atno 6909 bound_to 6896
  144.7152  140.1854  143.6354 H   0  0  0  0  0  0  0  0  0  0  0  0  # atno 7974 bound_to 7965
  156.2585  140.2857  156.0958 H   0  0  0  0  0  0  0  0  0  0  0  0  # atno 8008 bound_to 7997
  155.1413  140.0395  157.2816 H   0  0  0  0  0  0  0  0  0  0  0  0  # atno 8009 bound_to 7997
  154.6528  140.2548  155.7201 H   0  0  0  0  0  0  0  0  0  0  0  0  # atno 8010 bound_to 7997
  139.8590  144.6554  150.9081 H   0  0  0  0  0  0  0  0  0  0  0  0  # atno 10167 bound_to 10162
  156.4526  130.8175  151.2406 H   0  0  0  0  0  0  0  0  0  0  0  0  # atno 10718 bound_to 10713
  153.6974  135.6958  153.5073 H   0  0  0  0  0  0  0  0  0  0  0  0  # atno 10763 bound_to 10752
  153.2368  135.4319  155.0654 H   0  0  0  0  0  0  0  0  0  0  0  0  # atno 10764 bound_to 10752
  154.8355  135.3498  154.6514 H   0  0  0  0  0  0  0  0  0  0  0  0  # atno 10765 bound_to 10752
  140.1502  134.8680  157.2444 H   0  0  0  0  0  0  0  0  0  0  0  0  # atno 11005 bound_to 11000
  145.8817  139.2327  143.1601 LP  0  0  0  0  0  0  0  0  0  0  0  0  # atno 17320 bound_to 7965
  145.9988  140.8538  143.0029 LP  0  0  0  0  0  0  0  0  0  0  0  0  # atno 17321 bound_to 7965
  140.7777  143.3761  151.1561 LP  0  0  0  0  0  0  0  0  0  0  0  0  # atno 17342 bound_to 10162
  139.7392  143.8951  152.3044 LP  0  0  0  0  0  0  0  0  0  0  0  0  # atno 17343 bound_to 10162
  157.7502  131.0133  150.3418 LP  0  0  0  0  0  0  0  0  0  0  0  0  # atno 17370 bound_to 10713
  156.3800  130.3878  149.7109 LP  0  0  0  0  0  0  0  0  0  0  0  0  # atno 17371 bound_to 10713
  140.2614  134.3566  155.7405 LP  0  0  0  0  0  0  0  0  0  0  0  0  # atno 17394 bound_to 11000
  141.2198  133.7372  156.9086 LP  0  0  0  0  0  0  0  0  0  0  0  0  # atno 17395 bound_to 11000

$$$$
