#       Name:                AV-unprocessed.smi:220
#       Creating user name   scv26
#       Creation time:       Thu Mar 26 20:11:42 2020


#       File generated by GOLD software.
#

@<TRIPOS>MOLECULE
AV-unprocessed.smi:220
    61    65     1
SMALL
NO_CHARGES


@<TRIPOS>ATOM
      1 ****        -2.4020   0.5404  -3.7867 N.am           1 S1                 0.0000
      2 ****        -2.6324   1.1602  -2.6269 C.2            1 S1                 0.0000
      3 ****        -2.8869   2.3620  -2.5673 O.2            1 S1                 0.0000
      4 ****        -2.5819   0.2931  -1.3588 C.3            1 S1                 0.0000
      5 ****        -3.9733  -0.2491  -0.9700 C.3            1 S1                 0.0000
      6 ****        -4.2994  -1.6734  -1.4496 C.3            1 S1                 0.0000
      7 ****        -4.9874  -2.3357  -0.2545 C.3            1 S1                 0.0000
      8 ****        -4.2701  -1.7471   0.9609 C.3            1 S1                 0.0000
      9 ****        -3.9858  -0.2920   0.5632 C.3            1 S1                 0.0000
     10 ****        -2.6280   0.2751   0.9883 C.3            1 S1                 0.0000
     11 ****        -2.1637   1.0285  -0.1653 N.3            1 S1                 0.0000
     12 ****        -0.8771   1.4376  -0.0853 C.ar           1 S1                 0.0000
     13 ****        -0.6744   2.7555   0.1564 N.ar           1 S1                 0.0000
     14 ****         0.5690   3.2356   0.2474 C.ar           1 S1                 0.0000
     15 ****         1.7266   2.5808   0.1369 N.ar           1 S1                 0.0000
     16 ****         1.5259   1.2513  -0.0933 C.ar           1 S1                 0.0000
     17 ****         0.2667   0.5988  -0.2166 C.ar           1 S1                 0.0000
     18 ****         0.4600  -0.7594  -0.4401 N.2            1 S1                 0.0000
     19 ****         1.7571  -0.8990  -0.4601 C.2            1 S1                 0.0000
     20 ****         2.4756   0.2563  -0.2504 N.pl3          1 S1                 0.0000
     21 ****         3.9241   0.3904  -0.2209 C.3            1 S1                 0.0000
     22 ****         4.5701  -0.1129   1.0857 C.3            1 S1                 0.0000
     23 ****         3.9950   0.6420   2.2970 C.3            1 S1                 0.0000
     24 ****         4.2877   2.0227   2.2298 O.3            1 S1                 0.0000
     25 ****         4.6322  -1.6371   1.2612 C.3            1 S1                 0.0000
     26 ****         6.0457  -1.6044   1.5490 O.3            1 S1                 0.0000
     27 ****         6.0991  -0.2440   1.0699 C.3            1 S1                 0.0000
     28 ****        -2.4269   1.0660  -4.6485 H              1 S1                 0.0000
     29 ****        -2.2069  -0.4500  -3.7997 H              1 S1                 0.0000
     30 ****        -1.8986  -0.5391  -1.5255 H              1 S1                 0.0000
     31 ****        -4.7627   0.4329  -1.2933 H              1 S1                 0.0000
     32 ****        -4.9225  -1.6784  -2.3444 H              1 S1                 0.0000
     33 ****        -3.3869  -2.2232  -1.6828 H              1 S1                 0.0000
     34 ****        -6.0411  -2.0544  -0.2325 H              1 S1                 0.0000
     35 ****        -4.9324  -3.4241  -0.2885 H              1 S1                 0.0000
     36 ****        -4.8615  -1.8223   1.8736 H              1 S1                 0.0000
     37 ****        -3.3402  -2.2930   1.1238 H              1 S1                 0.0000
     38 ****        -4.7886   0.3549   0.9207 H              1 S1                 0.0000
     39 ****        -2.7224   0.9175   1.8647 H              1 S1                 0.0000
     40 ****        -1.9208  -0.5199   1.2304 H              1 S1                 0.0000
     41 ****         0.6474   4.2962   0.4355 H              1 S1                 0.0000
     42 ****         2.2261  -1.8571  -0.6279 H              1 S1                 0.0000
     43 ****         4.3212  -0.1562  -1.0772 H              1 S1                 0.0000
     44 ****         4.1809   1.4349  -0.4008 H              1 S1                 0.0000
     45 ****         2.9162   0.5096   2.3808 H              1 S1                 0.0000
     46 ****         4.4189   0.2573   3.2253 H              1 S1                 0.0000
     47 ****         3.9097   2.4472   2.9847 H              1 S1                 0.0000
     48 ****         4.0410  -2.0143   2.0966 H              1 S1                 0.0000
     49 ****         4.4245  -2.2014   0.3510 H              1 S1                 0.0000
     50 ****         6.5387  -0.1828   0.0731 H              1 S1                 0.0000
     51 ****         6.6124   0.4247   1.7619 H              1 S1                 0.0000
     52 ****        -2.9263   2.9068  -3.4049 LP             1 S1                 0.0000
     53 ****        -3.0543   2.7943  -1.6813 LP             1 S1                 0.0000
     54 ****        -2.5972   1.9284  -0.2113 LP             1 S1                 0.0000
     55 ****        -1.4562   3.3692   0.2667 LP             1 S1                 0.0000
     56 ****         2.6266   3.0101   0.2131 LP             1 S1                 0.0000
     57 ****        -0.2359  -1.4677  -0.5585 LP             1 S1                 0.0000
     58 ****         3.8972   2.4098   1.3945 LP             1 S1                 0.0000
     59 ****         5.2786   2.1575   2.2281 LP             1 S1                 0.0000
     60 ****         6.5886  -2.2499   1.0117 LP             1 S1                 0.0000
     61 ****         6.2693  -1.7068   2.5183 LP             1 S1                 0.0000
@<TRIPOS>BOND
    1    1    2 am    
    2    1   28 1     
    3    1   29 1     
    4    2    3 2     
    5    2    4 1     
    6    4   11 1     
    7    4    5 1     
    8    4   30 1     
    9    5    9 1     
   10    5    6 1     
   11    5   31 1     
   12    6    7 1     
   13    6   32 1     
   14    6   33 1     
   15    7    8 1     
   16    7   34 1     
   17    7   35 1     
   18    8    9 1     
   19    8   36 1     
   20    8   37 1     
   21    9   10 1     
   22    9   38 1     
   23   10   11 1     
   24   10   39 1     
   25   10   40 1     
   26   11   12 1     
   27   12   17 ar    
   28   12   13 ar    
   29   13   14 ar    
   30   14   15 ar    
   31   14   41 1     
   32   15   16 ar    
   33   16   20 1     
   34   16   17 ar    
   35   17   18 1     
   36   18   19 2     
   37   19   20 1     
   38   19   42 1     
   39   20   21 1     
   40   21   22 1     
   41   21   43 1     
   42   21   44 1     
   43   22   27 1     
   44   22   23 1     
   45   22   25 1     
   46   23   24 1     
   47   23   45 1     
   48   23   46 1     
   49   24   47 1     
   50   25   26 1     
   51   25   48 1     
   52   25   49 1     
   53   26   27 1     
   54   27   50 1     
   55   27   51 1     
   56    3   52 1     
   57    3   53 1     
   58   11   54 1     
   59   13   55 1     
   60   15   56 1     
   61   18   57 1     
   62   24   58 1     
   63   24   59 1     
   64   26   60 1     
   65   26   61 1     
@<TRIPOS>SUBSTRUCTURE
      1 S1             1
@<TRIPOS>SET
LONE_PAIRS      STATIC     ATOMS    <user>   **** ""
10 52 53 54 55 56 57 58 59 60 61
DONOR_HYDROGENS      STATIC     ATOMS    <user>   **** ""
3 28 29 47
ATOM$BLUE        STATIC     ATOMS    COLORGROUP SYSTEM
10 52 53 54 55 56 57 58 59 60 61
ATOM$RED        STATIC     ATOMS    COLORGROUP SYSTEM
3 28 29 47
