#       Name:                AV-unprocessed.smi:701
#       Creating user name   scv26
#       Creation time:       Fri Mar 27 00:39:12 2020


#       File generated by GOLD software.
#

@<TRIPOS>MOLECULE
AV-unprocessed.smi:701
    57    59     1
SMALL
NO_CHARGES


@<TRIPOS>ATOM
      1 ****        -4.8565   2.9672   1.7292 C.3            1 S1                 0.0000
      2 ****        -3.3396   3.0889   1.5693 C.3            1 S1                 0.0000
      3 ****        -2.7882   1.7882   1.4557 O.3            1 S1                 0.0000
      4 ****        -1.3799   1.7931   1.2920 C.3            1 S1                 0.0000
      5 ****        -0.9203   2.1336  -0.1286 C.3            1 S1                 0.0000
      6 ****         0.1800   1.0987   0.0995 C.3            1 S1                 0.0000
      7 ****         0.4847   0.3275  -1.1004 N.am           1 S1                 0.0000
      8 ****         1.5389  -0.4916  -1.2247 C.2            1 S1                 0.0000
      9 ****         2.3518  -0.6848  -0.3197 O.2            1 S1                 0.0000
     10 ****         1.6791  -1.2226  -2.5666 C.3            1 S1                 0.0000
     11 ****         3.0829  -1.4196  -2.9552 N.am           1 S1                 0.0000
     12 ****         3.7121  -2.6351  -2.7261 C.2            1 S1                 0.0000
     13 ****         5.0058  -2.8767  -3.0455 C.2            1 S1                 0.0000
     14 ****         5.8207  -1.8365  -3.6641 C.2            1 S1                 0.0000
     15 ****         6.9991  -1.9588  -3.9909 O.2            1 S1                 0.0000
     16 ****         5.1524  -0.6279  -3.8766 N.am           1 S1                 0.0000
     17 ****         3.8205  -0.3716  -3.5481 C.2            1 S1                 0.0000
     18 ****         3.3295   0.7337  -3.7747 O.2            1 S1                 0.0000
     19 ****        -0.7482   0.3841   1.1205 C.3            1 S1                 0.0000
     20 ****        -1.6649  -0.7363   0.5632 C.3            1 S1                 0.0000
     21 ****        -2.6380  -1.3234   1.6039 C.3            1 S1                 0.0000
     22 ****        -1.8995  -1.8087   2.8566 C.3            1 S1                 0.0000
     23 ****        -0.9957  -0.7088   3.4251 C.3            1 S1                 0.0000
     24 ****        -0.0276  -0.1848   2.3534 C.3            1 S1                 0.0000
     25 ****         5.6771   0.1231  -4.3010 H              1 S1                 0.0000
     26 ****        -5.3189   3.9502   1.8211 H              1 S1                 0.0000
     27 ****        -5.1112   2.3924   2.6199 H              1 S1                 0.0000
     28 ****        -5.3009   2.4668   0.8685 H              1 S1                 0.0000
     29 ****        -3.1065   3.6805   0.6830 H              1 S1                 0.0000
     30 ****        -2.9136   3.6034   2.4318 H              1 S1                 0.0000
     31 ****        -0.8647   2.3845   2.0529 H              1 S1                 0.0000
     32 ****        -1.6437   1.8525  -0.8961 H              1 S1                 0.0000
     33 ****        -0.5657   3.1561  -0.2599 H              1 S1                 0.0000
     34 ****         1.0563   1.5516   0.5703 H              1 S1                 0.0000
     35 ****        -0.1423   0.4270  -1.8855 H              1 S1                 0.0000
     36 ****         1.1699  -2.1836  -2.4810 H              1 S1                 0.0000
     37 ****         1.1439  -0.6825  -3.3506 H              1 S1                 0.0000
     38 ****         3.1483  -3.4335  -2.2649 H              1 S1                 0.0000
     39 ****         5.4411  -3.8441  -2.8407 H              1 S1                 0.0000
     40 ****        -2.2423  -0.3769  -0.2887 H              1 S1                 0.0000
     41 ****        -1.0542  -1.5532   0.1768 H              1 S1                 0.0000
     42 ****        -3.3818  -0.5802   1.8888 H              1 S1                 0.0000
     43 ****        -3.1951  -2.1498   1.1621 H              1 S1                 0.0000
     44 ****        -2.6158  -2.1340   3.6115 H              1 S1                 0.0000
     45 ****        -1.2948  -2.6813   2.6062 H              1 S1                 0.0000
     46 ****        -1.6063   0.1130   3.8014 H              1 S1                 0.0000
     47 ****        -0.4350  -1.0943   4.2770 H              1 S1                 0.0000
     48 ****         0.6421  -0.9913   2.0519 H              1 S1                 0.0000
     49 ****         0.6148   0.5746   2.8003 H              1 S1                 0.0000
     50 ****        -3.1990   1.3365   0.6637 LP             1 S1                 0.0000
     51 ****        -3.0104   1.2749   2.2846 LP             1 S1                 0.0000
     52 ****         2.2417  -0.2201   0.5588 LP             1 S1                 0.0000
     53 ****         3.1218  -1.3063  -0.4636 LP             1 S1                 0.0000
     54 ****         7.4733  -2.8256  -3.8370 LP             1 S1                 0.0000
     55 ****         7.4838  -1.1914  -4.4108 LP             1 S1                 0.0000
     56 ****         2.3752   0.9151  -3.5374 LP             1 S1                 0.0000
     57 ****         3.8848   1.4506  -4.1963 LP             1 S1                 0.0000
@<TRIPOS>BOND
    1    1    2 1     
    2    1   26 1     
    3    1   27 1     
    4    1   28 1     
    5    2    3 1     
    6    2   29 1     
    7    2   30 1     
    8    3    4 1     
    9    4   19 1     
   10    4    5 1     
   11    4   31 1     
   12    5    6 1     
   13    5   32 1     
   14    5   33 1     
   15    6    7 1     
   16    6   19 1     
   17    6   34 1     
   18    7    8 am    
   19    7   35 1     
   20    8    9 2     
   21    8   10 1     
   22   10   11 1     
   23   10   36 1     
   24   10   37 1     
   25   11   17 1     
   26   11   12 1     
   27   12   13 2     
   28   12   38 1     
   29   13   14 1     
   30   13   39 1     
   31   14   15 2     
   32   14   16 1     
   33   16   25 1     
   34   16   17 1     
   35   17   18 2     
   36   19   24 1     
   37   19   20 1     
   38   20   21 1     
   39   20   40 1     
   40   20   41 1     
   41   21   22 1     
   42   21   42 1     
   43   21   43 1     
   44   22   23 1     
   45   22   44 1     
   46   22   45 1     
   47   23   24 1     
   48   23   46 1     
   49   23   47 1     
   50   24   48 1     
   51   24   49 1     
   52    3   50 1     
   53    3   51 1     
   54    9   52 1     
   55    9   53 1     
   56   15   54 1     
   57   15   55 1     
   58   18   56 1     
   59   18   57 1     
@<TRIPOS>SUBSTRUCTURE
      1 S1             1
@<TRIPOS>SET
LONE_PAIRS      STATIC     ATOMS    <user>   **** ""
8 50 51 52 53 54 55 56 57
DONOR_HYDROGENS      STATIC     ATOMS    <user>   **** ""
2 35 25
ATOM$BLUE        STATIC     ATOMS    COLORGROUP SYSTEM
8 50 51 52 53 54 55 56 57
ATOM$RED        STATIC     ATOMS    COLORGROUP SYSTEM
2 35 25
