#       Name:                AV-unprocessed.smi:1893
#       Creating user name   scv26
#       Creation time:       Fri Mar 27 09:41:47 2020


#       File generated by GOLD software.
#

@<TRIPOS>MOLECULE
AV-unprocessed.smi:1893
    47    48     1
SMALL
NO_CHARGES


@<TRIPOS>ATOM
      1 ****        -1.7609   2.6412   0.6286 C.3            1 S1                 0.0000
      2 ****        -2.4871   1.2969   0.4031 C.3            1 S1                 0.0000
      3 ****        -3.9243   1.3042   0.9654 C.3            1 S1                 0.0000
      4 ****        -3.9450   1.2412   2.4998 C.3            1 S1                 0.0000
      5 ****        -3.1336   0.0347   2.9866 C.3            1 S1                 0.0000
      6 ****        -1.7079   0.0539   2.4114 C.3            1 S1                 0.0000
      7 ****        -1.7305   0.1188   0.9243 N.4            1 S1                 1.0000
      8 ****        -0.3936  -0.0541   0.3003 C.3            1 S1                 0.0000
      9 ****         0.0608  -1.5263   0.2880 C.3            1 S1                 0.0000
     10 ****         1.3567  -1.6737  -0.3626 N.am           1 S1                 0.0000
     11 ****         1.5544  -1.6781  -1.6908 C.2            1 S1                 0.0000
     12 ****         0.6318  -1.5940  -2.5025 O.2            1 S1                 0.0000
     13 ****         3.0144  -1.7854  -2.1622 C.3            1 S1                 0.0000
     14 ****         3.1415  -2.1167  -3.6630 C.3            1 S1                 0.0000
     15 ****         3.7509  -0.5769  -1.8111 N.pl3          1 S1                 0.0000
     16 ****         4.6317  -0.3622  -0.8315 C.2            1 S1                 0.0000
     17 ****         5.0819   0.8832  -0.7752 N.2            1 S1                 0.0000
     18 ****         4.3879   1.4242  -1.8201 C.2            1 S1                 0.0000
     19 ****         3.5682   0.5962  -2.4674 N.2            1 S1                 0.0000
     20 ****        -2.3440   3.4655   0.2172 H              1 S1                 0.0000
     21 ****        -0.7896   2.6643   0.1345 H              1 S1                 0.0000
     22 ****        -1.5994   2.8557   1.6844 H              1 S1                 0.0000
     23 ****        -2.5773   1.1644  -0.6762 H              1 S1                 0.0000
     24 ****        -4.4628   2.1872   0.6197 H              1 S1                 0.0000
     25 ****        -4.4676   0.4453   0.5687 H              1 S1                 0.0000
     26 ****        -3.5345   2.1596   2.9203 H              1 S1                 0.0000
     27 ****        -4.9725   1.1709   2.8579 H              1 S1                 0.0000
     28 ****        -3.0960   0.0265   4.0763 H              1 S1                 0.0000
     29 ****        -3.6346  -0.8872   2.6880 H              1 S1                 0.0000
     30 ****        -1.1464   0.8965   2.8160 H              1 S1                 0.0000
     31 ****        -1.1896  -0.8457   2.7407 H              1 S1                 0.0000
     32 ****        -0.4363   0.2999  -0.7308 H              1 S1                 0.0000
     33 ****         0.3404   0.5713   0.8109 H              1 S1                 0.0000
     34 ****         0.1612  -1.9120   1.3019 H              1 S1                 0.0000
     35 ****        -0.6808  -2.1526  -0.2111 H              1 S1                 0.0000
     36 ****         2.1645  -1.7540   0.2380 H              1 S1                 0.0000
     37 ****         3.4676  -2.6098  -1.6093 H              1 S1                 0.0000
     38 ****         2.6512  -3.0613  -3.9010 H              1 S1                 0.0000
     39 ****         4.1887  -2.2122  -3.9514 H              1 S1                 0.0000
     40 ****         2.6959  -1.3447  -4.2919 H              1 S1                 0.0000
     41 ****         4.9460  -1.1315  -0.1411 H              1 S1                 0.0000
     42 ****         4.4840   2.4611  -2.1074 H              1 S1                 0.0000
     43 ****        -2.2674  -0.6825   0.6242 H              1 S1                 0.0000
     44 ****        -0.3119  -1.5185  -2.1807 LP             1 S1                 0.0000
     45 ****         0.8266  -1.6013  -3.4833 LP             1 S1                 0.0000
     46 ****         5.7387   1.3043  -0.1497 LP             1 S1                 0.0000
     47 ****         2.9682   0.7911  -3.2433 LP             1 S1                 0.0000
@<TRIPOS>BOND
    1    1    2 1     
    2    1   20 1     
    3    1   21 1     
    4    1   22 1     
    5    2    7 1     
    6    2    3 1     
    7    2   23 1     
    8    3    4 1     
    9    3   24 1     
   10    3   25 1     
   11    4    5 1     
   12    4   26 1     
   13    4   27 1     
   14    5    6 1     
   15    5   28 1     
   16    5   29 1     
   17    6    7 1     
   18    6   30 1     
   19    6   31 1     
   20    7    8 1     
   21    7   43 1     
   22    8    9 1     
   23    8   32 1     
   24    8   33 1     
   25    9   10 1     
   26    9   34 1     
   27    9   35 1     
   28   10   11 am    
   29   10   36 1     
   30   11   12 2     
   31   11   13 1     
   32   13   14 1     
   33   13   15 1     
   34   13   37 1     
   35   14   38 1     
   36   14   39 1     
   37   14   40 1     
   38   15   19 1     
   39   15   16 1     
   40   16   17 2     
   41   16   41 1     
   42   17   18 1     
   43   18   19 2     
   44   18   42 1     
   45   12   44 1     
   46   12   45 1     
   47   17   46 1     
   48   19   47 1     
@<TRIPOS>SUBSTRUCTURE
      1 S1             1
@<TRIPOS>SET
LONE_PAIRS      STATIC     ATOMS    <user>   **** ""
4 44 45 46 47
DONOR_HYDROGENS      STATIC     ATOMS    <user>   **** ""
2 43 36
ATOM$BLUE        STATIC     ATOMS    COLORGROUP SYSTEM
4 44 45 46 47
ATOM$RED        STATIC     ATOMS    COLORGROUP SYSTEM
2 43 36
