AV-unprocessed.smi:2746|AV-procd|sdf|10573|dock3
  -GOLD-   2272015 23D 1   1.00000     0.00000
 Structure written by MMmdl.
 39 40  0  0  0  0  0  0  0  0  2 V2000
  142.4532  135.1050  152.9305 C   0  0  0  0  0  0  0  0  0  0  0  0
  143.3751  136.0797  153.0155 C   0  0  0  0  0  0  0  0  0  0  0  0
  144.0588  136.7951  151.8569 C   0  0  2  0  0  0  0  0  0  0  0  0
  144.8275  135.8024  150.9752 C   0  0  0  0  0  0  0  0  0  0  0  0
  144.9678  137.8500  152.3046 N   0  0  0  0  0  0  0  0  0  0  0  0
  146.1140  137.6671  152.9812 C   0  0  0  0  0  0  0  0  0  0  0  0
  146.5206  136.5689  153.3610 O   0  0  0  0  0  0  0  0  0  0  0  0
  146.8732  138.9179  153.3118 C   0  0  0  0  0  0  0  0  0  0  0  0
  148.2135  138.8930  153.7650 C   0  0  0  0  0  0  0  0  0  0  0  0
  148.8638  140.1063  154.0929 C   0  0  0  0  0  0  0  0  0  0  0  0
  150.1892  140.1359  154.5471 N   0  0  0  0  0  0  0  0  0  0  0  0
  150.8783  138.8598  154.4022 C   0  0  0  0  0  0  0  0  0  0  0  0
  152.3560  139.0120  154.8029 C   0  0  0  0  0  0  0  0  0  0  0  0
  152.4393  139.5266  156.1289 O   0  0  0  0  0  0  0  0  0  0  0  0
  151.8305  140.8097  156.2443 C   0  0  0  0  0  0  0  0  0  0  0  0
  150.3391  140.7059  155.8809 C   0  0  0  0  0  0  0  0  0  0  0  0
  148.1530  141.3178  153.9604 C   0  0  0  0  0  0  0  0  0  0  0  0
  146.8169  141.2878  153.5155 C   0  0  0  0  0  0  0  0  0  0  0  0
  146.2343  140.1068  153.2169 N   0  3  0  0  0  0  0  0  0  0  0  0
  142.0996  134.7261  151.9831 H   0  0  0  0  0  0  0  0  0  0  0  0
  142.0353  134.6681  153.8255 H   0  0  0  0  0  0  0  0  0  0  0  0
  143.6788  136.4058  153.9999 H   0  0  0  0  0  0  0  0  0  0  0  0
  143.2642  137.2278  151.2467 H   0  0  0  0  0  0  0  0  0  0  0  0
  144.1672  135.0226  150.5937 H   0  0  0  0  0  0  0  0  0  0  0  0
  145.6304  135.3158  151.5301 H   0  0  0  0  0  0  0  0  0  0  0  0
  145.2729  136.3041  150.1156 H   0  0  0  0  0  0  0  0  0  0  0  0
  144.7082  138.7958  152.0649 H   0  0  0  0  0  0  0  0  0  0  0  0
  148.7395  137.9548  153.8685 H   0  0  0  0  0  0  0  0  0  0  0  0
  150.4018  138.1074  155.0322 H   0  0  0  0  0  0  0  0  0  0  0  0
  150.8041  138.5131  153.3706 H   0  0  0  0  0  0  0  0  0  0  0  0
  152.8580  138.0452  154.7640 H   0  0  0  0  0  0  0  0  0  0  0  0
  152.8811  139.6728  154.1114 H   0  0  0  0  0  0  0  0  0  0  0  0
  151.9443  141.1665  157.2680 H   0  0  0  0  0  0  0  0  0  0  0  0
  152.3405  141.5256  155.5978 H   0  0  0  0  0  0  0  0  0  0  0  0
  149.8758  141.6928  155.9159 H   0  0  0  0  0  0  0  0  0  0  0  0
  149.8265  140.0814  156.6137 H   0  0  0  0  0  0  0  0  0  0  0  0
  148.6232  142.2599  154.2034 H   0  0  0  0  0  0  0  0  0  0  0  0
  146.1994  142.1657  153.3943 H   0  0  0  0  0  0  0  0  0  0  0  0
  145.2630  140.1074  152.9032 H   0  0  0  0  0  0  0  0  0  0  0  0
  1  2  2  0  0  0  0
  1 20  1  0  0  0  0
  1 21  1  0  0  0  0
  2  3  1  0  0  0  0
  2 22  1  0  0  0  0
  3  4  1  0  0  0  0
  3  5  1  0  0  0  0
  3 23  1  0  0  0  0
  4 24  1  0  0  0  0
  4 25  1  0  0  0  0
  4 26  1  0  0  0  0
  5  6  1  0  0  0  0
  5 27  1  0  0  0  0
  6  7  2  0  0  0  0
  6  8  1  0  0  0  0
  8 19  1  0  0  0  0
  8  9  2  0  0  0  0
  9 10  1  0  0  0  0
  9 28  1  0  0  0  0
 10 11  1  0  0  0  0
 10 17  2  0  0  0  0
 11 16  1  0  0  0  0
 11 12  1  0  0  0  0
 12 13  1  0  0  0  0
 12 29  1  0  0  0  0
 12 30  1  0  0  0  0
 13 14  1  0  0  0  0
 13 31  1  0  0  0  0
 13 32  1  0  0  0  0
 14 15  1  0  0  0  0
 15 16  1  0  0  0  0
 15 33  1  0  0  0  0
 15 34  1  0  0  0  0
 16 35  1  0  0  0  0
 16 36  1  0  0  0  0
 17 18  1  0  0  0  0
 17 37  1  0  0  0  0
 18 19  2  0  0  0  0
 18 38  1  0  0  0  0
 19 39  1  0  0  0  0
M  CHG  1  19   1
M  END
> <s_m_source_file>
AV-unprocessed.smi

> <i_m_source_file_index>
2746

> <i_lp_mmshare_version>
43012

> <i_f3d_flags>
0

> <s_epik_input>
W0NIMl09W0NIXVtDQEhdKFtDSDNdKVtOSF1DKD1PKWMxW2NIXWMoW2NIXVtjSF1uMSlOMltDSDJdW0NIMl1PW0NIMl1bQ0gyXTI=

> <s_epik_cmdline>
J2VwaWtfcHl0aG9uJywgJy1waCcsICc3LjAnLCAnLXRuJywgJzgnLCAnLW1hJywgJzIwMCcsICctbWV0YWxfYmluZGluZycsICctaW1hZScsICc8aW5maWxlLm1hZT4nLCAnLW9tYWUnLCAnPG91dGZpbGUubWFlPic=

> <r_lp_tautomer_probability>
1

> <r_epik_Ionization_Penalty>
0.451073

> <r_epik_Ionization_Penalty_Charging>
0.450607

> <r_epik_Ionization_Penalty_Neutral>
0.000466544

> <r_epik_State_Penalty>
0.453375

> <r_epik_Charging_Adjusted_Penalty>
0.903982

> <i_epik_Tot_Q>
1

> <i_epik_Tot_abs_Q>
1

> <r_epik_Metal_State_Penalty>
1.0249

> <b_epik_Metal_Only>
0

> <s_lp_Force_Field>
OPLS_2005

> <r_lp_Energy>
26.9967

> <b_lp_Chiralities_Consistent>
1

> <s_lp_Variant>
AV-unprocessed.smi:2746-3

> <Gold.Version>
5.8.1

> <Gold.Id.Protein>
6NUR|6NUR_protein|mol2

> <Gold.PLP.Fitness>
47.1271

> <Gold.PLP.PLP>
-34.9970

> <Gold.PLP.part.hbond>
-5.0000

> <Gold.PLP.part.metal>
0.0000

> <Gold.PLP.part.buried>
-2.8755

> <Gold.PLP.part.nonpolar>
-27.6227

> <Gold.PLP.part.repulsive>
0.6003

> <Gold.PLP.ligand.clash>
0.5747

> <Gold.PLP.ligand.torsion>
0.2553

> <Gold.PLP.Chemscore.Hbond>
4.3500

> <Gold.PLP.Chemscore.CHOScore>
0.0000

> <Gold.PLP.Chemscore.Metal>
0.0000

> <Gold.Chemscore.Hbonds>
donor molecule, donor type, donor heavy atom, donor atom, acceptor molecule, acceptor atom, score
      L1  H     5    27       P1 10175  1.00
      L1  H    19    39       P1 10175  2.00
      P1  H  7989  7998       L1    11  0.30
      P1  H  7997  8009       L1    14  0.85

> <Gold.PLP.Chemscore.Internal.Correction>
0.1653

> <Gold.Rescore>
     Score         DG    S(hbond)    S(metal)    S(lipo)     H(rot)  DE(clash)    DE(int)     intcor
     17.29     -18.88       2.13        0.00      82.17       1.30       1.35       0.25       ----

> <Gold.Chemscore.Fitness>
17.2887

> <Gold.Chemscore.DG>
-18.8828

> <Gold.Chemscore.ZeroCoef>
-5.4800

> <Gold.Chemscore.Hbond>
2.1319

> <Gold.Chemscore.Metal>
0.0000

> <Gold.Chemscore.Lipo>
82.1660

> <Gold.Chemscore.Internal_Hbond>
0.0000

> <Gold.Chemscore.DEClash>
1.3469

> <Gold.Chemscore.DEInternal>
0.2473

> <Gold.Chemscore.Rot>
1.3013

> <Gold.Chemscore.Internal.Correction>
   9.000000E+99

> <Gold.Chemscore.Hbonds>
donor molecule, donor type, donor heavy atom, donor atom, acceptor molecule, acceptor atom, score
      L1  H     5    27       P1 10175  0.92
      L1  H    19    39       P1 10175  0.99
      P1  H  7997  8009       L1    14  0.04

> <Gold.Chemscore.Hbond.Weighted>
-7.1207

> <Gold.Chemscore.Metal.Weighted>
-0.0000

> <Gold.Chemscore.Lipo.Weighted>
-9.6134

> <Gold.Chemscore.Internal_Hbond.Weighted>
0.0000

> <Gold.Chemscore.DEClash.Weighted>
1.3469

> <Gold.Chemscore.DEInternal.Weighted>
0.2473

> <Gold.Chemscore.Rot.Weighted>
3.3313

> <Gold.Chemscore.Internal.Correction.Weighted>
   9.000000E+99

> <Gold.Protein.RotatedTorsions>
[ 6907 6896 6895 6894 ] final  -28.26 input  -60.11 | X-H torsion
[ 7974 7965 7964 7962 ] final  159.10 input  175.53 | X-H torsion
[ 8008 7997 7996 7995 ] final -151.64 input   59.86 | X-H torsion
[ 10167 10162 10161 10158 ] final    4.15 input  -65.29 | X-H torsion
[ 10718 10713 10712 10709 ] final -163.67 input   66.30 | X-H torsion
[ 10763 10752 10751 10750 ] final  138.89 input  -60.55 | X-H torsion
[ 11005 11000 10999 10996 ] final   43.15 input  -57.11 | X-H torsion

> <Gold.Protein.ActiveResidues>
 VAL166  LYS551  ARG553  GLY616  TRP617  ASP618  TYR619  PRO620  LYS621  CYS622 
 ASP623  PHE694  ASN695  SER759  ASP760  ASP761  ALA762  ILE779  LEU786  VAL792 
 PHE793  MET794  SER795  GLU796  ALA797  LYS798  CYS799  TRP800  GLU811  SER814 

> <Gold.Protein.RotatedAtoms>
  151.1354  135.0152  159.8601 H   0  0  0  0  0  0  0  0  0  0  0  0  # atno 6907 bound_to 6896
  152.5452  134.1561  159.8548 H   0  0  0  0  0  0  0  0  0  0  0  0  # atno 6908 bound_to 6896
  151.1632  133.4786  159.2627 H   0  0  0  0  0  0  0  0  0  0  0  0  # atno 6909 bound_to 6896
  144.7809  139.7570  143.6260 H   0  0  0  0  0  0  0  0  0  0  0  0  # atno 7974 bound_to 7965
  155.6426  140.0703  157.2613 H   0  0  0  0  0  0  0  0  0  0  0  0  # atno 8008 bound_to 7997
  154.4180  140.1747  156.1639 H   0  0  0  0  0  0  0  0  0  0  0  0  # atno 8009 bound_to 7997
  155.9842  140.3351  155.6695 H   0  0  0  0  0  0  0  0  0  0  0  0  # atno 8010 bound_to 7997
  140.6549  143.7452  150.7637 H   0  0  0  0  0  0  0  0  0  0  0  0  # atno 10167 bound_to 10162
  156.6280  130.8918  151.2971 H   0  0  0  0  0  0  0  0  0  0  0  0  # atno 10718 bound_to 10713
  153.8971  135.3026  155.3448 H   0  0  0  0  0  0  0  0  0  0  0  0  # atno 10763 bound_to 10752
  154.7688  135.4896  153.9611 H   0  0  0  0  0  0  0  0  0  0  0  0  # atno 10764 bound_to 10752
  153.1265  135.6794  153.9347 H   0  0  0  0  0  0  0  0  0  0  0  0  # atno 10765 bound_to 10752
  140.1672  134.4267  155.8279 H   0  0  0  0  0  0  0  0  0  0  0  0  # atno 11005 bound_to 11000
  146.2016  139.5314  142.9740 LP  0  0  0  0  0  0  0  0  0  0  0  0  # atno 17320 bound_to 7965
  145.6054  141.0348  143.1995 LP  0  0  0  0  0  0  0  0  0  0  0  0  # atno 17321 bound_to 7965
  140.1110  143.4700  152.2370 LP  0  0  0  0  0  0  0  0  0  0  0  0  # atno 17342 bound_to 10162
  139.5770  144.7492  151.3739 LP  0  0  0  0  0  0  0  0  0  0  0  0  # atno 17343 bound_to 10162
  157.7208  130.9556  150.1433 LP  0  0  0  0  0  0  0  0  0  0  0  0  # atno 17370 bound_to 10713
  156.2258  130.3678  149.8502 LP  0  0  0  0  0  0  0  0  0  0  0  0  # atno 17371 bound_to 10713
  141.2214  133.6940  156.7700 LP  0  0  0  0  0  0  0  0  0  0  0  0  # atno 17394 bound_to 11000
  140.2419  134.8607  157.3582 LP  0  0  0  0  0  0  0  0  0  0  0  0  # atno 17395 bound_to 11000

$$$$
