#       Name:                AV-unprocessed.smi:793
#       Creating user name   scv26
#       Creation time:       Fri Mar 27 01:18:24 2020


#       File generated by GOLD software.
#

@<TRIPOS>MOLECULE
AV-unprocessed.smi:793
    45    46     1
SMALL
NO_CHARGES


@<TRIPOS>ATOM
      1 ****        -3.6416   1.9889   0.0603 C.3            1 S1                 0.0000
      2 ****        -3.1131   0.5654  -0.1552 C.3            1 S1                 0.0000
      3 ****        -1.5780   0.4789  -0.0620 C.3            1 S1                 0.0000
      4 ****        -1.0328   1.1773  -1.1809 O.3            1 S1                 0.0000
      5 ****         0.3567   1.4886  -1.1195 C.3            1 S1                 0.0000
      6 ****         0.6794   2.6004  -0.1155 C.3            1 S1                 0.0000
      7 ****         1.9556   3.2711  -0.6428 C.3            1 S1                 0.0000
      8 ****         2.1142   2.8176  -2.1022 C.3            1 S1                 0.0000
      9 ****         0.8244   2.0721  -2.4506 C.3            1 S1                 0.0000
     10 ****        -1.0983  -0.9820  -0.0707 C.2            1 S1                 0.0000
     11 ****        -1.5109  -1.7491  -0.9401 O.2            1 S1                 0.0000
     12 ****        -0.2155  -1.3049   0.8948 N.am           1 S1                 0.0000
     13 ****         0.3992  -2.5383   1.1636 C.2            1 S1                 0.0000
     14 ****         0.0678  -3.7290   0.6015 C.2            1 S1                 0.0000
     15 ****         0.6966  -4.9282   0.9048 N.pl3          1 S1                 0.0000
     16 ****         1.7196  -4.9311   1.8390 C.2            1 S1                 0.0000
     17 ****         2.1430  -3.8200   2.4730 C.2            1 S1                 0.0000
     18 ****         1.4967  -2.5227   2.1713 C.2            1 S1                 0.0000
     19 ****         1.8583  -1.4883   2.7322 O.2            1 S1                 0.0000
     20 ****        -4.7293   2.0122  -0.0071 H              1 S1                 0.0000
     21 ****        -3.2481   2.6746  -0.6905 H              1 S1                 0.0000
     22 ****        -3.3606   2.3692   1.0427 H              1 S1                 0.0000
     23 ****        -3.5657  -0.0892   0.5912 H              1 S1                 0.0000
     24 ****        -3.4498   0.2008  -1.1266 H              1 S1                 0.0000
     25 ****        -1.2661   0.9573   0.8680 H              1 S1                 0.0000
     26 ****         0.9606   0.6063  -0.9032 H              1 S1                 0.0000
     27 ****        -0.1322   3.3296  -0.1041 H              1 S1                 0.0000
     28 ****         0.7986   2.2245   0.9011 H              1 S1                 0.0000
     29 ****         1.8785   4.3563  -0.5692 H              1 S1                 0.0000
     30 ****         2.8241   2.9658  -0.0580 H              1 S1                 0.0000
     31 ****         2.2993   3.6522  -2.7789 H              1 S1                 0.0000
     32 ****         2.9628   2.1369  -2.1822 H              1 S1                 0.0000
     33 ****         0.9714   1.3094  -3.2157 H              1 S1                 0.0000
     34 ****         0.0837   2.7808  -2.8244 H              1 S1                 0.0000
     35 ****         0.0689  -0.5536   1.5070 H              1 S1                 0.0000
     36 ****        -0.7204  -3.8566  -0.1229 H              1 S1                 0.0000
     37 ****         2.1522  -5.9044   2.0183 H              1 S1                 0.0000
     38 ****         2.9437  -3.8539   3.1971 H              1 S1                 0.0000
     39 ****         0.4070  -5.7863   0.4567 H              1 S1                 0.0000
     40 ****        -1.5333   2.0379  -1.2754 LP             1 S1                 0.0000
     41 ****        -1.1825   0.6138  -1.9933 LP             1 S1                 0.0000
     42 ****        -2.1527  -1.4206  -1.6331 LP             1 S1                 0.0000
     43 ****        -1.2044  -2.7008  -0.9536 LP             1 S1                 0.0000
     44 ****         1.4115  -0.6200   2.5164 LP             1 S1                 0.0000
     45 ****         2.5989  -1.5162   3.4036 LP             1 S1                 0.0000
@<TRIPOS>BOND
    1    1    2 1     
    2    1   20 1     
    3    1   21 1     
    4    1   22 1     
    5    2    3 1     
    6    2   23 1     
    7    2   24 1     
    8    3    4 1     
    9    3   10 1     
   10    3   25 1     
   11    4    5 1     
   12    5    9 1     
   13    5    6 1     
   14    5   26 1     
   15    6    7 1     
   16    6   27 1     
   17    6   28 1     
   18    7    8 1     
   19    7   29 1     
   20    7   30 1     
   21    8    9 1     
   22    8   31 1     
   23    8   32 1     
   24    9   33 1     
   25    9   34 1     
   26   10   11 2     
   27   10   12 am    
   28   12   35 1     
   29   12   13 1     
   30   13   18 1     
   31   13   14 2     
   32   14   36 1     
   33   14   15 1     
   34   15   39 1     
   35   15   16 1     
   36   16   37 1     
   37   16   17 2     
   38   17   18 1     
   39   17   38 1     
   40   18   19 2     
   41    4   40 1     
   42    4   41 1     
   43   11   42 1     
   44   11   43 1     
   45   19   44 1     
   46   19   45 1     
@<TRIPOS>SUBSTRUCTURE
      1 S1             1
@<TRIPOS>SET
LONE_PAIRS      STATIC     ATOMS    <user>   **** ""
6 40 41 42 43 44 45
DONOR_HYDROGENS      STATIC     ATOMS    <user>   **** ""
2 35 39
ATOM$BLUE        STATIC     ATOMS    COLORGROUP SYSTEM
6 40 41 42 43 44 45
ATOM$RED        STATIC     ATOMS    COLORGROUP SYSTEM
2 35 39
