AV-unprocessed.smi:1196|AV-procd|sdf|4997|dock6
  -GOLD-   22720 4 03D 1   1.00000     0.00000
 Structure written by MMmdl.
 37 38  0  0  0  0  0  0  0  0  1 V2000
  149.5197  141.7757  155.5214 C   0  0  0  0  0  0  0  0  0  0  0  0
  150.4984  140.7917  156.1817 C   0  0  1  0  0  0  0  0  0  0  0  0
  150.4408  140.8870  157.7187 C   0  0  0  0  0  0  0  0  0  0  0  0
  151.3288  141.9100  158.2426 N   0  0  0  0  0  0  0  0  0  0  0  0
  151.5034  143.2018  157.7934 C   0  0  0  0  0  0  0  0  0  0  0  0
  152.4460  143.7852  158.5906 C   0  0  0  0  0  0  0  0  0  0  0  0
  152.7932  142.7572  159.5113 C   0  0  0  0  0  0  0  0  0  0  0  0
  152.1235  141.6354  159.3002 N   0  0  0  0  0  0  0  0  0  0  0  0
  150.2006  139.4267  155.7535 N   0  0  0  0  0  0  0  0  0  0  0  0
  151.0765  138.5712  155.2053 C   0  0  0  0  0  0  0  0  0  0  0  0
  152.2515  138.8591  154.9767 O   0  0  0  0  0  0  0  0  0  0  0  0
  150.5417  137.1759  154.8745 C   0  0  0  0  0  0  0  0  0  0  0  0
  149.5785  136.6384  155.9496 C   0  0  0  0  0  0  0  0  0  0  0  0
  148.9140  135.3071  155.5492 C   0  0  2  0  0  0  0  0  0  0  0  0
  148.1179  135.4171  154.3386 N   0  0  0  0  0  0  0  0  0  0  0  0
  146.8311  135.1031  154.5415 C   0  0  0  0  0  0  0  0  0  0  0  0
  145.9440  135.1088  153.6913 O   0  0  0  0  0  0  0  0  0  0  0  0
  146.6827  134.7836  155.8315 N   0  0  0  0  0  0  0  0  0  0  0  0
  147.8227  134.8788  156.5136 C   0  0  0  0  0  0  0  0  0  0  0  0
  147.9881  134.6643  157.7128 O   0  0  0  0  0  0  0  0  0  0  0  0
  149.7344  142.8016  155.8214 H   0  0  0  0  0  0  0  0  0  0  0  0
  148.4883  141.5566  155.7996 H   0  0  0  0  0  0  0  0  0  0  0  0
  149.5880  141.7329  154.4340 H   0  0  0  0  0  0  0  0  0  0  0  0
  151.5098  141.0546  155.8655 H   0  0  0  0  0  0  0  0  0  0  0  0
  149.4273  141.1307  158.0398 H   0  0  0  0  0  0  0  0  0  0  0  0
  150.6883  139.9274  158.1763 H   0  0  0  0  0  0  0  0  0  0  0  0
  150.9502  143.5925  156.9519 H   0  0  0  0  0  0  0  0  0  0  0  0
  152.8297  144.7925  158.5258 H   0  0  0  0  0  0  0  0  0  0  0  0
  153.5075  142.7924  160.3207 H   0  0  0  0  0  0  0  0  0  0  0  0
  149.2585  139.0994  155.9123 H   0  0  0  0  0  0  0  0  0  0  0  0
  150.0395  137.2263  153.9079 H   0  0  0  0  0  0  0  0  0  0  0  0
  151.3778  136.4847  154.7564 H   0  0  0  0  0  0  0  0  0  0  0  0
  150.1285  136.4932  156.8812 H   0  0  0  0  0  0  0  0  0  0  0  0
  148.8104  137.3842  156.1637 H   0  0  0  0  0  0  0  0  0  0  0  0
  149.6505  134.5098  155.4426 H   0  0  0  0  0  0  0  0  0  0  0  0
  148.5050  135.6971  153.4491 H   0  0  0  0  0  0  0  0  0  0  0  0
  145.8028  134.5108  156.2445 H   0  0  0  0  0  0  0  0  0  0  0  0
  1  2  1  0  0  0  0
  1 21  1  0  0  0  0
  1 22  1  0  0  0  0
  1 23  1  0  0  0  0
  2  3  1  0  0  0  0
  2  9  1  0  0  0  0
  2 24  1  0  0  0  0
  3  4  1  0  0  0  0
  3 25  1  0  0  0  0
  3 26  1  0  0  0  0
  4  8  1  0  0  0  0
  4  5  1  0  0  0  0
  5  6  2  0  0  0  0
  5 27  1  0  0  0  0
  6  7  1  0  0  0  0
  6 28  1  0  0  0  0
  7  8  2  0  0  0  0
  7 29  1  0  0  0  0
  9 10  1  0  0  0  0
  9 30  1  0  0  0  0
 10 11  2  0  0  0  0
 10 12  1  0  0  0  0
 12 13  1  0  0  0  0
 12 31  1  0  0  0  0
 12 32  1  0  0  0  0
 13 14  1  0  0  0  0
 13 33  1  0  0  0  0
 13 34  1  0  0  0  0
 14 19  1  0  0  0  0
 14 15  1  0  0  0  0
 14 35  1  0  0  0  0
 15 16  1  0  0  0  0
 15 36  1  0  0  0  0
 16 17  2  0  0  0  0
 16 18  1  0  0  0  0
 18 19  1  0  0  0  0
 18 37  1  0  0  0  0
 19 20  2  0  0  0  0
M  END
> <s_m_source_file>
AV-unprocessed.smi

> <i_m_source_file_index>
1196

> <i_lp_mmshare_version>
43012

> <i_f3d_flags>
0

> <s_epik_input>
bjFbY0hdW2NIXVtjSF1uMVtDSDJdW0NAQEhdKFtDSDNdKVtOSF1DKD1PKVtDSDJdW0NIMl1bQ0BASF0yW05IXUMoPU8pW05IXUMyPU8=

> <s_epik_cmdline>
J2VwaWtfcHl0aG9uJywgJy1waCcsICc3LjAnLCAnLXRuJywgJzgnLCAnLW1hJywgJzIwMCcsICctbWV0YWxfYmluZGluZycsICctaW1hZScsICc8aW5maWxlLm1hZT4nLCAnLW9tYWUnLCAnPG91dGZpbGUubWFlPic=

> <r_lp_tautomer_probability>
1

> <r_epik_Ionization_Penalty>
0.00815973

> <r_epik_Ionization_Penalty_Charging>
0

> <r_epik_Ionization_Penalty_Neutral>
0.00815973

> <r_epik_State_Penalty>
0.00583796

> <r_epik_Charging_Adjusted_Penalty>
0.00583796

> <i_epik_Tot_Q>
0

> <i_epik_Tot_abs_Q>
0

> <r_epik_Metal_State_Penalty>
0.409204

> <b_epik_Metal_Only>
0

> <s_lp_Force_Field>
OPLS_2005

> <r_lp_Energy>
16.5203

> <b_lp_Chiralities_Consistent>
1

> <s_lp_Variant>
AV-unprocessed.smi:1196-2

> <Gold.Version>
5.8.1

> <Gold.Id.Protein>
6NUR|6NUR_protein|mol2

> <Gold.PLP.Fitness>
42.1930

> <Gold.PLP.PLP>
-32.9859

> <Gold.PLP.part.hbond>
-3.0000

> <Gold.PLP.part.metal>
0.0000

> <Gold.PLP.part.buried>
-4.5482

> <Gold.PLP.part.nonpolar>
-27.5176

> <Gold.PLP.part.repulsive>
0.2155

> <Gold.PLP.ligand.clash>
0.0000

> <Gold.PLP.ligand.torsion>
0.8862

> <Gold.PLP.Chemscore.Hbond>
2.6400

> <Gold.PLP.Chemscore.CHOScore>
1.0000

> <Gold.PLP.Chemscore.Metal>
0.0000

> <Gold.Chemscore.Hbonds>
donor molecule, donor type, donor heavy atom, donor atom, acceptor molecule, acceptor atom, score
      L1  H    15    36       P1  7948  1.00
      L1  C     5    27       P1  8028  0.66

> <Gold.PLP.Chemscore.Internal.Correction>
0.0596

> <Gold.Rescore>
     Score         DG    S(hbond)    S(metal)    S(lipo)     H(rot)  DE(clash)    DE(int)     intcor
     14.21     -14.92       2.75        0.00      66.90       2.96       0.05       0.67       ----

> <Gold.Chemscore.Fitness>
14.2064

> <Gold.Chemscore.DG>
-14.9244

> <Gold.Chemscore.ZeroCoef>
-5.4800

> <Gold.Chemscore.Hbond>
2.7512

> <Gold.Chemscore.Metal>
0.0000

> <Gold.Chemscore.Lipo>
66.8950

> <Gold.Chemscore.Internal_Hbond>
0.0000

> <Gold.Chemscore.DEClash>
0.0515

> <Gold.Chemscore.DEInternal>
0.6665

> <Gold.Chemscore.Rot>
2.9575

> <Gold.Chemscore.Internal.Correction>
   9.000000E+99

> <Gold.Chemscore.Hbonds>
donor molecule, donor type, donor heavy atom, donor atom, acceptor molecule, acceptor atom, score
      L1  H    15    36       P1  7948  1.00

> <Gold.Chemscore.Hbond.Weighted>
-9.1890

> <Gold.Chemscore.Metal.Weighted>
-0.0000

> <Gold.Chemscore.Lipo.Weighted>
-7.8267

> <Gold.Chemscore.Internal_Hbond.Weighted>
0.0000

> <Gold.Chemscore.DEClash.Weighted>
0.0515

> <Gold.Chemscore.DEInternal.Weighted>
0.6665

> <Gold.Chemscore.Rot.Weighted>
7.5713

> <Gold.Chemscore.Internal.Correction.Weighted>
   9.000000E+99

> <Gold.Protein.RotatedTorsions>
[ 6907 6896 6895 6894 ] final -112.96 input  -60.11 | X-H torsion
[ 7974 7965 7964 7962 ] final  -73.20 input  175.53 | X-H torsion
[ 8008 7997 7996 7995 ] final   23.18 input   59.86 | X-H torsion
[ 10167 10162 10161 10158 ] final   -1.42 input  -65.29 | X-H torsion
[ 10718 10713 10712 10709 ] final  115.26 input   66.30 | X-H torsion
[ 10763 10752 10751 10750 ] final   67.55 input  -60.55 | X-H torsion
[ 11005 11000 10999 10996 ] final  -47.33 input  -57.11 | X-H torsion

> <Gold.Protein.ActiveResidues>
 VAL166  LYS551  ARG553  GLY616  TRP617  ASP618  TYR619  PRO620  LYS621  CYS622 
 ASP623  PHE694  ASN695  SER759  ASP760  ASP761  ALA762  ILE779  LEU786  VAL792 
 PHE793  MET794  SER795  GLU796  ALA797  LYS798  CYS799  TRP800  GLU811  SER814 

> <Gold.Protein.RotatedAtoms>
  150.7795  133.9013  159.3341 H   0  0  0  0  0  0  0  0  0  0  0  0  # atno 6907 bound_to 6896
  151.6879  135.0949  160.0238 H   0  0  0  0  0  0  0  0  0  0  0  0  # atno 6908 bound_to 6896
  152.3842  133.6550  159.6221 H   0  0  0  0  0  0  0  0  0  0  0  0  # atno 6909 bound_to 6896
  145.6553  140.9270  143.0963 H   0  0  0  0  0  0  0  0  0  0  0  0  # atno 7974 bound_to 7965
  154.9770  140.3097  155.4963 H   0  0  0  0  0  0  0  0  0  0  0  0  # atno 8008 bound_to 7997
  156.2958  140.2273  156.4805 H   0  0  0  0  0  0  0  0  0  0  0  0  # atno 8009 bound_to 7997
  154.7824  140.0445  157.1126 H   0  0  0  0  0  0  0  0  0  0  0  0  # atno 8010 bound_to 7997
  140.6809  143.6777  150.8131 H   0  0  0  0  0  0  0  0  0  0  0  0  # atno 10167 bound_to 10162
  157.6232  131.1010  150.7305 H   0  0  0  0  0  0  0  0  0  0  0  0  # atno 10718 bound_to 10713
  153.0192  135.5280  154.6997 H   0  0  0  0  0  0  0  0  0  0  0  0  # atno 10763 bound_to 10752
  154.6109  135.2878  155.0435 H   0  0  0  0  0  0  0  0  0  0  0  0  # atno 10764 bound_to 10752
  154.1457  135.6571  153.5004 H   0  0  0  0  0  0  0  0  0  0  0  0  # atno 10765 bound_to 10752
  141.0634  133.6701  156.3282 H   0  0  0  0  0  0  0  0  0  0  0  0  # atno 11005 bound_to 11000
  144.7108  139.8379  143.7415 LP  0  0  0  0  0  0  0  0  0  0  0  0  # atno 17320 bound_to 7965
  146.1170  139.4182  143.0252 LP  0  0  0  0  0  0  0  0  0  0  0  0  # atno 17321 bound_to 7965
  140.0478  143.5281  152.2688 LP  0  0  0  0  0  0  0  0  0  0  0  0  # atno 17342 bound_to 10162
  139.6131  144.7613  151.2906 LP  0  0  0  0  0  0  0  0  0  0  0  0  # atno 17343 bound_to 10162
  156.7658  130.4813  149.5428 LP  0  0  0  0  0  0  0  0  0  0  0  0  # atno 17370 bound_to 10713
  156.1389  130.6231  151.0440 LP  0  0  0  0  0  0  0  0  0  0  0  0  # atno 17371 bound_to 10713
  140.5823  134.5733  157.5482 LP  0  0  0  0  0  0  0  0  0  0  0  0  # atno 17394 bound_to 11000
  139.9453  134.7712  156.0576 LP  0  0  0  0  0  0  0  0  0  0  0  0  # atno 17395 bound_to 11000

$$$$
