#       Name:                AV-unprocessed.smi:1162
#       Creating user name   scv26
#       Creation time:       Fri Mar 27 03:50:04 2020


#       File generated by GOLD software.
#

@<TRIPOS>MOLECULE
AV-unprocessed.smi:1162
    51    52     1
SMALL
NO_CHARGES


@<TRIPOS>ATOM
      1 ****        -7.6688   3.1826   2.4264 C.3            1 S1                 0.0000
      2 ****        -7.0798   1.8871   2.4571 O.3            1 S1                 0.0000
      3 ****        -5.7059   1.7903   2.3736 C.ar           1 S1                 0.0000
      4 ****        -5.1161   0.5114   2.4191 C.ar           1 S1                 0.0000
      5 ****        -3.7145   0.4035   2.3390 C.ar           1 S1                 0.0000
      6 ****        -2.9444   1.5838   2.2075 C.ar           1 S1                 0.0000
      7 ****        -1.5252   1.6142   2.1403 N.am           1 S1                 0.0000
      8 ****        -0.6768   0.6222   1.8206 C.2            1 S1                 0.0000
      9 ****        -1.0026  -0.5153   1.4818 O.2            1 S1                 0.0000
     10 ****         0.5970   1.0345   1.8962 N.am           1 S1                 0.0000
     11 ****         1.7663   0.2185   1.5782 C.3            1 S1                 0.0000
     12 ****         2.0802   0.1788   0.0777 C.2            1 S1                 0.0000
     13 ****         1.6258   1.0314  -0.6868 O.2            1 S1                 0.0000
     14 ****         2.8822  -0.8182  -0.3254 N.am           1 S1                 0.0000
     15 ****         3.3238  -1.0461  -1.6980 C.3            1 S1                 0.0000
     16 ****         2.2523  -1.8210  -2.4931 C.3            1 S1                 0.0000
     17 ****         2.7319  -2.1432  -3.9179 C.3            1 S1                 0.0000
     18 ****         4.0672  -2.9035  -3.9009 C.3            1 S1                 0.0000
     19 ****         5.1366  -2.1274  -3.1167 C.3            1 S1                 0.0000
     20 ****         4.6599  -1.8131  -1.6895 C.3            1 S1                 0.0000
     21 ****        -3.6309   2.8152   2.1816 C.ar           1 S1                 0.0000
     22 ****        -4.9737   2.9256   2.2576 N.ar           1 S1                 0.0000
     23 ****        -8.7515   3.0887   2.5096 H              1 S1                 0.0000
     24 ****        -7.4526   3.6971   1.4890 H              1 S1                 0.0000
     25 ****        -7.3257   3.7971   3.2600 H              1 S1                 0.0000
     26 ****        -5.7281  -0.3726   2.5202 H              1 S1                 0.0000
     27 ****        -3.2641  -0.5749   2.3956 H              1 S1                 0.0000
     28 ****        -1.1053   2.5156   2.3146 H              1 S1                 0.0000
     29 ****         0.7723   1.9899   2.1703 H              1 S1                 0.0000
     30 ****         2.6268   0.6370   2.1006 H              1 S1                 0.0000
     31 ****         1.6323  -0.7960   1.9583 H              1 S1                 0.0000
     32 ****         3.2110  -1.4708   0.3715 H              1 S1                 0.0000
     33 ****         3.4926  -0.0820  -2.1820 H              1 S1                 0.0000
     34 ****         2.0080  -2.7499  -1.9756 H              1 S1                 0.0000
     35 ****         1.3281  -1.2439  -2.5425 H              1 S1                 0.0000
     36 ****         1.9764  -2.7312  -4.4396 H              1 S1                 0.0000
     37 ****         2.8464  -1.2166  -4.4817 H              1 S1                 0.0000
     38 ****         3.9236  -3.8857  -3.4485 H              1 S1                 0.0000
     39 ****         4.4084  -3.0793  -4.9214 H              1 S1                 0.0000
     40 ****         6.0625  -2.7020  -3.0818 H              1 S1                 0.0000
     41 ****         5.3697  -1.1975  -3.6375 H              1 S1                 0.0000
     42 ****         5.4217  -1.2319  -1.1685 H              1 S1                 0.0000
     43 ****         4.5482  -2.7454  -1.1337 H              1 S1                 0.0000
     44 ****        -3.0863   3.7442   2.0946 H              1 S1                 0.0000
     45 ****        -7.4600   1.3709   1.6897 LP             1 S1                 0.0000
     46 ****        -7.3550   1.4571   3.3170 LP             1 S1                 0.0000
     47 ****        -1.9699  -0.7630   1.4272 LP             1 S1                 0.0000
     48 ****        -0.3000  -1.1918   1.2611 LP             1 S1                 0.0000
     49 ****         1.0435   1.7624  -0.3312 LP             1 S1                 0.0000
     50 ****         1.8393   0.9924  -1.6630 LP             1 S1                 0.0000
     51 ****        -5.4172   3.8214   2.2291 LP             1 S1                 0.0000
@<TRIPOS>BOND
    1    1    2 1     
    2    1   23 1     
    3    1   24 1     
    4    1   25 1     
    5    2    3 1     
    6    3   22 ar    
    7    3    4 ar    
    8    4    5 ar    
    9    4   26 1     
   10    5    6 ar    
   11    5   27 1     
   12    6    7 1     
   13    6   21 ar    
   14    7    8 am    
   15    7   28 1     
   16    8    9 2     
   17    8   10 am    
   18   10   11 1     
   19   10   29 1     
   20   11   12 1     
   21   11   30 1     
   22   11   31 1     
   23   12   13 2     
   24   12   14 am    
   25   14   15 1     
   26   14   32 1     
   27   15   20 1     
   28   15   16 1     
   29   15   33 1     
   30   16   17 1     
   31   16   34 1     
   32   16   35 1     
   33   17   18 1     
   34   17   36 1     
   35   17   37 1     
   36   18   19 1     
   37   18   38 1     
   38   18   39 1     
   39   19   20 1     
   40   19   40 1     
   41   19   41 1     
   42   20   42 1     
   43   20   43 1     
   44   21   22 ar    
   45   21   44 1     
   46    2   45 1     
   47    2   46 1     
   48    9   47 1     
   49    9   48 1     
   50   13   49 1     
   51   13   50 1     
   52   22   51 1     
@<TRIPOS>SUBSTRUCTURE
      1 S1             1
@<TRIPOS>SET
LONE_PAIRS      STATIC     ATOMS    <user>   **** ""
7 45 46 47 48 49 50 51
DONOR_HYDROGENS      STATIC     ATOMS    <user>   **** ""
3 28 29 32
ATOM$BLUE        STATIC     ATOMS    COLORGROUP SYSTEM
7 45 46 47 48 49 50 51
ATOM$RED        STATIC     ATOMS    COLORGROUP SYSTEM
3 28 29 32
