AV-unprocessed.smi:2160|AV-procd|sdf|8798|dock1
  -GOLD-   2272011583D 1   1.00000     0.00000
 Structure written by MMmdl.
 43 45  0  0  0  0  0  0  0  0  1 V2000
  144.4700  135.0479  149.8760 C   0  0  0  0  0  0  0  0  0  0  0  0
  145.0368  135.1824  151.1710 O   0  0  0  0  0  0  0  0  0  0  0  0
  145.5654  136.4058  151.5227 C   0  0  0  0  0  0  0  0  0  0  0  0
  146.0606  137.3563  150.5945 C   0  0  0  0  0  0  0  0  0  0  0  0
  146.5916  138.5813  151.0425 C   0  0  0  0  0  0  0  0  0  0  0  0
  146.6426  138.8731  152.4203 C   0  0  0  0  0  0  0  0  0  0  0  0
  147.2345  140.1811  152.9055 C   0  0  0  0  0  0  0  0  0  0  0  0
  148.2954  139.9557  153.8184 O   0  0  0  0  0  0  0  0  0  0  0  0
  148.7660  141.1440  154.4329 C   0  0  0  0  0  0  0  0  0  0  0  0
  149.9878  140.8314  155.3182 C   0  0  1  0  0  0  0  0  0  0  0  0
  150.8616  139.9679  154.6223 O   0  0  0  0  0  0  0  0  0  0  0  0
  150.7655  142.0618  155.8350 C   0  0  0  0  0  0  0  0  0  0  0  0
  151.0953  141.9750  157.2476 N   0  0  0  0  0  0  0  0  0  0  0  0
  151.0814  140.8698  158.0171 C   0  0  0  0  0  0  0  0  0  0  0  0
  151.4094  141.0139  159.2977 N   0  0  0  0  0  0  0  0  0  0  0  0
  151.6784  142.3701  159.3665 C   0  0  0  0  0  0  0  0  0  0  0  0
  152.0813  143.1707  160.4594 C   0  0  0  0  0  0  0  0  0  0  0  0
  152.3020  144.5535  160.2901 C   0  0  0  0  0  0  0  0  0  0  0  0
  152.1260  145.1557  159.0276 C   0  0  0  0  0  0  0  0  0  0  0  0
  151.7230  144.3792  157.9248 C   0  0  0  0  0  0  0  0  0  0  0  0
  151.4998  143.0000  158.0980 C   0  0  0  0  0  0  0  0  0  0  0  0
  146.1415  137.9376  153.3467 C   0  0  0  0  0  0  0  0  0  0  0  0
  145.6089  136.7141  152.8978 C   0  0  0  0  0  0  0  0  0  0  0  0
  144.1124  134.0269  149.7440 H   0  0  0  0  0  0  0  0  0  0  0  0
  145.2074  135.2418  149.0960 H   0  0  0  0  0  0  0  0  0  0  0  0
  143.6179  135.7153  149.7426 H   0  0  0  0  0  0  0  0  0  0  0  0
  146.0486  137.1680  149.5319 H   0  0  0  0  0  0  0  0  0  0  0  0
  146.9721  139.2902  150.3217 H   0  0  0  0  0  0  0  0  0  0  0  0
  147.5944  140.7505  152.0469 H   0  0  0  0  0  0  0  0  0  0  0  0
  146.4532  140.7728  153.3840 H   0  0  0  0  0  0  0  0  0  0  0  0
  149.0681  141.8491  153.6569 H   0  0  0  0  0  0  0  0  0  0  0  0
  147.9732  141.6259  155.0071 H   0  0  0  0  0  0  0  0  0  0  0  0
  149.6302  140.2659  156.1795 H   0  0  0  0  0  0  0  0  0  0  0  0
  151.0077  139.2006  155.1546 H   0  0  0  0  0  0  0  0  0  0  0  0
  151.6897  142.1921  155.2703 H   0  0  0  0  0  0  0  0  0  0  0  0
  150.1782  142.9670  155.6769 H   0  0  0  0  0  0  0  0  0  0  0  0
  150.8046  139.9059  157.6154 H   0  0  0  0  0  0  0  0  0  0  0  0
  152.2210  142.7199  161.4306 H   0  0  0  0  0  0  0  0  0  0  0  0
  152.6082  145.1552  161.1331 H   0  0  0  0  0  0  0  0  0  0  0  0
  152.2933  146.2161  158.9071 H   0  0  0  0  0  0  0  0  0  0  0  0
  151.5775  144.8422  156.9602 H   0  0  0  0  0  0  0  0  0  0  0  0
  146.1718  138.1529  154.4048 H   0  0  0  0  0  0  0  0  0  0  0  0
  145.2330  136.0022  153.6177 H   0  0  0  0  0  0  0  0  0  0  0  0
  1  2  1  0  0  0  0
  1 24  1  0  0  0  0
  1 25  1  0  0  0  0
  1 26  1  0  0  0  0
  2  3  1  0  0  0  0
  3 23  1  0  0  0  0
  3  4  2  0  0  0  0
  4  5  1  0  0  0  0
  4 27  1  0  0  0  0
  5  6  2  0  0  0  0
  5 28  1  0  0  0  0
  6  7  1  0  0  0  0
  6 22  1  0  0  0  0
  7  8  1  0  0  0  0
  7 29  1  0  0  0  0
  7 30  1  0  0  0  0
  8  9  1  0  0  0  0
  9 10  1  0  0  0  0
  9 31  1  0  0  0  0
  9 32  1  0  0  0  0
 10 11  1  0  0  0  0
 10 12  1  0  0  0  0
 10 33  1  0  0  0  0
 11 34  1  0  0  0  0
 12 13  1  0  0  0  0
 12 35  1  0  0  0  0
 12 36  1  0  0  0  0
 13 21  1  0  0  0  0
 13 14  1  0  0  0  0
 14 15  2  0  0  0  0
 14 37  1  0  0  0  0
 15 16  1  0  0  0  0
 16 21  2  0  0  0  0
 16 17  1  0  0  0  0
 17 18  2  0  0  0  0
 17 38  1  0  0  0  0
 18 19  1  0  0  0  0
 18 39  1  0  0  0  0
 19 20  2  0  0  0  0
 19 40  1  0  0  0  0
 20 21  1  0  0  0  0
 20 41  1  0  0  0  0
 22 23  2  0  0  0  0
 22 42  1  0  0  0  0
 23 43  1  0  0  0  0
M  END
> <s_m_source_file>
AV-unprocessed.smi

> <i_m_source_file_index>
2160

> <i_lp_mmshare_version>
43012

> <i_f3d_flags>
0

> <s_epik_input>
W0NIM11PYzFbY0hdW2NIXWMoW2NIXVtjSF0xKVtDSDJdT1tDSDJdW0NASF0oW09IXSlbQ0gyXW4oW2NIXW4yKWMoYzIzKVtjSF1bY0hdW2NIXVtjSF0z

> <s_epik_cmdline>
J2VwaWtfcHl0aG9uJywgJy1waCcsICc3LjAnLCAnLXRuJywgJzgnLCAnLW1hJywgJzIwMCcsICctbWV0YWxfYmluZGluZycsICctaW1hZScsICc8aW5maWxlLm1hZT4nLCAnLW9tYWUnLCAnPG91dGZpbGUubWFlPic=

> <r_lp_tautomer_probability>
1

> <r_epik_Ionization_Penalty>
0.0713119

> <r_epik_Ionization_Penalty_Charging>
0

> <r_epik_Ionization_Penalty_Neutral>
0.0713119

> <r_epik_State_Penalty>
0.06259

> <r_epik_Charging_Adjusted_Penalty>
0.06259

> <i_epik_Tot_Q>
0

> <i_epik_Tot_abs_Q>
0

> <r_epik_Metal_State_Penalty>
6.60119e-05

> <b_epik_Metal_Only>
0

> <s_lp_Force_Field>
OPLS_2005

> <r_lp_Energy>
17.5376

> <b_lp_Chiralities_Consistent>
1

> <s_lp_Variant>
AV-unprocessed.smi:2160-2

> <Gold.Version>
5.8.1

> <Gold.Id.Protein>
6NUR|6NUR_protein|mol2

> <Gold.PLP.Fitness>
49.5788

> <Gold.PLP.PLP>
-48.9004

> <Gold.PLP.part.hbond>
-1.0000

> <Gold.PLP.part.metal>
0.0000

> <Gold.PLP.part.buried>
-0.9242

> <Gold.PLP.part.nonpolar>
-47.7462

> <Gold.PLP.part.repulsive>
0.3085

> <Gold.PLP.ligand.clash>
0.0000

> <Gold.PLP.ligand.torsion>
1.3091

> <Gold.PLP.Chemscore.Hbond>
1.0000

> <Gold.PLP.Chemscore.CHOScore>
0.0000

> <Gold.PLP.Chemscore.Metal>
0.0000

> <Gold.Chemscore.Hbonds>
donor molecule, donor type, donor heavy atom, donor atom, acceptor molecule, acceptor atom, score
      P1  H  7989  7998       L1    11  1.00

> <Gold.PLP.Chemscore.Internal.Correction>
0.2967

> <Gold.Rescore>
     Score         DG    S(hbond)    S(metal)    S(lipo)     H(rot)  DE(clash)    DE(int)     intcor
     15.63     -17.38       0.96        0.00     131.98       2.63       0.57       1.18       ----

> <Gold.Chemscore.Fitness>
15.6278

> <Gold.Chemscore.DG>
-17.3814

> <Gold.Chemscore.ZeroCoef>
-5.4800

> <Gold.Chemscore.Hbond>
0.9564

> <Gold.Chemscore.Metal>
0.0000

> <Gold.Chemscore.Lipo>
131.9817

> <Gold.Chemscore.Internal_Hbond>
0.0000

> <Gold.Chemscore.DEClash>
0.5727

> <Gold.Chemscore.DEInternal>
1.1808

> <Gold.Chemscore.Rot>
2.6308

> <Gold.Chemscore.Internal.Correction>
   9.000000E+99

> <Gold.Chemscore.Hbonds>
donor molecule, donor type, donor heavy atom, donor atom, acceptor molecule, acceptor atom, score
      P1  H  7989  7998       L1    11  0.60

> <Gold.Chemscore.Hbond.Weighted>
-3.1943

> <Gold.Chemscore.Metal.Weighted>
-0.0000

> <Gold.Chemscore.Lipo.Weighted>
-15.4419

> <Gold.Chemscore.Internal_Hbond.Weighted>
0.0000

> <Gold.Chemscore.DEClash.Weighted>
0.5727

> <Gold.Chemscore.DEInternal.Weighted>
1.1808

> <Gold.Chemscore.Rot.Weighted>
6.7347

> <Gold.Chemscore.Internal.Correction.Weighted>
   9.000000E+99

> <Gold.Protein.RotatedTorsions>
[ 6907 6896 6895 6894 ] final  -43.19 input  -60.11 | X-H torsion
[ 7974 7965 7964 7962 ] final   69.13 input  175.53 | X-H torsion
[ 8008 7997 7996 7995 ] final -175.76 input   59.86 | X-H torsion
[ 10167 10162 10161 10158 ] final  143.40 input  -65.29 | X-H torsion
[ 10718 10713 10712 10709 ] final  -93.04 input   66.30 | X-H torsion
[ 10763 10752 10751 10750 ] final  171.04 input  -60.55 | X-H torsion
[ 11005 11000 10999 10996 ] final -161.70 input  -57.11 | X-H torsion

> <Gold.Protein.ActiveResidues>
 VAL166  LYS551  ARG553  GLY616  TRP617  ASP618  TYR619  PRO620  LYS621  CYS622 
 ASP623  PHE694  ASN695  SER759  ASP760  ASP761  ALA762  ILE779  LEU786  VAL792 
 PHE793  MET794  SER795  GLU796  ALA797  LYS798  CYS799  TRP800  GLU811  SER814 

> <Gold.Protein.RotatedAtoms>
  150.9467  134.8871  159.7646 H   0  0  0  0  0  0  0  0  0  0  0  0  # atno 6907 bound_to 6896
  152.5103  134.3864  159.9379 H   0  0  0  0  0  0  0  0  0  0  0  0  # atno 6908 bound_to 6896
  151.3882  133.3757  159.2752 H   0  0  0  0  0  0  0  0  0  0  0  0  # atno 6909 bound_to 6896
  145.7942  139.2949  143.1192 H   0  0  0  0  0  0  0  0  0  0  0  0  # atno 7974 bound_to 7965
  155.9866  140.1192  157.0678 H   0  0  0  0  0  0  0  0  0  0  0  0  # atno 8008 bound_to 7997
  154.4198  140.1134  156.5576 H   0  0  0  0  0  0  0  0  0  0  0  0  # atno 8009 bound_to 7997
  155.6400  140.3473  155.4714 H   0  0  0  0  0  0  0  0  0  0  0  0  # atno 8010 bound_to 7997
  139.4970  144.6042  151.6414 H   0  0  0  0  0  0  0  0  0  0  0  0  # atno 10167 bound_to 10162
  156.0009  130.5011  150.5716 H   0  0  0  0  0  0  0  0  0  0  0  0  # atno 10718 bound_to 10713
  154.4063  135.2755  155.2065 H   0  0  0  0  0  0  0  0  0  0  0  0  # atno 10763 bound_to 10752
  154.4070  135.6031  153.5934 H   0  0  0  0  0  0  0  0  0  0  0  0  # atno 10764 bound_to 10752
  152.9831  135.5940  154.4338 H   0  0  0  0  0  0  0  0  0  0  0  0  # atno 10765 bound_to 10752
  140.6174  134.4786  157.5221 H   0  0  0  0  0  0  0  0  0  0  0  0  # atno 11005 bound_to 11000
  145.9945  140.8574  143.0050 LP  0  0  0  0  0  0  0  0  0  0  0  0  # atno 17320 bound_to 7965
  144.6777  140.2263  143.7360 LP  0  0  0  0  0  0  0  0  0  0  0  0  # atno 17321 bound_to 7965
  140.5700  144.0125  150.6212 LP  0  0  0  0  0  0  0  0  0  0  0  0  # atno 17342 bound_to 10162
  140.3239  143.3120  152.0756 LP  0  0  0  0  0  0  0  0  0  0  0  0  # atno 17343 bound_to 10162
  157.3610  131.0750  151.1636 LP  0  0  0  0  0  0  0  0  0  0  0  0  # atno 17370 bound_to 10713
  157.2421  130.6574  149.5894 LP  0  0  0  0  0  0  0  0  0  0  0  0  # atno 17371 bound_to 10713
  139.9167  134.8232  156.1343 LP  0  0  0  0  0  0  0  0  0  0  0  0  # atno 17394 bound_to 11000
  141.0766  133.6773  156.2249 LP  0  0  0  0  0  0  0  0  0  0  0  0  # atno 17395 bound_to 11000

$$$$
