AV-unprocessed.smi:990|AV-procd|sdf|4327|dock2
  -GOLD-   22720 2233D 1   1.00000     0.00000
 Structure written by MMmdl.
 45 46  0  0  0  0  0  0  0  0  2 V2000
  145.3888  133.4987  150.6644 C   0  0  0  0  0  0  0  0  0  0  0  0
  145.5205  134.7872  151.0130 C   0  0  0  0  0  0  0  0  0  0  0  0
  144.3651  135.7572  151.1674 C   0  0  0  0  0  0  0  0  0  0  0  0
  144.8254  137.0794  151.5754 N   0  0  0  0  0  0  0  0  0  0  0  0
  145.6739  137.3226  152.5847 C   0  0  0  0  0  0  0  0  0  0  0  0
  146.1546  136.4391  153.2945 O   0  0  0  0  0  0  0  0  0  0  0  0
  145.9080  138.6397  152.7204 N   0  0  0  0  0  0  0  0  0  0  0  0
  146.7567  139.2937  153.6542 C   0  0  0  0  0  0  0  0  0  0  0  0
  147.2471  140.6137  153.4899 C   0  0  0  0  0  0  0  0  0  0  0  0
  148.0755  141.1755  154.4828 C   0  0  0  0  0  0  0  0  0  0  0  0
  148.3975  140.4170  155.6315 C   0  0  0  0  0  0  0  0  0  0  0  0
  149.2194  140.8885  156.6639 N   0  0  0  0  0  0  0  0  0  0  0  0
  148.6516  142.0280  157.3729 C   0  0  0  0  0  0  0  0  0  0  0  0
  149.5143  142.3994  158.5916 C   0  0  0  0  0  0  0  0  0  0  0  0
  150.9197  142.6240  158.1977 N   0  0  0  0  0  0  0  0  0  0  0  0
  151.9585  143.4095  159.3422 S   0  0  0  0  0  0  0  0  0  0  0  0
  152.1898  145.0861  158.6193 C   0  0  0  0  0  0  0  0  0  0  0  0
  151.2069  143.5639  160.5971 O   0  0  0  0  0  0  0  0  0  0  0  0
  153.2463  142.6990  159.3392 O   0  0  0  0  0  0  0  0  0  0  0  0
  151.4857  141.5075  157.4147 C   0  0  0  0  0  0  0  0  0  0  0  0
  150.5818  141.1544  156.2208 C   0  0  0  0  0  0  0  0  0  0  0  0
  147.8961  139.1690  155.7576 N   0  3  0  0  0  0  0  0  0  0  0  0
  147.0985  138.5944  154.8309 C   0  0  0  0  0  0  0  0  0  0  0  0
  144.4193  133.0669  150.4634 H   0  0  0  0  0  0  0  0  0  0  0  0
  146.2534  132.8576  150.5756 H   0  0  0  0  0  0  0  0  0  0  0  0
  146.5078  135.1796  151.2103 H   0  0  0  0  0  0  0  0  0  0  0  0
  143.8261  135.8496  150.2241 H   0  0  0  0  0  0  0  0  0  0  0  0
  143.6578  135.3591  151.8968 H   0  0  0  0  0  0  0  0  0  0  0  0
  144.4732  137.8645  151.0470 H   0  0  0  0  0  0  0  0  0  0  0  0
  145.3745  139.2488  152.1175 H   0  0  0  0  0  0  0  0  0  0  0  0
  146.9961  141.2126  152.6284 H   0  0  0  0  0  0  0  0  0  0  0  0
  148.4547  142.1792  154.3580 H   0  0  0  0  0  0  0  0  0  0  0  0
  148.5803  142.8843  156.7007 H   0  0  0  0  0  0  0  0  0  0  0  0
  147.6372  141.7915  157.6965 H   0  0  0  0  0  0  0  0  0  0  0  0
  149.1100  143.2980  159.0570 H   0  0  0  0  0  0  0  0  0  0  0  0
  149.4784  141.6081  159.3418 H   0  0  0  0  0  0  0  0  0  0  0  0
  152.7691  145.6976  159.3108 H   0  0  0  0  0  0  0  0  0  0  0  0
  151.2175  145.5508  158.4571 H   0  0  0  0  0  0  0  0  0  0  0  0
  152.7257  145.0178  157.6739 H   0  0  0  0  0  0  0  0  0  0  0  0
  152.4785  141.7714  157.0534 H   0  0  0  0  0  0  0  0  0  0  0  0
  151.6064  140.6418  158.0677 H   0  0  0  0  0  0  0  0  0  0  0  0
  150.9775  140.2786  155.7046 H   0  0  0  0  0  0  0  0  0  0  0  0
  150.5833  141.9759  155.5028 H   0  0  0  0  0  0  0  0  0  0  0  0
  146.7662  137.5911  155.0565 H   0  0  0  0  0  0  0  0  0  0  0  0
  148.1316  138.6332  156.5936 H   0  0  0  0  0  0  0  0  0  0  0  0
  1  2  2  0  0  0  0
  1 24  1  0  0  0  0
  1 25  1  0  0  0  0
  2  3  1  0  0  0  0
  2 26  1  0  0  0  0
  3  4  1  0  0  0  0
  3 27  1  0  0  0  0
  3 28  1  0  0  0  0
  4  5  1  0  0  0  0
  4 29  1  0  0  0  0
  5  6  2  0  0  0  0
  5  7  1  0  0  0  0
  7  8  1  0  0  0  0
  7 30  1  0  0  0  0
  8 23  1  0  0  0  0
  8  9  2  0  0  0  0
  9 10  1  0  0  0  0
  9 31  1  0  0  0  0
 10 11  2  0  0  0  0
 10 32  1  0  0  0  0
 11 12  1  0  0  0  0
 11 22  1  0  0  0  0
 12 21  1  0  0  0  0
 12 13  1  0  0  0  0
 13 14  1  0  0  0  0
 13 33  1  0  0  0  0
 13 34  1  0  0  0  0
 14 15  1  0  0  0  0
 14 35  1  0  0  0  0
 14 36  1  0  0  0  0
 15 16  1  0  0  0  0
 15 20  1  0  0  0  0
 16 17  1  0  0  0  0
 16 18  2  0  0  0  0
 16 19  2  0  0  0  0
 17 37  1  0  0  0  0
 17 38  1  0  0  0  0
 17 39  1  0  0  0  0
 20 21  1  0  0  0  0
 20 40  1  0  0  0  0
 20 41  1  0  0  0  0
 21 42  1  0  0  0  0
 21 43  1  0  0  0  0
 22 23  2  0  0  0  0
 22 45  1  0  0  0  0
 23 44  1  0  0  0  0
M  CHG  1  22   1
M  END
> <s_m_source_file>
AV-unprocessed.smi

> <i_m_source_file_index>
990

> <i_lp_mmshare_version>
43012

> <i_f3d_flags>
0

> <s_epik_input>
W0NIMl09W0NIXVtDSDJdW05IXUMoPU8pW05IXWMxW2NIXVtjSF1jKG5bY0hdMSlOMltDSDJdW0NIMl1OKFMoPU8pKD1PKVtDSDNdKVtDSDJdW0NIMl0y

> <s_epik_cmdline>
J2VwaWtfcHl0aG9uJywgJy1waCcsICc3LjAnLCAnLXRuJywgJzgnLCAnLW1hJywgJzIwMCcsICctbWV0YWxfYmluZGluZycsICctaW1hZScsICc8aW5maWxlLm1hZT4nLCAnLW9tYWUnLCAnPG91dGZpbGUubWFlPic=

> <r_lp_tautomer_probability>
0.999994

> <r_epik_Ionization_Penalty>
0.881759

> <r_epik_Ionization_Penalty_Charging>
0.881739

> <r_epik_Ionization_Penalty_Neutral>
2.00436e-05

> <r_epik_State_Penalty>
0.920006

> <r_epik_Charging_Adjusted_Penalty>
1.80175

> <i_epik_Tot_Q>
1

> <i_epik_Tot_abs_Q>
1

> <r_epik_Metal_State_Penalty>
1.04263

> <b_epik_Metal_Only>
0

> <s_lp_Force_Field>
OPLS_2005

> <r_lp_Energy>
28.5026

> <b_lp_Chiralities_Consistent>
1

> <s_lp_Variant>
AV-unprocessed.smi:990-2

> <Gold.Version>
5.8.1

> <Gold.Id.Protein>
6NUR|6NUR_protein|mol2

> <Gold.PLP.Fitness>
39.2570

> <Gold.PLP.PLP>
-34.7981

> <Gold.PLP.part.hbond>
-2.5869

> <Gold.PLP.part.metal>
0.0000

> <Gold.PLP.part.buried>
-6.4482

> <Gold.PLP.part.nonpolar>
-26.6868

> <Gold.PLP.part.repulsive>
0.7721

> <Gold.PLP.ligand.clash>
0.0000

> <Gold.PLP.ligand.torsion>
0.5040

> <Gold.PLP.Chemscore.Hbond>
1.5814

> <Gold.PLP.Chemscore.CHOScore>
0.0000

> <Gold.PLP.Chemscore.Metal>
0.0000

> <Gold.Chemscore.Hbonds>
donor molecule, donor type, donor heavy atom, donor atom, acceptor molecule, acceptor atom, score
      L1  H     4    29       P1 10171  1.00
      L1  H     7    30       P1 10175  0.53

> <Gold.PLP.Chemscore.Internal.Correction>
0.7228

> <Gold.Rescore>
     Score         DG    S(hbond)    S(metal)    S(lipo)     H(rot)  DE(clash)    DE(int)     intcor
     11.71     -15.20       1.79        0.00      70.87       1.77       0.06       3.43       ----

> <Gold.Chemscore.Fitness>
11.7068

> <Gold.Chemscore.DG>
-15.2005

> <Gold.Chemscore.ZeroCoef>
-5.4800

> <Gold.Chemscore.Hbond>
1.7863

> <Gold.Chemscore.Metal>
0.0000

> <Gold.Chemscore.Lipo>
70.8658

> <Gold.Chemscore.Internal_Hbond>
0.0000

> <Gold.Chemscore.DEClash>
0.0610

> <Gold.Chemscore.DEInternal>
3.4327

> <Gold.Chemscore.Rot>
1.7723

> <Gold.Chemscore.Internal.Correction>
   9.000000E+99

> <Gold.Chemscore.Hbonds>
donor molecule, donor type, donor heavy atom, donor atom, acceptor molecule, acceptor atom, score
      L1  H     4    29       P1 10171  0.94
      L1  H     7    30       P1 10175  0.53

> <Gold.Chemscore.Hbond.Weighted>
-5.9664

> <Gold.Chemscore.Metal.Weighted>
-0.0000

> <Gold.Chemscore.Lipo.Weighted>
-8.2913

> <Gold.Chemscore.Internal_Hbond.Weighted>
0.0000

> <Gold.Chemscore.DEClash.Weighted>
0.0610

> <Gold.Chemscore.DEInternal.Weighted>
3.4327

> <Gold.Chemscore.Rot.Weighted>
4.5371

> <Gold.Chemscore.Internal.Correction.Weighted>
   9.000000E+99

> <Gold.Protein.RotatedTorsions>
[ 6907 6896 6895 6894 ] final -111.56 input  -60.11 | X-H torsion
[ 7974 7965 7964 7962 ] final  -77.86 input  175.53 | X-H torsion
[ 8008 7997 7996 7995 ] final -170.76 input   59.86 | X-H torsion
[ 10167 10162 10161 10158 ] final -110.19 input  -65.29 | X-H torsion
[ 10718 10713 10712 10709 ] final  -65.96 input   66.30 | X-H torsion
[ 10763 10752 10751 10750 ] final  -40.61 input  -60.55 | X-H torsion
[ 11005 11000 10999 10996 ] final   44.58 input  -57.11 | X-H torsion

> <Gold.Protein.ActiveResidues>
 VAL166  LYS551  ARG553  GLY616  TRP617  ASP618  TYR619  PRO620  LYS621  CYS622 
 ASP623  PHE694  ASN695  SER759  ASP760  ASP761  ALA762  ILE779  LEU786  VAL792 
 PHE793  MET794  SER795  GLU796  ALA797  LYS798  CYS799  TRP800  GLU811  SER814 

> <Gold.Protein.RotatedAtoms>
  150.7698  133.9218  159.3400 H   0  0  0  0  0  0  0  0  0  0  0  0  # atno 6907 bound_to 6896
  151.7107  135.0911  160.0276 H   0  0  0  0  0  0  0  0  0  0  0  0  # atno 6908 bound_to 6896
  152.3711  133.6382  159.6123 H   0  0  0  0  0  0  0  0  0  0  0  0  # atno 6909 bound_to 6896
  145.5942  140.9423  143.1276 H   0  0  0  0  0  0  0  0  0  0  0  0  # atno 7974 bound_to 7965
  155.9226  140.1077  157.1195 H   0  0  0  0  0  0  0  0  0  0  0  0  # atno 8008 bound_to 7997
  154.4057  140.1253  156.4764 H   0  0  0  0  0  0  0  0  0  0  0  0  # atno 8009 bound_to 7997
  155.7177  140.3470  155.5004 H   0  0  0  0  0  0  0  0  0  0  0  0  # atno 8010 bound_to 7997
  140.1472  143.4229  152.1521 H   0  0  0  0  0  0  0  0  0  0  0  0  # atno 10167 bound_to 10162
  156.0639  130.4255  150.1640 H   0  0  0  0  0  0  0  0  0  0  0  0  # atno 10718 bound_to 10713
  153.9489  135.6753  153.4744 H   0  0  0  0  0  0  0  0  0  0  0  0  # atno 10763 bound_to 10752
  153.0894  135.4882  154.8658 H   0  0  0  0  0  0  0  0  0  0  0  0  # atno 10764 bound_to 10752
  154.7336  135.3144  154.8808 H   0  0  0  0  0  0  0  0  0  0  0  0  # atno 10765 bound_to 10752
  140.1538  134.4427  155.8363 H   0  0  0  0  0  0  0  0  0  0  0  0  # atno 11005 bound_to 11000
  144.7338  139.7646  143.7337 LP  0  0  0  0  0  0  0  0  0  0  0  0  # atno 17320 bound_to 7965
  146.1624  139.4744  142.9979 LP  0  0  0  0  0  0  0  0  0  0  0  0  # atno 17321 bound_to 7965
  139.5443  144.7285  151.4632 LP  0  0  0  0  0  0  0  0  0  0  0  0  # atno 17342 bound_to 10162
  140.6725  143.8263  150.7017 LP  0  0  0  0  0  0  0  0  0  0  0  0  # atno 17343 bound_to 10162
  156.9703  130.9832  151.3460 LP  0  0  0  0  0  0  0  0  0  0  0  0  # atno 17370 bound_to 10713
  157.5668  130.8283  149.8338 LP  0  0  0  0  0  0  0  0  0  0  0  0  # atno 17371 bound_to 10713
  141.2202  133.6884  156.7471 LP  0  0  0  0  0  0  0  0  0  0  0  0  # atno 17394 bound_to 11000
  140.2572  134.8495  157.3724 LP  0  0  0  0  0  0  0  0  0  0  0  0  # atno 17395 bound_to 11000

$$$$
