AV-unprocessed.smi:3141|AV-procd|sdf|11966|dock10
  -GOLD-   2272017363D 1   1.00000     0.00000
 Structure written by MMmdl.
 35 37  0  0  0  0  0  0  0  0  1 V2000
  151.3080  141.1969  156.4385 O   0  0  0  0  0  0  0  0  0  0  0  0
  150.6030  142.2027  156.3518 C   0  0  0  0  0  0  0  0  0  0  0  0
  150.7689  143.3063  157.0926 N   0  0  0  0  0  0  0  0  0  0  0  0
  151.7779  143.4912  158.0845 C   0  0  0  0  0  0  0  0  0  0  0  0
  151.6361  144.6707  159.0225 C   0  0  0  0  0  0  0  0  0  0  0  0
  152.6850  144.6948  157.9454 C   0  0  0  0  0  0  0  0  0  0  0  0
  149.5705  142.3240  155.5060 N   0  0  0  0  0  0  0  0  0  0  0  0
  149.1224  141.2856  154.5820 C   0  0  2  0  0  0  0  0  0  0  0  0
  147.7863  141.6860  153.9275 C   0  0  0  0  0  0  0  0  0  0  0  0
  146.7278  140.7434  154.5036 C   0  0  0  0  0  0  0  0  0  0  0  0
  147.4927  139.4576  154.7989 C   0  0  0  0  0  0  0  0  0  0  0  0
  148.8486  139.9514  155.3173 C   0  0  1  0  0  0  0  0  0  0  0  0
  149.9152  138.9745  155.1623 N   0  0  0  0  0  0  0  0  0  0  0  0
  150.2648  138.3066  153.9956 C   0  0  0  0  0  0  0  0  0  0  0  0
  151.3168  137.4781  154.3138 C   0  0  0  0  0  0  0  0  0  0  0  0
  151.6316  137.6172  155.6631 N   0  0  0  0  0  0  0  0  0  0  0  0
  150.7598  138.5169  156.0990 C   0  0  0  0  0  0  0  0  0  0  0  0
  150.1345  144.0770  156.9431 H   0  0  0  0  0  0  0  0  0  0  0  0
  152.2344  142.5967  158.5060 H   0  0  0  0  0  0  0  0  0  0  0  0
  150.7726  145.3211  158.8970 H   0  0  0  0  0  0  0  0  0  0  0  0
  151.9734  144.5386  160.0486 H   0  0  0  0  0  0  0  0  0  0  0  0
  153.7225  144.5786  158.2523 H   0  0  0  0  0  0  0  0  0  0  0  0
  152.5214  145.3625  157.1015 H   0  0  0  0  0  0  0  0  0  0  0  0
  149.0503  143.1893  155.5073 H   0  0  0  0  0  0  0  0  0  0  0  0
  149.8661  141.1634  153.7921 H   0  0  0  0  0  0  0  0  0  0  0  0
  147.5248  142.7343  154.0794 H   0  0  0  0  0  0  0  0  0  0  0  0
  147.8556  141.5286  152.8503 H   0  0  0  0  0  0  0  0  0  0  0  0
  146.3326  141.1568  155.4324 H   0  0  0  0  0  0  0  0  0  0  0  0
  145.8895  140.5879  153.8241 H   0  0  0  0  0  0  0  0  0  0  0  0
  146.9774  138.8195  155.5174 H   0  0  0  0  0  0  0  0  0  0  0  0
  147.6108  138.8901  153.8748 H   0  0  0  0  0  0  0  0  0  0  0  0
  148.7309  140.1490  156.3848 H   0  0  0  0  0  0  0  0  0  0  0  0
  149.7478  138.4682  153.0613 H   0  0  0  0  0  0  0  0  0  0  0  0
  151.8659  136.7972  153.6804 H   0  0  0  0  0  0  0  0  0  0  0  0
  150.7336  138.8500  157.1263 H   0  0  0  0  0  0  0  0  0  0  0  0
  1  2  2  0  0  0  0
  2  3  1  0  0  0  0
  2  7  1  0  0  0  0
  3  4  1  0  0  0  0
  3 18  1  0  0  0  0
  4  6  1  0  0  0  0
  4  5  1  0  0  0  0
  4 19  1  0  0  0  0
  5  6  1  0  0  0  0
  5 20  1  0  0  0  0
  5 21  1  0  0  0  0
  6 22  1  0  0  0  0
  6 23  1  0  0  0  0
  7  8  1  0  0  0  0
  7 24  1  0  0  0  0
  8 12  1  0  0  0  0
  8  9  1  0  0  0  0
  8 25  1  0  0  0  0
  9 10  1  0  0  0  0
  9 26  1  0  0  0  0
  9 27  1  0  0  0  0
 10 11  1  0  0  0  0
 10 28  1  0  0  0  0
 10 29  1  0  0  0  0
 11 12  1  0  0  0  0
 11 30  1  0  0  0  0
 11 31  1  0  0  0  0
 12 13  1  0  0  0  0
 12 32  1  0  0  0  0
 13 17  1  0  0  0  0
 13 14  1  0  0  0  0
 14 15  2  0  0  0  0
 14 33  1  0  0  0  0
 15 16  1  0  0  0  0
 15 34  1  0  0  0  0
 16 17  2  0  0  0  0
 17 35  1  0  0  0  0
M  END
> <s_m_source_file>
AV-unprocessed.smi

> <i_m_source_file_index>
3141

> <i_lp_mmshare_version>
43012

> <i_f3d_flags>
0

> <s_epik_input>
W0NIMl0xW0NIMl1bQ0hdMVtOSF1DKD1PKVtOSF1bQ0BASF0yW0NIMl1bQ0gyXVtDSDJdW0NASF0ybjNbY0hdW2NIXW5bY0hdMw==

> <s_epik_cmdline>
J2VwaWtfcHl0aG9uJywgJy1waCcsICc3LjAnLCAnLXRuJywgJzgnLCAnLW1hJywgJzIwMCcsICctbWV0YWxfYmluZGluZycsICctaW1hZScsICc8aW5maWxlLm1hZT4nLCAnLW9tYWUnLCAnPG91dGZpbGUubWFlPic=

> <r_lp_tautomer_probability>
1

> <r_epik_Ionization_Penalty>
0.728419

> <r_epik_Ionization_Penalty_Charging>
0.728357

> <r_epik_Ionization_Penalty_Neutral>
6.27871e-05

> <r_epik_State_Penalty>
0.753408

> <r_epik_Charging_Adjusted_Penalty>
1.48176

> <i_epik_Tot_Q>
0

> <i_epik_Tot_abs_Q>
0

> <r_epik_Metal_State_Penalty>
0.332413

> <b_epik_Metal_Only>
0

> <s_lp_Force_Field>
OPLS_2005

> <r_lp_Energy>
34.1677

> <b_lp_Chiralities_Consistent>
1

> <s_lp_Variant>
AV-unprocessed.smi:3141-5

> <Gold.Version>
5.8.1

> <Gold.Id.Protein>
6NUR|6NUR_protein|mol2

> <Gold.PLP.Fitness>
46.1758

> <Gold.PLP.PLP>
-33.6930

> <Gold.PLP.part.hbond>
-1.9328

> <Gold.PLP.part.metal>
0.0000

> <Gold.PLP.part.buried>
-3.8926

> <Gold.PLP.part.nonpolar>
-29.2517

> <Gold.PLP.part.repulsive>
0.2536

> <Gold.PLP.ligand.clash>
0.0000

> <Gold.PLP.ligand.torsion>
0.2644

> <Gold.PLP.Chemscore.Hbond>
1.8640

> <Gold.PLP.Chemscore.CHOScore>
2.4599

> <Gold.PLP.Chemscore.Metal>
0.0000

> <Gold.Chemscore.Hbonds>
donor molecule, donor type, donor heavy atom, donor atom, acceptor molecule, acceptor atom, score
      L1  H     3    18       P1  8028  0.83
      L1  H     7    24       P1  8028  1.00
      L1  C    14    33       P1  7948  0.54
      L1  C    14    33       P1  7957  1.00
      L1  C    15    34       P1  7949  0.93

> <Gold.PLP.Chemscore.Internal.Correction>
0.0398

> <Gold.Rescore>
     Score         DG    S(hbond)    S(metal)    S(lipo)     H(rot)  DE(clash)    DE(int)     intcor
     16.63     -17.81       1.87        0.00      86.47       1.57       0.16       1.02       ----

> <Gold.Chemscore.Fitness>
16.6278

> <Gold.Chemscore.DG>
-17.8080

> <Gold.Chemscore.ZeroCoef>
-5.4800

> <Gold.Chemscore.Hbond>
1.8658

> <Gold.Chemscore.Metal>
0.0000

> <Gold.Chemscore.Lipo>
86.4689

> <Gold.Chemscore.Internal_Hbond>
0.0000

> <Gold.Chemscore.DEClash>
0.1576

> <Gold.Chemscore.DEInternal>
1.0225

> <Gold.Chemscore.Rot>
1.5705

> <Gold.Chemscore.Internal.Correction>
   9.000000E+99

> <Gold.Chemscore.Hbonds>
donor molecule, donor type, donor heavy atom, donor atom, acceptor molecule, acceptor atom, score
      L1  H     3    18       P1  8028  0.80
      L1  H     7    24       P1  8028  0.93

> <Gold.Chemscore.Hbond.Weighted>
-6.2317

> <Gold.Chemscore.Metal.Weighted>
-0.0000

> <Gold.Chemscore.Lipo.Weighted>
-10.1169

> <Gold.Chemscore.Internal_Hbond.Weighted>
0.0000

> <Gold.Chemscore.DEClash.Weighted>
0.1576

> <Gold.Chemscore.DEInternal.Weighted>
1.0225

> <Gold.Chemscore.Rot.Weighted>
4.0206

> <Gold.Chemscore.Internal.Correction.Weighted>
   9.000000E+99

> <Gold.Protein.RotatedTorsions>
[ 6907 6896 6895 6894 ] final  -23.41 input  -60.11 | X-H torsion
[ 7974 7965 7964 7962 ] final   72.78 input  175.53 | X-H torsion
[ 8008 7997 7996 7995 ] final  160.98 input   59.86 | X-H torsion
[ 10167 10162 10161 10158 ] final   21.24 input  -65.29 | X-H torsion
[ 10718 10713 10712 10709 ] final  107.81 input   66.30 | X-H torsion
[ 10763 10752 10751 10750 ] final  170.69 input  -60.55 | X-H torsion
[ 11005 11000 10999 10996 ] final -135.25 input  -57.11 | X-H torsion

> <Gold.Protein.ActiveResidues>
 VAL166  LYS551  ARG553  GLY616  TRP617  ASP618  TYR619  PRO620  LYS621  CYS622 
 ASP623  PHE694  ASN695  SER759  ASP760  ASP761  ALA762  ILE779  LEU786  VAL792 
 PHE793  MET794  SER795  GLU796  ALA797  LYS798  CYS799  TRP800  GLU811  SER814 

> <Gold.Protein.RotatedAtoms>
  151.2044  135.0456  159.8885 H   0  0  0  0  0  0  0  0  0  0  0  0  # atno 6907 bound_to 6896
  152.5430  134.0814  159.8247 H   0  0  0  0  0  0  0  0  0  0  0  0  # atno 6908 bound_to 6896
  151.0959  133.5233  159.2644 H   0  0  0  0  0  0  0  0  0  0  0  0  # atno 6909 bound_to 6896
  145.7491  139.2752  143.1442 H   0  0  0  0  0  0  0  0  0  0  0  0  # atno 7974 bound_to 7965
  156.2135  140.1789  156.7642 H   0  0  0  0  0  0  0  0  0  0  0  0  # atno 8008 bound_to 7997
  154.5757  140.0675  156.9059 H   0  0  0  0  0  0  0  0  0  0  0  0  # atno 8009 bound_to 7997
  155.2593  140.3334  155.4277 H   0  0  0  0  0  0  0  0  0  0  0  0  # atno 8010 bound_to 7997
  140.5442  143.9623  150.6537 H   0  0  0  0  0  0  0  0  0  0  0  0  # atno 10167 bound_to 10162
  157.6613  131.0880  150.6211 H   0  0  0  0  0  0  0  0  0  0  0  0  # atno 10718 bound_to 10713
  154.4012  135.2755  155.2095 H   0  0  0  0  0  0  0  0  0  0  0  0  # atno 10763 bound_to 10752
  154.4120  135.6020  153.5962 H   0  0  0  0  0  0  0  0  0  0  0  0  # atno 10764 bound_to 10752
  152.9831  135.5952  154.4280 H   0  0  0  0  0  0  0  0  0  0  0  0  # atno 10765 bound_to 10752
  140.8915  134.1806  157.4524 H   0  0  0  0  0  0  0  0  0  0  0  0  # atno 11005 bound_to 11000
  146.0374  140.8198  142.9845 LP  0  0  0  0  0  0  0  0  0  0  0  0  # atno 17320 bound_to 7965
  144.6854  140.2859  143.7285 LP  0  0  0  0  0  0  0  0  0  0  0  0  # atno 17321 bound_to 7965
  140.3032  143.3247  152.0951 LP  0  0  0  0  0  0  0  0  0  0  0  0  # atno 17342 bound_to 10162
  139.5001  144.6683  151.6303 LP  0  0  0  0  0  0  0  0  0  0  0  0  # atno 17343 bound_to 10162
  156.6514  130.4486  149.5718 LP  0  0  0  0  0  0  0  0  0  0  0  0  # atno 17370 bound_to 10713
  156.2135  130.6693  151.1294 LP  0  0  0  0  0  0  0  0  0  0  0  0  # atno 17371 bound_to 10713
  139.8730  134.9860  156.5307 LP  0  0  0  0  0  0  0  0  0  0  0  0  # atno 17394 bound_to 11000
  140.8341  133.8256  155.9012 LP  0  0  0  0  0  0  0  0  0  0  0  0  # atno 17395 bound_to 11000

$$$$
