AV-unprocessed.smi:1153|AV-procd|sdf|4899|dock5
  -GOLD-   22720 3473D 1   1.00000     0.00000
 Structure written by MMmdl.
 26 27  0  0  0  0  0  0  0  0  1 V2000
  151.7332  141.4372  157.6215 O   0  0  0  0  0  0  0  0  0  0  0  0
  150.9758  142.1868  157.0034 C   0  0  0  0  0  0  0  0  0  0  0  0
  149.9501  141.6236  156.0125 C   0  0  0  0  0  0  0  0  0  0  0  0
  150.2381  140.2490  155.6362 N   0  0  0  0  0  0  0  0  0  0  0  0
  150.3120  139.7024  154.3726 C   0  0  0  0  0  0  0  0  0  0  0  0
  150.6056  138.3774  154.5200 C   0  0  0  0  0  0  0  0  0  0  0  0
  150.6920  138.1961  155.9311 C   0  0  0  0  0  0  0  0  0  0  0  0
  150.9921  136.9330  156.6946 C   0  0  0  0  0  0  0  0  0  0  0  0
  149.9810  136.6463  157.5145 F   0  0  0  0  0  0  0  0  0  0  0  0
  151.1636  135.9133  155.8534 F   0  0  0  0  0  0  0  0  0  0  0  0
  152.1042  137.0879  157.4130 F   0  0  0  0  0  0  0  0  0  0  0  0
  150.4667  139.3235  156.5925 N   0  0  0  0  0  0  0  0  0  0  0  0
  150.9810  143.5205  157.1454 N   0  0  0  0  0  0  0  0  0  0  0  0
  151.8448  144.2599  158.0078 C   0  0  0  0  0  0  0  0  0  0  0  0
  151.8906  143.8606  159.4669 C   0  0  0  0  0  0  0  0  0  0  0  0
  151.2026  145.1349  159.0625 C   0  0  0  0  0  0  0  0  0  0  0  0
  148.9550  141.6800  156.4560 H   0  0  0  0  0  0  0  0  0  0  0  0
  149.9330  142.2291  155.1052 H   0  0  0  0  0  0  0  0  0  0  0  0
  150.1545  140.2962  153.4843 H   0  0  0  0  0  0  0  0  0  0  0  0
  150.7394  137.6458  153.7370 H   0  0  0  0  0  0  0  0  0  0  0  0
  150.3199  144.0547  156.6003 H   0  0  0  0  0  0  0  0  0  0  0  0
  152.7776  144.6299  157.5846 H   0  0  0  0  0  0  0  0  0  0  0  0
  151.2632  143.0314  159.7885 H   0  0  0  0  0  0  0  0  0  0  0  0
  152.8464  143.9467  159.9801 H   0  0  0  0  0  0  0  0  0  0  0  0
  151.6986  146.0724  159.3058 H   0  0  0  0  0  0  0  0  0  0  0  0
  150.1156  145.1566  159.1145 H   0  0  0  0  0  0  0  0  0  0  0  0
  1  2  2  0  0  0  0
  2  3  1  0  0  0  0
  2 13  1  0  0  0  0
  3  4  1  0  0  0  0
  3 17  1  0  0  0  0
  3 18  1  0  0  0  0
  4 12  1  0  0  0  0
  4  5  1  0  0  0  0
  5  6  2  0  0  0  0
  5 19  1  0  0  0  0
  6  7  1  0  0  0  0
  6 20  1  0  0  0  0
  7  8  1  0  0  0  0
  7 12  2  0  0  0  0
  8  9  1  0  0  0  0
  8 10  1  0  0  0  0
  8 11  1  0  0  0  0
 13 14  1  0  0  0  0
 13 21  1  0  0  0  0
 14 16  1  0  0  0  0
 14 15  1  0  0  0  0
 14 22  1  0  0  0  0
 15 16  1  0  0  0  0
 15 23  1  0  0  0  0
 15 24  1  0  0  0  0
 16 25  1  0  0  0  0
 16 26  1  0  0  0  0
M  END
> <s_m_source_file>
AV-unprocessed.smi

> <i_m_source_file_index>
1153

> <i_lp_mmshare_version>
43012

> <i_f3d_flags>
0

> <s_epik_input>
W0NIMl0xW0NIMl1bQ0hdMVtOSF1DKD1PKVtDSDJdbjJbY0hdW2NIXWMobjIpQyhGKShGKUY=

> <s_epik_cmdline>
J2VwaWtfcHl0aG9uJywgJy1waCcsICc3LjAnLCAnLXRuJywgJzgnLCAnLW1hJywgJzIwMCcsICctbWV0YWxfYmluZGluZycsICctaW1hZScsICc8aW5maWxlLm1hZT4nLCAnLW9tYWUnLCAnPG91dGZpbGUubWFlPic=

> <r_lp_tautomer_probability>
1

> <r_epik_Ionization_Penalty>
7.21317e-08

> <r_epik_Ionization_Penalty_Charging>
0

> <r_epik_Ionization_Penalty_Neutral>
7.21317e-08

> <r_epik_State_Penalty>
-0

> <r_epik_Charging_Adjusted_Penalty>
0

> <i_epik_Tot_Q>
0

> <i_epik_Tot_abs_Q>
0

> <r_epik_Metal_State_Penalty>
-0

> <b_epik_Metal_Only>
0

> <s_lp_Force_Field>
OPLS_2005

> <r_lp_Energy>
18.4383

> <b_lp_Chiralities_Consistent>
1

> <s_lp_Variant>
AV-unprocessed.smi:1153-1

> <Gold.Version>
5.8.1

> <Gold.Id.Protein>
6NUR|6NUR_protein|mol2

> <Gold.PLP.Fitness>
35.2077

> <Gold.PLP.PLP>
-29.8045

> <Gold.PLP.part.hbond>
-1.0000

> <Gold.PLP.part.metal>
0.0000

> <Gold.PLP.part.buried>
-2.9693

> <Gold.PLP.part.nonpolar>
-26.1240

> <Gold.PLP.part.repulsive>
0.0217

> <Gold.PLP.ligand.clash>
0.0000

> <Gold.PLP.ligand.torsion>
0.3202

> <Gold.PLP.Chemscore.Hbond>
1.0000

> <Gold.PLP.Chemscore.CHOScore>
1.0000

> <Gold.PLP.Chemscore.Metal>
0.0000

> <Gold.Chemscore.Hbonds>
donor molecule, donor type, donor heavy atom, donor atom, acceptor molecule, acceptor atom, score
      L1  H    13    21       P1  8028  1.00
      L1  C     5    19       P1  7957  1.00

> <Gold.PLP.Chemscore.Internal.Correction>
0.0435

> <Gold.Rescore>
     Score         DG    S(hbond)    S(metal)    S(lipo)     H(rot)  DE(clash)    DE(int)     intcor
     10.93     -12.58       1.00        0.00      67.94       1.64       0.02       1.63       ----

> <Gold.Chemscore.Fitness>
10.9348

> <Gold.Chemscore.DG>
-12.5768

> <Gold.Chemscore.ZeroCoef>
-5.4800

> <Gold.Chemscore.Hbond>
0.9997

> <Gold.Chemscore.Metal>
0.0000

> <Gold.Chemscore.Lipo>
67.9419

> <Gold.Chemscore.Internal_Hbond>
0.0000

> <Gold.Chemscore.DEClash>
0.0154

> <Gold.Chemscore.DEInternal>
1.6266

> <Gold.Chemscore.Rot>
1.6372

> <Gold.Chemscore.Internal.Correction>
   9.000000E+99

> <Gold.Chemscore.Hbonds>
donor molecule, donor type, donor heavy atom, donor atom, acceptor molecule, acceptor atom, score
      L1  H    13    21       P1  8028  1.00

> <Gold.Chemscore.Hbond.Weighted>
-3.3389

> <Gold.Chemscore.Metal.Weighted>
-0.0000

> <Gold.Chemscore.Lipo.Weighted>
-7.9492

> <Gold.Chemscore.Internal_Hbond.Weighted>
0.0000

> <Gold.Chemscore.DEClash.Weighted>
0.0154

> <Gold.Chemscore.DEInternal.Weighted>
1.6266

> <Gold.Chemscore.Rot.Weighted>
4.1913

> <Gold.Chemscore.Internal.Correction.Weighted>
   9.000000E+99

> <Gold.Protein.RotatedTorsions>
[ 6907 6896 6895 6894 ] final   12.99 input  -60.11 | X-H torsion
[ 7974 7965 7964 7962 ] final  -59.38 input  175.53 | X-H torsion
[ 8008 7997 7996 7995 ] final -161.17 input   59.86 | X-H torsion
[ 10167 10162 10161 10158 ] final   26.18 input  -65.29 | X-H torsion
[ 10718 10713 10712 10709 ] final  -52.20 input   66.30 | X-H torsion
[ 10763 10752 10751 10750 ] final  106.58 input  -60.55 | X-H torsion
[ 11005 11000 10999 10996 ] final   36.91 input  -57.11 | X-H torsion

> <Gold.Protein.ActiveResidues>
 VAL166  LYS551  ARG553  GLY616  TRP617  ASP618  TYR619  PRO620  LYS621  CYS622 
 ASP623  PHE694  ASN695  SER759  ASP760  ASP761  ALA762  ILE779  LEU786  VAL792 
 PHE793  MET794  SER795  GLU796  ALA797  LYS798  CYS799  TRP800  GLU811  SER814 

> <Gold.Protein.RotatedAtoms>
  151.7792  135.0766  160.0371 H   0  0  0  0  0  0  0  0  0  0  0  0  # atno 6907 bound_to 6896
  152.3235  133.5875  159.5769 H   0  0  0  0  0  0  0  0  0  0  0  0  # atno 6908 bound_to 6896
  150.7382  133.9892  159.3643 H   0  0  0  0  0  0  0  0  0  0  0  0  # atno 6909 bound_to 6896
  145.8281  140.8497  143.0098 H   0  0  0  0  0  0  0  0  0  0  0  0  # atno 7974 bound_to 7965
  155.7882  140.0874  157.2023 H   0  0  0  0  0  0  0  0  0  0  0  0  # atno 8008 bound_to 7997
  154.3986  140.1495  156.3190 H   0  0  0  0  0  0  0  0  0  0  0  0  # atno 8009 bound_to 7997
  155.8585  140.3431  155.5743 H   0  0  0  0  0  0  0  0  0  0  0  0  # atno 8010 bound_to 7997
  140.5044  144.0263  150.6346 H   0  0  0  0  0  0  0  0  0  0  0  0  # atno 10167 bound_to 10162
  156.1642  130.4149  149.9746 H   0  0  0  0  0  0  0  0  0  0  0  0  # atno 10718 bound_to 10713
  153.3949  135.3872  155.1948 H   0  0  0  0  0  0  0  0  0  0  0  0  # atno 10763 bound_to 10752
  154.8723  135.3757  154.4691 H   0  0  0  0  0  0  0  0  0  0  0  0  # atno 10764 bound_to 10752
  153.5182  135.7087  153.5807 H   0  0  0  0  0  0  0  0  0  0  0  0  # atno 10765 bound_to 10752
  140.2278  134.3564  155.7977 H   0  0  0  0  0  0  0  0  0  0  0  0  # atno 11005 bound_to 11000
  144.6742  140.0632  143.7475 LP  0  0  0  0  0  0  0  0  0  0  0  0  # atno 17320 bound_to 7965
  145.9601  139.2794  143.1160 LP  0  0  0  0  0  0  0  0  0  0  0  0  # atno 17321 bound_to 7965
  140.3568  143.2931  152.0428 LP  0  0  0  0  0  0  0  0  0  0  0  0  # atno 17342 bound_to 10162
  139.4880  144.6333  151.7026 LP  0  0  0  0  0  0  0  0  0  0  0  0  # atno 17343 bound_to 10162
  156.7566  130.9135  151.3640 LP  0  0  0  0  0  0  0  0  0  0  0  0  # atno 17370 bound_to 10713
  157.6755  130.9091  150.0141 LP  0  0  0  0  0  0  0  0  0  0  0  0  # atno 17371 bound_to 10713
  141.2219  133.7228  156.8681 LP  0  0  0  0  0  0  0  0  0  0  0  0  # atno 17394 bound_to 11000
  140.1782  134.9052  157.2917 LP  0  0  0  0  0  0  0  0  0  0  0  0  # atno 17395 bound_to 11000

$$$$
