AV-unprocessed.smi:39|AV-procd|sdf|352|dock8
  -GOLD-   2262016193D 1   1.00000     0.00000
 Structure written by MMmdl.
 32 33  0  0  0  0  0  0  0  0  3 V2000
  152.3225  142.3156  159.8562 C   0  0  0  0  0  0  0  0  0  0  0  0
  151.7622  141.9732  158.4854 C   0  0  0  0  0  0  0  0  0  0  0  0
  152.0947  140.8328  157.8273 C   0  0  0  0  0  0  0  0  0  0  0  0
  151.5976  140.4926  156.5741 N   0  0  0  0  0  0  0  0  0  0  0  0
  151.9905  139.2185  155.8510 C   0  0  2  0  0  0  0  0  0  0  0  0
  150.7599  138.3288  155.6048 C   0  0  0  0  0  0  0  0  0  0  0  0
  151.2068  136.9825  156.1478 C   0  0  2  0  0  0  0  0  0  0  0  0
  150.0723  136.1873  156.6271 N   0  0  0  0  0  0  0  0  0  0  0  0
  149.9353  136.0939  157.8541 N   0  3  0  0  0  0  0  0  0  0  0  0
  149.8132  136.1342  158.9849 N   0  5  0  0  0  0  0  0  0  0  0  0
  152.1654  137.4054  157.2640 C   0  0  1  0  0  0  0  0  0  0  0  0
  153.1631  136.3172  157.6902 C   0  0  0  0  0  0  0  0  0  0  0  0
  154.0467  136.0356  156.6264 O   0  0  0  0  0  0  0  0  0  0  0  0
  152.8705  138.4721  156.6384 O   0  0  0  0  0  0  0  0  0  0  0  0
  150.7088  141.3746  155.9253 C   0  0  0  0  0  0  0  0  0  0  0  0
  150.2392  141.1447  154.8113 O   0  0  0  0  0  0  0  0  0  0  0  0
  150.3672  142.5446  156.6004 N   0  0  0  0  0  0  0  0  0  0  0  0
  150.8344  142.9205  157.8614 C   0  0  0  0  0  0  0  0  0  0  0  0
  150.4584  143.9816  158.3570 O   0  0  0  0  0  0  0  0  0  0  0  0
  152.5028  139.5385  154.9417 H   0  0  0  0  0  0  0  0  0  0  0  0
  151.7631  136.4635  155.3634 H   0  0  0  0  0  0  0  0  0  0  0  0
  151.5956  137.7754  158.1191 H   0  0  0  0  0  0  0  0  0  0  0  0
  149.7284  143.1753  156.1384 H   0  0  0  0  0  0  0  0  0  0  0  0
  152.9859  141.5351  160.2302 H   0  0  0  0  0  0  0  0  0  0  0  0
  151.5148  142.4403  160.5784 H   0  0  0  0  0  0  0  0  0  0  0  0
  152.8909  143.2453  159.8136 H   0  0  0  0  0  0  0  0  0  0  0  0
  152.7859  140.1672  158.3215 H   0  0  0  0  0  0  0  0  0  0  0  0
  149.9041  138.7126  156.1636 H   0  0  0  0  0  0  0  0  0  0  0  0
  150.5042  138.3003  154.5453 H   0  0  0  0  0  0  0  0  0  0  0  0
  153.7678  136.6604  158.5292 H   0  0  0  0  0  0  0  0  0  0  0  0
  152.6497  135.4101  158.0105 H   0  0  0  0  0  0  0  0  0  0  0  0
  154.8922  136.4040  156.8320 H   0  0  0  0  0  0  0  0  0  0  0  0
  1  2  1  0  0  0  0
  1 24  1  0  0  0  0
  1 25  1  0  0  0  0
  1 26  1  0  0  0  0
  2 18  1  0  0  0  0
  2  3  2  0  0  0  0
  3  4  1  0  0  0  0
  3 27  1  0  0  0  0
  4  5  1  0  0  0  0
  4 15  1  0  0  0  0
  5 20  1  0  0  0  0
  5 14  1  0  0  0  0
  5  6  1  0  0  0  0
  6  7  1  0  0  0  0
  6 28  1  0  0  0  0
  6 29  1  0  0  0  0
  7 21  1  0  0  0  0
  7  8  1  0  0  0  0
  7 11  1  0  0  0  0
  8  9  2  0  0  0  0
  9 10  2  0  0  0  0
 11 22  1  0  0  0  0
 11 12  1  0  0  0  0
 11 14  1  0  0  0  0
 12 13  1  0  0  0  0
 12 30  1  0  0  0  0
 12 31  1  0  0  0  0
 13 32  1  0  0  0  0
 15 16  2  0  0  0  0
 15 17  1  0  0  0  0
 17 23  1  0  0  0  0
 17 18  1  0  0  0  0
 18 19  2  0  0  0  0
M  CHG  1   9   1
M  CHG  1  10  -1
M  END
> <s_m_source_file>
AV-unprocessed.smi

> <i_m_source_file_index>
39

> <i_lp_mmshare_version>
43012

> <i_f3d_flags>
0

> <s_epik_input>
Tz1jMVtuSF1jKD1PKW4oW2NIXWMxW0NIM10pW0NASF0yW0NIMl1bQ0BIXShOPVtOK109W04tXSlbQ0BIXShPMilbQ0gyXVtPSF0=

> <s_epik_cmdline>
J2VwaWtfcHl0aG9uJywgJy1waCcsICc3LjAnLCAnLXRuJywgJzgnLCAnLW1hJywgJzIwMCcsICctbWV0YWxfYmluZGluZycsICctaW1hZScsICc8aW5maWxlLm1hZT4nLCAnLW9tYWUnLCAnPG91dGZpbGUubWFlPic=

> <r_lp_tautomer_probability>
0.999537

> <r_epik_Ionization_Penalty>
0.00127512

> <r_epik_Ionization_Penalty_Charging>
0.00127507

> <r_epik_Ionization_Penalty_Neutral>
5.43433e-08

> <r_epik_State_Penalty>
0.000844892

> <r_epik_Charging_Adjusted_Penalty>
0.00211996

> <i_epik_Tot_Q>
0

> <i_epik_Tot_abs_Q>
2

> <r_epik_Metal_State_Penalty>
0.680636

> <b_epik_Metal_Only>
0

> <s_epik_Chemistry_Notes>
This compound contains an acetal/aminal-like group ( X-CH(R)-Y where X, Y are N, S, or O) that may be acid/base labile, releasing an aldehyde.

> <s_lp_Force_Field>
OPLS_2005

> <r_lp_Energy>
24.5803

> <b_lp_Chiralities_Consistent>
1

> <s_lp_Variant>
AV-unprocessed.smi:39-2

> <Gold.Version>
5.8.1

> <Gold.Id.Protein>
6NUR|6NUR_protein|mol2

> <Gold.PLP.Fitness>
39.7473

> <Gold.PLP.PLP>
-26.3077

> <Gold.PLP.part.hbond>
-5.8836

> <Gold.PLP.part.metal>
0.0000

> <Gold.PLP.part.buried>
-4.3282

> <Gold.PLP.part.nonpolar>
-16.3320

> <Gold.PLP.part.repulsive>
0.3670

> <Gold.PLP.ligand.clash>
0.0000

> <Gold.PLP.ligand.torsion>
0.1759

> <Gold.PLP.Chemscore.Hbond>
4.5840

> <Gold.PLP.Chemscore.CHOScore>
0.0000

> <Gold.PLP.Chemscore.Metal>
0.0000

> <Gold.Chemscore.Hbonds>
donor molecule, donor type, donor heavy atom, donor atom, acceptor molecule, acceptor atom, score
      L1  H    17    23       P1  8028  1.00
      P1  H  6896  6908       L1    10  1.00
      P1  H  7989  7998       L1    16  0.61
      P1  H  7997  8008       L1    14  0.39
      P1  H 10752 10764       L1    13  0.73

> <Gold.PLP.Chemscore.Internal.Correction>
0.0394

> <Gold.Rescore>
     Score         DG    S(hbond)    S(metal)    S(lipo)     H(rot)  DE(clash)    DE(int)     intcor
     14.03     -15.21       3.43        0.00      45.33       2.75       0.13       1.05       ----

> <Gold.Chemscore.Fitness>
14.0295

> <Gold.Chemscore.DG>
-15.2058

> <Gold.Chemscore.ZeroCoef>
-5.4800

> <Gold.Chemscore.Hbond>
3.4336

> <Gold.Chemscore.Metal>
0.0000

> <Gold.Chemscore.Lipo>
45.3312

> <Gold.Chemscore.Internal_Hbond>
0.0000

> <Gold.Chemscore.DEClash>
0.1276

> <Gold.Chemscore.DEInternal>
1.0486

> <Gold.Chemscore.Rot>
2.7524

> <Gold.Chemscore.Internal.Correction>
   9.000000E+99

> <Gold.Chemscore.Hbonds>
donor molecule, donor type, donor heavy atom, donor atom, acceptor molecule, acceptor atom, score
      L1  H    17    23       P1  8028  1.00
      P1  H  6896  6908       L1    10  0.70
      P1  H  7989  7998       L1    16  0.49
      P1  H  7997  8008       L1    14  0.06
      P1  H 10752 10764       L1    13  0.70

> <Gold.Chemscore.Hbond.Weighted>
-11.4682

> <Gold.Chemscore.Metal.Weighted>
-0.0000

> <Gold.Chemscore.Lipo.Weighted>
-5.3038

> <Gold.Chemscore.Internal_Hbond.Weighted>
0.0000

> <Gold.Chemscore.DEClash.Weighted>
0.1276

> <Gold.Chemscore.DEInternal.Weighted>
1.0486

> <Gold.Chemscore.Rot.Weighted>
7.0461

> <Gold.Chemscore.Internal.Correction.Weighted>
   9.000000E+99

> <Gold.Protein.RotatedTorsions>
[ 6907 6896 6895 6894 ] final -166.94 input  -60.11 | X-H torsion
[ 7974 7965 7964 7962 ] final  -29.85 input  175.53 | X-H torsion
[ 8008 7997 7996 7995 ] final  -71.43 input   59.86 | X-H torsion
[ 10167 10162 10161 10158 ] final  -95.41 input  -65.29 | X-H torsion
[ 10718 10713 10712 10709 ] final  -55.35 input   66.30 | X-H torsion
[ 10763 10752 10751 10750 ] final   14.58 input  -60.55 | X-H torsion
[ 11005 11000 10999 10996 ] final   12.08 input  -57.11 | X-H torsion

> <Gold.Protein.ActiveResidues>
 VAL166  LYS551  ARG553  GLY616  TRP617  ASP618  TYR619  PRO620  LYS621  CYS622 
 ASP623  PHE694  ASN695  SER759  ASP760  ASP761  ALA762  ILE779  LEU786  VAL792 
 PHE793  MET794  SER795  GLU796  ALA797  LYS798  CYS799  TRP800  GLU811  SER814 

> <Gold.Protein.RotatedAtoms>
  151.4517  133.3616  159.2795 H   0  0  0  0  0  0  0  0  0  0  0  0  # atno 6907 bound_to 6896
  150.9087  134.8504  159.7421 H   0  0  0  0  0  0  0  0  0  0  0  0  # atno 6908 bound_to 6896
  152.4920  134.4444  159.9606 H   0  0  0  0  0  0  0  0  0  0  0  0  # atno 6909 bound_to 6896
  146.1187  140.5464  142.8745 H   0  0  0  0  0  0  0  0  0  0  0  0  # atno 7974 bound_to 7965
  154.5087  140.0816  156.7946 H   0  0  0  0  0  0  0  0  0  0  0  0  # atno 8008 bound_to 7997
  155.3834  140.3429  155.4229 H   0  0  0  0  0  0  0  0  0  0  0  0  # atno 8009 bound_to 7997
  156.1547  140.1569  156.8700 H   0  0  0  0  0  0  0  0  0  0  0  0  # atno 8010 bound_to 7997
  140.3044  143.3142  152.0214 H   0  0  0  0  0  0  0  0  0  0  0  0  # atno 10167 bound_to 10162
  156.1376  130.4156  150.0159 H   0  0  0  0  0  0  0  0  0  0  0  0  # atno 10718 bound_to 10713
  153.1608  135.6795  153.8745 H   0  0  0  0  0  0  0  0  0  0  0  0  # atno 10763 bound_to 10752
  153.8141  135.3139  155.3405 H   0  0  0  0  0  0  0  0  0  0  0  0  # atno 10764 bound_to 10752
  154.7931  135.4823  154.0187 H   0  0  0  0  0  0  0  0  0  0  0  0  # atno 10765 bound_to 10752
  140.4960  134.0793  155.7782 H   0  0  0  0  0  0  0  0  0  0  0  0  # atno 11005 bound_to 11000
  144.7576  140.5346  143.6758 LP  0  0  0  0  0  0  0  0  0  0  0  0  # atno 17320 bound_to 7965
  145.5513  139.1477  143.3393 LP  0  0  0  0  0  0  0  0  0  0  0  0  # atno 17321 bound_to 7965
  139.4907  144.6431  151.6834 LP  0  0  0  0  0  0  0  0  0  0  0  0  # atno 17342 bound_to 10162
  140.5623  144.0248  150.6175 LP  0  0  0  0  0  0  0  0  0  0  0  0  # atno 17343 bound_to 10162
  156.8054  130.9305  151.3645 LP  0  0  0  0  0  0  0  0  0  0  0  0  # atno 17370 bound_to 10713
  157.6546  130.8913  149.9703 LP  0  0  0  0  0  0  0  0  0  0  0  0  # atno 17371 bound_to 10713
  141.1460  133.9055  157.2215 LP  0  0  0  0  0  0  0  0  0  0  0  0  # atno 17394 bound_to 11000
  139.9741  135.0119  156.9586 LP  0  0  0  0  0  0  0  0  0  0  0  0  # atno 17395 bound_to 11000

$$$$
