AV-unprocessed.smi:218|AV-procd|sdf|1674|dock10
  -GOLD-   2262020 93D 1   1.00000     0.00000
 Structure written by MMmdl.
 54 57  0  0  0  0  0  0  0  0  1 V2000
  150.4785  145.4503  160.6029 C   0  0  0  0  0  0  0  0  0  0  0  0
  151.1563  144.3413  159.7893 C   0  0  0  0  0  0  0  0  0  0  0  0
  151.7745  144.8996  158.4958 C   0  0  0  0  0  0  0  0  0  0  0  0
  150.1477  143.3767  159.4811 O   0  0  0  0  0  0  0  0  0  0  0  0
  150.4062  142.3675  158.5733 C   0  0  0  0  0  0  0  0  0  0  0  0
  149.6606  142.3375  157.3768 C   0  0  0  0  0  0  0  0  0  0  0  0
  149.9091  141.3098  156.4436 C   0  0  0  0  0  0  0  0  0  0  0  0
  149.1313  141.2369  155.1411 C   0  0  0  0  0  0  0  0  0  0  0  0
  147.6809  141.2356  155.2977 N   0  0  0  0  0  0  0  0  0  0  0  0
  147.0079  140.0773  155.4783 C   0  0  0  0  0  0  0  0  0  0  0  0
  146.6044  139.6840  156.7149 N   0  0  0  0  0  0  0  0  0  0  0  0
  145.9376  138.5362  156.8666 C   0  0  0  0  0  0  0  0  0  0  0  0
  145.5743  137.6540  155.9335 N   0  0  0  0  0  0  0  0  0  0  0  0
  145.9720  138.0457  154.6884 C   0  0  0  0  0  0  0  0  0  0  0  0
  146.6860  139.2375  154.3809 C   0  0  0  0  0  0  0  0  0  0  0  0
  146.9154  139.3101  153.0132 N   0  0  0  0  0  0  0  0  0  0  0  0
  146.3680  138.2216  152.5435 C   0  0  0  0  0  0  0  0  0  0  0  0
  145.7847  137.3997  153.4825 N   0  0  0  0  0  0  0  0  0  0  0  0
  145.1004  136.0889  153.2453 C   0  0  2  0  0  0  0  0  0  0  0  0
  145.9821  135.2396  152.5810 O   0  0  0  0  0  0  0  0  0  0  0  0
  145.2451  134.4171  151.6841 C   0  0  2  0  0  0  0  0  0  0  0  0
  146.1657  133.7943  150.6200 C   0  0  0  0  0  0  0  0  0  0  0  0
  145.4031  133.3674  149.5117 O   0  0  0  0  0  0  0  0  0  0  0  0
  144.1599  135.3652  151.1519 C   0  0  2  0  0  0  0  0  0  0  0  0
  144.6431  136.1352  150.0644 O   0  0  0  0  0  0  0  0  0  0  0  0
  143.8301  136.2157  152.3773 C   0  0  2  0  0  0  0  0  0  0  0  0
  143.4256  137.5383  152.0604 O   0  0  0  0  0  0  0  0  0  0  0  0
  150.8931  140.3478  156.7462 C   0  0  0  0  0  0  0  0  0  0  0  0
  151.5877  140.4611  157.9656 C   0  0  0  0  0  0  0  0  0  0  0  0
  151.3539  141.4415  158.8636 N   0  0  0  0  0  0  0  0  0  0  0  0
  144.8890  135.7039  154.2438 H   0  0  0  0  0  0  0  0  0  0  0  0
  144.7544  133.6312  152.2618 H   0  0  0  0  0  0  0  0  0  0  0  0
  143.2846  134.8156  150.8045 H   0  0  0  0  0  0  0  0  0  0  0  0
  143.0215  135.7391  152.9328 H   0  0  0  0  0  0  0  0  0  0  0  0
  151.1911  146.2293  160.8761 H   0  0  0  0  0  0  0  0  0  0  0  0
  150.0533  145.0525  161.5247 H   0  0  0  0  0  0  0  0  0  0  0  0
  149.6710  145.9176  160.0384 H   0  0  0  0  0  0  0  0  0  0  0  0
  151.9358  143.9103  160.4194 H   0  0  0  0  0  0  0  0  0  0  0  0
  152.5213  145.6623  158.7181 H   0  0  0  0  0  0  0  0  0  0  0  0
  151.0135  145.3541  157.8610 H   0  0  0  0  0  0  0  0  0  0  0  0
  152.2674  144.1215  157.9135 H   0  0  0  0  0  0  0  0  0  0  0  0
  148.9126  143.0916  157.1807 H   0  0  0  0  0  0  0  0  0  0  0  0
  149.4264  142.0554  154.4832 H   0  0  0  0  0  0  0  0  0  0  0  0
  149.4152  140.3178  154.6284 H   0  0  0  0  0  0  0  0  0  0  0  0
  147.2191  142.1151  155.1163 H   0  0  0  0  0  0  0  0  0  0  0  0
  145.6539  138.2891  157.8789 H   0  0  0  0  0  0  0  0  0  0  0  0
  146.3811  137.9830  151.4900 H   0  0  0  0  0  0  0  0  0  0  0  0
  146.8780  134.5363  150.2582 H   0  0  0  0  0  0  0  0  0  0  0  0
  146.7401  132.9615  151.0273 H   0  0  0  0  0  0  0  0  0  0  0  0
  145.5752  133.9518  148.7894 H   0  0  0  0  0  0  0  0  0  0  0  0
  144.0842  136.8908  149.9635 H   0  0  0  0  0  0  0  0  0  0  0  0
  143.3959  137.6257  151.1199 H   0  0  0  0  0  0  0  0  0  0  0  0
  151.1169  139.5451  156.0591 H   0  0  0  0  0  0  0  0  0  0  0  0
  152.3508  139.7434  158.2277 H   0  0  0  0  0  0  0  0  0  0  0  0
  1  2  1  0  0  0  0
  1 35  1  0  0  0  0
  1 36  1  0  0  0  0
  1 37  1  0  0  0  0
  2  3  1  0  0  0  0
  2  4  1  0  0  0  0
  2 38  1  0  0  0  0
  3 39  1  0  0  0  0
  3 40  1  0  0  0  0
  3 41  1  0  0  0  0
  4  5  1  0  0  0  0
  5 30  1  0  0  0  0
  5  6  2  0  0  0  0
  6  7  1  0  0  0  0
  6 42  1  0  0  0  0
  7  8  1  0  0  0  0
  7 28  2  0  0  0  0
  8  9  1  0  0  0  0
  8 43  1  0  0  0  0
  8 44  1  0  0  0  0
  9 10  1  0  0  0  0
  9 45  1  0  0  0  0
 10 15  1  0  0  0  0
 10 11  2  0  0  0  0
 11 12  1  0  0  0  0
 12 13  2  0  0  0  0
 12 46  1  0  0  0  0
 13 14  1  0  0  0  0
 14 18  1  0  0  0  0
 14 15  2  0  0  0  0
 15 16  1  0  0  0  0
 16 17  2  0  0  0  0
 17 18  1  0  0  0  0
 17 47  1  0  0  0  0
 18 19  1  0  0  0  0
 19 31  1  0  0  0  0
 19 26  1  0  0  0  0
 19 20  1  0  0  0  0
 20 21  1  0  0  0  0
 21 32  1  0  0  0  0
 21 22  1  0  0  0  0
 21 24  1  0  0  0  0
 22 23  1  0  0  0  0
 22 48  1  0  0  0  0
 22 49  1  0  0  0  0
 23 50  1  0  0  0  0
 24 33  1  0  0  0  0
 24 25  1  0  0  0  0
 24 26  1  0  0  0  0
 25 51  1  0  0  0  0
 26 34  1  0  0  0  0
 26 27  1  0  0  0  0
 27 52  1  0  0  0  0
 28 29  1  0  0  0  0
 28 53  1  0  0  0  0
 29 30  2  0  0  0  0
 29 54  1  0  0  0  0
M  END
> <s_m_source_file>
AV-unprocessed.smi

> <i_m_source_file_index>
218

> <i_lp_mmshare_version>
43012

> <i_f3d_flags>
0

> <s_epik_input>
W0NIM11bQ0hdKFtDSDNdKU9jMVtjSF1jKFtjSF1bY0hdbjEpW0NIMl1bTkhdYyhuW2NIXW4yKWMoYzIzKW5bY0hdbjNbQ0BASF00T1tDQEhdKFtDSDJdW09IXSlbQ0BASF0oW09IXSlbQ0BIXTRbT0hd

> <s_epik_cmdline>
J2VwaWtfcHl0aG9uJywgJy1waCcsICc3LjAnLCAnLXRuJywgJzgnLCAnLW1hJywgJzIwMCcsICctbWV0YWxfYmluZGluZycsICctaW1hZScsICc8aW5maWxlLm1hZT4nLCAnLW9tYWUnLCAnPG91dGZpbGUubWFlPic=

> <r_lp_tautomer_probability>
1

> <r_epik_Ionization_Penalty>
0.00457014

> <r_epik_Ionization_Penalty_Charging>
0

> <r_epik_Ionization_Penalty_Neutral>
0.00457014

> <r_epik_State_Penalty>
-0

> <r_epik_Charging_Adjusted_Penalty>
0

> <i_epik_Tot_Q>
0

> <i_epik_Tot_abs_Q>
0

> <r_epik_Metal_State_Penalty>
-0

> <b_epik_Metal_Only>
0

> <s_epik_Chemistry_Notes>
This compound contains an acetal/aminal-like group ( X-CH(R)-Y where X, Y are N, S, or O) that may be acid/base labile, releasing an aldehyde.

> <s_lp_Force_Field>
OPLS_2005

> <r_lp_Energy>
51.9748

> <b_lp_Chiralities_Consistent>
1

> <s_lp_Variant>
AV-unprocessed.smi:218-13

> <Gold.Version>
5.8.1

> <Gold.Id.Protein>
6NUR|6NUR_protein|mol2

> <Gold.PLP.Fitness>
52.2772

> <Gold.PLP.PLP>
-45.2461

> <Gold.PLP.part.hbond>
-4.2234

> <Gold.PLP.part.metal>
0.0000

> <Gold.PLP.part.buried>
-6.5523

> <Gold.PLP.part.nonpolar>
-35.9540

> <Gold.PLP.part.repulsive>
1.7658

> <Gold.PLP.ligand.clash>
0.0000

> <Gold.PLP.ligand.torsion>
1.2127

> <Gold.PLP.Chemscore.Hbond>
3.0000

> <Gold.PLP.Chemscore.CHOScore>
0.1144

> <Gold.PLP.Chemscore.Metal>
0.0000

> <Gold.Chemscore.Hbonds>
donor molecule, donor type, donor heavy atom, donor atom, acceptor molecule, acceptor atom, score
      L1  H    23    50       P1  7921  1.00
      L1  H    25    51       P1 10171  1.00
      L1  H    27    52       P1 10171  0.90

> <Gold.PLP.Chemscore.Internal.Correction>
0.1133

> <Gold.Rescore>
     Score         DG    S(hbond)    S(metal)    S(lipo)     H(rot)  DE(clash)    DE(int)     intcor
     10.11     -12.90       2.80        0.00      90.63       4.90       0.94       1.85       ----

> <Gold.Chemscore.Fitness>
10.1062

> <Gold.Chemscore.DG>
-12.9005

> <Gold.Chemscore.ZeroCoef>
-5.4800

> <Gold.Chemscore.Hbond>
2.8047

> <Gold.Chemscore.Metal>
0.0000

> <Gold.Chemscore.Lipo>
90.6340

> <Gold.Chemscore.Internal_Hbond>
0.0000

> <Gold.Chemscore.DEClash>
0.9430

> <Gold.Chemscore.DEInternal>
1.8513

> <Gold.Chemscore.Rot>
4.9029

> <Gold.Chemscore.Internal.Correction>
   9.000000E+99

> <Gold.Chemscore.Hbonds>
donor molecule, donor type, donor heavy atom, donor atom, acceptor molecule, acceptor atom, score
      L1  H    23    50       P1  7921  0.57
      L1  H    25    51       P1 10171  0.96
      L1  H    27    52       P1 10171  0.80

> <Gold.Chemscore.Hbond.Weighted>
-9.3679

> <Gold.Chemscore.Metal.Weighted>
-0.0000

> <Gold.Chemscore.Lipo.Weighted>
-10.6042

> <Gold.Chemscore.Internal_Hbond.Weighted>
0.0000

> <Gold.Chemscore.DEClash.Weighted>
0.9430

> <Gold.Chemscore.DEInternal.Weighted>
1.8513

> <Gold.Chemscore.Rot.Weighted>
12.5515

> <Gold.Chemscore.Internal.Correction.Weighted>
   9.000000E+99

> <Gold.Protein.RotatedTorsions>
[ 6907 6896 6895 6894 ] final -108.86 input  -60.11 | X-H torsion
[ 7974 7965 7964 7962 ] final  -96.88 input  175.53 | X-H torsion
[ 8008 7997 7996 7995 ] final  121.57 input   59.86 | X-H torsion
[ 10167 10162 10161 10158 ] final  148.68 input  -65.29 | X-H torsion
[ 10718 10713 10712 10709 ] final -136.74 input   66.30 | X-H torsion
[ 10763 10752 10751 10750 ] final  -55.99 input  -60.55 | X-H torsion
[ 11005 11000 10999 10996 ] final -107.44 input  -57.11 | X-H torsion

> <Gold.Protein.ActiveResidues>
 VAL166  LYS551  ARG553  GLY616  TRP617  ASP618  TYR619  PRO620  LYS621  CYS622 
 ASP623  PHE694  ASN695  SER759  ASP760  ASP761  ALA762  ILE779  LEU786  VAL792 
 PHE793  MET794  SER795  GLU796  ALA797  LYS798  CYS799  TRP800  GLU811  SER814 

> <Gold.Protein.RotatedAtoms>
  150.7527  133.9614  159.3516 H   0  0  0  0  0  0  0  0  0  0  0  0  # atno 6907 bound_to 6896
  151.7540  135.0824  160.0345 H   0  0  0  0  0  0  0  0  0  0  0  0  # atno 6908 bound_to 6896
  152.3447  133.6071  159.5937 H   0  0  0  0  0  0  0  0  0  0  0  0  # atno 6909 bound_to 6896
  145.3410  140.9460  143.2608 H   0  0  0  0  0  0  0  0  0  0  0  0  # atno 7974 bound_to 7965
  156.2692  140.2805  156.1330 H   0  0  0  0  0  0  0  0  0  0  0  0  # atno 8008 bound_to 7997
  155.1034  140.0390  157.2721 H   0  0  0  0  0  0  0  0  0  0  0  0  # atno 8009 bound_to 7997
  154.6797  140.2606  155.6926 H   0  0  0  0  0  0  0  0  0  0  0  0  # atno 8010 bound_to 7997
  139.4871  144.5661  151.7142 H   0  0  0  0  0  0  0  0  0  0  0  0  # atno 10167 bound_to 10162
  156.2804  130.7317  151.1313 H   0  0  0  0  0  0  0  0  0  0  0  0  # atno 10718 bound_to 10713
  154.1995  135.6413  153.5083 H   0  0  0  0  0  0  0  0  0  0  0  0  # atno 10763 bound_to 10752
  153.0015  135.5448  154.6330 H   0  0  0  0  0  0  0  0  0  0  0  0  # atno 10764 bound_to 10752
  154.5739  135.2919  155.0773 H   0  0  0  0  0  0  0  0  0  0  0  0  # atno 10765 bound_to 10752
  141.0954  133.8981  157.1976 H   0  0  0  0  0  0  0  0  0  0  0  0  # atno 11005 bound_to 11000
  144.8790  139.4931  143.6732 LP  0  0  0  0  0  0  0  0  0  0  0  0  # atno 17320 bound_to 7965
  146.3007  139.7418  142.9093 LP  0  0  0  0  0  0  0  0  0  0  0  0  # atno 17321 bound_to 7965
  140.5239  144.0836  150.6031 LP  0  0  0  0  0  0  0  0  0  0  0  0  # atno 17342 bound_to 10162
  140.3803  143.2806  152.0178 LP  0  0  0  0  0  0  0  0  0  0  0  0  # atno 17343 bound_to 10162
  157.7312  131.0609  150.5687 LP  0  0  0  0  0  0  0  0  0  0  0  0  # atno 17370 bound_to 10713
  156.5792  130.4300  149.5985 LP  0  0  0  0  0  0  0  0  0  0  0  0  # atno 17371 bound_to 10713
  139.9789  135.0105  156.9701 LP  0  0  0  0  0  0  0  0  0  0  0  0  # atno 17394 bound_to 11000
  140.5153  134.0961  155.7279 LP  0  0  0  0  0  0  0  0  0  0  0  0  # atno 17395 bound_to 11000

$$$$
