AV-unprocessed.smi:2718|AV-procd|sdf|10487|dock3
  -GOLD-   2272014533D 1   1.00000     0.00000
 Structure written by MMmdl.
 47 48  0  0  0  0  0  0  0  0  1 V2000
  152.4683  142.4188  160.6676 C   0  0  0  0  0  0  0  0  0  0  0  0
  152.9293  141.0144  160.3326 C   0  0  0  0  0  0  0  0  0  0  0  0
  154.2529  140.6162  160.9617 C   0  0  0  0  0  0  0  0  0  0  0  0
  152.2028  140.2024  159.5399 C   0  0  0  0  0  0  0  0  0  0  0  0
  152.5343  138.8029  159.1420 C   0  0  1  0  0  0  0  0  0  0  0  0
  151.5115  137.7806  158.6569 C   0  0  1  0  0  0  0  0  0  0  0  0
  150.0584  138.1534  158.5616 C   0  0  0  0  0  0  0  0  0  0  0  0
  149.6156  139.2847  158.7620 O   0  0  0  0  0  0  0  0  0  0  0  0
  149.2601  137.1145  158.2716 N   0  0  0  0  0  0  0  0  0  0  0  0
  147.8022  137.1699  158.2338 C   0  0  0  0  0  0  0  0  0  0  0  0
  147.1565  136.0190  159.0351 C   0  0  2  0  0  0  0  0  0  0  0  0
  146.1262  135.2203  158.2175 C   0  0  0  0  0  0  0  0  0  0  0  0
  146.5634  136.5187  160.3223 C   0  0  0  0  0  0  0  0  0  0  0  0
  146.6222  137.7972  160.7194 N   0  0  0  0  0  0  0  0  0  0  0  0
  145.9803  137.8401  161.9406 N   0  0  0  0  0  0  0  0  0  0  0  0
  145.5997  136.5829  162.1627 C   0  0  0  0  0  0  0  0  0  0  0  0
  145.9304  135.7102  161.1991 N   0  0  0  0  0  0  0  0  0  0  0  0
  145.6669  134.2855  161.1454 C   0  0  0  0  0  0  0  0  0  0  0  0
  152.5473  138.3486  157.6900 C   0  0  0  0  0  0  0  0  0  0  0  0
  152.2030  139.3119  156.5554 C   0  0  0  0  0  0  0  0  0  0  0  0
  153.6503  137.4143  157.2221 C   0  0  0  0  0  0  0  0  0  0  0  0
  153.2060  143.1491  160.3350 H   0  0  0  0  0  0  0  0  0  0  0  0
  152.3400  142.5260  161.7450 H   0  0  0  0  0  0  0  0  0  0  0  0
  151.5174  142.6547  160.1886 H   0  0  0  0  0  0  0  0  0  0  0  0
  154.1749  140.6499  162.0484 H   0  0  0  0  0  0  0  0  0  0  0  0
  155.0370  141.3087  160.6556 H   0  0  0  0  0  0  0  0  0  0  0  0
  154.5657  139.6121  160.6775 H   0  0  0  0  0  0  0  0  0  0  0  0
  151.2797  140.5863  159.1309 H   0  0  0  0  0  0  0  0  0  0  0  0
  153.3309  138.4118  159.7722 H   0  0  0  0  0  0  0  0  0  0  0  0
  151.6890  136.7594  158.9919 H   0  0  0  0  0  0  0  0  0  0  0  0
  149.6886  136.2132  158.1167 H   0  0  0  0  0  0  0  0  0  0  0  0
  147.4656  138.1337  158.6204 H   0  0  0  0  0  0  0  0  0  0  0  0
  147.4822  137.1299  157.1922 H   0  0  0  0  0  0  0  0  0  0  0  0
  147.9524  135.3192  159.2868 H   0  0  0  0  0  0  0  0  0  0  0  0
  145.7247  134.3914  158.8012 H   0  0  0  0  0  0  0  0  0  0  0  0
  146.5702  134.7973  157.3163 H   0  0  0  0  0  0  0  0  0  0  0  0
  145.2889  135.8484  157.9116 H   0  0  0  0  0  0  0  0  0  0  0  0
  145.0664  136.2906  163.0555 H   0  0  0  0  0  0  0  0  0  0  0  0
  145.1235  133.9699  162.0367 H   0  0  0  0  0  0  0  0  0  0  0  0
  146.6090  133.7388  161.0927 H   0  0  0  0  0  0  0  0  0  0  0  0
  145.0664  134.0541  160.2652 H   0  0  0  0  0  0  0  0  0  0  0  0
  151.7014  138.7773  155.7484 H   0  0  0  0  0  0  0  0  0  0  0  0
  153.1109  139.7633  156.1543 H   0  0  0  0  0  0  0  0  0  0  0  0
  151.5580  140.1261  156.8795 H   0  0  0  0  0  0  0  0  0  0  0  0
  153.3239  136.8485  156.3490 H   0  0  0  0  0  0  0  0  0  0  0  0
  153.9188  136.7064  158.0069 H   0  0  0  0  0  0  0  0  0  0  0  0
  154.5435  137.9811  156.9581 H   0  0  0  0  0  0  0  0  0  0  0  0
  1  2  1  0  0  0  0
  1 22  1  0  0  0  0
  1 23  1  0  0  0  0
  1 24  1  0  0  0  0
  2  3  1  0  0  0  0
  2  4  2  0  0  0  0
  3 25  1  0  0  0  0
  3 26  1  0  0  0  0
  3 27  1  0  0  0  0
  4  5  1  0  0  0  0
  4 28  1  0  0  0  0
  5 19  1  0  0  0  0
  5  6  1  0  0  0  0
  5 29  1  0  0  0  0
  6  7  1  0  0  0  0
  6 19  1  0  0  0  0
  6 30  1  0  0  0  0
  7  8  2  0  0  0  0
  7  9  1  0  0  0  0
  9 10  1  0  0  0  0
  9 31  1  0  0  0  0
 10 11  1  0  0  0  0
 10 32  1  0  0  0  0
 10 33  1  0  0  0  0
 11 12  1  0  0  0  0
 11 13  1  0  0  0  0
 11 34  1  0  0  0  0
 12 35  1  0  0  0  0
 12 36  1  0  0  0  0
 12 37  1  0  0  0  0
 13 17  1  0  0  0  0
 13 14  2  0  0  0  0
 14 15  1  0  0  0  0
 15 16  2  0  0  0  0
 16 17  1  0  0  0  0
 16 38  1  0  0  0  0
 17 18  1  0  0  0  0
 18 39  1  0  0  0  0
 18 40  1  0  0  0  0
 18 41  1  0  0  0  0
 19 20  1  0  0  0  0
 19 21  1  0  0  0  0
 20 42  1  0  0  0  0
 20 43  1  0  0  0  0
 20 44  1  0  0  0  0
 21 45  1  0  0  0  0
 21 46  1  0  0  0  0
 21 47  1  0  0  0  0
M  END
> <s_m_source_file>
AV-unprocessed.smi

> <i_m_source_file_index>
2718

> <i_lp_mmshare_version>
43012

> <i_f3d_flags>
0

> <s_epik_input>
W0NIM11DKFtDSDNdKT1bQ0hdW0NAQEhdKEMxKFtDSDNdKVtDSDNdKVtDQEhdMUMoPU8pW05IXVtDSDJdW0NASF0oW0NIM10pYzJubltjSF1uMltDSDNd

> <s_epik_cmdline>
J2VwaWtfcHl0aG9uJywgJy1waCcsICc3LjAnLCAnLXRuJywgJzgnLCAnLW1hJywgJzIwMCcsICctbWV0YWxfYmluZGluZycsICctaW1hZScsICc8aW5maWxlLm1hZT4nLCAnLW9tYWUnLCAnPG91dGZpbGUubWFlPic=

> <r_lp_tautomer_probability>
1

> <r_epik_Ionization_Penalty>
0.000449586

> <r_epik_Ionization_Penalty_Charging>
0

> <r_epik_Ionization_Penalty_Neutral>
0.000449586

> <r_epik_State_Penalty>
0.000243372

> <r_epik_Charging_Adjusted_Penalty>
0.000243372

> <i_epik_Tot_Q>
0

> <i_epik_Tot_abs_Q>
0

> <r_epik_Metal_State_Penalty>
-0

> <b_epik_Metal_Only>
0

> <s_lp_Force_Field>
OPLS_2005

> <r_lp_Energy>
16.2745

> <b_lp_Chiralities_Consistent>
1

> <s_lp_Variant>
AV-unprocessed.smi:2718-2

> <Gold.Version>
5.8.1

> <Gold.Id.Protein>
6NUR|6NUR_protein|mol2

> <Gold.PLP.Fitness>
42.2017

> <Gold.PLP.PLP>
-40.3084

> <Gold.PLP.part.hbond>
-4.2911

> <Gold.PLP.part.metal>
0.0000

> <Gold.PLP.part.buried>
-4.2796

> <Gold.PLP.part.nonpolar>
-33.3147

> <Gold.PLP.part.repulsive>
0.1492

> <Gold.PLP.ligand.clash>
0.0000

> <Gold.PLP.ligand.torsion>
1.0577

> <Gold.PLP.Chemscore.Hbond>
1.2328

> <Gold.PLP.Chemscore.CHOScore>
0.0000

> <Gold.PLP.Chemscore.Metal>
0.0000

> <Gold.Chemscore.Hbonds>
donor molecule, donor type, donor heavy atom, donor atom, acceptor molecule, acceptor atom, score
      P1  H  6934  6947       L1    14  0.31

> <Gold.PLP.Chemscore.Internal.Correction>
0.3102

> <Gold.Rescore>
     Score         DG    S(hbond)    S(metal)    S(lipo)     H(rot)  DE(clash)    DE(int)     intcor
      9.07     -11.51       0.53        0.00      79.12       1.95       0.10       2.33       ----

> <Gold.Chemscore.Fitness>
9.0701

> <Gold.Chemscore.DG>
-11.5062

> <Gold.Chemscore.ZeroCoef>
-5.4800

> <Gold.Chemscore.Hbond>
0.5298

> <Gold.Chemscore.Metal>
0.0000

> <Gold.Chemscore.Lipo>
79.1203

> <Gold.Chemscore.Internal_Hbond>
0.0000

> <Gold.Chemscore.DEClash>
0.1035

> <Gold.Chemscore.DEInternal>
2.3326

> <Gold.Chemscore.Rot>
1.9533

> <Gold.Chemscore.Internal.Correction>
   9.000000E+99

> <Gold.Chemscore.Hbonds>
donor molecule, donor type, donor heavy atom, donor atom, acceptor molecule, acceptor atom, score
      P1  H  6934  6947       L1    14  0.02

> <Gold.Chemscore.Hbond.Weighted>
-1.7697

> <Gold.Chemscore.Metal.Weighted>
-0.0000

> <Gold.Chemscore.Lipo.Weighted>
-9.2571

> <Gold.Chemscore.Internal_Hbond.Weighted>
0.0000

> <Gold.Chemscore.DEClash.Weighted>
0.1035

> <Gold.Chemscore.DEInternal.Weighted>
2.3326

> <Gold.Chemscore.Rot.Weighted>
5.0005

> <Gold.Chemscore.Internal.Correction.Weighted>
   9.000000E+99

> <Gold.Protein.RotatedTorsions>
[ 6907 6896 6895 6894 ] final  -98.41 input  -60.11 | X-H torsion
[ 7974 7965 7964 7962 ] final   14.39 input  175.53 | X-H torsion
[ 8008 7997 7996 7995 ] final  168.06 input   59.86 | X-H torsion
[ 10167 10162 10161 10158 ] final  141.71 input  -65.29 | X-H torsion
[ 10718 10713 10712 10709 ] final -141.20 input   66.30 | X-H torsion
[ 10763 10752 10751 10750 ] final  -28.24 input  -60.55 | X-H torsion
[ 11005 11000 10999 10996 ] final  158.77 input  -57.11 | X-H torsion

> <Gold.Protein.ActiveResidues>
 VAL166  LYS551  ARG553  GLY616  TRP617  ASP618  TYR619  PRO620  LYS621  CYS622 
 ASP623  PHE694  ASN695  SER759  ASP760  ASP761  ALA762  ILE779  LEU786  VAL792 
 PHE793  MET794  SER795  GLU796  ALA797  LYS798  CYS799  TRP800  GLU811  SER814 

> <Gold.Protein.RotatedAtoms>
  150.7046  134.1199  159.4030 H   0  0  0  0  0  0  0  0  0  0  0  0  # atno 6907 bound_to 6896
  151.9185  135.0306  160.0529 H   0  0  0  0  0  0  0  0  0  0  0  0  # atno 6908 bound_to 6896
  152.2276  133.4997  159.5234 H   0  0  0  0  0  0  0  0  0  0  0  0  # atno 6909 bound_to 6896
  146.2306  139.9048  142.8533 H   0  0  0  0  0  0  0  0  0  0  0  0  # atno 7974 bound_to 7965
  156.1579  140.1600  156.8661 H   0  0  0  0  0  0  0  0  0  0  0  0  # atno 8008 bound_to 7997
  154.5133  140.0796  156.8068 H   0  0  0  0  0  0  0  0  0  0  0  0  # atno 8009 bound_to 7997
  155.3766  140.3403  155.4247 H   0  0  0  0  0  0  0  0  0  0  0  0  # atno 8010 bound_to 7997
  139.5013  144.6154  151.6175 H   0  0  0  0  0  0  0  0  0  0  0  0  # atno 10167 bound_to 10162
  156.3312  130.7587  151.1705 H   0  0  0  0  0  0  0  0  0  0  0  0  # atno 10718 bound_to 10713
  153.7451  135.6930  153.4958 H   0  0  0  0  0  0  0  0  0  0  0  0  # atno 10763 bound_to 10752
  153.2042  135.4426  155.0301 H   0  0  0  0  0  0  0  0  0  0  0  0  # atno 10764 bound_to 10752
  154.8207  135.3420  154.6975 H   0  0  0  0  0  0  0  0  0  0  0  0  # atno 10765 bound_to 10752
  140.1897  134.8416  157.2898 H   0  0  0  0  0  0  0  0  0  0  0  0  # atno 11005 bound_to 11000
  145.2288  140.9964  143.4003 LP  0  0  0  0  0  0  0  0  0  0  0  0  # atno 17320 bound_to 7965
  144.9548  139.4043  143.6385 LP  0  0  0  0  0  0  0  0  0  0  0  0  # atno 17321 bound_to 7965
  140.5841  143.9895  150.6285 LP  0  0  0  0  0  0  0  0  0  0  0  0  # atno 17342 bound_to 10162
  140.3054  143.3233  152.0931 LP  0  0  0  0  0  0  0  0  0  0  0  0  # atno 17343 bound_to 10162
  157.7431  131.0480  150.4976 LP  0  0  0  0  0  0  0  0  0  0  0  0  # atno 17370 bound_to 10713
  156.5142  130.4146  149.6285 LP  0  0  0  0  0  0  0  0  0  0  0  0  # atno 17371 bound_to 10713
  140.2173  134.4065  155.7583 LP  0  0  0  0  0  0  0  0  0  0  0  0  # atno 17394 bound_to 11000
  141.2226  133.7148  156.8435 LP  0  0  0  0  0  0  0  0  0  0  0  0  # atno 17395 bound_to 11000

$$$$
