#       Name:                AV-unprocessed.smi:2906
#       Creating user name   scv26
#       Creation time:       Fri Mar 27 16:04:57 2020


#       File generated by GOLD software.
#

@<TRIPOS>MOLECULE
AV-unprocessed.smi:2906
    45    46     1
SMALL
NO_CHARGES


@<TRIPOS>ATOM
      1 ****        -3.3090  -3.4833  -3.8403 C.3            1 S1                 0.0000
      2 ****        -2.8244  -2.5942  -2.6837 C.3            1 S1                 0.0000
      3 ****        -2.8367  -3.2959  -1.3149 C.2            1 S1                 0.0000
      4 ****        -3.2374  -4.4575  -1.2255 O.2            1 S1                 0.0000
      5 ****        -2.3990  -2.6061  -0.2405 N.am           1 S1                 0.0000
      6 ****        -2.3405  -3.1694   1.1041 C.3            1 S1                 0.0000
      7 ****        -2.1045  -1.9981   2.0560 C.3            1 S1                 0.0000
      8 ****        -1.5856  -0.8475   1.1933 C.3            1 S1                 0.0000
      9 ****        -0.1615  -0.6100   1.4145 N.am           1 S1                 0.0000
     10 ****         0.4997   0.4979   1.0495 C.2            1 S1                 0.0000
     11 ****        -0.0331   1.4454   0.4707 O.2            1 S1                 0.0000
     12 ****         1.7965   0.4277   1.3978 N.am           1 S1                 0.0000
     13 ****         2.8171   1.3880   1.1730 C.2            1 S1                 0.0000
     14 ****         2.6343   2.5438   0.5251 N.2            1 S1                 0.0000
     15 ****         3.8087   3.2986   0.4470 C.2            1 S1                 0.0000
     16 ****         3.7949   4.6299  -0.2407 C.3            1 S1                 0.0000
     17 ****         3.1716   5.7273   0.6291 C.3            1 S1                 0.0000
     18 ****         4.8849   2.6904   1.0464 C.2            1 S1                 0.0000
     19 ****         4.4639   1.1445   1.7335 S.3            1 S1                 0.0000
     20 ****        -1.8871  -1.2380  -0.2634 C.3            1 S1                 0.0000
     21 ****        -3.2816  -2.9365  -4.7829 H              1 S1                 0.0000
     22 ****        -4.3354  -3.8171  -3.6844 H              1 S1                 0.0000
     23 ****        -2.6792  -4.3664  -3.9548 H              1 S1                 0.0000
     24 ****        -1.8108  -2.2551  -2.8991 H              1 S1                 0.0000
     25 ****        -3.4539  -1.7054  -2.6306 H              1 S1                 0.0000
     26 ****        -3.2530  -3.7082   1.3640 H              1 S1                 0.0000
     27 ****        -1.5088  -3.8736   1.1535 H              1 S1                 0.0000
     28 ****        -3.0554  -1.7068   2.5042 H              1 S1                 0.0000
     29 ****        -1.4340  -2.2618   2.8751 H              1 S1                 0.0000
     30 ****        -2.1291   0.0626   1.4548 H              1 S1                 0.0000
     31 ****         0.3538  -1.3410   1.8824 H              1 S1                 0.0000
     32 ****         2.0882  -0.4101   1.8791 H              1 S1                 0.0000
     33 ****         4.8101   4.9215  -0.5117 H              1 S1                 0.0000
     34 ****         3.2443   4.5588  -1.1793 H              1 S1                 0.0000
     35 ****         3.1772   6.6851   0.1089 H              1 S1                 0.0000
     36 ****         3.7231   5.8508   1.5615 H              1 S1                 0.0000
     37 ****         2.1369   5.4912   0.8796 H              1 S1                 0.0000
     38 ****         5.8970   3.0582   1.1255 H              1 S1                 0.0000
     39 ****        -1.0018  -1.1746  -0.8984 H              1 S1                 0.0000
     40 ****        -2.6396  -0.5657  -0.6778 H              1 S1                 0.0000
     41 ****        -3.5535  -4.9416  -2.0415 LP             1 S1                 0.0000
     42 ****        -3.2466  -4.9163  -0.3370 LP             1 S1                 0.0000
     43 ****        -1.0078   1.4122   0.2498 LP             1 S1                 0.0000
     44 ****         0.5090   2.2480   0.2216 LP             1 S1                 0.0000
     45 ****         1.7582   2.8347   0.1406 LP             1 S1                 0.0000
@<TRIPOS>BOND
    1    1    2 1     
    2    1   21 1     
    3    1   22 1     
    4    1   23 1     
    5    2    3 1     
    6    2   24 1     
    7    2   25 1     
    8    3    4 2     
    9    3    5 am    
   10    5   20 1     
   11    5    6 1     
   12    6    7 1     
   13    6   26 1     
   14    6   27 1     
   15    7    8 1     
   16    7   28 1     
   17    7   29 1     
   18    8    9 1     
   19    8   20 1     
   20    8   30 1     
   21    9   10 am    
   22    9   31 1     
   23   10   11 2     
   24   10   12 am    
   25   12   13 1     
   26   12   32 1     
   27   13   19 1     
   28   13   14 2     
   29   14   15 1     
   30   15   16 1     
   31   15   18 2     
   32   16   17 1     
   33   16   33 1     
   34   16   34 1     
   35   17   35 1     
   36   17   36 1     
   37   17   37 1     
   38   18   19 1     
   39   18   38 1     
   40   20   39 1     
   41   20   40 1     
   42    4   41 1     
   43    4   42 1     
   44   11   43 1     
   45   11   44 1     
   46   14   45 1     
@<TRIPOS>SUBSTRUCTURE
      1 S1             1
@<TRIPOS>SET
LONE_PAIRS      STATIC     ATOMS    <user>   **** ""
5 41 42 43 44 45
DONOR_HYDROGENS      STATIC     ATOMS    <user>   **** ""
2 31 32
ATOM$BLUE        STATIC     ATOMS    COLORGROUP SYSTEM
5 41 42 43 44 45
ATOM$RED        STATIC     ATOMS    COLORGROUP SYSTEM
2 31 32
