#       Name:                AV-unprocessed.smi:2451
#       Creating user name   scv26
#       Creation time:       Fri Mar 27 13:31:18 2020


#       File generated by GOLD software.
#

@<TRIPOS>MOLECULE
AV-unprocessed.smi:2451
    42    43     1
SMALL
NO_CHARGES


@<TRIPOS>ATOM
      1 ****        -3.5337  -0.3779  -1.1273 C.3            1 S1                 0.0000
      2 ****        -2.6660  -1.6272  -0.8688 C.3            1 S1                 0.0000
      3 ****        -3.0900  -2.3512   0.4249 C.3            1 S1                 0.0000
      4 ****        -2.6783  -1.5741   1.6849 C.3            1 S1                 0.0000
      5 ****        -1.1671  -1.3078   1.6974 C.3            1 S1                 0.0000
      6 ****        -0.6967  -0.5941   0.4155 C.3            1 S1                 0.0000
      7 ****         0.7643  -0.4784   0.4547 N.3            1 S1                 0.0000
      8 ****         1.4681   1.0833   0.6524 S.o2           1 S1                 0.0000
      9 ****         0.9013   1.9615  -0.3831 O.2            1 S1                 0.0000
     10 ****         1.3450   1.4477   2.0720 O.2            1 S1                 0.0000
     11 ****         3.2402   0.7748   0.2554 C.3            1 S1                 0.0000
     12 ****         4.0028   2.0670   0.3186 C.2            1 S1                 0.0000
     13 ****         4.0908   3.0900  -0.6659 C.2            1 S1                 0.0000
     14 ****         4.9073   4.0189  -0.0881 C.2            1 S1                 0.0000
     15 ****         5.2965   3.6074   1.1452 O.3            1 S1                 0.0000
     16 ****         4.7150   2.3592   1.3953 N.2            1 S1                 0.0000
     17 ****        -1.1377  -1.3513  -0.8628 C.3            1 S1                 0.0000
     18 ****        -0.6702  -0.6529  -2.1554 C.3            1 S1                 0.0000
     19 ****        -3.3523   0.4084  -0.3952 H              1 S1                 0.0000
     20 ****        -4.5944  -0.6264  -1.0844 H              1 S1                 0.0000
     21 ****        -3.3487   0.0419  -2.1157 H              1 S1                 0.0000
     22 ****        -2.8687  -2.3128  -1.6928 H              1 S1                 0.0000
     23 ****        -4.1672  -2.5216   0.4269 H              1 S1                 0.0000
     24 ****        -2.6294  -3.3396   0.4507 H              1 S1                 0.0000
     25 ****        -3.2208  -0.6298   1.7385 H              1 S1                 0.0000
     26 ****        -2.9605  -2.1379   2.5744 H              1 S1                 0.0000
     27 ****        -0.9063  -0.7136   2.5742 H              1 S1                 0.0000
     28 ****        -0.6412  -2.2581   1.8031 H              1 S1                 0.0000
     29 ****        -1.1281   0.4074   0.3984 H              1 S1                 0.0000
     30 ****         1.1722  -1.1547   1.0997 H              1 S1                 0.0000
     31 ****         3.6309   0.0419   0.9617 H              1 S1                 0.0000
     32 ****         3.2967   0.3397  -0.7423 H              1 S1                 0.0000
     33 ****         3.6247   3.1362  -1.6389 H              1 S1                 0.0000
     34 ****         5.2869   4.9771  -0.4110 H              1 S1                 0.0000
     35 ****        -0.6481  -2.3266  -0.8435 H              1 S1                 0.0000
     36 ****        -1.0152   0.3801  -2.2023 H              1 S1                 0.0000
     37 ****        -1.0410  -1.1720  -3.0394 H              1 S1                 0.0000
     38 ****         0.4175  -0.6334  -2.2263 H              1 S1                 0.0000
     39 ****         1.0114  -0.6929  -0.4903 LP             1 S1                 0.0000
     40 ****         4.9923   4.2662   1.8332 LP             1 S1                 0.0000
     41 ****         6.2929   3.5287   1.1767 LP             1 S1                 0.0000
     42 ****         4.8168   1.8018   2.2193 LP             1 S1                 0.0000
@<TRIPOS>BOND
    1    1    2 1     
    2    1   19 1     
    3    1   20 1     
    4    1   21 1     
    5    2   17 1     
    6    2    3 1     
    7    2   22 1     
    8    3    4 1     
    9    3   23 1     
   10    3   24 1     
   11    4    5 1     
   12    4   25 1     
   13    4   26 1     
   14    5    6 1     
   15    5   27 1     
   16    5   28 1     
   17    6    7 1     
   18    6   17 1     
   19    6   29 1     
   20    7    8 1     
   21    7   30 1     
   22    8    9 2     
   23    8   10 2     
   24    8   11 1     
   25   11   12 1     
   26   11   31 1     
   27   11   32 1     
   28   12   16 2     
   29   12   13 1     
   30   13   14 2     
   31   13   33 1     
   32   14   15 1     
   33   14   34 1     
   34   15   16 1     
   35   17   18 1     
   36   17   35 1     
   37   18   36 1     
   38   18   37 1     
   39   18   38 1     
   40    7   39 1     
   41   15   40 1     
   42   15   41 1     
   43   16   42 1     
@<TRIPOS>SUBSTRUCTURE
      1 S1             1
@<TRIPOS>SET
LONE_PAIRS      STATIC     ATOMS    <user>   **** ""
6 39 9 10 40 41 42
DONOR_HYDROGENS      STATIC     ATOMS    <user>   **** ""
1 30
ATOM$BLUE        STATIC     ATOMS    COLORGROUP SYSTEM
6 39 9 10 40 41 42
ATOM$RED        STATIC     ATOMS    COLORGROUP SYSTEM
1 30
