AV-unprocessed.smi:221|AV-procd|sdf|1686|dock7
  -GOLD-   2262020123D 1   1.00000     0.00000
 Structure written by MMmdl.
 50 53  0  0  0  0  0  0  0  0  1 V2000
  151.7648  139.4091  159.2623 N   0  0  0  0  0  0  0  0  0  0  0  0
  152.8265  140.1767  159.0065 C   0  0  0  0  0  0  0  0  0  0  0  0
  153.9772  139.7802  159.1829 O   0  0  0  0  0  0  0  0  0  0  0  0
  152.5467  141.5832  158.4574 C   0  0  2  0  0  0  0  0  0  0  0  0
  152.8637  142.6735  159.4893 C   0  0  0  0  0  0  0  0  0  0  0  0
  152.0044  143.8452  159.0279 C   0  0  1  0  0  0  0  0  0  0  0  0
  152.6291  144.4967  158.0457 F   0  0  0  0  0  0  0  0  0  0  0  0
  150.7492  143.1663  158.4743 C   0  0  0  0  0  0  0  0  0  0  0  0
  151.1293  141.7928  158.1539 N   0  0  0  0  0  0  0  0  0  0  0  0
  150.7071  141.3340  156.9551 C   0  0  0  0  0  0  0  0  0  0  0  0
  151.5949  140.6266  156.2148 N   0  0  0  0  0  0  0  0  0  0  0  0
  151.2367  140.1516  155.0178 C   0  0  0  0  0  0  0  0  0  0  0  0
  150.0648  140.2683  154.3885 N   0  0  0  0  0  0  0  0  0  0  0  0
  149.1713  140.9800  155.1342 C   0  0  0  0  0  0  0  0  0  0  0  0
  149.4054  141.5431  156.4195 C   0  0  0  0  0  0  0  0  0  0  0  0
  148.2624  142.1932  156.8693 N   0  0  0  0  0  0  0  0  0  0  0  0
  147.4018  142.0268  155.9024 C   0  0  0  0  0  0  0  0  0  0  0  0
  147.8674  141.3165  154.8187 N   0  0  0  0  0  0  0  0  0  0  0  0
  147.1338  140.9892  153.6095 C   0  0  0  0  0  0  0  0  0  0  0  0
  147.1761  139.4849  153.2408 C   0  0  2  0  0  0  0  0  0  0  0  0
  146.7228  139.2081  151.7834 C   0  0  0  0  0  0  0  0  0  0  0  0
  145.3413  138.9214  151.7094 O   0  0  0  0  0  0  0  0  0  0  0  0
  146.3940  138.6695  154.3036 C   0  0  2  0  0  0  0  0  0  0  0  0
  146.9058  138.7562  155.7300 C   0  0  0  0  0  0  0  0  0  0  0  0
  146.1710  137.5903  156.3834 C   0  0  0  0  0  0  0  0  0  0  0  0
  146.0592  136.5911  155.3738 O   0  0  0  0  0  0  0  0  0  0  0  0
  146.3184  137.1540  154.0898 C   0  0  0  0  0  0  0  0  0  0  0  0
  153.1503  141.7507  157.5633 H   0  0  0  0  0  0  0  0  0  0  0  0
  151.7926  144.5664  159.8175 H   0  0  0  0  0  0  0  0  0  0  0  0
  151.8975  138.4776  159.6284 H   0  0  0  0  0  0  0  0  0  0  0  0
  150.8342  139.7623  159.0932 H   0  0  0  0  0  0  0  0  0  0  0  0
  152.5518  142.3664  160.4893 H   0  0  0  0  0  0  0  0  0  0  0  0
  153.9249  142.9212  159.5315 H   0  0  0  0  0  0  0  0  0  0  0  0
  149.9800  143.1208  159.2457 H   0  0  0  0  0  0  0  0  0  0  0  0
  150.3280  143.7180  157.6320 H   0  0  0  0  0  0  0  0  0  0  0  0
  151.9987  139.5992  154.4878 H   0  0  0  0  0  0  0  0  0  0  0  0
  146.3996  142.4274  155.9506 H   0  0  0  0  0  0  0  0  0  0  0  0
  146.1027  141.3145  153.7524 H   0  0  0  0  0  0  0  0  0  0  0  0
  147.5348  141.5887  152.7913 H   0  0  0  0  0  0  0  0  0  0  0  0
  148.2141  139.1589  153.3266 H   0  0  0  0  0  0  0  0  0  0  0  0
  146.8957  140.0679  151.1394 H   0  0  0  0  0  0  0  0  0  0  0  0
  147.2840  138.3784  151.3529 H   0  0  0  0  0  0  0  0  0  0  0  0
  145.0491  139.0783  150.8245 H   0  0  0  0  0  0  0  0  0  0  0  0
  145.3698  139.0469  154.3280 H   0  0  0  0  0  0  0  0  0  0  0  0
  147.9804  138.5896  155.7890 H   0  0  0  0  0  0  0  0  0  0  0  0
  146.6845  139.7123  156.2052 H   0  0  0  0  0  0  0  0  0  0  0  0
  146.6871  137.2115  157.2658 H   0  0  0  0  0  0  0  0  0  0  0  0
  145.1671  137.8945  156.6832 H   0  0  0  0  0  0  0  0  0  0  0  0
  145.5431  136.8767  153.3753 H   0  0  0  0  0  0  0  0  0  0  0  0
  147.2639  136.7460  153.7339 H   0  0  0  0  0  0  0  0  0  0  0  0
  1  2  1  0  0  0  0
  1 30  1  0  0  0  0
  1 31  1  0  0  0  0
  2  3  2  0  0  0  0
  2  4  1  0  0  0  0
  4 28  1  0  0  0  0
  4  9  1  0  0  0  0
  4  5  1  0  0  0  0
  5  6  1  0  0  0  0
  5 32  1  0  0  0  0
  5 33  1  0  0  0  0
  6 29  1  0  0  0  0
  6  7  1  0  0  0  0
  6  8  1  0  0  0  0
  8  9  1  0  0  0  0
  8 34  1  0  0  0  0
  8 35  1  0  0  0  0
  9 10  1  0  0  0  0
 10 15  1  0  0  0  0
 10 11  2  0  0  0  0
 11 12  1  0  0  0  0
 12 13  2  0  0  0  0
 12 36  1  0  0  0  0
 13 14  1  0  0  0  0
 14 18  1  0  0  0  0
 14 15  2  0  0  0  0
 15 16  1  0  0  0  0
 16 17  2  0  0  0  0
 17 18  1  0  0  0  0
 17 37  1  0  0  0  0
 18 19  1  0  0  0  0
 19 20  1  0  0  0  0
 19 38  1  0  0  0  0
 19 39  1  0  0  0  0
 20 21  1  0  0  0  0
 20 23  1  0  0  0  0
 20 40  1  0  0  0  0
 21 22  1  0  0  0  0
 21 41  1  0  0  0  0
 21 42  1  0  0  0  0
 22 43  1  0  0  0  0
 23 27  1  0  0  0  0
 23 24  1  0  0  0  0
 23 44  1  0  0  0  0
 24 25  1  0  0  0  0
 24 45  1  0  0  0  0
 24 46  1  0  0  0  0
 25 26  1  0  0  0  0
 25 47  1  0  0  0  0
 25 48  1  0  0  0  0
 26 27  1  0  0  0  0
 27 49  1  0  0  0  0
 27 50  1  0  0  0  0
M  END
> <s_m_source_file>
AV-unprocessed.smi

> <i_m_source_file_index>
221

> <i_lp_mmshare_version>
43012

> <i_f3d_flags>
0

> <s_epik_input>
W05IMl1DKD1PKVtDQEBIXTFbQ0gyXVtDQEBIXShGKVtDSDJdTjFjKG5bY0hdbjIpYyhjMjMpbltjSF1uM1tDSDJdW0NASF0oW0NIMl1bT0hdKVtDQEBIXTRbQ0gyXVtDSDJdT1tDSDJdNA==

> <s_epik_cmdline>
J2VwaWtfcHl0aG9uJywgJy1waCcsICc3LjAnLCAnLXRuJywgJzgnLCAnLW1hJywgJzIwMCcsICctbWV0YWxfYmluZGluZycsICctaW1hZScsICc8aW5maWxlLm1hZT4nLCAnLW9tYWUnLCAnPG91dGZpbGUubWFlPic=

> <r_lp_tautomer_probability>
1

> <r_epik_Ionization_Penalty>
0.000818822

> <r_epik_Ionization_Penalty_Charging>
0

> <r_epik_Ionization_Penalty_Neutral>
0.000818822

> <r_epik_State_Penalty>
0.000440551

> <r_epik_Charging_Adjusted_Penalty>
0.000440551

> <i_epik_Tot_Q>
0

> <i_epik_Tot_abs_Q>
0

> <r_epik_Metal_State_Penalty>
-0

> <b_epik_Metal_Only>
0

> <s_lp_Force_Field>
OPLS_2005

> <r_lp_Energy>
52.3399

> <b_lp_Chiralities_Consistent>
1

> <s_lp_Variant>
AV-unprocessed.smi:221-1

> <Gold.Version>
5.8.1

> <Gold.Id.Protein>
6NUR|6NUR_protein|mol2

> <Gold.PLP.Fitness>
45.2098

> <Gold.PLP.PLP>
-40.8757

> <Gold.PLP.part.hbond>
-3.8828

> <Gold.PLP.part.metal>
0.0000

> <Gold.PLP.part.buried>
-2.0422

> <Gold.PLP.part.nonpolar>
-35.0140

> <Gold.PLP.part.repulsive>
0.8670

> <Gold.PLP.ligand.clash>
0.0000

> <Gold.PLP.ligand.torsion>
0.9638

> <Gold.PLP.Chemscore.Hbond>
1.9760

> <Gold.PLP.Chemscore.CHOScore>
0.0000

> <Gold.PLP.Chemscore.Metal>
0.0000

> <Gold.Chemscore.Hbonds>
donor molecule, donor type, donor heavy atom, donor atom, acceptor molecule, acceptor atom, score
      L1  H    22    43       P1 10171  0.82
      P1  H  7997  8009       L1     3  0.68

> <Gold.PLP.Chemscore.Internal.Correction>
0.3337

> <Gold.Rescore>
     Score         DG    S(hbond)    S(metal)    S(lipo)     H(rot)  DE(clash)    DE(int)     intcor
      6.97     -10.74       1.88        0.00      72.75       3.72       1.68       2.09       ----

> <Gold.Chemscore.Fitness>
6.9655

> <Gold.Chemscore.DG>
-10.7359

> <Gold.Chemscore.ZeroCoef>
-5.4800

> <Gold.Chemscore.Hbond>
1.8765

> <Gold.Chemscore.Metal>
0.0000

> <Gold.Chemscore.Lipo>
72.7524

> <Gold.Chemscore.Internal_Hbond>
0.0000

> <Gold.Chemscore.DEClash>
1.6823

> <Gold.Chemscore.DEInternal>
2.0881

> <Gold.Chemscore.Rot>
3.7202

> <Gold.Chemscore.Internal.Correction>
   9.000000E+99

> <Gold.Chemscore.Hbonds>
donor molecule, donor type, donor heavy atom, donor atom, acceptor molecule, acceptor atom, score
      L1  H    22    43       P1 10171  0.80
      P1  H  7997  8009       L1     3  0.41

> <Gold.Chemscore.Hbond.Weighted>
-6.2676

> <Gold.Chemscore.Metal.Weighted>
-0.0000

> <Gold.Chemscore.Lipo.Weighted>
-8.5120

> <Gold.Chemscore.Internal_Hbond.Weighted>
0.0000

> <Gold.Chemscore.DEClash.Weighted>
1.6823

> <Gold.Chemscore.DEInternal.Weighted>
2.0881

> <Gold.Chemscore.Rot.Weighted>
9.5237

> <Gold.Chemscore.Internal.Correction.Weighted>
   9.000000E+99

> <Gold.Protein.RotatedTorsions>
[ 6907 6896 6895 6894 ] final  103.98 input  -60.11 | X-H torsion
[ 7974 7965 7964 7962 ] final  -84.23 input  175.53 | X-H torsion
[ 8008 7997 7996 7995 ] final  123.44 input   59.86 | X-H torsion
[ 10167 10162 10161 10158 ] final  179.63 input  -65.29 | X-H torsion
[ 10718 10713 10712 10709 ] final  -57.34 input   66.30 | X-H torsion
[ 10763 10752 10751 10750 ] final   64.01 input  -60.55 | X-H torsion
[ 11005 11000 10999 10996 ] final  -98.95 input  -57.11 | X-H torsion

> <Gold.Protein.ActiveResidues>
 VAL166  LYS551  ARG553  GLY616  TRP617  ASP618  TYR619  PRO620  LYS621  CYS622 
 ASP623  PHE694  ASN695  SER759  ASP760  ASP761  ALA762  ILE779  LEU786  VAL792 
 PHE793  MET794  SER795  GLU796  ALA797  LYS798  CYS799  TRP800  GLU811  SER814 

> <Gold.Protein.RotatedAtoms>
  152.5279  133.9744  159.7777 H   0  0  0  0  0  0  0  0  0  0  0  0  # atno 6907 bound_to 6896
  151.0010  133.6048  159.2702 H   0  0  0  0  0  0  0  0  0  0  0  0  # atno 6908 bound_to 6896
  151.3157  135.0812  159.9341 H   0  0  0  0  0  0  0  0  0  0  0  0  # atno 6909 bound_to 6896
  145.5093  140.9541  143.1716 H   0  0  0  0  0  0  0  0  0  0  0  0  # atno 7974 bound_to 7965
  156.2766  140.2763  156.1628 H   0  0  0  0  0  0  0  0  0  0  0  0  # atno 8008 bound_to 7997
  155.0736  140.0387  157.2634 H   0  0  0  0  0  0  0  0  0  0  0  0  # atno 8009 bound_to 7997
  154.7020  140.2651  155.6716 H   0  0  0  0  0  0  0  0  0  0  0  0  # atno 8010 bound_to 7997
  139.5345  144.2537  152.0763 H   0  0  0  0  0  0  0  0  0  0  0  0  # atno 10167 bound_to 10162
  156.1218  130.4165  150.0427 H   0  0  0  0  0  0  0  0  0  0  0  0  # atno 10718 bound_to 10713
  153.0039  135.5408  154.6442 H   0  0  0  0  0  0  0  0  0  0  0  0  # atno 10763 bound_to 10752
  154.5690  135.2840  155.0848 H   0  0  0  0  0  0  0  0  0  0  0  0  # atno 10764 bound_to 10752
  154.2021  135.6482  153.5143 H   0  0  0  0  0  0  0  0  0  0  0  0  # atno 10765 bound_to 10752
  141.1326  133.8284  157.0907 H   0  0  0  0  0  0  0  0  0  0  0  0  # atno 11005 bound_to 11000
  144.7736  139.6679  143.7184 LP  0  0  0  0  0  0  0  0  0  0  0  0  # atno 17320 bound_to 7965
  146.2176  139.5578  142.9639 LP  0  0  0  0  0  0  0  0  0  0  0  0  # atno 17321 bound_to 7965
  140.2006  144.4662  150.6433 LP  0  0  0  0  0  0  0  0  0  0  0  0  # atno 17342 bound_to 10162
  140.6543  143.2233  151.6004 LP  0  0  0  0  0  0  0  0  0  0  0  0  # atno 17343 bound_to 10162
  156.8363  130.9410  151.3634 LP  0  0  0  0  0  0  0  0  0  0  0  0  # atno 17370 bound_to 10713
  157.6401  130.8799  149.9433 LP  0  0  0  0  0  0  0  0  0  0  0  0  # atno 17371 bound_to 10713
  140.0394  134.9862  157.0933 LP  0  0  0  0  0  0  0  0  0  0  0  0  # atno 17394 bound_to 11000
  140.4159  134.1932  155.7163 LP  0  0  0  0  0  0  0  0  0  0  0  0  # atno 17395 bound_to 11000

$$$$
