AV-unprocessed.smi:44|AV-procd|sdf|403|dock7
  -GOLD-   2262016253D 1   1.00000     0.00000
 Structure written by MMmdl.
 28 30  0  0  0  0  0  0  0  0  2 V2000
  153.5892  138.7238  154.9514 O   0  0  0  0  0  0  0  0  0  0  0  0
  152.3827  138.5264  154.8209 C   0  0  0  0  0  0  0  0  0  0  0  0
  151.8143  137.3578  154.3835 N   0  5  0  0  0  0  0  0  0  0  0  0
  150.4282  137.2627  154.2774 C   0  0  0  0  0  0  0  0  0  0  0  0
  149.5530  138.1700  154.5499 N   0  0  0  0  0  0  0  0  0  0  0  0
  150.0994  139.3558  154.9951 C   0  0  0  0  0  0  0  0  0  0  0  0
  151.4319  139.6237  155.1568 C   0  0  0  0  0  0  0  0  0  0  0  0
  151.6317  140.9185  155.6190 N   0  0  0  0  0  0  0  0  0  0  0  0
  150.3832  141.3758  155.7161 C   0  0  0  0  0  0  0  0  0  0  0  0
  149.4125  140.5031  155.3708 N   0  0  0  0  0  0  0  0  0  0  0  0
  147.9280  140.7044  155.3694 C   0  0  1  0  0  0  0  0  0  0  0  0
  147.5705  141.8817  154.4614 C   0  0  0  0  0  0  0  0  0  0  0  0
  147.4346  141.1907  153.1233 C   0  0  0  0  0  0  0  0  0  0  0  0
  146.7666  139.8773  153.5302 C   0  0  1  0  0  0  0  0  0  0  0  0
  147.0083  138.7347  152.5323 C   0  0  0  0  0  0  0  0  0  0  0  0
  146.7877  139.1882  151.2144 O   0  0  0  0  0  0  0  0  0  0  0  0
  147.3313  139.5701  154.8072 O   0  0  0  0  0  0  0  0  0  0  0  0
  147.6653  140.8418  156.4189 H   0  0  0  0  0  0  0  0  0  0  0  0
  145.6977  140.0588  153.6584 H   0  0  0  0  0  0  0  0  0  0  0  0
  150.1155  136.2797  153.9165 H   0  0  0  0  0  0  0  0  0  0  0  0
  150.1744  142.3802  156.0501 H   0  0  0  0  0  0  0  0  0  0  0  0
  146.6138  142.2957  154.7824 H   0  0  0  0  0  0  0  0  0  0  0  0
  148.3246  142.6694  154.4832 H   0  0  0  0  0  0  0  0  0  0  0  0
  146.8463  141.7623  152.4053 H   0  0  0  0  0  0  0  0  0  0  0  0
  148.4199  141.0096  152.6907 H   0  0  0  0  0  0  0  0  0  0  0  0
  148.0447  138.4009  152.5920 H   0  0  0  0  0  0  0  0  0  0  0  0
  146.3789  137.8717  152.7477 H   0  0  0  0  0  0  0  0  0  0  0  0
  147.6201  139.4222  150.8334 H   0  0  0  0  0  0  0  0  0  0  0  0
  1  2  2  0  0  0  0
  2  7  1  0  0  0  0
  2  3  1  0  0  0  0
  3  4  1  0  0  0  0
  4  5  2  0  0  0  0
  4 20  1  0  0  0  0
  5  6  1  0  0  0  0
  6 10  1  0  0  0  0
  6  7  2  0  0  0  0
  7  8  1  0  0  0  0
  8  9  2  0  0  0  0
  9 10  1  0  0  0  0
  9 21  1  0  0  0  0
 10 11  1  0  0  0  0
 11 18  1  0  0  0  0
 11 17  1  0  0  0  0
 11 12  1  0  0  0  0
 12 13  1  0  0  0  0
 12 22  1  0  0  0  0
 12 23  1  0  0  0  0
 13 14  1  0  0  0  0
 13 24  1  0  0  0  0
 13 25  1  0  0  0  0
 14 19  1  0  0  0  0
 14 15  1  0  0  0  0
 14 17  1  0  0  0  0
 15 16  1  0  0  0  0
 15 26  1  0  0  0  0
 15 27  1  0  0  0  0
 16 28  1  0  0  0  0
M  CHG  1   3  -1
M  END
> <s_m_source_file>
AV-unprocessed.smi

> <i_m_source_file_index>
44

> <i_lp_mmshare_version>
43012

> <i_f3d_flags>
0

> <s_epik_input>
bjFbY0hdW25IXWMoPU8pYyhjMTIpbltjSF1uMltDQEhdM1tDSDJdW0NIMl1bQ0BIXShPMylbQ0gyXVtPSF0=

> <s_epik_cmdline>
J2VwaWtfcHl0aG9uJywgJy1waCcsICc3LjAnLCAnLXRuJywgJzgnLCAnLW1hJywgJzIwMCcsICctbWV0YWxfYmluZGluZycsICctaW1hZScsICc8aW5maWxlLm1hZT4nLCAnLW9tYWUnLCAnPG91dGZpbGUubWFlPic=

> <r_lp_tautomer_probability>
0.85571

> <r_epik_Ionization_Penalty>
2.55863

> <r_epik_Ionization_Penalty_Charging>
1.36424e-10

> <r_epik_Ionization_Penalty_Neutral>
2.55863

> <r_epik_State_Penalty>
2.63326

> <r_epik_Charging_Adjusted_Penalty>
2.63326

> <i_epik_Tot_Q>
-1

> <i_epik_Tot_abs_Q>
1

> <r_epik_Metal_State_Penalty>
0.475154

> <b_epik_Metal_Only>
1

> <s_epik_Chemistry_Notes>
This compound contains an acetal/aminal-like group ( X-CH(R)-Y where X, Y are N, S, or O) that may be acid/base labile, releasing an aldehyde.

> <s_lp_Force_Field>
OPLS_2005

> <r_lp_Energy>
44.8595

> <b_lp_Chiralities_Consistent>
1

> <s_lp_Variant>
AV-unprocessed.smi:44-9

> <Gold.Version>
5.8.1

> <Gold.Id.Protein>
6NUR|6NUR_protein|mol2

> <Gold.PLP.Fitness>
42.5943

> <Gold.PLP.PLP>
-27.8975

> <Gold.PLP.part.hbond>
-4.8113

> <Gold.PLP.part.metal>
0.0000

> <Gold.PLP.part.buried>
1.1882

> <Gold.PLP.part.nonpolar>
-23.6408

> <Gold.PLP.part.repulsive>
0.4016

> <Gold.PLP.ligand.clash>
0.0000

> <Gold.PLP.ligand.torsion>
0.1407

> <Gold.PLP.Chemscore.Hbond>
3.7025

> <Gold.PLP.Chemscore.CHOScore>
1.2837

> <Gold.PLP.Chemscore.Metal>
0.0000

> <Gold.Chemscore.Hbonds>
donor molecule, donor type, donor heavy atom, donor atom, acceptor molecule, acceptor atom, score
      L1  H    16    28       P1  7957  0.95
      P1  H  7997  8008       L1     1  0.62
      P1  H 10752 10764       L1     3  1.98
      L1  C     4    20       P1  7948  0.59
      L1  C     4    20       P1  7949  0.02
      L1  C     9    21       P1  8028  0.58

> <Gold.PLP.Chemscore.Internal.Correction>
0.0196

> <Gold.Rescore>
     Score         DG    S(hbond)    S(metal)    S(lipo)     H(rot)  DE(clash)    DE(int)     intcor
     10.24     -12.05       2.56        0.00      32.45       2.26       0.05       1.75       ----

> <Gold.Chemscore.Fitness>
10.2415

> <Gold.Chemscore.DG>
-12.0475

> <Gold.Chemscore.ZeroCoef>
-5.4800

> <Gold.Chemscore.Hbond>
2.5609

> <Gold.Chemscore.Metal>
0.0000

> <Gold.Chemscore.Lipo>
32.4503

> <Gold.Chemscore.Internal_Hbond>
0.0000

> <Gold.Chemscore.DEClash>
0.0515

> <Gold.Chemscore.DEInternal>
1.7545

> <Gold.Chemscore.Rot>
2.2588

> <Gold.Chemscore.Internal.Correction>
   9.000000E+99

> <Gold.Chemscore.Hbonds>
donor molecule, donor type, donor heavy atom, donor atom, acceptor molecule, acceptor atom, score
      L1  H    16    28       P1  7957  0.43
      P1  H  7997  8008       L1     1  0.59
      P1  H 10752 10764       L1     3  0.83

> <Gold.Chemscore.Hbond.Weighted>
-8.5533

> <Gold.Chemscore.Metal.Weighted>
-0.0000

> <Gold.Chemscore.Lipo.Weighted>
-3.7967

> <Gold.Chemscore.Internal_Hbond.Weighted>
0.0000

> <Gold.Chemscore.DEClash.Weighted>
0.0515

> <Gold.Chemscore.DEInternal.Weighted>
1.7545

> <Gold.Chemscore.Rot.Weighted>
5.7825

> <Gold.Chemscore.Internal.Correction.Weighted>
   9.000000E+99

> <Gold.Protein.RotatedTorsions>
[ 6907 6896 6895 6894 ] final  124.57 input  -60.11 | X-H torsion
[ 7974 7965 7964 7962 ] final  -57.34 input  175.53 | X-H torsion
[ 8008 7997 7996 7995 ] final  -39.79 input   59.86 | X-H torsion
[ 10167 10162 10161 10158 ] final    5.63 input  -65.29 | X-H torsion
[ 10718 10713 10712 10709 ] final   17.82 input   66.30 | X-H torsion
[ 10763 10752 10751 10750 ] final  -76.58 input  -60.55 | X-H torsion
[ 11005 11000 10999 10996 ] final -149.56 input  -57.11 | X-H torsion

> <Gold.Protein.ActiveResidues>
 VAL166  LYS551  ARG553  GLY616  TRP617  ASP618  TYR619  PRO620  LYS621  CYS622 
 ASP623  PHE694  ASN695  SER759  ASP760  ASP761  ALA762  ILE779  LEU786  VAL792 
 PHE793  MET794  SER795  GLU796  ALA797  LYS798  CYS799  TRP800  GLU811  SER814 

> <Gold.Protein.RotatedAtoms>
  152.4066  133.6899  159.6361 H   0  0  0  0  0  0  0  0  0  0  0  0  # atno 6907 bound_to 6896
  150.7951  133.8697  159.3264 H   0  0  0  0  0  0  0  0  0  0  0  0  # atno 6908 bound_to 6896
  151.6450  135.1010  160.0200 H   0  0  0  0  0  0  0  0  0  0  0  0  # atno 6909 bound_to 6896
  145.8522  140.8344  142.9980 H   0  0  0  0  0  0  0  0  0  0  0  0  # atno 7974 bound_to 7965
  154.4019  140.1542  156.2921 H   0  0  0  0  0  0  0  0  0  0  0  0  # atno 8008 bound_to 7997
  155.8776  140.3445  155.5843 H   0  0  0  0  0  0  0  0  0  0  0  0  # atno 8009 bound_to 7997
  155.7704  140.0829  157.2101 H   0  0  0  0  0  0  0  0  0  0  0  0  # atno 8010 bound_to 7997
  140.6472  143.7633  150.7517 H   0  0  0  0  0  0  0  0  0  0  0  0  # atno 10167 bound_to 10162
  157.0875  130.6414  149.5841 H   0  0  0  0  0  0  0  0  0  0  0  0  # atno 10718 bound_to 10713
  154.5018  135.5793  153.6536 H   0  0  0  0  0  0  0  0  0  0  0  0  # atno 10763 bound_to 10752
  152.9880  135.6137  154.2993 H   0  0  0  0  0  0  0  0  0  0  0  0  # atno 10764 bound_to 10752
  154.2901  135.2849  155.2638 H   0  0  0  0  0  0  0  0  0  0  0  0  # atno 10765 bound_to 10752
  140.7495  134.3423  157.5129 H   0  0  0  0  0  0  0  0  0  0  0  0  # atno 11005 bound_to 11000
  144.6729  140.0970  143.7462 LP  0  0  0  0  0  0  0  0  0  0  0  0  # atno 17320 bound_to 7965
  145.9345  139.2628  143.1305 LP  0  0  0  0  0  0  0  0  0  0  0  0  # atno 17321 bound_to 7965
  140.1277  143.4554  152.2274 LP  0  0  0  0  0  0  0  0  0  0  0  0  # atno 17342 bound_to 10162
  139.5683  144.7448  151.3960 LP  0  0  0  0  0  0  0  0  0  0  0  0  # atno 17343 bound_to 10162
  155.9907  130.4959  150.7267 LP  0  0  0  0  0  0  0  0  0  0  0  0  # atno 17370 bound_to 10713
  157.4749  131.0897  151.0601 LP  0  0  0  0  0  0  0  0  0  0  0  0  # atno 17371 bound_to 10713
  139.8790  134.9132  156.3079 LP  0  0  0  0  0  0  0  0  0  0  0  0  # atno 17394 bound_to 11000
  140.9764  133.7295  156.0608 LP  0  0  0  0  0  0  0  0  0  0  0  0  # atno 17395 bound_to 11000

$$$$
