AV-unprocessed.smi:3036|AV-procd|sdf|11585|dock10
  -GOLD-   2272016563D 1   1.00000     0.00000
 Structure written by MMmdl.
 41 42  0  0  0  0  0  0  0  0  1 V2000
  145.9041  135.3536  152.9902 C   0  0  0  0  0  0  0  0  0  0  0  0
  146.7292  134.1763  153.5348 C   0  0  1  0  0  0  0  0  0  0  0  0
  147.1173  133.1923  152.4136 C   0  0  0  0  0  0  0  0  0  0  0  0
  145.9697  132.7809  151.6229 N   0  0  0  0  0  0  0  0  0  0  0  0
  145.4000  131.5286  151.5248 C   0  0  0  0  0  0  0  0  0  0  0  0
  144.3339  131.6323  150.6782 C   0  0  0  0  0  0  0  0  0  0  0  0
  144.3328  133.0050  150.3038 C   0  0  0  0  0  0  0  0  0  0  0  0
  145.3137  133.6898  150.8695 N   0  0  0  0  0  0  0  0  0  0  0  0
  147.9493  134.6739  154.1597 N   0  0  0  0  0  0  0  0  0  0  0  0
  147.7320  135.1307  155.5265 C   0  0  0  0  0  0  0  0  0  0  0  0
  148.3060  136.5472  155.7374 C   0  0  0  0  0  0  0  0  0  0  0  0
  149.8423  136.6554  155.6414 C   0  0  0  0  0  0  0  0  0  0  0  0
  150.5410  135.8346  156.2390 O   0  0  0  0  0  0  0  0  0  0  0  0
  150.3843  137.6554  154.9049 N   0  0  0  0  0  0  0  0  0  0  0  0
  151.8301  137.8487  154.7586 C   0  0  0  0  0  0  0  0  0  0  0  0
  152.2162  139.1701  155.4465 C   0  0  0  0  0  0  0  0  0  0  0  0
  151.4792  140.2440  154.8675 O   0  0  0  0  0  0  0  0  0  0  0  0
  150.0678  140.0713  154.9696 C   0  0  0  0  0  0  0  0  0  0  0  0
  149.6529  138.7606  154.2767 C   0  0  0  0  0  0  0  0  0  0  0  0
  145.0002  134.9966  152.4962 H   0  0  0  0  0  0  0  0  0  0  0  0
  146.4708  135.9348  152.2617 H   0  0  0  0  0  0  0  0  0  0  0  0
  145.5892  136.0291  153.7856 H   0  0  0  0  0  0  0  0  0  0  0  0
  146.1352  133.6329  154.2712 H   0  0  0  0  0  0  0  0  0  0  0  0
  147.8427  133.6544  151.7424 H   0  0  0  0  0  0  0  0  0  0  0  0
  147.5983  132.3031  152.8241 H   0  0  0  0  0  0  0  0  0  0  0  0
  145.7919  130.6802  152.0660 H   0  0  0  0  0  0  0  0  0  0  0  0
  143.6561  130.8481  150.3757 H   0  0  0  0  0  0  0  0  0  0  0  0
  143.6522  133.5210  149.6426 H   0  0  0  0  0  0  0  0  0  0  0  0
  148.3667  135.4017  153.5975 H   0  0  0  0  0  0  0  0  0  0  0  0
  146.6644  135.1318  155.7457 H   0  0  0  0  0  0  0  0  0  0  0  0
  148.2007  134.4393  156.2282 H   0  0  0  0  0  0  0  0  0  0  0  0
  147.8538  137.2136  155.0019 H   0  0  0  0  0  0  0  0  0  0  0  0
  148.0020  136.9057  156.7215 H   0  0  0  0  0  0  0  0  0  0  0  0
  152.4146  137.0292  155.1781 H   0  0  0  0  0  0  0  0  0  0  0  0
  152.0843  137.8879  153.6986 H   0  0  0  0  0  0  0  0  0  0  0  0
  152.0236  139.1206  156.5196 H   0  0  0  0  0  0  0  0  0  0  0  0
  153.2815  139.3645  155.3208 H   0  0  0  0  0  0  0  0  0  0  0  0
  149.7671  140.0683  156.0186 H   0  0  0  0  0  0  0  0  0  0  0  0
  149.5738  140.9209  154.4980 H   0  0  0  0  0  0  0  0  0  0  0  0
  149.9057  138.8015  153.2164 H   0  0  0  0  0  0  0  0  0  0  0  0
  148.5703  138.6584  154.3213 H   0  0  0  0  0  0  0  0  0  0  0  0
  1  2  1  0  0  0  0
  1 20  1  0  0  0  0
  1 21  1  0  0  0  0
  1 22  1  0  0  0  0
  2  3  1  0  0  0  0
  2  9  1  0  0  0  0
  2 23  1  0  0  0  0
  3  4  1  0  0  0  0
  3 24  1  0  0  0  0
  3 25  1  0  0  0  0
  4  8  1  0  0  0  0
  4  5  1  0  0  0  0
  5  6  2  0  0  0  0
  5 26  1  0  0  0  0
  6  7  1  0  0  0  0
  6 27  1  0  0  0  0
  7  8  2  0  0  0  0
  7 28  1  0  0  0  0
  9 10  1  0  0  0  0
  9 29  1  0  0  0  0
 10 11  1  0  0  0  0
 10 30  1  0  0  0  0
 10 31  1  0  0  0  0
 11 12  1  0  0  0  0
 11 32  1  0  0  0  0
 11 33  1  0  0  0  0
 12 13  2  0  0  0  0
 12 14  1  0  0  0  0
 14 19  1  0  0  0  0
 14 15  1  0  0  0  0
 15 16  1  0  0  0  0
 15 34  1  0  0  0  0
 15 35  1  0  0  0  0
 16 17  1  0  0  0  0
 16 36  1  0  0  0  0
 16 37  1  0  0  0  0
 17 18  1  0  0  0  0
 18 19  1  0  0  0  0
 18 38  1  0  0  0  0
 18 39  1  0  0  0  0
 19 40  1  0  0  0  0
 19 41  1  0  0  0  0
M  END
> <s_m_source_file>
AV-unprocessed.smi

> <i_m_source_file_index>
3036

> <i_lp_mmshare_version>
43012

> <i_f3d_flags>
0

> <s_epik_input>
bjFbY0hdW2NIXVtjSF1uMVtDSDJdW0NAQEhdKFtDSDNdKVtOSF1bQ0gyXVtDSDJdQyg9TylOMltDSDJdW0NIMl1PW0NIMl1bQ0gyXTI=

> <s_epik_cmdline>
J2VwaWtfcHl0aG9uJywgJy1waCcsICc3LjAnLCAnLXRuJywgJzgnLCAnLW1hJywgJzIwMCcsICctbWV0YWxfYmluZGluZycsICctaW1hZScsICc8aW5maWxlLm1hZT4nLCAnLW9tYWUnLCAnPG91dGZpbGUubWFlPic=

> <r_lp_tautomer_probability>
1

> <r_epik_Ionization_Penalty>
2.55703

> <r_epik_Ionization_Penalty_Charging>
0

> <r_epik_Ionization_Penalty_Neutral>
2.55703

> <r_epik_State_Penalty>
2.726

> <r_epik_Charging_Adjusted_Penalty>
2.726

> <i_epik_Tot_Q>
0

> <i_epik_Tot_abs_Q>
0

> <r_epik_Metal_State_Penalty>
2.72597

> <b_epik_Metal_Only>
0

> <s_lp_Force_Field>
OPLS_2005

> <r_lp_Energy>
21.9246

> <b_lp_Chiralities_Consistent>
1

> <s_lp_Variant>
AV-unprocessed.smi:3036-4

> <Gold.Version>
5.8.1

> <Gold.Id.Protein>
6NUR|6NUR_protein|mol2

> <Gold.PLP.Fitness>
45.8666

> <Gold.PLP.PLP>
-35.5444

> <Gold.PLP.part.hbond>
-2.9847

> <Gold.PLP.part.metal>
0.0000

> <Gold.PLP.part.buried>
-4.2089

> <Gold.PLP.part.nonpolar>
-28.5071

> <Gold.PLP.part.repulsive>
0.2644

> <Gold.PLP.ligand.clash>
0.0000

> <Gold.PLP.ligand.torsion>
0.8436

> <Gold.PLP.Chemscore.Hbond>
2.9760

> <Gold.PLP.Chemscore.CHOScore>
1.0000

> <Gold.PLP.Chemscore.Metal>
0.0000

> <Gold.Chemscore.Hbonds>
donor molecule, donor type, donor heavy atom, donor atom, acceptor molecule, acceptor atom, score
      L1  H     9    29       P1  7948  1.00
      P1  H  7989  7998       L1    17  0.94
      L1  C     7    28       P1 10186  0.34

> <Gold.PLP.Chemscore.Internal.Correction>
0.0815

> <Gold.Rescore>
     Score         DG    S(hbond)    S(metal)    S(lipo)     H(rot)  DE(clash)    DE(int)     intcor
     16.26     -18.44       2.64        0.00      79.07       1.99       0.11       2.08       ----

> <Gold.Chemscore.Fitness>
16.2587

> <Gold.Chemscore.DG>
-18.4426

> <Gold.Chemscore.ZeroCoef>
-5.4800

> <Gold.Chemscore.Hbond>
2.6363

> <Gold.Chemscore.Metal>
0.0000

> <Gold.Chemscore.Lipo>
79.0735

> <Gold.Chemscore.Internal_Hbond>
0.0000

> <Gold.Chemscore.DEClash>
0.1052

> <Gold.Chemscore.DEInternal>
2.0787

> <Gold.Chemscore.Rot>
1.9900

> <Gold.Chemscore.Internal.Correction>
   9.000000E+99

> <Gold.Chemscore.Hbonds>
donor molecule, donor type, donor heavy atom, donor atom, acceptor molecule, acceptor atom, score
      L1  H     9    29       P1  7948  0.93
      P1  H  7989  7998       L1    17  0.35

> <Gold.Chemscore.Hbond.Weighted>
-8.8053

> <Gold.Chemscore.Metal.Weighted>
-0.0000

> <Gold.Chemscore.Lipo.Weighted>
-9.2516

> <Gold.Chemscore.Internal_Hbond.Weighted>
0.0000

> <Gold.Chemscore.DEClash.Weighted>
0.1052

> <Gold.Chemscore.DEInternal.Weighted>
2.0787

> <Gold.Chemscore.Rot.Weighted>
5.0944

> <Gold.Chemscore.Internal.Correction.Weighted>
   9.000000E+99

> <Gold.Protein.RotatedTorsions>
[ 6907 6896 6895 6894 ] final -110.87 input  -60.11 | X-H torsion
[ 7974 7965 7964 7962 ] final  -28.02 input  175.53 | X-H torsion
[ 8008 7997 7996 7995 ] final -173.26 input   59.86 | X-H torsion
[ 10167 10162 10161 10158 ] final   60.71 input  -65.29 | X-H torsion
[ 10718 10713 10712 10709 ] final  -61.90 input   66.30 | X-H torsion
[ 10763 10752 10751 10750 ] final  -53.38 input  -60.55 | X-H torsion
[ 11005 11000 10999 10996 ] final   90.91 input  -57.11 | X-H torsion

> <Gold.Protein.ActiveResidues>
 VAL166  LYS551  ARG553  GLY616  TRP617  ASP618  TYR619  PRO620  LYS621  CYS622 
 ASP623  PHE694  ASN695  SER759  ASP760  ASP761  ALA762  ILE779  LEU786  VAL792 
 PHE793  MET794  SER795  GLU796  ALA797  LYS798  CYS799  TRP800  GLU811  SER814 

> <Gold.Protein.RotatedAtoms>
  150.7653  133.9318  159.3429 H   0  0  0  0  0  0  0  0  0  0  0  0  # atno 6907 bound_to 6896
  151.7218  135.0891  160.0295 H   0  0  0  0  0  0  0  0  0  0  0  0  # atno 6908 bound_to 6896
  152.3645  133.6301  159.6076 H   0  0  0  0  0  0  0  0  0  0  0  0  # atno 6909 bound_to 6896
  146.1317  140.5229  142.8690 H   0  0  0  0  0  0  0  0  0  0  0  0  # atno 7974 bound_to 7965
  155.9552  140.1134  157.0943 H   0  0  0  0  0  0  0  0  0  0  0  0  # atno 8008 bound_to 7997
  154.4119  140.1193  156.5171 H   0  0  0  0  0  0  0  0  0  0  0  0  # atno 8009 bound_to 7997
  155.6792  140.3473  155.4851 H   0  0  0  0  0  0  0  0  0  0  0  0  # atno 8010 bound_to 7997
  140.1626  144.4355  150.6701 H   0  0  0  0  0  0  0  0  0  0  0  0  # atno 10167 bound_to 10162
  156.0890  130.4203  150.1060 H   0  0  0  0  0  0  0  0  0  0  0  0  # atno 10718 bound_to 10713
  154.1580  135.6479  153.4979 H   0  0  0  0  0  0  0  0  0  0  0  0  # atno 10763 bound_to 10752
  153.0119  135.5354  154.6740 H   0  0  0  0  0  0  0  0  0  0  0  0  # atno 10764 bound_to 10752
  154.6046  135.2947  155.0470 H   0  0  0  0  0  0  0  0  0  0  0  0  # atno 10765 bound_to 10752
  139.8848  134.8642  156.3352 H   0  0  0  0  0  0  0  0  0  0  0  0  # atno 11005 bound_to 11000
  144.7697  140.5610  143.6678 LP  0  0  0  0  0  0  0  0  0  0  0  0  # atno 17320 bound_to 7965
  145.5246  139.1476  143.3533 LP  0  0  0  0  0  0  0  0  0  0  0  0  # atno 17321 bound_to 7965
  140.6633  143.2259  151.5804 LP  0  0  0  0  0  0  0  0  0  0  0  0  # atno 17342 bound_to 10162
  139.5374  144.2743  152.1280 LP  0  0  0  0  0  0  0  0  0  0  0  0  # atno 17343 bound_to 10162
  156.9074  130.9640  151.3568 LP  0  0  0  0  0  0  0  0  0  0  0  0  # atno 17370 bound_to 10713
  157.6034  130.8529  149.8837 LP  0  0  0  0  0  0  0  0  0  0  0  0  # atno 17371 bound_to 10713
  140.9696  133.7336  156.0515 LP  0  0  0  0  0  0  0  0  0  0  0  0  # atno 17394 bound_to 11000
  140.7888  134.3642  157.5470 LP  0  0  0  0  0  0  0  0  0  0  0  0  # atno 17395 bound_to 11000

$$$$
