AV-unprocessed.smi:1867|AV-procd|sdf|7566|dock8
  -GOLD-   22720 9283D 1   1.00000     0.00000
 Structure written by MMmdl.
 52 55  0  0  0  0  0  0  0  0  2 V2000
  148.9133  135.3075  156.1310 O   0  0  0  0  0  0  0  0  0  0  0  0
  149.0742  135.4860  154.9261 C   0  0  0  0  0  0  0  0  0  0  0  0
  149.5768  136.6091  154.3772 N   0  0  0  0  0  0  0  0  0  0  0  0
  150.0797  137.7650  155.0306 C   0  0  0  0  0  0  0  0  0  0  0  0
  150.3947  137.6674  156.3995 C   0  0  0  0  0  0  0  0  0  0  0  0
  150.8771  138.8022  157.0783 C   0  0  0  0  0  0  0  0  0  0  0  0
  151.0252  140.0170  156.3671 C   0  0  0  0  0  0  0  0  0  0  0  0
  151.5004  141.1806  157.0045 N   0  0  0  0  0  0  0  0  0  0  0  0
  150.9777  142.5017  156.6954 C   0  0  0  0  0  0  0  0  0  0  0  0
  151.6516  143.4332  157.7025 C   0  0  0  0  0  0  0  0  0  0  0  0
  151.8445  142.5414  158.9288 C   0  0  0  0  0  0  0  0  0  0  0  0
  152.0843  141.1471  158.3398 C   0  0  0  0  0  0  0  0  0  0  0  0
  150.7018  140.1164  155.0559 N   0  0  0  0  0  0  0  0  0  0  0  0
  150.2431  139.0249  154.4079 C   0  0  0  0  0  0  0  0  0  0  0  0
  148.7316  134.5391  154.0333 N   0  0  0  0  0  0  0  0  0  0  0  0
  148.1613  133.2107  154.2796 C   0  0  2  0  0  0  0  0  0  0  0  0
  149.2032  132.0833  154.1439 C   0  0  0  0  0  0  0  0  0  0  0  0
  148.4610  130.9521  153.4256 C   0  0  0  0  0  0  0  0  0  0  0  0
  147.5410  131.6756  152.5414 N   0  3  1  0  0  0  0  0  0  0  0  0
  146.4788  130.9150  151.8524 C   0  0  0  0  0  0  0  0  0  0  0  0
  145.7793  131.8560  150.8480 C   0  0  0  0  0  0  0  0  0  0  0  0
  145.3002  133.1675  151.5109 C   0  0  0  0  0  0  0  0  0  0  0  0
  146.4245  133.8454  152.3241 C   0  0  0  0  0  0  0  0  0  0  0  0
  147.0197  132.8209  153.3077 C   0  0  2  0  0  0  0  0  0  0  0  0
  149.5586  136.6571  153.3693 H   0  0  0  0  0  0  0  0  0  0  0  0
  150.2729  136.7327  156.9274 H   0  0  0  0  0  0  0  0  0  0  0  0
  151.1219  138.7235  158.1268 H   0  0  0  0  0  0  0  0  0  0  0  0
  151.2009  142.7956  155.6694 H   0  0  0  0  0  0  0  0  0  0  0  0
  149.8955  142.5047  156.8313 H   0  0  0  0  0  0  0  0  0  0  0  0
  152.6239  143.7484  157.3211 H   0  0  0  0  0  0  0  0  0  0  0  0
  151.0642  144.3278  157.9115 H   0  0  0  0  0  0  0  0  0  0  0  0
  152.6582  142.8730  159.5743 H   0  0  0  0  0  0  0  0  0  0  0  0
  150.9283  142.5354  159.5209 H   0  0  0  0  0  0  0  0  0  0  0  0
  151.6415  140.3759  158.9713 H   0  0  0  0  0  0  0  0  0  0  0  0
  153.1517  140.9433  158.2492 H   0  0  0  0  0  0  0  0  0  0  0  0
  149.9854  139.1903  153.3735 H   0  0  0  0  0  0  0  0  0  0  0  0
  148.8876  134.7728  153.0631 H   0  0  0  0  0  0  0  0  0  0  0  0
  147.7756  133.1661  155.2997 H   0  0  0  0  0  0  0  0  0  0  0  0
  150.0398  132.4124  153.5251 H   0  0  0  0  0  0  0  0  0  0  0  0
  149.6108  131.7688  155.1052 H   0  0  0  0  0  0  0  0  0  0  0  0
  149.1303  130.2947  152.8696 H   0  0  0  0  0  0  0  0  0  0  0  0
  147.8936  130.3501  154.1373 H   0  0  0  0  0  0  0  0  0  0  0  0
  146.9150  130.0635  151.3291 H   0  0  0  0  0  0  0  0  0  0  0  0
  145.7667  130.5201  152.5783 H   0  0  0  0  0  0  0  0  0  0  0  0
  146.4751  132.0993  150.0439 H   0  0  0  0  0  0  0  0  0  0  0  0
  144.9381  131.3443  150.3792 H   0  0  0  0  0  0  0  0  0  0  0  0
  144.9209  133.8535  150.7530 H   0  0  0  0  0  0  0  0  0  0  0  0
  144.4611  132.9479  152.1724 H   0  0  0  0  0  0  0  0  0  0  0  0
  147.1970  134.2225  151.6526 H   0  0  0  0  0  0  0  0  0  0  0  0
  146.0195  134.7045  152.8590 H   0  0  0  0  0  0  0  0  0  0  0  0
  146.2041  132.4508  153.9330 H   0  0  0  0  0  0  0  0  0  0  0  0
  148.1237  132.0705  151.8170 H   0  0  0  0  0  0  0  0  0  0  0  0
  1  2  2  0  0  0  0
  2  3  1  0  0  0  0
  2 15  1  0  0  0  0
  3  4  1  0  0  0  0
  3 25  1  0  0  0  0
  4 14  1  0  0  0  0
  4  5  2  0  0  0  0
  5  6  1  0  0  0  0
  5 26  1  0  0  0  0
  6  7  2  0  0  0  0
  6 27  1  0  0  0  0
  7  8  1  0  0  0  0
  7 13  1  0  0  0  0
  8 12  1  0  0  0  0
  8  9  1  0  0  0  0
  9 10  1  0  0  0  0
  9 28  1  0  0  0  0
  9 29  1  0  0  0  0
 10 11  1  0  0  0  0
 10 30  1  0  0  0  0
 10 31  1  0  0  0  0
 11 12  1  0  0  0  0
 11 32  1  0  0  0  0
 11 33  1  0  0  0  0
 12 34  1  0  0  0  0
 12 35  1  0  0  0  0
 13 14  2  0  0  0  0
 14 36  1  0  0  0  0
 15 16  1  0  0  0  0
 15 37  1  0  0  0  0
 16 24  1  0  0  0  0
 16 17  1  0  0  0  0
 16 38  1  0  0  0  0
 17 18  1  0  0  0  0
 17 39  1  0  0  0  0
 17 40  1  0  0  0  0
 18 19  1  0  0  0  0
 18 41  1  0  0  0  0
 18 42  1  0  0  0  0
 19 24  1  0  0  0  0
 19 20  1  0  0  0  0
 19 52  1  0  0  0  0
 20 21  1  0  0  0  0
 20 43  1  0  0  0  0
 20 44  1  0  0  0  0
 21 22  1  0  0  0  0
 21 45  1  0  0  0  0
 21 46  1  0  0  0  0
 22 23  1  0  0  0  0
 22 47  1  0  0  0  0
 22 48  1  0  0  0  0
 23 24  1  0  0  0  0
 23 49  1  0  0  0  0
 23 50  1  0  0  0  0
 24 51  1  0  0  0  0
M  CHG  1  19   1
M  END
> <s_m_source_file>
AV-unprocessed.smi

> <i_m_source_file_index>
1867

> <i_lp_mmshare_version>
43012

> <i_f3d_flags>
0

> <s_epik_input>
W0NIMl0xW0NIMl1bQ0gyXVtDSDJdW0NASF0oTjEyKVtDQEBIXShbQ0gyXVtDSDJdMilbTkhdQyg9TylbTkhdYzNbY0hdW2NIXWMobltjSF0zKU40W0NIMl1bQ0gyXVtDSDJdW0NIMl00

> <s_epik_cmdline>
J2VwaWtfcHl0aG9uJywgJy1waCcsICc3LjAnLCAnLXRuJywgJzgnLCAnLW1hJywgJzIwMCcsICctbWV0YWxfYmluZGluZycsICctaW1hZScsICc8aW5maWxlLm1hZT4nLCAnLW9tYWUnLCAnPG91dGZpbGUubWFlPic=

> <r_lp_tautomer_probability>
1

> <r_epik_Ionization_Penalty>
0.0751123

> <r_epik_Ionization_Penalty_Charging>
0.000974069

> <r_epik_Ionization_Penalty_Neutral>
0.0741382

> <r_epik_State_Penalty>
0.0647261

> <r_epik_Charging_Adjusted_Penalty>
0.0657002

> <i_epik_Tot_Q>
1

> <i_epik_Tot_abs_Q>
1

> <r_epik_Metal_State_Penalty>
0.0580571

> <b_epik_Metal_Only>
0

> <s_lp_Force_Field>
OPLS_2005

> <r_lp_Energy>
77.2507

> <b_lp_Chiralities_Consistent>
1

> <s_lp_Variant>
AV-unprocessed.smi:1867-7

> <Gold.Version>
5.8.1

> <Gold.Id.Protein>
6NUR|6NUR_protein|mol2

> <Gold.PLP.Fitness>
48.3908

> <Gold.PLP.PLP>
-37.6726

> <Gold.PLP.part.hbond>
-4.0000

> <Gold.PLP.part.metal>
0.0000

> <Gold.PLP.part.buried>
-3.8664

> <Gold.PLP.part.nonpolar>
-29.3571

> <Gold.PLP.part.repulsive>
0.1018

> <Gold.PLP.ligand.clash>
0.0000

> <Gold.PLP.ligand.torsion>
0.5957

> <Gold.PLP.Chemscore.Hbond>
2.9160

> <Gold.PLP.Chemscore.CHOScore>
1.0000

> <Gold.PLP.Chemscore.Metal>
0.0000

> <Gold.Chemscore.Hbonds>
donor molecule, donor type, donor heavy atom, donor atom, acceptor molecule, acceptor atom, score
      L1  H     3    25       P1  7948  1.00
      L1  H    15    37       P1  7948  0.70
      L1  H    19    52       P1 10747  0.33
      P1  H  7989  7998       L1    13  0.75
      L1  C    14    36       P1  7957  1.00

> <Gold.PLP.Chemscore.Internal.Correction>
0.1615

> <Gold.Rescore>
     Score         DG    S(hbond)    S(metal)    S(lipo)     H(rot)  DE(clash)    DE(int)     intcor
     19.21     -21.33       1.94        0.00     101.94       1.00       0.03       2.08       ----

> <Gold.Chemscore.Fitness>
19.2147

> <Gold.Chemscore.DG>
-21.3287

> <Gold.Chemscore.ZeroCoef>
-5.4800

> <Gold.Chemscore.Hbond>
1.9405

> <Gold.Chemscore.Metal>
0.0000

> <Gold.Chemscore.Lipo>
101.9446

> <Gold.Chemscore.Internal_Hbond>
0.0000

> <Gold.Chemscore.DEClash>
0.0308

> <Gold.Chemscore.DEInternal>
2.0832

> <Gold.Chemscore.Rot>
1.0000

> <Gold.Chemscore.Internal.Correction>
   9.000000E+99

> <Gold.Chemscore.Hbonds>
donor molecule, donor type, donor heavy atom, donor atom, acceptor molecule, acceptor atom, score
      L1  H     3    25       P1  7948  0.63
      L1  H    15    37       P1  7948  0.10
      L1  H    19    52       P1 10747  0.33
      P1  H  7989  7998       L1    13  0.09

> <Gold.Chemscore.Hbond.Weighted>
-6.4812

> <Gold.Chemscore.Metal.Weighted>
-0.0000

> <Gold.Chemscore.Lipo.Weighted>
-11.9275

> <Gold.Chemscore.Internal_Hbond.Weighted>
0.0000

> <Gold.Chemscore.DEClash.Weighted>
0.0308

> <Gold.Chemscore.DEInternal.Weighted>
2.0832

> <Gold.Chemscore.Rot.Weighted>
2.5600

> <Gold.Chemscore.Internal.Correction.Weighted>
   9.000000E+99

> <Gold.Protein.RotatedTorsions>
[ 6907 6896 6895 6894 ] final  -22.74 input  -60.11 | X-H torsion
[ 7974 7965 7964 7962 ] final  -71.76 input  175.53 | X-H torsion
[ 8008 7997 7996 7995 ] final   -4.45 input   59.86 | X-H torsion
[ 10167 10162 10161 10158 ] final -117.13 input  -65.29 | X-H torsion
[ 10718 10713 10712 10709 ] final   -0.23 input   66.30 | X-H torsion
[ 10763 10752 10751 10750 ] final  -55.14 input  -60.55 | X-H torsion
[ 11005 11000 10999 10996 ] final  174.37 input  -57.11 | X-H torsion

> <Gold.Protein.ActiveResidues>
 VAL166  LYS551  ARG553  GLY616  TRP617  ASP618  TYR619  PRO620  LYS621  CYS622 
 ASP623  PHE694  ASN695  SER759  ASP760  ASP761  ALA762  ILE779  LEU786  VAL792 
 PHE793  MET794  SER795  GLU796  ALA797  LYS798  CYS799  TRP800  GLU811  SER814 

> <Gold.Protein.RotatedAtoms>
  151.2142  135.0493  159.8923 H   0  0  0  0  0  0  0  0  0  0  0  0  # atno 6907 bound_to 6896
  152.5422  134.0711  159.8204 H   0  0  0  0  0  0  0  0  0  0  0  0  # atno 6908 bound_to 6896
  151.0869  133.5298  159.2649 H   0  0  0  0  0  0  0  0  0  0  0  0  # atno 6909 bound_to 6896
  145.6739  140.9211  143.0868 H   0  0  0  0  0  0  0  0  0  0  0  0  # atno 7974 bound_to 7965
  154.6141  140.2483  155.7631 H   0  0  0  0  0  0  0  0  0  0  0  0  # atno 8008 bound_to 7997
  156.2388  140.2940  156.0337 H   0  0  0  0  0  0  0  0  0  0  0  0  # atno 8009 bound_to 7997
  155.2003  140.0394  157.2906 H   0  0  0  0  0  0  0  0  0  0  0  0  # atno 8010 bound_to 7997
  140.0717  143.4871  152.1976 H   0  0  0  0  0  0  0  0  0  0  0  0  # atno 10167 bound_to 10162
  156.8234  130.5464  149.5694 H   0  0  0  0  0  0  0  0  0  0  0  0  # atno 10718 bound_to 10713
  154.1860  135.6435  153.5047 H   0  0  0  0  0  0  0  0  0  0  0  0  # atno 10763 bound_to 10752
  153.0047  135.5417  154.6465 H   0  0  0  0  0  0  0  0  0  0  0  0  # atno 10764 bound_to 10752
  154.5841  135.2928  155.0675 H   0  0  0  0  0  0  0  0  0  0  0  0  # atno 10765 bound_to 10752
  140.3506  134.7198  157.4265 H   0  0  0  0  0  0  0  0  0  0  0  0  # atno 11005 bound_to 11000
  144.7048  139.8608  143.7433 LP  0  0  0  0  0  0  0  0  0  0  0  0  # atno 17320 bound_to 7965
  146.1022  139.4018  143.0340 LP  0  0  0  0  0  0  0  0  0  0  0  0  # atno 17321 bound_to 7965
  139.5832  144.7519  151.3587 LP  0  0  0  0  0  0  0  0  0  0  0  0  # atno 17342 bound_to 10162
  140.7122  143.7360  150.7588 LP  0  0  0  0  0  0  0  0  0  0  0  0  # atno 17343 bound_to 10162
  156.0975  130.5944  150.9839 LP  0  0  0  0  0  0  0  0  0  0  0  0  # atno 17370 bound_to 10713
  157.6445  131.0906  150.8183 LP  0  0  0  0  0  0  0  0  0  0  0  0  # atno 17371 bound_to 10713
  140.0706  134.5867  155.8646 LP  0  0  0  0  0  0  0  0  0  0  0  0  # atno 17394 bound_to 11000
  141.2013  133.6618  156.5944 LP  0  0  0  0  0  0  0  0  0  0  0  0  # atno 17395 bound_to 11000

$$$$
