AV-unprocessed.smi:2453|AV-procd|sdf|9694|dock4
  -GOLD-   2272013333D 1   1.00000     0.00000
 Structure written by MMmdl.
 41 42  0  0  0  0  0  0  0  0  2 V2000
  148.6322  133.0667  152.9670 C   0  0  0  0  0  0  0  0  0  0  0  0
  149.3491  132.9069  154.2963 C   0  0  0  0  0  0  0  0  0  0  0  0
  149.5285  131.6154  154.8383 C   0  0  0  0  0  0  0  0  0  0  0  0
  150.1653  131.4572  156.0178 N   0  3  0  0  0  0  0  0  0  0  0  0
  150.6574  132.4948  156.7257 C   0  0  0  0  0  0  0  0  0  0  0  0
  150.5128  133.8091  156.2394 C   0  0  0  0  0  0  0  0  0  0  0  0
  149.8384  134.0307  155.0110 C   0  0  0  0  0  0  0  0  0  0  0  0
  149.6726  135.3248  154.4403 N   0  0  0  0  0  0  0  0  0  0  0  0
  149.9065  136.5257  154.9966 C   0  0  0  0  0  0  0  0  0  0  0  0
  150.2838  136.7120  156.1532 O   0  0  0  0  0  0  0  0  0  0  0  0
  149.6599  137.5172  154.1285 N   0  0  0  0  0  0  0  0  0  0  0  0
  149.8090  138.9441  154.4097 C   0  0  1  0  0  0  0  0  0  0  0  0
  148.5358  139.4726  155.1047 C   0  0  0  0  0  0  0  0  0  0  0  0
  148.6678  140.9549  155.4816 C   0  0  0  0  0  0  0  0  0  0  0  0
  149.8993  141.1894  156.3663 C   0  0  0  0  0  0  0  0  0  0  0  0
  151.1761  140.6875  155.6756 C   0  0  0  0  0  0  0  0  0  0  0  0
  151.0685  139.1988  155.2795 C   0  0  2  0  0  0  0  0  0  0  0  0
  152.3794  138.6844  154.6427 C   0  0  0  0  0  0  0  0  0  0  0  0
  153.4872  138.8730  155.4996 O   0  0  0  0  0  0  0  0  0  0  0  0
  148.3102  132.1029  152.5715 H   0  0  0  0  0  0  0  0  0  0  0  0
  149.2907  133.5296  152.2314 H   0  0  0  0  0  0  0  0  0  0  0  0
  147.7482  133.6945  153.0838 H   0  0  0  0  0  0  0  0  0  0  0  0
  149.1856  130.7063  154.3658 H   0  0  0  0  0  0  0  0  0  0  0  0
  151.1561  132.2444  157.6508 H   0  0  0  0  0  0  0  0  0  0  0  0
  150.9348  134.6198  156.8131 H   0  0  0  0  0  0  0  0  0  0  0  0
  149.2780  135.3387  153.5113 H   0  0  0  0  0  0  0  0  0  0  0  0
  149.3494  137.2709  153.2000 H   0  0  0  0  0  0  0  0  0  0  0  0
  149.9319  139.4809  153.4669 H   0  0  0  0  0  0  0  0  0  0  0  0
  147.6696  139.3412  154.4552 H   0  0  0  0  0  0  0  0  0  0  0  0
  148.3368  138.8885  156.0044 H   0  0  0  0  0  0  0  0  0  0  0  0
  148.7463  141.5575  154.5760 H   0  0  0  0  0  0  0  0  0  0  0  0
  147.7680  141.2889  155.9990 H   0  0  0  0  0  0  0  0  0  0  0  0
  149.9944  142.2509  156.5974 H   0  0  0  0  0  0  0  0  0  0  0  0
  149.7706  140.6754  157.3197 H   0  0  0  0  0  0  0  0  0  0  0  0
  151.3657  141.2952  154.7898 H   0  0  0  0  0  0  0  0  0  0  0  0
  152.0291  140.8363  156.3384 H   0  0  0  0  0  0  0  0  0  0  0  0
  150.9380  138.6380  156.2068 H   0  0  0  0  0  0  0  0  0  0  0  0
  152.2949  137.6218  154.4131 H   0  0  0  0  0  0  0  0  0  0  0  0
  152.5786  139.1896  153.6975 H   0  0  0  0  0  0  0  0  0  0  0  0
  153.6106  138.0872  156.0100 H   0  0  0  0  0  0  0  0  0  0  0  0
  150.2838  130.5133  156.3871 H   0  0  0  0  0  0  0  0  0  0  0  0
  1  2  1  0  0  0  0
  1 20  1  0  0  0  0
  1 21  1  0  0  0  0
  1 22  1  0  0  0  0
  2  7  1  0  0  0  0
  2  3  2  0  0  0  0
  3  4  1  0  0  0  0
  3 23  1  0  0  0  0
  4  5  2  0  0  0  0
  4 41  1  0  0  0  0
  5  6  1  0  0  0  0
  5 24  1  0  0  0  0
  6  7  2  0  0  0  0
  6 25  1  0  0  0  0
  7  8  1  0  0  0  0
  8  9  1  0  0  0  0
  8 26  1  0  0  0  0
  9 10  2  0  0  0  0
  9 11  1  0  0  0  0
 11 12  1  0  0  0  0
 11 27  1  0  0  0  0
 12 17  1  0  0  0  0
 12 13  1  0  0  0  0
 12 28  1  0  0  0  0
 13 14  1  0  0  0  0
 13 29  1  0  0  0  0
 13 30  1  0  0  0  0
 14 15  1  0  0  0  0
 14 31  1  0  0  0  0
 14 32  1  0  0  0  0
 15 16  1  0  0  0  0
 15 33  1  0  0  0  0
 15 34  1  0  0  0  0
 16 17  1  0  0  0  0
 16 35  1  0  0  0  0
 16 36  1  0  0  0  0
 17 18  1  0  0  0  0
 17 37  1  0  0  0  0
 18 19  1  0  0  0  0
 18 38  1  0  0  0  0
 18 39  1  0  0  0  0
 19 40  1  0  0  0  0
M  CHG  1   4   1
M  END
> <s_m_source_file>
AV-unprocessed.smi

> <i_m_source_file_index>
2453

> <i_lp_mmshare_version>
43012

> <i_f3d_flags>
0

> <s_epik_input>
W0NIM11jMVtjSF1uW2NIXVtjSF1jMVtOSF1DKD1PKVtOSF1bQ0BASF0yW0NIMl1bQ0gyXVtDSDJdW0NIMl1bQ0BIXTJbQ0gyXVtPSF0=

> <s_epik_cmdline>
J2VwaWtfcHl0aG9uJywgJy1waCcsICc3LjAnLCAnLXRuJywgJzgnLCAnLW1hJywgJzIwMCcsICctbWV0YWxfYmluZGluZycsICctaW1hZScsICc8aW5maWxlLm1hZT4nLCAnLW9tYWUnLCAnPG91dGZpbGUubWFlPic=

> <r_epik_Ionization_Penalty>
0.71493

> <r_epik_Ionization_Penalty_Charging>
0.714909

> <r_epik_Ionization_Penalty_Neutral>
2.10174e-05

> <r_epik_State_Penalty>
0.738815

> <r_epik_Charging_Adjusted_Penalty>
1.45372

> <i_epik_Tot_Q>
1

> <i_epik_Tot_abs_Q>
1

> <r_epik_Metal_State_Penalty>
0.896004

> <b_epik_Metal_Only>
0

> <s_lp_Force_Field>
OPLS_2005

> <r_lp_Energy>
25.5942

> <b_lp_Chiralities_Consistent>
1

> <s_lp_Variant>
AV-unprocessed.smi:2453-8

> <Gold.Version>
5.8.1

> <Gold.Id.Protein>
6NUR|6NUR_protein|mol2

> <Gold.PLP.Fitness>
42.1019

> <Gold.PLP.PLP>
-33.8457

> <Gold.PLP.part.hbond>
-3.0000

> <Gold.PLP.part.metal>
0.0000

> <Gold.PLP.part.buried>
-3.7093

> <Gold.PLP.part.nonpolar>
-27.7122

> <Gold.PLP.part.repulsive>
0.0948

> <Gold.PLP.ligand.clash>
0.0000

> <Gold.PLP.ligand.torsion>
0.3446

> <Gold.PLP.Chemscore.Hbond>
2.9760

> <Gold.PLP.Chemscore.CHOScore>
0.0000

> <Gold.PLP.Chemscore.Metal>
0.0000

> <Gold.Chemscore.Hbonds>
donor molecule, donor type, donor heavy atom, donor atom, acceptor molecule, acceptor atom, score
      L1  H     8    26       P1  7948  1.00
      L1  H    11    27       P1  7948  1.00
      P1  H  7997  8008       L1    19  0.98

> <Gold.PLP.Chemscore.Internal.Correction>
0.0175

> <Gold.Rescore>
     Score         DG    S(hbond)    S(metal)    S(lipo)     H(rot)  DE(clash)    DE(int)     intcor
     14.79     -17.82       2.45        0.00      74.25       1.77       0.02       3.01       ----

> <Gold.Chemscore.Fitness>
14.7932

> <Gold.Chemscore.DG>
-17.8202

> <Gold.Chemscore.ZeroCoef>
-5.4800

> <Gold.Chemscore.Hbond>
2.4535

> <Gold.Chemscore.Metal>
0.0000

> <Gold.Chemscore.Lipo>
74.2523

> <Gold.Chemscore.Internal_Hbond>
0.0000

> <Gold.Chemscore.DEClash>
0.0170

> <Gold.Chemscore.DEInternal>
3.0100

> <Gold.Chemscore.Rot>
1.7742

> <Gold.Chemscore.Internal.Correction>
   9.000000E+99

> <Gold.Chemscore.Hbonds>
donor molecule, donor type, donor heavy atom, donor atom, acceptor molecule, acceptor atom, score
      L1  H     8    26       P1  7948  0.24
      L1  H    11    27       P1  7948  0.95
      P1  H  7997  8008       L1    19  0.79

> <Gold.Chemscore.Hbond.Weighted>
-8.1946

> <Gold.Chemscore.Metal.Weighted>
-0.0000

> <Gold.Chemscore.Lipo.Weighted>
-8.6875

> <Gold.Chemscore.Internal_Hbond.Weighted>
0.0000

> <Gold.Chemscore.DEClash.Weighted>
0.0170

> <Gold.Chemscore.DEInternal.Weighted>
3.0100

> <Gold.Chemscore.Rot.Weighted>
4.5419

> <Gold.Chemscore.Internal.Correction.Weighted>
   9.000000E+99

> <Gold.Protein.RotatedTorsions>
[ 6907 6896 6895 6894 ] final   31.29 input  -60.11 | X-H torsion
[ 7974 7965 7964 7962 ] final   -8.58 input  175.53 | X-H torsion
[ 8008 7997 7996 7995 ] final  -26.04 input   59.86 | X-H torsion
[ 10167 10162 10161 10158 ] final  144.49 input  -65.29 | X-H torsion
[ 10718 10713 10712 10709 ] final   43.15 input   66.30 | X-H torsion
[ 10763 10752 10751 10750 ] final  125.87 input  -60.55 | X-H torsion
[ 11005 11000 10999 10996 ] final   65.32 input  -57.11 | X-H torsion

> <Gold.Protein.ActiveResidues>
 VAL166  LYS551  ARG553  GLY616  TRP617  ASP618  TYR619  PRO620  LYS621  CYS622 
 ASP623  PHE694  ASN695  SER759  ASP760  ASP761  ALA762  ILE779  LEU786  VAL792 
 PHE793  MET794  SER795  GLU796  ALA797  LYS798  CYS799  TRP800  GLU811  SER814 

> <Gold.Protein.RotatedAtoms>
  152.0582  134.9611  160.0574 H   0  0  0  0  0  0  0  0  0  0  0  0  # atno 6907 bound_to 6896
  152.0985  133.4232  159.4584 H   0  0  0  0  0  0  0  0  0  0  0  0  # atno 6908 bound_to 6896
  150.6838  134.2707  159.4630 H   0  0  0  0  0  0  0  0  0  0  0  0  # atno 6909 bound_to 6896
  146.2276  140.2489  142.8346 H   0  0  0  0  0  0  0  0  0  0  0  0  # atno 7974 bound_to 7965
  154.4445  140.1910  156.0713 H   0  0  0  0  0  0  0  0  0  0  0  0  # atno 8008 bound_to 7997
  156.0509  140.3308  155.7323 H   0  0  0  0  0  0  0  0  0  0  0  0  # atno 8009 bound_to 7997
  155.5559  140.0599  157.2830 H   0  0  0  0  0  0  0  0  0  0  0  0  # atno 8010 bound_to 7997
  139.4946  144.5968  151.6565 H   0  0  0  0  0  0  0  0  0  0  0  0  # atno 10167 bound_to 10162
  157.4128  130.7924  149.7445 H   0  0  0  0  0  0  0  0  0  0  0  0  # atno 10718 bound_to 10713
  153.6842  135.3309  155.3186 H   0  0  0  0  0  0  0  0  0  0  0  0  # atno 10763 bound_to 10752
  154.8457  135.4416  154.1575 H   0  0  0  0  0  0  0  0  0  0  0  0  # atno 10764 bound_to 10752
  153.2599  135.6990  153.7666 H   0  0  0  0  0  0  0  0  0  0  0  0  # atno 10765 bound_to 10752
  139.9902  134.6604  156.0105 H   0  0  0  0  0  0  0  0  0  0  0  0  # atno 11005 bound_to 11000
  144.9427  140.8095  143.5620 LP  0  0  0  0  0  0  0  0  0  0  0  0  # atno 17320 bound_to 7965
  145.2442  139.2059  143.4976 LP  0  0  0  0  0  0  0  0  0  0  0  0  # atno 17321 bound_to 7965
  140.5608  144.0271  150.6169 LP  0  0  0  0  0  0  0  0  0  0  0  0  # atno 17342 bound_to 10162
  140.3357  143.3050  152.0641 LP  0  0  0  0  0  0  0  0  0  0  0  0  # atno 17343 bound_to 10162
  155.9856  130.3982  150.3255 LP  0  0  0  0  0  0  0  0  0  0  0  0  # atno 17370 bound_to 10713
  157.1395  131.0293  151.2934 LP  0  0  0  0  0  0  0  0  0  0  0  0  # atno 17371 bound_to 10713
  141.1559  133.6543  156.4160 LP  0  0  0  0  0  0  0  0  0  0  0  0  # atno 17394 bound_to 11000
  140.4924  134.6563  157.5216 LP  0  0  0  0  0  0  0  0  0  0  0  0  # atno 17395 bound_to 11000

$$$$
