AV-unprocessed.smi:3128|AV-procd|sdf|11919|dock7
  -GOLD-   2272017303D 1   1.00000     0.00000
 Structure written by MMmdl.
 40 40  0  0  0  0  0  0  0  0  2 V2000
  145.5825  132.5382  150.8066 C   0  0  0  0  0  0  0  0  0  0  0  0
  146.4280  133.7567  151.2254 C   0  0  0  0  0  0  0  0  0  0  0  0
  147.5690  133.2942  152.1497 C   0  0  0  0  0  0  0  0  0  0  0  0
  145.5653  134.8765  151.8661 C   0  0  1  0  0  0  0  0  0  0  0  0
  145.3430  134.6889  153.3775 C   0  0  0  0  0  0  0  0  0  0  0  0
  146.1919  136.1818  151.6542 N   0  0  0  0  0  0  0  0  0  0  0  0
  145.7553  137.3554  152.1381 C   0  0  0  0  0  0  0  0  0  0  0  0
  144.7494  137.4717  152.8391 O   0  0  0  0  0  0  0  0  0  0  0  0
  146.5999  138.5803  151.7836 C   0  0  0  0  0  0  0  0  0  0  0  0
  147.9406  138.5320  152.4016 N   0  3  0  0  0  0  0  0  0  0  0  0
  147.9380  138.7726  153.8574 C   0  0  0  0  0  0  0  0  0  0  0  0
  148.9593  139.8521  154.2431 C   0  0  0  0  0  0  0  0  0  0  0  0
  150.2699  139.2837  154.4923 N   0  0  0  0  0  0  0  0  0  0  0  0
  150.6888  137.9808  154.3204 C   0  0  0  0  0  0  0  0  0  0  0  0
  152.0029  137.9256  154.6876 C   0  0  0  0  0  0  0  0  0  0  0  0
  152.3035  139.2624  155.0721 C   0  0  0  0  0  0  0  0  0  0  0  0
  151.2637  140.0729  154.9539 N   0  0  0  0  0  0  0  0  0  0  0  0
  145.0570  132.1106  151.6612 H   0  0  0  0  0  0  0  0  0  0  0  0
  146.2081  131.7547  150.3777 H   0  0  0  0  0  0  0  0  0  0  0  0
  144.8385  132.7967  150.0530 H   0  0  0  0  0  0  0  0  0  0  0  0
  146.8865  134.1578  150.3202 H   0  0  0  0  0  0  0  0  0  0  0  0
  147.1857  132.9448  153.1090 H   0  0  0  0  0  0  0  0  0  0  0  0
  148.2833  134.0939  152.3441 H   0  0  0  0  0  0  0  0  0  0  0  0
  148.1305  132.4748  151.6998 H   0  0  0  0  0  0  0  0  0  0  0  0
  144.5872  134.8577  151.3816 H   0  0  0  0  0  0  0  0  0  0  0  0
  144.7628  133.7921  153.5932 H   0  0  0  0  0  0  0  0  0  0  0  0
  144.7912  135.5298  153.7994 H   0  0  0  0  0  0  0  0  0  0  0  0
  146.2905  134.6130  153.9121 H   0  0  0  0  0  0  0  0  0  0  0  0
  147.0313  136.1875  151.0929 H   0  0  0  0  0  0  0  0  0  0  0  0
  146.7006  138.6325  150.6987 H   0  0  0  0  0  0  0  0  0  0  0  0
  146.0853  139.4854  152.1098 H   0  0  0  0  0  0  0  0  0  0  0  0
  148.3399  137.6217  152.2228 H   0  0  0  0  0  0  0  0  0  0  0  0
  146.9356  139.0743  154.1652 H   0  0  0  0  0  0  0  0  0  0  0  0
  148.1688  137.8412  154.3762 H   0  0  0  0  0  0  0  0  0  0  0  0
  149.0485  140.5933  153.4476 H   0  0  0  0  0  0  0  0  0  0  0  0
  148.6360  140.3849  155.1388 H   0  0  0  0  0  0  0  0  0  0  0  0
  150.0255  137.2100  153.9567 H   0  0  0  0  0  0  0  0  0  0  0  0
  152.6517  137.0624  154.6818 H   0  0  0  0  0  0  0  0  0  0  0  0
  153.2396  139.6648  155.4308 H   0  0  0  0  0  0  0  0  0  0  0  0
  148.5211  139.2298  151.9575 H   0  0  0  0  0  0  0  0  0  0  0  0
  1  2  1  0  0  0  0
  1 18  1  0  0  0  0
  1 19  1  0  0  0  0
  1 20  1  0  0  0  0
  2  3  1  0  0  0  0
  2  4  1  0  0  0  0
  2 21  1  0  0  0  0
  3 22  1  0  0  0  0
  3 23  1  0  0  0  0
  3 24  1  0  0  0  0
  4  5  1  0  0  0  0
  4  6  1  0  0  0  0
  4 25  1  0  0  0  0
  5 26  1  0  0  0  0
  5 27  1  0  0  0  0
  5 28  1  0  0  0  0
  6  7  1  0  0  0  0
  6 29  1  0  0  0  0
  7  8  2  0  0  0  0
  7  9  1  0  0  0  0
  9 10  1  0  0  0  0
  9 30  1  0  0  0  0
  9 31  1  0  0  0  0
 10 11  1  0  0  0  0
 10 32  1  0  0  0  0
 10 40  1  0  0  0  0
 11 12  1  0  0  0  0
 11 33  1  0  0  0  0
 11 34  1  0  0  0  0
 12 13  1  0  0  0  0
 12 35  1  0  0  0  0
 12 36  1  0  0  0  0
 13 17  1  0  0  0  0
 13 14  1  0  0  0  0
 14 15  2  0  0  0  0
 14 37  1  0  0  0  0
 15 16  1  0  0  0  0
 15 38  1  0  0  0  0
 16 17  2  0  0  0  0
 16 39  1  0  0  0  0
M  CHG  1  10   1
M  END
> <s_m_source_file>
AV-unprocessed.smi

> <i_m_source_file_index>
3128

> <i_lp_mmshare_version>
43012

> <i_f3d_flags>
0

> <s_epik_input>
W0NIM11bQ0hdKFtDSDNdKVtDQEhdKFtDSDNdKVtOSF1DKD1PKVtDSDJdW05IXVtDSDJdW0NIMl1uMVtjSF1bY0hdW2NIXW4x

> <s_epik_cmdline>
J2VwaWtfcHl0aG9uJywgJy1waCcsICc3LjAnLCAnLXRuJywgJzgnLCAnLW1hJywgJzIwMCcsICctbWV0YWxfYmluZGluZycsICctaW1hZScsICc8aW5maWxlLm1hZT4nLCAnLW9tYWUnLCAnPG91dGZpbGUubWFlPic=

> <r_lp_tautomer_probability>
1

> <r_epik_Ionization_Penalty>
0.20724

> <r_epik_Ionization_Penalty_Charging>
0.207237

> <r_epik_Ionization_Penalty_Neutral>
3.20642e-06

> <r_epik_State_Penalty>
0.197613

> <r_epik_Charging_Adjusted_Penalty>
0.40485

> <i_epik_Tot_Q>
1

> <i_epik_Tot_abs_Q>
1

> <r_epik_Metal_State_Penalty>
0.197789

> <b_epik_Metal_Only>
0

> <s_lp_Force_Field>
OPLS_2005

> <r_lp_Energy>
4.49363

> <b_lp_Chiralities_Consistent>
1

> <s_lp_Variant>
AV-unprocessed.smi:3128-2

> <Gold.Version>
5.8.1

> <Gold.Id.Protein>
6NUR|6NUR_protein|mol2

> <Gold.PLP.Fitness>
49.8636

> <Gold.PLP.PLP>
-35.8128

> <Gold.PLP.part.hbond>
-4.0000

> <Gold.PLP.part.metal>
0.0000

> <Gold.PLP.part.buried>
-2.5992

> <Gold.PLP.part.nonpolar>
-31.1412

> <Gold.PLP.part.repulsive>
0.4115

> <Gold.PLP.ligand.clash>
0.0000

> <Gold.PLP.ligand.torsion>
1.2314

> <Gold.PLP.Chemscore.Hbond>
4.4620

> <Gold.PLP.Chemscore.CHOScore>
1.0000

> <Gold.PLP.Chemscore.Metal>
0.0000

> <Gold.Chemscore.Hbonds>
donor molecule, donor type, donor heavy atom, donor atom, acceptor molecule, acceptor atom, score
      L1  H     6    29       P1  7948  0.53
      L1  H    10    32       P1  7948  2.00
      L1  H    10    40       P1  7957  1.00
      P1  H  7989  7998       L1    17  0.95
      L1  C    14    37       P1  7948  1.00

> <Gold.PLP.Chemscore.Internal.Correction>
0.1275

> <Gold.Rescore>
     Score         DG    S(hbond)    S(metal)    S(lipo)     H(rot)  DE(clash)    DE(int)     intcor
     14.89     -16.95       2.60        0.00      72.72       2.24       0.02       2.03       ----

> <Gold.Chemscore.Fitness>
14.8907

> <Gold.Chemscore.DG>
-16.9460

> <Gold.Chemscore.ZeroCoef>
-5.4800

> <Gold.Chemscore.Hbond>
2.6037

> <Gold.Chemscore.Metal>
0.0000

> <Gold.Chemscore.Lipo>
72.7196

> <Gold.Chemscore.Internal_Hbond>
0.0000

> <Gold.Chemscore.DEClash>
0.0241

> <Gold.Chemscore.DEInternal>
2.0313

> <Gold.Chemscore.Rot>
2.2416

> <Gold.Chemscore.Internal.Correction>
   9.000000E+99

> <Gold.Chemscore.Hbonds>
donor molecule, donor type, donor heavy atom, donor atom, acceptor molecule, acceptor atom, score
      L1  H     6    29       P1  7948  0.49
      L1  H    10    32       P1  7948  0.93
      L1  H    10    40       P1  7957  0.95
      P1  H  7989  7998       L1    17  0.06

> <Gold.Chemscore.Hbond.Weighted>
-8.6963

> <Gold.Chemscore.Metal.Weighted>
-0.0000

> <Gold.Chemscore.Lipo.Weighted>
-8.5082

> <Gold.Chemscore.Internal_Hbond.Weighted>
0.0000

> <Gold.Chemscore.DEClash.Weighted>
0.0241

> <Gold.Chemscore.DEInternal.Weighted>
2.0313

> <Gold.Chemscore.Rot.Weighted>
5.7385

> <Gold.Chemscore.Internal.Correction.Weighted>
   9.000000E+99

> <Gold.Protein.RotatedTorsions>
[ 6907 6896 6895 6894 ] final  -36.63 input  -60.11 | X-H torsion
[ 7974 7965 7964 7962 ] final  -61.17 input  175.53 | X-H torsion
[ 8008 7997 7996 7995 ] final -107.57 input   59.86 | X-H torsion
[ 10167 10162 10161 10158 ] final  -11.63 input  -65.29 | X-H torsion
[ 10718 10713 10712 10709 ] final  136.59 input   66.30 | X-H torsion
[ 10763 10752 10751 10750 ] final -135.39 input  -60.55 | X-H torsion
[ 11005 11000 10999 10996 ] final   14.52 input  -57.11 | X-H torsion

> <Gold.Protein.ActiveResidues>
 VAL166  LYS551  ARG553  GLY616  TRP617  ASP618  TYR619  PRO620  LYS621  CYS622 
 ASP623  PHE694  ASN695  SER759  ASP760  ASP761  ALA762  ILE779  LEU786  VAL792 
 PHE793  MET794  SER795  GLU796  ALA797  LYS798  CYS799  TRP800  GLU811  SER814 

> <Gold.Protein.RotatedAtoms>
  151.0248  134.9496  159.8078 H   0  0  0  0  0  0  0  0  0  0  0  0  # atno 6907 bound_to 6896
  152.5333  134.2857  159.9034 H   0  0  0  0  0  0  0  0  0  0  0  0  # atno 6908 bound_to 6896
  151.2865  133.4143  159.2664 H   0  0  0  0  0  0  0  0  0  0  0  0  # atno 6909 bound_to 6896
  145.8067  140.8623  143.0203 H   0  0  0  0  0  0  0  0  0  0  0  0  # atno 7974 bound_to 7965
  154.9314  140.0405  157.2050 H   0  0  0  0  0  0  0  0  0  0  0  0  # atno 8008 bound_to 7997
  154.8157  140.2875  155.5800 H   0  0  0  0  0  0  0  0  0  0  0  0  # atno 8009 bound_to 7997
  156.2975  140.2528  156.3055 H   0  0  0  0  0  0  0  0  0  0  0  0  # atno 8010 bound_to 7997
  140.7143  143.5619  150.9187 H   0  0  0  0  0  0  0  0  0  0  0  0  # atno 10167 bound_to 10162
  157.4451  131.1061  151.0099 H   0  0  0  0  0  0  0  0  0  0  0  0  # atno 10718 bound_to 10713
  154.8704  135.3705  154.4890 H   0  0  0  0  0  0  0  0  0  0  0  0  # atno 10763 bound_to 10752
  153.5538  135.7024  153.5584 H   0  0  0  0  0  0  0  0  0  0  0  0  # atno 10764 bound_to 10752
  153.3690  135.4026  155.1739 H   0  0  0  0  0  0  0  0  0  0  0  0  # atno 10765 bound_to 10752
  140.4686  134.1054  155.7728 H   0  0  0  0  0  0  0  0  0  0  0  0  # atno 11005 bound_to 11000
  144.6762  140.0337  143.7482 LP  0  0  0  0  0  0  0  0  0  0  0  0  # atno 17320 bound_to 7965
  145.9821  139.2949  143.1036 LP  0  0  0  0  0  0  0  0  0  0  0  0  # atno 17321 bound_to 7965
  139.9344  143.6455  152.3069 LP  0  0  0  0  0  0  0  0  0  0  0  0  # atno 17342 bound_to 10162
  139.6917  144.7646  151.1426 LP  0  0  0  0  0  0  0  0  0  0  0  0  # atno 17343 bound_to 10162
  157.0949  130.5957  149.5447 LP  0  0  0  0  0  0  0  0  0  0  0  0  # atno 17370 bound_to 10713
  155.9964  130.5033  150.7495 LP  0  0  0  0  0  0  0  0  0  0  0  0  # atno 17371 bound_to 10713
  141.1587  133.8833  157.1906 LP  0  0  0  0  0  0  0  0  0  0  0  0  # atno 17394 bound_to 11000
  139.9899  135.0068  156.9951 LP  0  0  0  0  0  0  0  0  0  0  0  0  # atno 17395 bound_to 11000

$$$$
