AV-unprocessed.smi:2426|AV-procd|sdf|9577|dock5
  -GOLD-   2272013213D 1   1.00000     0.00000
 Structure written by MMmdl.
 36 37  0  0  0  0  0  0  0  0  1 V2000
  149.6902  141.0585  155.0722 C   0  0  0  0  0  0  0  0  0  0  0  0
  151.0521  140.8221  155.4110 O   0  0  0  0  0  0  0  0  0  0  0  0
  151.5002  139.5178  155.4350 C   0  0  0  0  0  0  0  0  0  0  0  0
  150.6946  138.5004  154.8831 C   0  0  0  0  0  0  0  0  0  0  0  0
  151.1922  137.1787  154.9250 C   0  0  0  0  0  0  0  0  0  0  0  0
  150.3517  136.1848  154.3573 N   0  0  0  0  0  0  0  0  0  0  0  0
  150.1299  134.9350  154.8011 C   0  0  0  0  0  0  0  0  0  0  0  0
  150.6300  134.4405  155.8119 O   0  0  0  0  0  0  0  0  0  0  0  0
  149.2886  134.2756  153.9903 N   0  0  0  0  0  0  0  0  0  0  0  0
  148.8567  132.8897  154.1549 C   0  0  1  0  0  0  0  0  0  0  0  0
  147.9269  132.7924  155.3725 C   0  0  0  0  0  0  0  0  0  0  0  0
  148.1797  132.3970  152.8741 C   0  0  0  0  0  0  0  0  0  0  0  0
  146.9128  133.0953  152.3561 C   0  0  0  0  0  0  0  0  0  0  0  0
  146.4222  131.7337  151.8561 C   0  0  0  0  0  0  0  0  0  0  0  0
  147.3639  131.0942  152.8798 C   0  0  0  0  0  0  0  0  0  0  0  0
  152.4022  136.9288  155.4839 N   0  0  0  0  0  0  0  0  0  0  0  0
  153.0874  137.9606  155.9797 C   0  0  0  0  0  0  0  0  0  0  0  0
  152.7058  139.2384  155.9867 N   0  0  0  0  0  0  0  0  0  0  0  0
  149.4908  142.1294  155.1042 H   0  0  0  0  0  0  0  0  0  0  0  0
  149.0133  140.5750  155.7783 H   0  0  0  0  0  0  0  0  0  0  0  0
  149.4643  140.7095  154.0634 H   0  0  0  0  0  0  0  0  0  0  0  0
  149.7346  138.7314  154.4448 H   0  0  0  0  0  0  0  0  0  0  0  0
  149.8750  136.4517  153.5088 H   0  0  0  0  0  0  0  0  0  0  0  0
  148.9285  134.7652  153.1844 H   0  0  0  0  0  0  0  0  0  0  0  0
  149.7259  132.2639  154.3651 H   0  0  0  0  0  0  0  0  0  0  0  0
  147.6129  131.7627  155.5454 H   0  0  0  0  0  0  0  0  0  0  0  0
  147.0284  133.3954  155.2364 H   0  0  0  0  0  0  0  0  0  0  0  0
  148.4271  133.1377  156.2780 H   0  0  0  0  0  0  0  0  0  0  0  0
  148.9004  132.3483  152.0544 H   0  0  0  0  0  0  0  0  0  0  0  0
  146.2920  133.4975  153.1584 H   0  0  0  0  0  0  0  0  0  0  0  0
  147.0868  133.8347  151.5739 H   0  0  0  0  0  0  0  0  0  0  0  0
  145.3628  131.5387  152.0248 H   0  0  0  0  0  0  0  0  0  0  0  0
  146.7152  131.5291  150.8250 H   0  0  0  0  0  0  0  0  0  0  0  0
  147.9039  130.2170  152.5227 H   0  0  0  0  0  0  0  0  0  0  0  0
  146.8756  130.9029  153.8368 H   0  0  0  0  0  0  0  0  0  0  0  0
  154.0482  137.7388  156.4198 H   0  0  0  0  0  0  0  0  0  0  0  0
  1  2  1  0  0  0  0
  1 19  1  0  0  0  0
  1 20  1  0  0  0  0
  1 21  1  0  0  0  0
  2  3  1  0  0  0  0
  3 18  1  0  0  0  0
  3  4  2  0  0  0  0
  4  5  1  0  0  0  0
  4 22  1  0  0  0  0
  5  6  1  0  0  0  0
  5 16  2  0  0  0  0
  6  7  1  0  0  0  0
  6 23  1  0  0  0  0
  7  8  2  0  0  0  0
  7  9  1  0  0  0  0
  9 10  1  0  0  0  0
  9 24  1  0  0  0  0
 10 11  1  0  0  0  0
 10 12  1  0  0  0  0
 10 25  1  0  0  0  0
 11 26  1  0  0  0  0
 11 27  1  0  0  0  0
 11 28  1  0  0  0  0
 12 15  1  0  0  0  0
 12 13  1  0  0  0  0
 12 29  1  0  0  0  0
 13 14  1  0  0  0  0
 13 30  1  0  0  0  0
 13 31  1  0  0  0  0
 14 15  1  0  0  0  0
 14 32  1  0  0  0  0
 14 33  1  0  0  0  0
 15 34  1  0  0  0  0
 15 35  1  0  0  0  0
 16 17  1  0  0  0  0
 17 18  2  0  0  0  0
 17 36  1  0  0  0  0
M  END
> <s_m_source_file>
AV-unprocessed.smi

> <i_m_source_file_index>
2426

> <i_lp_mmshare_version>
43012

> <i_f3d_flags>
0

> <s_epik_input>
W0NIM11PYzFbY0hdYyhuW2NIXW4xKVtOSF1DKD1PKVtOSF1bQ0BIXShbQ0gzXSlbQ0hdMltDSDJdW0NIMl1bQ0gyXTI=

> <s_epik_cmdline>
J2VwaWtfcHl0aG9uJywgJy1waCcsICc3LjAnLCAnLXRuJywgJzgnLCAnLW1hJywgJzIwMCcsICctbWV0YWxfYmluZGluZycsICctaW1hZScsICc8aW5maWxlLm1hZT4nLCAnLW9tYWUnLCAnPG91dGZpbGUubWFlPic=

> <r_lp_tautomer_probability>
1

> <r_epik_Ionization_Penalty>
2.84534e-05

> <r_epik_Ionization_Penalty_Charging>
0

> <r_epik_Ionization_Penalty_Neutral>
2.84534e-05

> <r_epik_State_Penalty>
-0

> <r_epik_Charging_Adjusted_Penalty>
0

> <i_epik_Tot_Q>
0

> <i_epik_Tot_abs_Q>
0

> <r_epik_Metal_State_Penalty>
-0

> <b_epik_Metal_Only>
0

> <s_lp_Force_Field>
OPLS_2005

> <r_lp_Energy>
11.0753

> <b_lp_Chiralities_Consistent>
1

> <s_lp_Variant>
AV-unprocessed.smi:2426-2

> <Gold.Version>
5.8.1

> <Gold.Id.Protein>
6NUR|6NUR_protein|mol2

> <Gold.PLP.Fitness>
41.3583

> <Gold.PLP.PLP>
-30.4159

> <Gold.PLP.part.hbond>
-5.9518

> <Gold.PLP.part.metal>
0.0000

> <Gold.PLP.part.buried>
-1.1324

> <Gold.PLP.part.nonpolar>
-23.6253

> <Gold.PLP.part.repulsive>
0.1915

> <Gold.PLP.ligand.clash>
0.0000

> <Gold.PLP.ligand.torsion>
0.6552

> <Gold.PLP.Chemscore.Hbond>
4.0456

> <Gold.PLP.Chemscore.CHOScore>
0.0000

> <Gold.PLP.Chemscore.Metal>
0.0000

> <Gold.Chemscore.Hbonds>
donor molecule, donor type, donor heavy atom, donor atom, acceptor molecule, acceptor atom, score
      L1  H     6    23       P1  7948  0.95
      L1  H     9    24       P1  7948  0.85
      P1  H  7989  7998       L1     2  0.20
      P1  H  7997  8009       L1    18  1.00
      P1  H 10752 10765       L1    16  0.82

> <Gold.PLP.Chemscore.Internal.Correction>
0.1160

> <Gold.Rescore>
     Score         DG    S(hbond)    S(metal)    S(lipo)     H(rot)  DE(clash)    DE(int)     intcor
     14.74     -15.93       2.84        0.00      43.18       1.60       0.00       1.19       ----

> <Gold.Chemscore.Fitness>
14.7436

> <Gold.Chemscore.DG>
-15.9301

> <Gold.Chemscore.ZeroCoef>
-5.4800

> <Gold.Chemscore.Hbond>
2.8403

> <Gold.Chemscore.Metal>
0.0000

> <Gold.Chemscore.Lipo>
43.1799

> <Gold.Chemscore.Internal_Hbond>
0.0000

> <Gold.Chemscore.DEClash>
0.0013

> <Gold.Chemscore.DEInternal>
1.1852

> <Gold.Chemscore.Rot>
1.5971

> <Gold.Chemscore.Internal.Correction>
   9.000000E+99

> <Gold.Chemscore.Hbonds>
donor molecule, donor type, donor heavy atom, donor atom, acceptor molecule, acceptor atom, score
      L1  H     6    23       P1  7948  0.21
      L1  H     9    24       P1  7948  0.14
      P1  H  7997  8009       L1    18  0.30
      P1  H 10752 10765       L1    16  0.69

> <Gold.Chemscore.Hbond.Weighted>
-9.4867

> <Gold.Chemscore.Metal.Weighted>
-0.0000

> <Gold.Chemscore.Lipo.Weighted>
-5.0521

> <Gold.Chemscore.Internal_Hbond.Weighted>
0.0000

> <Gold.Chemscore.DEClash.Weighted>
0.0013

> <Gold.Chemscore.DEInternal.Weighted>
1.1852

> <Gold.Chemscore.Rot.Weighted>
4.0886

> <Gold.Chemscore.Internal.Correction.Weighted>
   9.000000E+99

> <Gold.Protein.RotatedTorsions>
[ 6907 6896 6895 6894 ] final  106.85 input  -60.11 | X-H torsion
[ 7974 7965 7964 7962 ] final  140.75 input  175.53 | X-H torsion
[ 8008 7997 7996 7995 ] final -162.00 input   59.86 | X-H torsion
[ 10167 10162 10161 10158 ] final -173.62 input  -65.29 | X-H torsion
[ 10718 10713 10712 10709 ] final   47.69 input   66.30 | X-H torsion
[ 10763 10752 10751 10750 ] final -158.86 input  -60.55 | X-H torsion
[ 11005 11000 10999 10996 ] final  -21.95 input  -57.11 | X-H torsion

> <Gold.Protein.ActiveResidues>
 VAL166  LYS551  ARG553  GLY616  TRP617  ASP618  TYR619  PRO620  LYS621  CYS622 
 ASP623  PHE694  ASN695  SER759  ASP760  ASP761  ALA762  ILE779  LEU786  VAL792 
 PHE793  MET794  SER795  GLU796  ALA797  LYS798  CYS799  TRP800  GLU811  SER814 

> <Gold.Protein.RotatedAtoms>
  152.5178  133.9320  159.7585 H   0  0  0  0  0  0  0  0  0  0  0  0  # atno 6907 bound_to 6896
  150.9669  133.6377  159.2751 H   0  0  0  0  0  0  0  0  0  0  0  0  # atno 6908 bound_to 6896
  151.3602  135.0908  159.9485 H   0  0  0  0  0  0  0  0  0  0  0  0  # atno 6909 bound_to 6896
  144.9158  139.5232  143.5687 H   0  0  0  0  0  0  0  0  0  0  0  0  # atno 7974 bound_to 7965
  155.8004  140.0891  157.1960 H   0  0  0  0  0  0  0  0  0  0  0  0  # atno 8008 bound_to 7997
  154.3982  140.1473  156.3327 H   0  0  0  0  0  0  0  0  0  0  0  0  # atno 8009 bound_to 7997
  155.8468  140.3436  155.5670 H   0  0  0  0  0  0  0  0  0  0  0  0  # atno 8010 bound_to 7997
  139.5678  144.1713  152.1339 H   0  0  0  0  0  0  0  0  0  0  0  0  # atno 10167 bound_to 10162
  157.4611  130.8197  149.7887 H   0  0  0  0  0  0  0  0  0  0  0  0  # atno 10718 bound_to 10713
  154.7522  135.3095  154.8536 H   0  0  0  0  0  0  0  0  0  0  0  0  # atno 10763 bound_to 10752
  153.9320  135.6784  153.4749 H   0  0  0  0  0  0  0  0  0  0  0  0  # atno 10764 bound_to 10752
  153.1118  135.4863  154.8977 H   0  0  0  0  0  0  0  0  0  0  0  0  # atno 10765 bound_to 10752
  140.8610  133.7788  156.0075 H   0  0  0  0  0  0  0  0  0  0  0  0  # atno 11005 bound_to 11000
  146.3181  139.8000  142.8967 LP  0  0  0  0  0  0  0  0  0  0  0  0  # atno 17320 bound_to 7965
  145.3378  141.0281  143.3410 LP  0  0  0  0  0  0  0  0  0  0  0  0  # atno 17321 bound_to 7965
  140.1240  144.5348  150.6845 LP  0  0  0  0  0  0  0  0  0  0  0  0  # atno 17342 bound_to 10162
  140.6962  143.2405  151.4994 LP  0  0  0  0  0  0  0  0  0  0  0  0  # atno 17343 bound_to 10162
  156.0029  130.3870  150.2538 LP  0  0  0  0  0  0  0  0  0  0  0  0  # atno 17370 bound_to 10713
  157.0715  131.0118  151.3188 LP  0  0  0  0  0  0  0  0  0  0  0  0  # atno 17371 bound_to 10713
  140.8682  134.2758  157.5203 LP  0  0  0  0  0  0  0  0  0  0  0  0  # atno 17394 bound_to 11000
  139.8707  134.9554  156.4204 LP  0  0  0  0  0  0  0  0  0  0  0  0  # atno 17395 bound_to 11000

$$$$
