AV-unprocessed.smi:2902|AV-procd|sdf|11157|dock4
  -GOLD-   2272016 43D 1   1.00000     0.00000
 Structure written by MMmdl.
 47 48  0  0  0  0  0  0  0  0  1 V2000
  148.2879  140.6048  154.6000 C   0  0  0  0  0  0  0  0  0  0  0  0
  149.2011  141.7852  154.9535 C   0  0  0  0  0  0  0  0  0  0  0  0
  150.0948  141.5007  156.1753 C   0  0  2  0  0  0  0  0  0  0  0  0
  150.9621  142.6216  156.3548 O   0  0  0  0  0  0  0  0  0  0  0  0
  151.0313  143.1878  157.6624 C   0  0  0  0  0  0  0  0  0  0  0  0
  151.8568  144.4761  157.7328 C   0  0  0  0  0  0  0  0  0  0  0  0
  152.3233  144.5667  159.1904 C   0  0  0  0  0  0  0  0  0  0  0  0
  152.2484  143.1400  159.7570 C   0  0  0  0  0  0  0  0  0  0  0  0
  151.7822  142.2470  158.6026 C   0  0  0  0  0  0  0  0  0  0  0  0
  150.9148  140.2147  155.9827 C   0  0  0  0  0  0  0  0  0  0  0  0
  151.6462  140.0820  155.0013 O   0  0  0  0  0  0  0  0  0  0  0  0
  150.7930  139.2864  156.9442 N   0  0  0  0  0  0  0  0  0  0  0  0
  151.4949  138.0059  156.9877 C   0  0  1  0  0  0  0  0  0  0  0  0
  152.4861  138.0087  158.1681 C   0  0  0  0  0  0  0  0  0  0  0  0
  150.4684  136.8461  157.0486 C   0  0  1  0  0  0  0  0  0  0  0  0
  151.1189  135.4584  156.8977 C   0  0  0  0  0  0  0  0  0  0  0  0
  149.6745  136.8902  158.2686 N   0  0  0  0  0  0  0  0  0  0  0  0
  148.7285  137.7460  158.6638 C   0  0  0  0  0  0  0  0  0  0  0  0
  148.2221  137.4724  159.8578 N   0  0  0  0  0  0  0  0  0  0  0  0
  148.9537  136.3606  160.1660 C   0  0  0  0  0  0  0  0  0  0  0  0
  149.8399  135.9714  159.2494 N   0  0  0  0  0  0  0  0  0  0  0  0
  147.6781  140.8338  153.7259 H   0  0  0  0  0  0  0  0  0  0  0  0
  147.6129  140.3672  155.4226 H   0  0  0  0  0  0  0  0  0  0  0  0
  148.8695  139.7105  154.3748 H   0  0  0  0  0  0  0  0  0  0  0  0
  149.8232  142.0155  154.0872 H   0  0  0  0  0  0  0  0  0  0  0  0
  148.5897  142.6702  155.1353 H   0  0  0  0  0  0  0  0  0  0  0  0
  149.4491  141.3859  157.0476 H   0  0  0  0  0  0  0  0  0  0  0  0
  150.0373  143.3621  158.0768 H   0  0  0  0  0  0  0  0  0  0  0  0
  152.7257  144.3902  157.0785 H   0  0  0  0  0  0  0  0  0  0  0  0
  151.2931  145.3562  157.4220 H   0  0  0  0  0  0  0  0  0  0  0  0
  153.3302  144.9794  159.2585 H   0  0  0  0  0  0  0  0  0  0  0  0
  151.6629  145.2237  159.7576 H   0  0  0  0  0  0  0  0  0  0  0  0
  153.2061  142.8069  160.1583 H   0  0  0  0  0  0  0  0  0  0  0  0
  151.5243  143.1067  160.5722 H   0  0  0  0  0  0  0  0  0  0  0  0
  151.1691  141.4099  158.9378 H   0  0  0  0  0  0  0  0  0  0  0  0
  152.6526  141.8347  158.0898 H   0  0  0  0  0  0  0  0  0  0  0  0
  150.1726  139.4883  157.7149 H   0  0  0  0  0  0  0  0  0  0  0  0
  152.0718  137.8905  156.0680 H   0  0  0  0  0  0  0  0  0  0  0  0
  153.0941  137.1045  158.1885 H   0  0  0  0  0  0  0  0  0  0  0  0
  151.9631  138.0797  159.1225 H   0  0  0  0  0  0  0  0  0  0  0  0
  153.1737  138.8528  158.1037 H   0  0  0  0  0  0  0  0  0  0  0  0
  149.7795  136.9721  156.2108 H   0  0  0  0  0  0  0  0  0  0  0  0
  151.6239  135.3524  155.9375 H   0  0  0  0  0  0  0  0  0  0  0  0
  150.3697  134.6682  156.9573 H   0  0  0  0  0  0  0  0  0  0  0  0
  151.8552  135.2777  157.6814 H   0  0  0  0  0  0  0  0  0  0  0  0
  148.4032  138.5845  158.0653 H   0  0  0  0  0  0  0  0  0  0  0  0
  148.8308  135.8229  161.0946 H   0  0  0  0  0  0  0  0  0  0  0  0
  1  2  1  0  0  0  0
  1 22  1  0  0  0  0
  1 23  1  0  0  0  0
  1 24  1  0  0  0  0
  2  3  1  0  0  0  0
  2 25  1  0  0  0  0
  2 26  1  0  0  0  0
  3  4  1  0  0  0  0
  3 10  1  0  0  0  0
  3 27  1  0  0  0  0
  4  5  1  0  0  0  0
  5  9  1  0  0  0  0
  5  6  1  0  0  0  0
  5 28  1  0  0  0  0
  6  7  1  0  0  0  0
  6 29  1  0  0  0  0
  6 30  1  0  0  0  0
  7  8  1  0  0  0  0
  7 31  1  0  0  0  0
  7 32  1  0  0  0  0
  8  9  1  0  0  0  0
  8 33  1  0  0  0  0
  8 34  1  0  0  0  0
  9 35  1  0  0  0  0
  9 36  1  0  0  0  0
 10 11  2  0  0  0  0
 10 12  1  0  0  0  0
 12 13  1  0  0  0  0
 12 37  1  0  0  0  0
 13 14  1  0  0  0  0
 13 15  1  0  0  0  0
 13 38  1  0  0  0  0
 14 39  1  0  0  0  0
 14 40  1  0  0  0  0
 14 41  1  0  0  0  0
 15 16  1  0  0  0  0
 15 17  1  0  0  0  0
 15 42  1  0  0  0  0
 16 43  1  0  0  0  0
 16 44  1  0  0  0  0
 16 45  1  0  0  0  0
 17 21  1  0  0  0  0
 17 18  1  0  0  0  0
 18 19  2  0  0  0  0
 18 46  1  0  0  0  0
 19 20  1  0  0  0  0
 20 21  2  0  0  0  0
 20 47  1  0  0  0  0
M  END
> <s_m_source_file>
AV-unprocessed.smi

> <i_m_source_file_index>
2902

> <i_lp_mmshare_version>
43012

> <i_f3d_flags>
0

> <s_epik_input>
W0NIMl0xW0NIMl1bQ0gyXVtDSDJdW0NIXTFPW0NAQEhdKFtDSDJdW0NIM10pQyg9TylbTkhdW0NASF0oW0NIM10pW0NASF0oW0NIM10pbjJbY0hdbltjSF1uMg==

> <s_epik_cmdline>
J2VwaWtfcHl0aG9uJywgJy1waCcsICc3LjAnLCAnLXRuJywgJzgnLCAnLW1hJywgJzIwMCcsICctbWV0YWxfYmluZGluZycsICctaW1hZScsICc8aW5maWxlLm1hZT4nLCAnLW9tYWUnLCAnPG91dGZpbGUubWFlPic=

> <r_lp_tautomer_probability>
1

> <r_epik_Ionization_Penalty>
6.95617e-05

> <r_epik_Ionization_Penalty_Charging>
0

> <r_epik_Ionization_Penalty_Neutral>
6.95617e-05

> <r_epik_State_Penalty>
-0

> <r_epik_Charging_Adjusted_Penalty>
0

> <i_epik_Tot_Q>
0

> <i_epik_Tot_abs_Q>
0

> <r_epik_Metal_State_Penalty>
-0

> <b_epik_Metal_Only>
0

> <s_lp_Force_Field>
OPLS_2005

> <r_lp_Energy>
29.96

> <b_lp_Chiralities_Consistent>
1

> <s_lp_Variant>
AV-unprocessed.smi:2902-7

> <Gold.Version>
5.8.1

> <Gold.Id.Protein>
6NUR|6NUR_protein|mol2

> <Gold.PLP.Fitness>
42.7384

> <Gold.PLP.PLP>
-37.0652

> <Gold.PLP.part.hbond>
-3.6871

> <Gold.PLP.part.metal>
0.0000

> <Gold.PLP.part.buried>
-3.3539

> <Gold.PLP.part.nonpolar>
-31.3372

> <Gold.PLP.part.repulsive>
0.2447

> <Gold.PLP.ligand.clash>
0.0000

> <Gold.PLP.ligand.torsion>
1.1645

> <Gold.PLP.Chemscore.Hbond>
2.5434

> <Gold.PLP.Chemscore.CHOScore>
0.0000

> <Gold.PLP.Chemscore.Metal>
0.0000

> <Gold.Chemscore.Hbonds>
donor molecule, donor type, donor heavy atom, donor atom, acceptor molecule, acceptor atom, score
      P1  H  6896  6907       L1    21  0.99
      P1  H  6931  6943       L1    19  0.02
      P1  H  6934  6947       L1    19  0.40
      P1  H  7989  7998       L1    11  1.00

> <Gold.PLP.Chemscore.Internal.Correction>
0.3720

> <Gold.Rescore>
     Score         DG    S(hbond)    S(metal)    S(lipo)     H(rot)  DE(clash)    DE(int)     intcor
     16.93     -18.08       2.67        0.00      90.54       2.69       0.05       1.11       ----

> <Gold.Chemscore.Fitness>
16.9309

> <Gold.Chemscore.DG>
-18.0830

> <Gold.Chemscore.ZeroCoef>
-5.4800

> <Gold.Chemscore.Hbond>
2.6663

> <Gold.Chemscore.Metal>
0.0000

> <Gold.Chemscore.Lipo>
90.5370

> <Gold.Chemscore.Internal_Hbond>
0.0000

> <Gold.Chemscore.DEClash>
0.0451

> <Gold.Chemscore.DEInternal>
1.1071

> <Gold.Chemscore.Rot>
2.6935

> <Gold.Chemscore.Internal.Correction>
   9.000000E+99

> <Gold.Chemscore.Hbonds>
donor molecule, donor type, donor heavy atom, donor atom, acceptor molecule, acceptor atom, score
      P1  H  6896  6907       L1    21  0.88
      P1  H  6934  6947       L1    19  0.38
      P1  H  7989  7998       L1    11  0.95

> <Gold.Chemscore.Hbond.Weighted>
-8.9056

> <Gold.Chemscore.Metal.Weighted>
-0.0000

> <Gold.Chemscore.Lipo.Weighted>
-10.5928

> <Gold.Chemscore.Internal_Hbond.Weighted>
0.0000

> <Gold.Chemscore.DEClash.Weighted>
0.0451

> <Gold.Chemscore.DEInternal.Weighted>
1.1071

> <Gold.Chemscore.Rot.Weighted>
6.8954

> <Gold.Chemscore.Internal.Correction.Weighted>
   9.000000E+99

> <Gold.Protein.RotatedTorsions>
[ 6907 6896 6895 6894 ] final  -70.63 input  -60.11 | X-H torsion
[ 7974 7965 7964 7962 ] final -170.51 input  175.53 | X-H torsion
[ 8008 7997 7996 7995 ] final   47.27 input   59.86 | X-H torsion
[ 10167 10162 10161 10158 ] final   88.08 input  -65.29 | X-H torsion
[ 10718 10713 10712 10709 ] final   41.53 input   66.30 | X-H torsion
[ 10763 10752 10751 10750 ] final  -47.98 input  -60.55 | X-H torsion
[ 11005 11000 10999 10996 ] final -170.30 input  -57.11 | X-H torsion

> <Gold.Protein.ActiveResidues>
 VAL166  LYS551  ARG553  GLY616  TRP617  ASP618  TYR619  PRO620  LYS621  CYS622 
 ASP623  PHE694  ASN695  SER759  ASP760  ASP761  ALA762  ILE779  LEU786  VAL792 
 PHE793  MET794  SER795  GLU796  ALA797  LYS798  CYS799  TRP800  GLU811  SER814 

> <Gold.Protein.RotatedAtoms>
  150.7249  134.5426  159.5754 H   0  0  0  0  0  0  0  0  0  0  0  0  # atno 6907 bound_to 6896
  152.2932  134.7694  160.0382 H   0  0  0  0  0  0  0  0  0  0  0  0  # atno 6908 bound_to 6896
  151.8300  133.3371  159.3647 H   0  0  0  0  0  0  0  0  0  0  0  0  # atno 6909 bound_to 6896
  144.7169  140.2061  143.6333 H   0  0  0  0  0  0  0  0  0  0  0  0  # atno 7974 bound_to 7965
  155.3663  140.3421  155.4242 H   0  0  0  0  0  0  0  0  0  0  0  0  # atno 8008 bound_to 7997
  156.1686  140.1624  156.8521 H   0  0  0  0  0  0  0  0  0  0  0  0  # atno 8009 bound_to 7997
  154.5210  140.0767  156.8154 H   0  0  0  0  0  0  0  0  0  0  0  0  # atno 8010 bound_to 7997
  139.8709  144.6493  150.8951 H   0  0  0  0  0  0  0  0  0  0  0  0  # atno 10167 bound_to 10162
  157.3947  130.7826  149.7298 H   0  0  0  0  0  0  0  0  0  0  0  0  # atno 10718 bound_to 10713
  154.0703  135.6605  153.4823 H   0  0  0  0  0  0  0  0  0  0  0  0  # atno 10763 bound_to 10752
  153.0393  135.5156  154.7573 H   0  0  0  0  0  0  0  0  0  0  0  0  # atno 10764 bound_to 10752
  154.6637  135.3019  154.9801 H   0  0  0  0  0  0  0  0  0  0  0  0  # atno 10765 bound_to 10752
  140.5210  134.5709  157.5048 H   0  0  0  0  0  0  0  0  0  0  0  0  # atno 11005 bound_to 11000
  145.8634  139.2234  143.1703 LP  0  0  0  0  0  0  0  0  0  0  0  0  # atno 17320 bound_to 7965
  146.0152  140.8399  142.9951 LP  0  0  0  0  0  0  0  0  0  0  0  0  # atno 17321 bound_to 7965
  140.7761  143.3665  151.1730 LP  0  0  0  0  0  0  0  0  0  0  0  0  # atno 17342 bound_to 10162
  139.7285  143.9110  152.3011 LP  0  0  0  0  0  0  0  0  0  0  0  0  # atno 17343 bound_to 10162
  155.9807  130.4027  150.3513 LP  0  0  0  0  0  0  0  0  0  0  0  0  # atno 17370 bound_to 10713
  157.1633  131.0350  151.2830 LP  0  0  0  0  0  0  0  0  0  0  0  0  # atno 17371 bound_to 10713
  139.9606  134.7459  156.0246 LP  0  0  0  0  0  0  0  0  0  0  0  0  # atno 17394 bound_to 11000
  141.1334  133.6581  156.3527 LP  0  0  0  0  0  0  0  0  0  0  0  0  # atno 17395 bound_to 11000

$$$$
