#       Name:                AV-unprocessed.smi:3347
#       Creating user name   scv26
#       Creation time:       Fri Mar 27 19:32:55 2020


#       File generated by GOLD software.
#

@<TRIPOS>MOLECULE
AV-unprocessed.smi:3347
    43    45     1
SMALL
NO_CHARGES


@<TRIPOS>ATOM
      1 ****        -1.2824   1.7828  -0.9955 O.2            1 S1                 0.0000
      2 ****        -1.7235   0.6936  -1.3614 C.2            1 S1                 0.0000
      3 ****        -0.9432  -0.3470  -1.6879 N.am           1 S1                 0.0000
      4 ****         0.5167  -0.3467  -1.6765 C.3            1 S1                 0.0000
      5 ****         1.0859  -0.8947  -0.3535 C.3            1 S1                 0.0000
      6 ****         0.7742  -0.0607   0.8886 C.3            1 S1                 0.0000
      7 ****         1.8315  -0.5333   1.8814 C.3            1 S1                 0.0000
      8 ****         3.0436  -0.7877   1.0740 N.4            1 S1                 1.0000
      9 ****         3.8991  -1.8704   1.6052 C.3            1 S1                 0.0000
     10 ****         4.8589  -1.4115   2.6768 C.3            1 S1                 0.0000
     11 ****         5.3633  -1.6979   1.2787 C.3            1 S1                 0.0000
     12 ****         2.6188  -0.9855  -0.3321 C.3            1 S1                 0.0000
     13 ****        -3.0251   0.3753  -1.4661 N.am           1 S1                 0.0000
     14 ****        -4.1615   1.1879  -1.2044 C.ar           1 S1                 0.0000
     15 ****        -4.1459   2.6039  -1.1894 C.ar           1 S1                 0.0000
     16 ****        -5.3463   3.2940  -0.9326 C.ar           1 S1                 0.0000
     17 ****        -6.5183   2.5461  -0.7086 C.ar           1 S1                 0.0000
     18 ****        -6.5510   1.1972  -0.7337 N.ar           1 S1                 0.0000
     19 ****        -5.3965   0.5423  -0.9807 C.ar           1 S1                 0.0000
     20 ****        -1.3940  -1.2040  -1.9741 H              1 S1                 0.0000
     21 ****         0.8519  -0.9736  -2.5034 H              1 S1                 0.0000
     22 ****         0.9048   0.6533  -1.8782 H              1 S1                 0.0000
     23 ****         0.6902  -1.8987  -0.1896 H              1 S1                 0.0000
     24 ****         0.9104   1.0011   0.6780 H              1 S1                 0.0000
     25 ****        -0.2420  -0.2054   1.2568 H              1 S1                 0.0000
     26 ****         2.0217   0.1943   2.6707 H              1 S1                 0.0000
     27 ****         1.4974  -1.4597   2.3518 H              1 S1                 0.0000
     28 ****         3.4558  -2.8639   1.6468 H              1 S1                 0.0000
     29 ****         4.8186  -0.3707   2.9932 H              1 S1                 0.0000
     30 ****         5.1190  -2.1247   3.4562 H              1 S1                 0.0000
     31 ****         5.9556  -2.5999   1.1378 H              1 S1                 0.0000
     32 ****         5.6585  -0.8476   0.6666 H              1 S1                 0.0000
     33 ****         2.9660  -1.9337  -0.7456 H              1 S1                 0.0000
     34 ****         3.0644  -0.1881  -0.9280 H              1 S1                 0.0000
     35 ****        -3.2288  -0.5832  -1.7089 H              1 S1                 0.0000
     36 ****        -3.2496   3.1725  -1.3813 H              1 S1                 0.0000
     37 ****        -5.3684   4.3735  -0.9127 H              1 S1                 0.0000
     38 ****        -7.4554   3.0449  -0.5099 H              1 S1                 0.0000
     39 ****        -5.4611  -0.5359  -0.9954 H              1 S1                 0.0000
     40 ****         3.5881   0.0630   1.0881 H              1 S1                 0.0000
     41 ****        -0.2949   1.9257  -0.9297 LP             1 S1                 0.0000
     42 ****        -1.9116   2.5248  -0.7641 LP             1 S1                 0.0000
     43 ****        -7.4032   0.6986  -0.5745 LP             1 S1                 0.0000
@<TRIPOS>BOND
    1    1    2 2     
    2    2    3 am    
    3    2   13 am    
    4    3    4 1     
    5    3   20 1     
    6    4    5 1     
    7    4   21 1     
    8    4   22 1     
    9    5   12 1     
   10    5    6 1     
   11    5   23 1     
   12    6    7 1     
   13    6   24 1     
   14    6   25 1     
   15    7    8 1     
   16    7   26 1     
   17    7   27 1     
   18    8    9 1     
   19    8   12 1     
   20    8   40 1     
   21    9   11 1     
   22    9   10 1     
   23    9   28 1     
   24   10   11 1     
   25   10   29 1     
   26   10   30 1     
   27   11   31 1     
   28   11   32 1     
   29   12   33 1     
   30   12   34 1     
   31   13   14 1     
   32   13   35 1     
   33   14   19 ar    
   34   14   15 ar    
   35   15   16 ar    
   36   15   36 1     
   37   16   17 ar    
   38   16   37 1     
   39   17   18 ar    
   40   17   38 1     
   41   18   19 ar    
   42   19   39 1     
   43    1   41 1     
   44    1   42 1     
   45   18   43 1     
@<TRIPOS>SUBSTRUCTURE
      1 S1             1
@<TRIPOS>SET
LONE_PAIRS      STATIC     ATOMS    <user>   **** ""
3 41 42 43
DONOR_HYDROGENS      STATIC     ATOMS    <user>   **** ""
3 20 40 35
ATOM$BLUE        STATIC     ATOMS    COLORGROUP SYSTEM
3 41 42 43
ATOM$RED        STATIC     ATOMS    COLORGROUP SYSTEM
3 20 40 35
