AV-unprocessed.smi:2134|AV-procd|sdf|8694|dock8
  -GOLD-   2272011453D 1   1.00000     0.00000
 Structure written by MMmdl.
 35 36  0  0  0  0  0  0  0  0  1 V2000
  150.1927  131.8222  158.5330 C   0  0  0  0  0  0  0  0  0  0  0  0
  149.7943  132.4658  157.2828 N   0  0  0  0  0  0  0  0  0  0  0  0
  150.4863  133.6203  156.9796 N   0  0  0  0  0  0  0  0  0  0  0  0
  150.1028  134.4257  156.0390 C   0  0  0  0  0  0  0  0  0  0  0  0
  150.8675  135.6718  155.7690 C   0  0  0  0  0  0  0  0  0  0  0  0
  151.8948  135.9331  156.3955 O   0  0  0  0  0  0  0  0  0  0  0  0
  150.3779  136.4634  154.7962 N   0  0  0  0  0  0  0  0  0  0  0  0
  151.0054  137.6827  154.2928 C   0  0  0  0  0  0  0  0  0  0  0  0
  150.7057  138.8973  155.1922 C   0  0  0  0  0  0  0  0  0  0  0  0
  149.5245  139.7267  154.7189 C   0  0  0  0  0  0  0  0  0  0  0  0
  149.6006  141.1342  154.6635 C   0  0  0  0  0  0  0  0  0  0  0  0
  148.4688  141.8588  154.2441 C   0  0  0  0  0  0  0  0  0  0  0  0
  147.3064  141.1427  153.8946 C   0  0  0  0  0  0  0  0  0  0  0  0
  147.2226  139.7957  153.9409 N   0  0  0  0  0  0  0  0  0  0  0  0
  148.3121  139.1084  154.3461 C   0  0  0  0  0  0  0  0  0  0  0  0
  148.8536  134.1307  155.2327 C   0  0  0  0  0  0  0  0  0  0  0  0
  148.5449  132.6215  155.1732 C   0  0  0  0  0  0  0  0  0  0  0  0
  148.8284  131.9183  156.5037 C   0  0  0  0  0  0  0  0  0  0  0  0
  148.2069  130.8980  156.8000 O   0  0  0  0  0  0  0  0  0  0  0  0
  150.5291  130.8004  158.3508 H   0  0  0  0  0  0  0  0  0  0  0  0
  149.3531  131.7859  159.2289 H   0  0  0  0  0  0  0  0  0  0  0  0
  151.0079  132.3538  159.0269 H   0  0  0  0  0  0  0  0  0  0  0  0
  149.5258  136.1704  154.3399 H   0  0  0  0  0  0  0  0  0  0  0  0
  152.0822  137.5196  154.2457 H   0  0  0  0  0  0  0  0  0  0  0  0
  150.6862  137.8882  153.2699 H   0  0  0  0  0  0  0  0  0  0  0  0
  150.5159  138.5588  156.2116 H   0  0  0  0  0  0  0  0  0  0  0  0
  151.5853  139.5398  155.2462 H   0  0  0  0  0  0  0  0  0  0  0  0
  150.5053  141.6517  154.9470 H   0  0  0  0  0  0  0  0  0  0  0  0
  148.4897  142.9374  154.1939 H   0  0  0  0  0  0  0  0  0  0  0  0
  146.4198  141.6668  153.5695 H   0  0  0  0  0  0  0  0  0  0  0  0
  148.2106  138.0336  154.3820 H   0  0  0  0  0  0  0  0  0  0  0  0
  148.0098  134.6662  155.6694 H   0  0  0  0  0  0  0  0  0  0  0  0
  148.9579  134.5014  154.2122 H   0  0  0  0  0  0  0  0  0  0  0  0
  147.5087  132.4581  154.8749 H   0  0  0  0  0  0  0  0  0  0  0  0
  149.1693  132.1494  154.4138 H   0  0  0  0  0  0  0  0  0  0  0  0
  1  2  1  0  0  0  0
  1 20  1  0  0  0  0
  1 21  1  0  0  0  0
  1 22  1  0  0  0  0
  2 18  1  0  0  0  0
  2  3  1  0  0  0  0
  3  4  2  0  0  0  0
  4  5  1  0  0  0  0
  4 16  1  0  0  0  0
  5  6  2  0  0  0  0
  5  7  1  0  0  0  0
  7  8  1  0  0  0  0
  7 23  1  0  0  0  0
  8  9  1  0  0  0  0
  8 24  1  0  0  0  0
  8 25  1  0  0  0  0
  9 10  1  0  0  0  0
  9 26  1  0  0  0  0
  9 27  1  0  0  0  0
 10 15  1  0  0  0  0
 10 11  2  0  0  0  0
 11 12  1  0  0  0  0
 11 28  1  0  0  0  0
 12 13  2  0  0  0  0
 12 29  1  0  0  0  0
 13 14  1  0  0  0  0
 13 30  1  0  0  0  0
 14 15  2  0  0  0  0
 15 31  1  0  0  0  0
 16 17  1  0  0  0  0
 16 32  1  0  0  0  0
 16 33  1  0  0  0  0
 17 18  1  0  0  0  0
 17 34  1  0  0  0  0
 17 35  1  0  0  0  0
 18 19  2  0  0  0  0
M  END
> <s_m_source_file>
AV-unprocessed.smi

> <i_m_source_file_index>
2134

> <i_lp_mmshare_version>
43012

> <i_f3d_flags>
0

> <s_epik_input>
Tz1DMVtDSDJdW0NIMl1DKD1OTjFbQ0gzXSlDKD1PKVtOSF1bQ0gyXVtDSDJdYzJbY0hdW2NIXVtjSF1uW2NIXTI=

> <s_epik_cmdline>
J2VwaWtfcHl0aG9uJywgJy1waCcsICc3LjAnLCAnLXRuJywgJzgnLCAnLW1hJywgJzIwMCcsICctbWV0YWxfYmluZGluZycsICctaW1hZScsICc8aW5maWxlLm1hZT4nLCAnLW9tYWUnLCAnPG91dGZpbGUubWFlPic=

> <r_epik_Ionization_Penalty>
0.00938916

> <r_epik_Ionization_Penalty_Charging>
0

> <r_epik_Ionization_Penalty_Neutral>
0.00938916

> <r_epik_State_Penalty>
0.00707201

> <r_epik_Charging_Adjusted_Penalty>
0.00707201

> <i_epik_Tot_Q>
0

> <i_epik_Tot_abs_Q>
0

> <r_epik_Metal_State_Penalty>
0.0638513

> <b_epik_Metal_Only>
0

> <s_epik_Chemistry_Notes>
This compound has an imine and may undergo hydrolysis.

> <s_lp_Force_Field>
OPLS_2005

> <r_lp_Energy>
16.2415

> <b_lp_Chiralities_Consistent>
1

> <s_lp_Variant>
AV-unprocessed.smi:2134-1

> <Gold.Version>
5.8.1

> <Gold.Id.Protein>
6NUR|6NUR_protein|mol2

> <Gold.PLP.Fitness>
41.9882

> <Gold.PLP.PLP>
-32.3536

> <Gold.PLP.part.hbond>
-3.0000

> <Gold.PLP.part.metal>
0.0000

> <Gold.PLP.part.buried>
-2.3003

> <Gold.PLP.part.nonpolar>
-29.4531

> <Gold.PLP.part.repulsive>
0.3111

> <Gold.PLP.ligand.clash>
0.0000

> <Gold.PLP.ligand.torsion>
0.5583

> <Gold.PLP.Chemscore.Hbond>
1.7440

> <Gold.PLP.Chemscore.CHOScore>
1.8347

> <Gold.PLP.Chemscore.Metal>
0.0000

> <Gold.Chemscore.Hbonds>
donor molecule, donor type, donor heavy atom, donor atom, acceptor molecule, acceptor atom, score
      P1  H 10752 10765       L1     6  1.00

> <Gold.PLP.Chemscore.Internal.Correction>
0.0150

> <Gold.Rescore>
     Score         DG    S(hbond)    S(metal)    S(lipo)     H(rot)  DE(clash)    DE(int)     intcor
     11.95     -13.64       1.33        0.00      63.51       1.45       0.95       0.74       ----

> <Gold.Chemscore.Fitness>
11.9460

> <Gold.Chemscore.DG>
-13.6355

> <Gold.Chemscore.ZeroCoef>
-5.4800

> <Gold.Chemscore.Hbond>
1.3267

> <Gold.Chemscore.Metal>
0.0000

> <Gold.Chemscore.Lipo>
63.5145

> <Gold.Chemscore.Internal_Hbond>
0.0000

> <Gold.Chemscore.DEClash>
0.9486

> <Gold.Chemscore.DEInternal>
0.7409

> <Gold.Chemscore.Rot>
1.4480

> <Gold.Chemscore.Internal.Correction>
   9.000000E+99

> <Gold.Chemscore.Hbonds>
donor molecule, donor type, donor heavy atom, donor atom, acceptor molecule, acceptor atom, score
      P1  H 10752 10765       L1     6  0.30

> <Gold.Chemscore.Hbond.Weighted>
-4.4313

> <Gold.Chemscore.Metal.Weighted>
-0.0000

> <Gold.Chemscore.Lipo.Weighted>
-7.4312

> <Gold.Chemscore.Internal_Hbond.Weighted>
0.0000

> <Gold.Chemscore.DEClash.Weighted>
0.9486

> <Gold.Chemscore.DEInternal.Weighted>
0.7409

> <Gold.Chemscore.Rot.Weighted>
3.7070

> <Gold.Chemscore.Internal.Correction.Weighted>
   9.000000E+99

> <Gold.Protein.RotatedTorsions>
[ 6907 6896 6895 6894 ] final  154.53 input  -60.11 | X-H torsion
[ 7974 7965 7964 7962 ] final   56.72 input  175.53 | X-H torsion
[ 8008 7997 7996 7995 ] final   24.30 input   59.86 | X-H torsion
[ 10167 10162 10161 10158 ] final  -16.78 input  -65.29 | X-H torsion
[ 10718 10713 10712 10709 ] final  -64.47 input   66.30 | X-H torsion
[ 10763 10752 10751 10750 ] final -143.83 input  -60.55 | X-H torsion
[ 11005 11000 10999 10996 ] final   12.54 input  -57.11 | X-H torsion

> <Gold.Protein.ActiveResidues>
 VAL166  LYS551  ARG553  GLY616  TRP617  ASP618  TYR619  PRO620  LYS621  CYS622 
 ASP623  PHE694  ASN695  SER759  ASP760  ASP761  ALA762  ILE779  LEU786  VAL792 
 PHE793  MET794  SER795  GLU796  ALA797  LYS798  CYS799  TRP800  GLU811  SER814 

> <Gold.Protein.RotatedAtoms>
  152.0572  133.4045  159.4401 H   0  0  0  0  0  0  0  0  0  0  0  0  # atno 6907 bound_to 6896
  150.6867  134.3241  159.4808 H   0  0  0  0  0  0  0  0  0  0  0  0  # atno 6908 bound_to 6896
  152.1058  134.9309  160.0619 H   0  0  0  0  0  0  0  0  0  0  0  0  # atno 6909 bound_to 6896
  145.9368  139.3854  143.0388 H   0  0  0  0  0  0  0  0  0  0  0  0  # atno 7974 bound_to 7965
  154.9941  140.3117  155.4894 H   0  0  0  0  0  0  0  0  0  0  0  0  # atno 8008 bound_to 7997
  156.2935  140.2244  156.4988 H   0  0  0  0  0  0  0  0  0  0  0  0  # atno 8009 bound_to 7997
  154.7677  140.0454  157.1014 H   0  0  0  0  0  0  0  0  0  0  0  0  # atno 8010 bound_to 7997
  140.7238  143.5082  150.9784 H   0  0  0  0  0  0  0  0  0  0  0  0  # atno 10167 bound_to 10162
  156.0727  130.4234  150.1424 H   0  0  0  0  0  0  0  0  0  0  0  0  # atno 10718 bound_to 10713
  154.8454  135.3457  154.6250 H   0  0  0  0  0  0  0  0  0  0  0  0  # atno 10763 bound_to 10752
  153.6859  135.6977  153.5109 H   0  0  0  0  0  0  0  0  0  0  0  0  # atno 10764 bound_to 10752
  153.2632  135.4316  155.0871 H   0  0  0  0  0  0  0  0  0  0  0  0  # atno 10765 bound_to 10752
  140.4908  134.0842  155.7771 H   0  0  0  0  0  0  0  0  0  0  0  0  # atno 11005 bound_to 11000
  145.8353  140.9609  143.0827 LP  0  0  0  0  0  0  0  0  0  0  0  0  # atno 17320 bound_to 7965
  144.6773  140.0215  143.7483 LP  0  0  0  0  0  0  0  0  0  0  0  0  # atno 17321 bound_to 7965
  139.8794  143.7091  152.3158 LP  0  0  0  0  0  0  0  0  0  0  0  0  # atno 17342 bound_to 10162
  139.7368  144.7569  151.0715 LP  0  0  0  0  0  0  0  0  0  0  0  0  # atno 17343 bound_to 10162
  156.9472  130.9763  151.3505 LP  0  0  0  0  0  0  0  0  0  0  0  0  # atno 17370 bound_to 10713
  157.5807  130.8374  149.8518 LP  0  0  0  0  0  0  0  0  0  0  0  0  # atno 17371 bound_to 10713
  141.1485  133.9012  157.2157 LP  0  0  0  0  0  0  0  0  0  0  0  0  # atno 17394 bound_to 11000
  139.9770  135.0110  156.9656 LP  0  0  0  0  0  0  0  0  0  0  0  0  # atno 17395 bound_to 11000

$$$$
