AV-unprocessed.smi:1078|AV-procd|sdf|4703|dock4
  -GOLD-   22720 3223D 1   1.00000     0.00000
 Structure written by MMmdl.
 40 41  0  0  0  0  0  0  0  0  2 V2000
  147.3088  142.0944  154.8317 C   0  0  0  0  0  0  0  0  0  0  0  0
  148.4308  141.0984  155.1716 C   0  0  1  0  0  0  0  0  0  0  0  0
  148.8377  140.2256  153.9608 C   0  0  0  0  0  0  0  0  0  0  0  0
  149.9568  139.3438  154.2415 N   0  0  0  0  0  0  0  0  0  0  0  0
  150.0035  137.9668  154.1749 C   0  0  0  0  0  0  0  0  0  0  0  0
  151.2697  137.5869  154.5164 C   0  0  0  0  0  0  0  0  0  0  0  0
  151.9360  138.8185  154.7701 C   0  0  0  0  0  0  0  0  0  0  0  0
  151.1486  139.8685  154.6001 N   0  0  0  0  0  0  0  0  0  0  0  0
  149.5915  141.8416  155.7114 N   0  3  0  0  0  0  0  0  0  0  0  0
  149.8903  141.6096  157.1410 C   0  0  0  0  0  0  0  0  0  0  0  0
  151.2541  142.2070  157.5343 C   0  0  0  0  0  0  0  0  0  0  0  0
  151.9399  141.3492  158.6175 C   0  0  0  0  0  0  0  0  0  0  0  0
  153.3048  141.9286  159.0234 C   0  0  0  0  0  0  0  0  0  0  0  0
  153.1733  143.3840  159.4961 C   0  0  0  0  0  0  0  0  0  0  0  0
  152.4915  144.2517  158.4277 C   0  0  0  0  0  0  0  0  0  0  0  0
  151.1287  143.6679  158.0213 C   0  0  0  0  0  0  0  0  0  0  0  0
  146.3931  141.5838  154.5324 H   0  0  0  0  0  0  0  0  0  0  0  0
  147.6015  142.7577  154.0171 H   0  0  0  0  0  0  0  0  0  0  0  0
  147.0610  142.7150  155.6935 H   0  0  0  0  0  0  0  0  0  0  0  0
  148.0563  140.4491  155.9646 H   0  0  0  0  0  0  0  0  0  0  0  0
  147.9936  139.6132  153.6402 H   0  0  0  0  0  0  0  0  0  0  0  0
  149.1140  140.8464  153.1082 H   0  0  0  0  0  0  0  0  0  0  0  0
  149.1424  137.3774  153.8958 H   0  0  0  0  0  0  0  0  0  0  0  0
  151.6615  136.5819  154.5737 H   0  0  0  0  0  0  0  0  0  0  0  0
  152.9614  138.9793  155.0689 H   0  0  0  0  0  0  0  0  0  0  0  0
  150.4092  141.6209  155.1609 H   0  0  0  0  0  0  0  0  0  0  0  0
  149.1007  142.0375  157.7602 H   0  0  0  0  0  0  0  0  0  0  0  0
  149.8969  140.5363  157.3302 H   0  0  0  0  0  0  0  0  0  0  0  0
  151.8955  142.1938  156.6513 H   0  0  0  0  0  0  0  0  0  0  0  0
  151.2983  141.2831  159.4975 H   0  0  0  0  0  0  0  0  0  0  0  0
  152.0741  140.3284  158.2578 H   0  0  0  0  0  0  0  0  0  0  0  0
  153.7462  141.3205  159.8137 H   0  0  0  0  0  0  0  0  0  0  0  0
  153.9903  141.8797  158.1762 H   0  0  0  0  0  0  0  0  0  0  0  0
  152.5934  143.4177  160.4193 H   0  0  0  0  0  0  0  0  0  0  0  0
  154.1573  143.7892  159.7335 H   0  0  0  0  0  0  0  0  0  0  0  0
  152.3637  145.2678  158.8022 H   0  0  0  0  0  0  0  0  0  0  0  0
  153.1352  144.3247  157.5500 H   0  0  0  0  0  0  0  0  0  0  0  0
  150.6915  144.2927  157.2421 H   0  0  0  0  0  0  0  0  0  0  0  0
  150.4470  143.7160  158.8717 H   0  0  0  0  0  0  0  0  0  0  0  0
  149.3939  142.8266  155.6065 H   0  0  0  0  0  0  0  0  0  0  0  0
  1  2  1  0  0  0  0
  1 17  1  0  0  0  0
  1 18  1  0  0  0  0
  1 19  1  0  0  0  0
  2  3  1  0  0  0  0
  2  9  1  0  0  0  0
  2 20  1  0  0  0  0
  3  4  1  0  0  0  0
  3 21  1  0  0  0  0
  3 22  1  0  0  0  0
  4  8  1  0  0  0  0
  4  5  1  0  0  0  0
  5  6  2  0  0  0  0
  5 23  1  0  0  0  0
  6  7  1  0  0  0  0
  6 24  1  0  0  0  0
  7  8  2  0  0  0  0
  7 25  1  0  0  0  0
  9 10  1  0  0  0  0
  9 26  1  0  0  0  0
  9 40  1  0  0  0  0
 10 11  1  0  0  0  0
 10 27  1  0  0  0  0
 10 28  1  0  0  0  0
 11 16  1  0  0  0  0
 11 12  1  0  0  0  0
 11 29  1  0  0  0  0
 12 13  1  0  0  0  0
 12 30  1  0  0  0  0
 12 31  1  0  0  0  0
 13 14  1  0  0  0  0
 13 32  1  0  0  0  0
 13 33  1  0  0  0  0
 14 15  1  0  0  0  0
 14 34  1  0  0  0  0
 14 35  1  0  0  0  0
 15 16  1  0  0  0  0
 15 36  1  0  0  0  0
 15 37  1  0  0  0  0
 16 38  1  0  0  0  0
 16 39  1  0  0  0  0
M  CHG  1   9   1
M  END
> <s_m_source_file>
AV-unprocessed.smi

> <i_m_source_file_index>
1078

> <i_lp_mmshare_version>
43012

> <i_f3d_flags>
0

> <s_epik_input>
bjFbY0hdW2NIXVtjSF1uMVtDSDJdW0NAQEhdKFtDSDNdKVtOSF1bQ0gyXVtDSF0yW0NIMl1bQ0gyXVtDSDJdW0NIMl1bQ0gyXTI=

> <s_epik_cmdline>
J2VwaWtfcHl0aG9uJywgJy1waCcsICc3LjAnLCAnLXRuJywgJzgnLCAnLW1hJywgJzIwMCcsICctbWV0YWxfYmluZGluZycsICctaW1hZScsICc8aW5maWxlLm1hZT4nLCAnLW9tYWUnLCAnPG91dGZpbGUubWFlPic=

> <r_lp_tautomer_probability>
1

> <r_epik_Ionization_Penalty>
0.00174474

> <r_epik_Ionization_Penalty_Charging>
0.00174052

> <r_epik_Ionization_Penalty_Neutral>
4.21324e-06

> <r_epik_State_Penalty>
0.00117783

> <r_epik_Charging_Adjusted_Penalty>
0.00291835

> <i_epik_Tot_Q>
1

> <i_epik_Tot_abs_Q>
1

> <r_epik_Metal_State_Penalty>
-0

> <b_epik_Metal_Only>
0

> <s_lp_Force_Field>
OPLS_2005

> <r_lp_Energy>
15.419

> <b_lp_Chiralities_Consistent>
1

> <s_lp_Variant>
AV-unprocessed.smi:1078-2

> <Gold.Version>
5.8.1

> <Gold.Id.Protein>
6NUR|6NUR_protein|mol2

> <Gold.PLP.Fitness>
50.2307

> <Gold.PLP.PLP>
-40.5724

> <Gold.PLP.part.hbond>
-2.0000

> <Gold.PLP.part.metal>
0.0000

> <Gold.PLP.part.buried>
-2.2044

> <Gold.PLP.part.nonpolar>
-37.4027

> <Gold.PLP.part.repulsive>
0.1946

> <Gold.PLP.ligand.clash>
0.0000

> <Gold.PLP.ligand.torsion>
1.1867

> <Gold.PLP.Chemscore.Hbond>
3.0000

> <Gold.PLP.Chemscore.CHOScore>
0.9997

> <Gold.PLP.Chemscore.Metal>
0.0000

> <Gold.Chemscore.Hbonds>
donor molecule, donor type, donor heavy atom, donor atom, acceptor molecule, acceptor atom, score
      L1  H     9    40       P1  8028  2.00
      P1  H  7989  7998       L1     8  1.00
      L1  C     5    23       P1  7948  0.85

> <Gold.PLP.Chemscore.Internal.Correction>
0.0324

> <Gold.Rescore>
     Score         DG    S(hbond)    S(metal)    S(lipo)     H(rot)  DE(clash)    DE(int)     intcor
     19.35     -20.80       1.92        0.00     109.66       1.54       0.05       1.40       ----

> <Gold.Chemscore.Fitness>
19.3493

> <Gold.Chemscore.DG>
-20.7998

> <Gold.Chemscore.ZeroCoef>
-5.4800

> <Gold.Chemscore.Hbond>
1.9239

> <Gold.Chemscore.Metal>
0.0000

> <Gold.Chemscore.Lipo>
109.6635

> <Gold.Chemscore.Internal_Hbond>
0.0000

> <Gold.Chemscore.DEClash>
0.0471

> <Gold.Chemscore.DEInternal>
1.4034

> <Gold.Chemscore.Rot>
1.5378

> <Gold.Chemscore.Internal.Correction>
   9.000000E+99

> <Gold.Chemscore.Hbonds>
donor molecule, donor type, donor heavy atom, donor atom, acceptor molecule, acceptor atom, score
      L1  H     9    40       P1  8028  0.99
      P1  H  7989  7998       L1     8  0.63

> <Gold.Chemscore.Hbond.Weighted>
-6.4260

> <Gold.Chemscore.Metal.Weighted>
-0.0000

> <Gold.Chemscore.Lipo.Weighted>
-12.8306

> <Gold.Chemscore.Internal_Hbond.Weighted>
0.0000

> <Gold.Chemscore.DEClash.Weighted>
0.0471

> <Gold.Chemscore.DEInternal.Weighted>
1.4034

> <Gold.Chemscore.Rot.Weighted>
3.9368

> <Gold.Chemscore.Internal.Correction.Weighted>
   9.000000E+99

> <Gold.Protein.RotatedTorsions>
[ 6907 6896 6895 6894 ] final   82.77 input  -60.11 | X-H torsion
[ 7974 7965 7964 7962 ] final   67.79 input  175.53 | X-H torsion
[ 8008 7997 7996 7995 ] final  135.19 input   59.86 | X-H torsion
[ 10167 10162 10161 10158 ] final  -19.06 input  -65.29 | X-H torsion
[ 10718 10713 10712 10709 ] final   -4.41 input   66.30 | X-H torsion
[ 10763 10752 10751 10750 ] final   29.23 input  -60.55 | X-H torsion
[ 11005 11000 10999 10996 ] final -172.11 input  -57.11 | X-H torsion

> <Gold.Protein.ActiveResidues>
 VAL166  LYS551  ARG553  GLY616  TRP617  ASP618  TYR619  PRO620  LYS621  CYS622 
 ASP623  PHE694  ASN695  SER759  ASP760  ASP761  ALA762  ILE779  LEU786  VAL792 
 PHE793  MET794  SER795  GLU796  ALA797  LYS798  CYS799  TRP800  GLU811  SER814 

> <Gold.Protein.RotatedAtoms>
  152.5309  134.2998  159.9074 H   0  0  0  0  0  0  0  0  0  0  0  0  # atno 6907 bound_to 6896
  151.2949  133.4142  159.2643 H   0  0  0  0  0  0  0  0  0  0  0  0  # atno 6908 bound_to 6896
  151.0169  134.9455  159.8095 H   0  0  0  0  0  0  0  0  0  0  0  0  # atno 6909 bound_to 6896
  145.8104  139.3029  143.1102 H   0  0  0  0  0  0  0  0  0  0  0  0  # atno 7974 bound_to 7965
  156.3002  140.2477  156.3541 H   0  0  0  0  0  0  0  0  0  0  0  0  # atno 8008 bound_to 7997
  154.8938  140.0408  157.1873 H   0  0  0  0  0  0  0  0  0  0  0  0  # atno 8009 bound_to 7997
  154.8570  140.2915  155.5566 H   0  0  0  0  0  0  0  0  0  0  0  0  # atno 8010 bound_to 7997
  140.7265  143.4855  151.0060 H   0  0  0  0  0  0  0  0  0  0  0  0  # atno 10167 bound_to 10162
  156.7616  130.5271  149.5784 H   0  0  0  0  0  0  0  0  0  0  0  0  # atno 10718 bound_to 10713
  153.0443  135.6494  154.0858 H   0  0  0  0  0  0  0  0  0  0  0  0  # atno 10763 bound_to 10752
  154.0559  135.2892  155.3334 H   0  0  0  0  0  0  0  0  0  0  0  0  # atno 10764 bound_to 10752
  154.6689  135.5363  153.8178 H   0  0  0  0  0  0  0  0  0  0  0  0  # atno 10765 bound_to 10752
  140.5006  134.5897  157.4986 H   0  0  0  0  0  0  0  0  0  0  0  0  # atno 11005 bound_to 11000
  145.9783  140.8703  143.0127 LP  0  0  0  0  0  0  0  0  0  0  0  0  # atno 17320 bound_to 7965
  144.6758  140.2044  143.7383 LP  0  0  0  0  0  0  0  0  0  0  0  0  # atno 17321 bound_to 7965
  139.8556  143.7381  152.3176 LP  0  0  0  0  0  0  0  0  0  0  0  0  # atno 17342 bound_to 10162
  139.7578  144.7515  151.0409 LP  0  0  0  0  0  0  0  0  0  0  0  0  # atno 17343 bound_to 10162
  156.1335  130.6195  151.0367 LP  0  0  0  0  0  0  0  0  0  0  0  0  # atno 17370 bound_to 10713
  157.6732  131.0856  150.7561 LP  0  0  0  0  0  0  0  0  0  0  0  0  # atno 17371 bound_to 10713
  139.9715  134.7284  156.0032 LP  0  0  0  0  0  0  0  0  0  0  0  0  # atno 17394 bound_to 11000
  141.1437  133.6560  156.3805 LP  0  0  0  0  0  0  0  0  0  0  0  0  # atno 17395 bound_to 11000

$$$$
