AV-unprocessed.smi:255|AV-procd|sdf|1950|dock1
  -GOLD-   2262021 83D 1   1.00000     0.00000
 Structure written by MMmdl.
 44 47  0  0  0  0  0  0  0  0  1 V2000
  151.1986  144.4835  157.4914 O   0  0  0  0  0  0  0  0  0  0  0  0
  150.8410  143.5221  158.4606 C   0  0  0  0  0  0  0  0  0  0  0  0
  152.0256  142.5772  158.7344 C   0  0  1  0  0  0  0  0  0  0  0  0
  152.5947  142.6744  160.1504 C   0  0  0  0  0  0  0  0  0  0  0  0
  153.3718  141.3652  160.2795 C   0  0  2  0  0  0  0  0  0  0  0  0
  154.6025  141.5283  159.7921 F   0  0  0  0  0  0  0  0  0  0  0  0
  152.6048  140.3790  159.3867 C   0  0  0  0  0  0  0  0  0  0  0  0
  151.6599  141.1717  158.6054 N   0  0  0  0  0  0  0  0  0  0  0  0
  151.4436  140.7260  157.3486 C   0  0  0  0  0  0  0  0  0  0  0  0
  152.4133  140.0421  156.6864 N   0  0  0  0  0  0  0  0  0  0  0  0
  152.1870  139.6030  155.4444 C   0  0  0  0  0  0  0  0  0  0  0  0
  151.0888  139.7396  154.6972 N   0  0  0  0  0  0  0  0  0  0  0  0
  150.1195  140.4360  155.3588 C   0  0  0  0  0  0  0  0  0  0  0  0
  150.2136  140.9539  156.6801 C   0  0  0  0  0  0  0  0  0  0  0  0
  149.0305  141.5887  157.0321 N   0  0  0  0  0  0  0  0  0  0  0  0
  148.2746  141.4488  155.9776 C   0  0  0  0  0  0  0  0  0  0  0  0
  148.8554  140.7889  154.9162 N   0  0  0  0  0  0  0  0  0  0  0  0
  148.2384  140.4913  153.6311 C   0  0  0  0  0  0  0  0  0  0  0  0
  147.5282  139.1150  153.5419 C   0  0  1  0  0  0  0  0  0  0  0  0
  147.4298  138.8023  152.1642 O   0  0  0  0  0  0  0  0  0  0  0  0
  148.2520  137.9587  154.2329 C   0  0  0  0  0  0  0  0  0  0  0  0
  147.1113  137.0358  154.6392 C   0  0  0  0  0  0  0  0  0  0  0  0
  146.1149  137.9515  155.0572 O   0  0  0  0  0  0  0  0  0  0  0  0
  146.1096  139.0486  154.1505 C   0  0  0  0  0  0  0  0  0  0  0  0
  152.8252  142.7983  158.0248 H   0  0  0  0  0  0  0  0  0  0  0  0
  153.4702  141.0240  161.3103 H   0  0  0  0  0  0  0  0  0  0  0  0
  150.5348  144.4930  156.8193 H   0  0  0  0  0  0  0  0  0  0  0  0
  150.5230  144.0261  159.3739 H   0  0  0  0  0  0  0  0  0  0  0  0
  149.9820  142.9659  158.0839 H   0  0  0  0  0  0  0  0  0  0  0  0
  153.2148  143.5578  160.3051 H   0  0  0  0  0  0  0  0  0  0  0  0
  151.7855  142.6958  160.8820 H   0  0  0  0  0  0  0  0  0  0  0  0
  153.2836  139.7899  158.7677 H   0  0  0  0  0  0  0  0  0  0  0  0
  152.0345  139.6811  160.0003 H   0  0  0  0  0  0  0  0  0  0  0  0
  153.0023  139.0658  154.9831 H   0  0  0  0  0  0  0  0  0  0  0  0
  147.2640  141.8294  155.9452 H   0  0  0  0  0  0  0  0  0  0  0  0
  147.5279  141.2886  153.4078 H   0  0  0  0  0  0  0  0  0  0  0  0
  149.0139  140.5575  152.8667 H   0  0  0  0  0  0  0  0  0  0  0  0
  147.9216  138.0122  152.0004 H   0  0  0  0  0  0  0  0  0  0  0  0
  148.9974  137.4683  153.6053 H   0  0  0  0  0  0  0  0  0  0  0  0
  148.7544  138.2884  155.1397 H   0  0  0  0  0  0  0  0  0  0  0  0
  146.7496  136.4553  153.7890 H   0  0  0  0  0  0  0  0  0  0  0  0
  147.3875  136.3481  155.4385 H   0  0  0  0  0  0  0  0  0  0  0  0
  145.8242  139.9505  154.6865 H   0  0  0  0  0  0  0  0  0  0  0  0
  145.3473  138.8784  153.3882 H   0  0  0  0  0  0  0  0  0  0  0  0
  1  2  1  0  0  0  0
  1 27  1  0  0  0  0
  2  3  1  0  0  0  0
  2 28  1  0  0  0  0
  2 29  1  0  0  0  0
  3 25  1  0  0  0  0
  3  8  1  0  0  0  0
  3  4  1  0  0  0  0
  4  5  1  0  0  0  0
  4 30  1  0  0  0  0
  4 31  1  0  0  0  0
  5 26  1  0  0  0  0
  5  6  1  0  0  0  0
  5  7  1  0  0  0  0
  7  8  1  0  0  0  0
  7 32  1  0  0  0  0
  7 33  1  0  0  0  0
  8  9  1  0  0  0  0
  9 14  1  0  0  0  0
  9 10  2  0  0  0  0
 10 11  1  0  0  0  0
 11 12  2  0  0  0  0
 11 34  1  0  0  0  0
 12 13  1  0  0  0  0
 13 17  1  0  0  0  0
 13 14  2  0  0  0  0
 14 15  1  0  0  0  0
 15 16  2  0  0  0  0
 16 17  1  0  0  0  0
 16 35  1  0  0  0  0
 17 18  1  0  0  0  0
 18 19  1  0  0  0  0
 18 36  1  0  0  0  0
 18 37  1  0  0  0  0
 19 24  1  0  0  0  0
 19 20  1  0  0  0  0
 19 21  1  0  0  0  0
 20 38  1  0  0  0  0
 21 22  1  0  0  0  0
 21 39  1  0  0  0  0
 21 40  1  0  0  0  0
 22 23  1  0  0  0  0
 22 41  1  0  0  0  0
 22 42  1  0  0  0  0
 23 24  1  0  0  0  0
 24 43  1  0  0  0  0
 24 44  1  0  0  0  0
M  END
> <s_m_source_file>
AV-unprocessed.smi

> <i_m_source_file_index>
255

> <i_lp_mmshare_version>
43012

> <i_f3d_flags>
0

> <s_epik_input>
W09IXVtDSDJdW0NAQEhdMVtDSDJdW0NASF0oRilbQ0gyXU4xYyhuW2NIXW4yKWMoYzIzKW5bY0hdbjNbQ0gyXVtDQEBdNChbT0hdKVtDSDJdW0NIMl1PW0NIMl00

> <s_epik_cmdline>
J2VwaWtfcHl0aG9uJywgJy1waCcsICc3LjAnLCAnLXRuJywgJzgnLCAnLW1hJywgJzIwMCcsICctbWV0YWxfYmluZGluZycsICctaW1hZScsICc8aW5maWxlLm1hZT4nLCAnLW9tYWUnLCAnPG91dGZpbGUubWFlPic=

> <r_lp_tautomer_probability>
1

> <r_epik_Ionization_Penalty>
0.0058098

> <r_epik_Ionization_Penalty_Charging>
0

> <r_epik_Ionization_Penalty_Neutral>
0.0058098

> <r_epik_State_Penalty>
0.00411166

> <r_epik_Charging_Adjusted_Penalty>
0.00411166

> <i_epik_Tot_Q>
0

> <i_epik_Tot_abs_Q>
0

> <r_epik_Metal_State_Penalty>
-0

> <b_epik_Metal_Only>
0

> <s_lp_Force_Field>
OPLS_2005

> <r_lp_Energy>
51.0345

> <b_lp_Chiralities_Consistent>
1

> <s_lp_Variant>
AV-unprocessed.smi:255-2

> <Gold.Version>
5.8.1

> <Gold.Id.Protein>
6NUR|6NUR_protein|mol2

> <Gold.PLP.Fitness>
47.0509

> <Gold.PLP.PLP>
-39.0055

> <Gold.PLP.part.hbond>
-5.0000

> <Gold.PLP.part.metal>
0.0000

> <Gold.PLP.part.buried>
-1.4401

> <Gold.PLP.part.nonpolar>
-32.7416

> <Gold.PLP.part.repulsive>
0.2301

> <Gold.PLP.ligand.clash>
0.0000

> <Gold.PLP.ligand.torsion>
2.0428

> <Gold.PLP.Chemscore.Hbond>
4.0000

> <Gold.PLP.Chemscore.CHOScore>
0.0000

> <Gold.PLP.Chemscore.Metal>
0.0000

> <Gold.Chemscore.Hbonds>
donor molecule, donor type, donor heavy atom, donor atom, acceptor molecule, acceptor atom, score
      L1  H     1    27       P1  8028  1.00
      L1  H    20    38       P1  7948  0.99
      P1  H  7989  7998       L1    12  1.00
      P1  H  7997  8010       L1    10  0.99

> <Gold.PLP.Chemscore.Internal.Correction>
0.1310

> <Gold.Rescore>
     Score         DG    S(hbond)    S(metal)    S(lipo)     H(rot)  DE(clash)    DE(int)     intcor
     10.72     -13.51       2.49        0.00      70.39       3.33       0.79       2.00       ----

> <Gold.Chemscore.Fitness>
10.7212

> <Gold.Chemscore.DG>
-13.5114

> <Gold.Chemscore.ZeroCoef>
-5.4800

> <Gold.Chemscore.Hbond>
2.4892

> <Gold.Chemscore.Metal>
0.0000

> <Gold.Chemscore.Lipo>
70.3875

> <Gold.Chemscore.Internal_Hbond>
0.0000

> <Gold.Chemscore.DEClash>
0.7861

> <Gold.Chemscore.DEInternal>
2.0040

> <Gold.Chemscore.Rot>
3.3273

> <Gold.Chemscore.Internal.Correction>
   9.000000E+99

> <Gold.Chemscore.Hbonds>
donor molecule, donor type, donor heavy atom, donor atom, acceptor molecule, acceptor atom, score
      L1  H     1    27       P1  8028  0.90
      L1  H    20    38       P1  7948  0.92
      P1  H  7989  7998       L1    12  0.12
      P1  H  7997  8010       L1    10  0.28

> <Gold.Chemscore.Hbond.Weighted>
-8.3139

> <Gold.Chemscore.Metal.Weighted>
-0.0000

> <Gold.Chemscore.Lipo.Weighted>
-8.2353

> <Gold.Chemscore.Internal_Hbond.Weighted>
0.0000

> <Gold.Chemscore.DEClash.Weighted>
0.7861

> <Gold.Chemscore.DEInternal.Weighted>
2.0040

> <Gold.Chemscore.Rot.Weighted>
8.5179

> <Gold.Chemscore.Internal.Correction.Weighted>
   9.000000E+99

> <Gold.Protein.RotatedTorsions>
[ 6907 6896 6895 6894 ] final  116.37 input  -60.11 | X-H torsion
[ 7974 7965 7964 7962 ] final -169.01 input  175.53 | X-H torsion
[ 8008 7997 7996 7995 ] final   54.73 input   59.86 | X-H torsion
[ 10167 10162 10161 10158 ] final  -83.31 input  -65.29 | X-H torsion
[ 10718 10713 10712 10709 ] final   38.51 input   66.30 | X-H torsion
[ 10763 10752 10751 10750 ] final  110.30 input  -60.55 | X-H torsion
[ 11005 11000 10999 10996 ] final -156.61 input  -57.11 | X-H torsion

> <Gold.Protein.ActiveResidues>
 VAL166  LYS551  ARG553  GLY616  TRP617  ASP618  TYR619  PRO620  LYS621  CYS622 
 ASP623  PHE694  ASN695  SER759  ASP760  ASP761  ALA762  ILE779  LEU786  VAL792 
 PHE793  MET794  SER795  GLU796  ALA797  LYS798  CYS799  TRP800  GLU811  SER814 

> <Gold.Protein.RotatedAtoms>
  152.4682  133.7970  159.6932 H   0  0  0  0  0  0  0  0  0  0  0  0  # atno 6907 bound_to 6896
  150.8657  133.7568  159.2984 H   0  0  0  0  0  0  0  0  0  0  0  0  # atno 6908 bound_to 6896
  151.5119  135.1068  159.9908 H   0  0  0  0  0  0  0  0  0  0  0  0  # atno 6909 bound_to 6896
  144.7193  140.2285  143.6307 H   0  0  0  0  0  0  0  0  0  0  0  0  # atno 7974 bound_to 7965
  155.4895  140.3471  155.4352 H   0  0  0  0  0  0  0  0  0  0  0  0  # atno 8008 bound_to 7997
  156.0986  140.1429  156.9525 H   0  0  0  0  0  0  0  0  0  0  0  0  # atno 8009 bound_to 7997
  154.4679  140.0911  156.7047 H   0  0  0  0  0  0  0  0  0  0  0  0  # atno 8010 bound_to 7997
  140.4238  143.2574  151.8853 H   0  0  0  0  0  0  0  0  0  0  0  0  # atno 10167 bound_to 10162
  157.3597  130.7643  149.7038 H   0  0  0  0  0  0  0  0  0  0  0  0  # atno 10718 bound_to 10713
  153.4470  135.3753  155.2261 H   0  0  0  0  0  0  0  0  0  0  0  0  # atno 10763 bound_to 10752
  154.8755  135.3876  154.4084 H   0  0  0  0  0  0  0  0  0  0  0  0  # atno 10764 bound_to 10752
  153.4638  135.7087  153.6098 H   0  0  0  0  0  0  0  0  0  0  0  0  # atno 10765 bound_to 10752
  140.6737  134.4220  157.5230 H   0  0  0  0  0  0  0  0  0  0  0  0  # atno 11005 bound_to 11000
  145.8433  139.2140  143.1815 LP  0  0  0  0  0  0  0  0  0  0  0  0  # atno 17320 bound_to 7965
  146.0327  140.8242  142.9868 LP  0  0  0  0  0  0  0  0  0  0  0  0  # atno 17321 bound_to 7965
  139.4783  144.5409  151.8530 LP  0  0  0  0  0  0  0  0  0  0  0  0  # atno 17342 bound_to 10162
  140.4504  144.1863  150.5897 LP  0  0  0  0  0  0  0  0  0  0  0  0  # atno 17343 bound_to 10162
  155.9735  130.4117  150.3996 LP  0  0  0  0  0  0  0  0  0  0  0  0  # atno 17370 bound_to 10713
  157.2071  131.0451  151.2619 LP  0  0  0  0  0  0  0  0  0  0  0  0  # atno 17371 bound_to 10713
  139.8973  134.8639  156.2048 LP  0  0  0  0  0  0  0  0  0  0  0  0  # atno 17394 bound_to 11000
  141.0372  133.6957  156.1534 LP  0  0  0  0  0  0  0  0  0  0  0  0  # atno 17395 bound_to 11000

$$$$
