AV-unprocessed.smi:1047|AV-procd|sdf|4579|dock5
  -GOLD-   22720 3 43D 1   1.00000     0.00000
 Structure written by MMmdl.
 56 58  0  0  0  0  0  0  0  0  2 V2000
  145.1694  132.4278  150.6461 C   0  0  0  0  0  0  0  0  0  0  0  0
  146.1636  133.0048  151.6639 C   0  0  0  0  0  0  0  0  0  0  0  0
  145.6939  134.2807  152.2593 N   0  3  2  0  0  0  0  0  0  0  0  0
  145.2922  135.2935  151.2522 C   0  0  0  0  0  0  0  0  0  0  0  0
  144.7994  136.5747  151.9448 C   0  0  0  0  0  0  0  0  0  0  0  0
  145.8112  137.0654  152.8152 O   0  0  0  0  0  0  0  0  0  0  0  0
  146.1225  136.1411  153.8530 C   0  0  2  0  0  0  0  0  0  0  0  0
  147.1456  136.7980  154.7918 C   0  0  0  0  0  0  0  0  0  0  0  0
  147.8816  137.8543  154.1050 N   0  0  0  0  0  0  0  0  0  0  0  0
  148.5899  138.7553  155.0099 C   0  0  0  0  0  0  0  0  0  0  0  0
  149.2365  139.9206  154.2357 C   0  0  1  0  0  0  0  0  0  0  0  0
  148.3061  140.3936  153.2841 O   0  0  0  0  0  0  0  0  0  0  0  0
  149.6265  141.1171  155.1256 C   0  0  0  0  0  0  0  0  0  0  0  0
  150.6942  140.8008  156.0570 N   0  0  0  0  0  0  0  0  0  0  0  0
  151.5129  139.7323  156.0156 C   0  0  0  0  0  0  0  0  0  0  0  0
  152.4311  139.6312  156.9721 N   0  0  0  0  0  0  0  0  0  0  0  0
  152.1837  140.7712  157.7178 C   0  0  0  0  0  0  0  0  0  0  0  0
  152.8174  141.2607  158.8807 C   0  0  0  0  0  0  0  0  0  0  0  0
  152.3932  142.4658  159.4846 C   0  0  0  0  0  0  0  0  0  0  0  0
  153.1031  142.9556  160.7346 C   0  0  0  0  0  0  0  0  0  0  0  0
  151.3191  143.2019  158.9233 C   0  0  0  0  0  0  0  0  0  0  0  0
  150.8480  144.5010  159.5528 C   0  0  0  0  0  0  0  0  0  0  0  0
  150.6733  142.7260  157.7631 C   0  0  0  0  0  0  0  0  0  0  0  0
  151.1046  141.5256  157.1710 C   0  0  0  0  0  0  0  0  0  0  0  0
  146.6779  134.8570  153.2070 C   0  0  0  0  0  0  0  0  0  0  0  0
  145.5017  131.4488  150.3003 H   0  0  0  0  0  0  0  0  0  0  0  0
  145.0688  133.0626  149.7662 H   0  0  0  0  0  0  0  0  0  0  0  0
  144.1804  132.3023  151.0876 H   0  0  0  0  0  0  0  0  0  0  0  0
  146.2922  132.2684  152.4583 H   0  0  0  0  0  0  0  0  0  0  0  0
  147.1454  133.1422  151.2080 H   0  0  0  0  0  0  0  0  0  0  0  0
  146.1406  135.5244  150.6062 H   0  0  0  0  0  0  0  0  0  0  0  0
  144.4996  134.9042  150.6138 H   0  0  0  0  0  0  0  0  0  0  0  0
  144.5721  137.3393  151.2019 H   0  0  0  0  0  0  0  0  0  0  0  0
  143.8797  136.3896  152.5022 H   0  0  0  0  0  0  0  0  0  0  0  0
  145.2200  135.8981  154.4177 H   0  0  0  0  0  0  0  0  0  0  0  0
  146.6255  137.2243  155.6505 H   0  0  0  0  0  0  0  0  0  0  0  0
  147.8307  136.0450  155.1834 H   0  0  0  0  0  0  0  0  0  0  0  0
  148.5405  137.4410  153.4523 H   0  0  0  0  0  0  0  0  0  0  0  0
  147.9198  139.1359  155.7821 H   0  0  0  0  0  0  0  0  0  0  0  0
  149.3630  138.1875  155.5275 H   0  0  0  0  0  0  0  0  0  0  0  0
  150.1246  139.5688  153.7083 H   0  0  0  0  0  0  0  0  0  0  0  0
  148.5673  140.0804  152.4316 H   0  0  0  0  0  0  0  0  0  0  0  0
  149.9547  141.9549  154.5084 H   0  0  0  0  0  0  0  0  0  0  0  0
  148.7626  141.4689  155.6906 H   0  0  0  0  0  0  0  0  0  0  0  0
  151.4270  138.9847  155.2404 H   0  0  0  0  0  0  0  0  0  0  0  0
  153.6362  140.7002  159.3072 H   0  0  0  0  0  0  0  0  0  0  0  0
  153.5960  143.9090  160.5434 H   0  0  0  0  0  0  0  0  0  0  0  0
  153.8615  142.2458  161.0663 H   0  0  0  0  0  0  0  0  0  0  0  0
  152.3933  143.0898  161.5510 H   0  0  0  0  0  0  0  0  0  0  0  0
  150.0554  144.9637  158.9638 H   0  0  0  0  0  0  0  0  0  0  0  0
  151.6704  145.2132  159.6223 H   0  0  0  0  0  0  0  0  0  0  0  0
  150.4592  144.3201  160.5551 H   0  0  0  0  0  0  0  0  0  0  0  0
  149.8526  143.2765  157.3279 H   0  0  0  0  0  0  0  0  0  0  0  0
  146.9074  134.1268  153.9842 H   0  0  0  0  0  0  0  0  0  0  0  0
  147.6102  135.0704  152.6811 H   0  0  0  0  0  0  0  0  0  0  0  0
  144.8717  134.0608  152.8034 H   0  0  0  0  0  0  0  0  0  0  0  0
  1  2  1  0  0  0  0
  1 26  1  0  0  0  0
  1 27  1  0  0  0  0
  1 28  1  0  0  0  0
  2  3  1  0  0  0  0
  2 29  1  0  0  0  0
  2 30  1  0  0  0  0
  3 25  1  0  0  0  0
  3  4  1  0  0  0  0
  3 56  1  0  0  0  0
  4  5  1  0  0  0  0
  4 31  1  0  0  0  0
  4 32  1  0  0  0  0
  5  6  1  0  0  0  0
  5 33  1  0  0  0  0
  5 34  1  0  0  0  0
  6  7  1  0  0  0  0
  7  8  1  0  0  0  0
  7 25  1  0  0  0  0
  7 35  1  0  0  0  0
  8  9  1  0  0  0  0
  8 36  1  0  0  0  0
  8 37  1  0  0  0  0
  9 10  1  0  0  0  0
  9 38  1  0  0  0  0
 10 11  1  0  0  0  0
 10 39  1  0  0  0  0
 10 40  1  0  0  0  0
 11 12  1  0  0  0  0
 11 13  1  0  0  0  0
 11 41  1  0  0  0  0
 12 42  1  0  0  0  0
 13 14  1  0  0  0  0
 13 43  1  0  0  0  0
 13 44  1  0  0  0  0
 14 24  1  0  0  0  0
 14 15  1  0  0  0  0
 15 16  2  0  0  0  0
 15 45  1  0  0  0  0
 16 17  1  0  0  0  0
 17 24  2  0  0  0  0
 17 18  1  0  0  0  0
 18 19  2  0  0  0  0
 18 46  1  0  0  0  0
 19 20  1  0  0  0  0
 19 21  1  0  0  0  0
 20 47  1  0  0  0  0
 20 48  1  0  0  0  0
 20 49  1  0  0  0  0
 21 22  1  0  0  0  0
 21 23  2  0  0  0  0
 22 50  1  0  0  0  0
 22 51  1  0  0  0  0
 22 52  1  0  0  0  0
 23 24  1  0  0  0  0
 23 53  1  0  0  0  0
 25 54  1  0  0  0  0
 25 55  1  0  0  0  0
M  CHG  1   3   1
M  END
> <s_m_source_file>
AV-unprocessed.smi

> <i_m_source_file_index>
1047

> <i_lp_mmshare_version>
43012

> <i_f3d_flags>
0

> <s_epik_input>
W0NIM11bQ0gyXU4xW0NIMl1bQ0gyXU9bQ0BIXShbQ0gyXTEpW0NIMl1bTkhdW0NIMl1bQ0BIXShbT0hdKVtDSDJdbihbY0hdbjIpYyhjMjMpW2NIXWMoW0NIM10pYyhbY0hdMylbQ0gzXQ==

> <s_epik_cmdline>
J2VwaWtfcHl0aG9uJywgJy1waCcsICc3LjAnLCAnLXRuJywgJzgnLCAnLW1hJywgJzIwMCcsICctbWV0YWxfYmluZGluZycsICctaW1hZScsICc8aW5maWxlLm1hZT4nLCAnLW9tYWUnLCAnPG91dGZpbGUubWFlPic=

> <r_epik_Ionization_Penalty>
1.19246

> <r_epik_Ionization_Penalty_Charging>
0.210041

> <r_epik_Ionization_Penalty_Neutral>
0.982415

> <r_epik_State_Penalty>
1.57595

> <r_epik_Charging_Adjusted_Penalty>
1.78599

> <i_epik_Tot_Q>
1

> <i_epik_Tot_abs_Q>
1

> <r_epik_Metal_State_Penalty>
1.46172

> <b_epik_Metal_Only>
0

> <s_lp_Force_Field>
OPLS_2005

> <r_lp_Energy>
30.8486

> <b_lp_Chiralities_Consistent>
1

> <s_lp_Variant>
AV-unprocessed.smi:1047-20

> <Gold.Version>
5.8.1

> <Gold.Id.Protein>
6NUR|6NUR_protein|mol2

> <Gold.PLP.Fitness>
50.8764

> <Gold.PLP.PLP>
-43.7237

> <Gold.PLP.part.hbond>
-2.7989

> <Gold.PLP.part.metal>
0.0000

> <Gold.PLP.part.buried>
-4.4414

> <Gold.PLP.part.nonpolar>
-37.1236

> <Gold.PLP.part.repulsive>
0.1808

> <Gold.PLP.ligand.clash>
0.0000

> <Gold.PLP.ligand.torsion>
0.9274

> <Gold.PLP.Chemscore.Hbond>
2.9440

> <Gold.PLP.Chemscore.CHOScore>
0.0000

> <Gold.PLP.Chemscore.Metal>
0.0000

> <Gold.Chemscore.Hbonds>
donor molecule, donor type, donor heavy atom, donor atom, acceptor molecule, acceptor atom, score
      L1  H     9    38       P1  7948  1.00
      L1  H    12    42       P1  7957  1.00
      P1  H  7997  8008       L1    16  0.81

> <Gold.PLP.Chemscore.Internal.Correction>
0.1755

> <Gold.Rescore>
     Score         DG    S(hbond)    S(metal)    S(lipo)     H(rot)  DE(clash)    DE(int)     intcor
     19.16     -21.49       2.59        0.00     120.26       2.62       1.44       0.89       ----

> <Gold.Chemscore.Fitness>
19.1618

> <Gold.Chemscore.DG>
-21.4920

> <Gold.Chemscore.ZeroCoef>
-5.4800

> <Gold.Chemscore.Hbond>
2.5901

> <Gold.Chemscore.Metal>
0.0000

> <Gold.Chemscore.Lipo>
120.2628

> <Gold.Chemscore.Internal_Hbond>
0.0000

> <Gold.Chemscore.DEClash>
1.4357

> <Gold.Chemscore.DEInternal>
0.8945

> <Gold.Chemscore.Rot>
2.6209

> <Gold.Chemscore.Internal.Correction>
   9.000000E+99

> <Gold.Chemscore.Hbonds>
donor molecule, donor type, donor heavy atom, donor atom, acceptor molecule, acceptor atom, score
      L1  H     9    38       P1  7948  0.90
      L1  H    12    42       P1  7957  0.96
      P1  H  7997  8008       L1    16  0.12

> <Gold.Chemscore.Hbond.Weighted>
-8.6509

> <Gold.Chemscore.Metal.Weighted>
-0.0000

> <Gold.Chemscore.Lipo.Weighted>
-14.0707

> <Gold.Chemscore.Internal_Hbond.Weighted>
0.0000

> <Gold.Chemscore.DEClash.Weighted>
1.4357

> <Gold.Chemscore.DEInternal.Weighted>
0.8945

> <Gold.Chemscore.Rot.Weighted>
6.7096

> <Gold.Chemscore.Internal.Correction.Weighted>
   9.000000E+99

> <Gold.Protein.RotatedTorsions>
[ 6907 6896 6895 6894 ] final   44.48 input  -60.11 | X-H torsion
[ 7974 7965 7964 7962 ] final  -53.34 input  175.53 | X-H torsion
[ 8008 7997 7996 7995 ] final  -45.79 input   59.86 | X-H torsion
[ 10167 10162 10161 10158 ] final -105.07 input  -65.29 | X-H torsion
[ 10718 10713 10712 10709 ] final  -40.72 input   66.30 | X-H torsion
[ 10763 10752 10751 10750 ] final  100.05 input  -60.55 | X-H torsion
[ 11005 11000 10999 10996 ] final   71.86 input  -57.11 | X-H torsion

> <Gold.Protein.ActiveResidues>
 VAL166  LYS551  ARG553  GLY616  TRP617  ASP618  TYR619  PRO620  LYS621  CYS622 
 ASP623  PHE694  ASN695  SER759  ASP760  ASP761  ALA762  ILE779  LEU786  VAL792 
 PHE793  MET794  SER795  GLU796  ALA797  LYS798  CYS799  TRP800  GLU811  SER814 

> <Gold.Protein.RotatedAtoms>
  152.2330  134.8303  160.0470 H   0  0  0  0  0  0  0  0  0  0  0  0  # atno 6907 bound_to 6896
  151.9045  133.3541  159.3850 H   0  0  0  0  0  0  0  0  0  0  0  0  # atno 6908 bound_to 6896
  150.7031  134.4720  159.5474 H   0  0  0  0  0  0  0  0  0  0  0  0  # atno 6909 bound_to 6896
  145.8979  140.8018  142.9758 H   0  0  0  0  0  0  0  0  0  0  0  0  # atno 7974 bound_to 7965
  154.4003  140.1388  156.3904 H   0  0  0  0  0  0  0  0  0  0  0  0  # atno 8008 bound_to 7997
  155.7919  140.3478  155.5334 H   0  0  0  0  0  0  0  0  0  0  0  0  # atno 8009 bound_to 7997
  155.8570  140.0950  157.1628 H   0  0  0  0  0  0  0  0  0  0  0  0  # atno 8010 bound_to 7997
  140.2025  143.3808  152.1117 H   0  0  0  0  0  0  0  0  0  0  0  0  # atno 10167 bound_to 10162
  156.2782  130.4214  149.8364 H   0  0  0  0  0  0  0  0  0  0  0  0  # atno 10718 bound_to 10713
  153.3091  135.4092  155.1320 H   0  0  0  0  0  0  0  0  0  0  0  0  # atno 10763 bound_to 10752
  154.8571  135.3560  154.5748 H   0  0  0  0  0  0  0  0  0  0  0  0  # atno 10764 bound_to 10752
  153.6176  135.7065  153.5381 H   0  0  0  0  0  0  0  0  0  0  0  0  # atno 10765 bound_to 10752
  139.9521  134.7209  156.0838 H   0  0  0  0  0  0  0  0  0  0  0  0  # atno 11005 bound_to 11000
  144.6734  140.1632  143.7420 LP  0  0  0  0  0  0  0  0  0  0  0  0  # atno 17320 bound_to 7965
  145.8827  139.2332  143.1596 LP  0  0  0  0  0  0  0  0  0  0  0  0  # atno 17321 bound_to 7965
  139.5211  144.7042  151.5404 LP  0  0  0  0  0  0  0  0  0  0  0  0  # atno 17342 bound_to 10162
  140.6380  143.8945  150.6665 LP  0  0  0  0  0  0  0  0  0  0  0  0  # atno 17343 bound_to 10162
  156.5821  130.8470  151.3386 LP  0  0  0  0  0  0  0  0  0  0  0  0  # atno 17370 bound_to 10713
  157.7306  130.9688  150.1841 LP  0  0  0  0  0  0  0  0  0  0  0  0  # atno 17371 bound_to 10713
  141.1186  133.6620  156.3156 LP  0  0  0  0  0  0  0  0  0  0  0  0  # atno 17394 bound_to 11000
  140.5695  134.5855  157.5454 LP  0  0  0  0  0  0  0  0  0  0  0  0  # atno 17395 bound_to 11000

$$$$
