AV-unprocessed.smi:525|AV-procd|sdf|2810|dock8
  -GOLD-   2262023293D 1   1.00000     0.00000
 Structure written by MMmdl.
 44 46  0  0  0  0  0  0  0  0  2 V2000
  145.7245  144.2936  153.2359 C   0  0  0  0  0  0  0  0  0  0  0  0
  145.9699  143.3938  154.3018 O   0  0  0  0  0  0  0  0  0  0  0  0
  147.0322  142.4968  154.0211 C   0  0  0  0  0  0  0  0  0  0  0  0
  146.6184  141.0672  154.3965 C   0  0  0  0  0  0  0  0  0  0  0  0
  147.6956  140.0999  154.1429 N   0  0  0  0  0  0  0  0  0  0  0  0
  147.6880  138.9566  153.4047 C   0  0  0  0  0  0  0  0  0  0  0  0
  146.3146  138.3065  152.5102 S   0  0  0  0  0  0  0  0  0  0  0  0
  145.8346  136.7849  153.3901 C   0  0  1  0  0  0  0  0  0  0  0  0
  144.7206  136.9828  154.4336 C   0  0  0  0  0  0  0  0  0  0  0  0
  145.0301  136.7176  155.7058 N   0  0  0  0  0  0  0  0  0  0  0  0
  143.6034  137.3817  154.1094 O   0  0  0  0  0  0  0  0  0  0  0  0
  145.4387  135.7203  152.3730 C   0  0  0  0  0  0  0  0  0  0  0  0
  144.4240  135.9703  151.4207 C   0  0  0  0  0  0  0  0  0  0  0  0
  144.0687  134.9810  150.4836 C   0  0  0  0  0  0  0  0  0  0  0  0
  144.7247  133.7355  150.4909 C   0  0  0  0  0  0  0  0  0  0  0  0
  145.7369  133.4801  151.4355 C   0  0  0  0  0  0  0  0  0  0  0  0
  146.0938  134.4693  152.3723 C   0  0  0  0  0  0  0  0  0  0  0  0
  148.9235  138.3927  153.4985 N   0  3  0  0  0  0  0  0  0  0  0  0
  149.7331  139.1824  154.3162 C   0  0  0  0  0  0  0  0  0  0  0  0
  151.0575  139.0220  154.7117 C   0  0  0  0  0  0  0  0  0  0  0  0
  151.5862  140.0099  155.5682 C   0  0  0  0  0  0  0  0  0  0  0  0
  150.8052  141.1014  156.0002 C   0  0  0  0  0  0  0  0  0  0  0  0
  149.4643  141.2551  155.5909 C   0  0  0  0  0  0  0  0  0  0  0  0
  148.9496  140.2774  154.7397 C   0  0  0  0  0  0  0  0  0  0  0  0
  144.9083  144.9644  153.5036 H   0  0  0  0  0  0  0  0  0  0  0  0
  145.4368  143.7600  152.3290 H   0  0  0  0  0  0  0  0  0  0  0  0
  146.6045  144.9013  153.0222 H   0  0  0  0  0  0  0  0  0  0  0  0
  147.2864  142.5398  152.9608 H   0  0  0  0  0  0  0  0  0  0  0  0
  147.9233  142.7848  154.5803 H   0  0  0  0  0  0  0  0  0  0  0  0
  146.3689  141.0160  155.4567 H   0  0  0  0  0  0  0  0  0  0  0  0
  145.7218  140.7640  153.8566 H   0  0  0  0  0  0  0  0  0  0  0  0
  146.7211  136.4423  153.9251 H   0  0  0  0  0  0  0  0  0  0  0  0
  144.3418  136.8517  156.4325 H   0  0  0  0  0  0  0  0  0  0  0  0
  145.9610  136.4034  155.9396 H   0  0  0  0  0  0  0  0  0  0  0  0
  143.9148  136.9232  151.4065 H   0  0  0  0  0  0  0  0  0  0  0  0
  143.2926  135.1783  149.7589 H   0  0  0  0  0  0  0  0  0  0  0  0
  144.4520  132.9765  149.7723 H   0  0  0  0  0  0  0  0  0  0  0  0
  146.2409  132.5247  151.4409 H   0  0  0  0  0  0  0  0  0  0  0  0
  146.8729  134.2612  153.0907 H   0  0  0  0  0  0  0  0  0  0  0  0
  151.6565  138.1840  154.3863 H   0  0  0  0  0  0  0  0  0  0  0  0
  152.6099  139.9270  155.9035 H   0  0  0  0  0  0  0  0  0  0  0  0
  151.2424  141.8358  156.6609 H   0  0  0  0  0  0  0  0  0  0  0  0
  148.8749  142.0921  155.9344 H   0  0  0  0  0  0  0  0  0  0  0  0
  149.1892  137.5308  153.0406 H   0  0  0  0  0  0  0  0  0  0  0  0
  1  2  1  0  0  0  0
  1 25  1  0  0  0  0
  1 26  1  0  0  0  0
  1 27  1  0  0  0  0
  2  3  1  0  0  0  0
  3  4  1  0  0  0  0
  3 28  1  0  0  0  0
  3 29  1  0  0  0  0
  4  5  1  0  0  0  0
  4 30  1  0  0  0  0
  4 31  1  0  0  0  0
  5 24  1  0  0  0  0
  5  6  1  0  0  0  0
  6  7  1  0  0  0  0
  6 18  2  0  0  0  0
  7  8  1  0  0  0  0
  8  9  1  0  0  0  0
  8 12  1  0  0  0  0
  8 32  1  0  0  0  0
  9 10  1  0  0  0  0
  9 11  2  0  0  0  0
 10 33  1  0  0  0  0
 10 34  1  0  0  0  0
 12 17  1  0  0  0  0
 12 13  2  0  0  0  0
 13 14  1  0  0  0  0
 13 35  1  0  0  0  0
 14 15  2  0  0  0  0
 14 36  1  0  0  0  0
 15 16  1  0  0  0  0
 15 37  1  0  0  0  0
 16 17  2  0  0  0  0
 16 38  1  0  0  0  0
 17 39  1  0  0  0  0
 18 19  1  0  0  0  0
 18 44  1  0  0  0  0
 19 24  2  0  0  0  0
 19 20  1  0  0  0  0
 20 21  2  0  0  0  0
 20 40  1  0  0  0  0
 21 22  1  0  0  0  0
 21 41  1  0  0  0  0
 22 23  2  0  0  0  0
 22 42  1  0  0  0  0
 23 24  1  0  0  0  0
 23 43  1  0  0  0  0
M  CHG  1  18   1
M  END
> <s_m_source_file>
AV-unprocessed.smi

> <i_m_source_file_index>
525

> <i_lp_mmshare_version>
43012

> <i_f3d_flags>
0

> <s_epik_input>
W2NIXTFbY0hdW2NIXVtjSF1jKGMxMiluKFtDSDJdW0NIMl1PW0NIM10pYyhuMilTW0NASF0oQyg9TylbTkgyXSljM1tjSF1bY0hdW2NIXVtjSF1bY0hdMw==

> <s_epik_cmdline>
J2VwaWtfcHl0aG9uJywgJy1waCcsICc3LjAnLCAnLXRuJywgJzgnLCAnLW1hJywgJzIwMCcsICctbWV0YWxfYmluZGluZycsICctaW1hZScsICc8aW5maWxlLm1hZT4nLCAnLW9tYWUnLCAnPG91dGZpbGUubWFlPic=

> <r_epik_Ionization_Penalty>
1.29485

> <r_epik_Ionization_Penalty_Charging>
1.29485

> <r_epik_Ionization_Penalty_Neutral>
1.02965e-06

> <r_epik_State_Penalty>
1.36828

> <r_epik_Charging_Adjusted_Penalty>
2.66313

> <i_epik_Tot_Q>
1

> <i_epik_Tot_abs_Q>
1

> <r_epik_Metal_State_Penalty>
1.43316

> <b_epik_Metal_Only>
0

> <s_lp_Force_Field>
OPLS_2005

> <r_lp_Energy>
11.9794

> <b_lp_Chiralities_Consistent>
1

> <s_lp_Variant>
AV-unprocessed.smi:525-4

> <Gold.Version>
5.8.1

> <Gold.Id.Protein>
6NUR|6NUR_protein|mol2

> <Gold.PLP.Fitness>
46.9288

> <Gold.PLP.PLP>
-43.1790

> <Gold.PLP.part.hbond>
-2.0000

> <Gold.PLP.part.metal>
0.0000

> <Gold.PLP.part.buried>
-1.9573

> <Gold.PLP.part.nonpolar>
-39.1765

> <Gold.PLP.part.repulsive>
0.3630

> <Gold.PLP.ligand.clash>
0.0000

> <Gold.PLP.ligand.torsion>
1.0290

> <Gold.PLP.Chemscore.Hbond>
1.8880

> <Gold.PLP.Chemscore.CHOScore>
0.0000

> <Gold.PLP.Chemscore.Metal>
0.0000

> <Gold.Chemscore.Hbonds>
donor molecule, donor type, donor heavy atom, donor atom, acceptor molecule, acceptor atom, score
      L1  H    18    44       P1  7948  2.00

> <Gold.PLP.Chemscore.Internal.Correction>
0.1438

> <Gold.Rescore>
     Score         DG    S(hbond)    S(metal)    S(lipo)     H(rot)  DE(clash)    DE(int)     intcor
     13.13     -13.96       0.85        0.00     103.36       2.51       0.11       0.73       ----

> <Gold.Chemscore.Fitness>
13.1259

> <Gold.Chemscore.DG>
-13.9581

> <Gold.Chemscore.ZeroCoef>
-5.4800

> <Gold.Chemscore.Hbond>
0.8451

> <Gold.Chemscore.Metal>
0.0000

> <Gold.Chemscore.Lipo>
103.3567

> <Gold.Chemscore.Internal_Hbond>
0.0000

> <Gold.Chemscore.DEClash>
0.1056

> <Gold.Chemscore.DEInternal>
0.7266

> <Gold.Chemscore.Rot>
2.5145

> <Gold.Chemscore.Internal.Correction>
   9.000000E+99

> <Gold.Chemscore.Hbonds>
donor molecule, donor type, donor heavy atom, donor atom, acceptor molecule, acceptor atom, score
      L1  H    18    44       P1  7948  0.96

> <Gold.Chemscore.Hbond.Weighted>
-2.8226

> <Gold.Chemscore.Metal.Weighted>
-0.0000

> <Gold.Chemscore.Lipo.Weighted>
-12.0927

> <Gold.Chemscore.Internal_Hbond.Weighted>
0.0000

> <Gold.Chemscore.DEClash.Weighted>
0.1056

> <Gold.Chemscore.DEInternal.Weighted>
0.7266

> <Gold.Chemscore.Rot.Weighted>
6.4372

> <Gold.Chemscore.Internal.Correction.Weighted>
   9.000000E+99

> <Gold.Protein.RotatedTorsions>
[ 6907 6896 6895 6894 ] final  127.93 input  -60.11 | X-H torsion
[ 7974 7965 7964 7962 ] final  146.97 input  175.53 | X-H torsion
[ 8008 7997 7996 7995 ] final   40.35 input   59.86 | X-H torsion
[ 10167 10162 10161 10158 ] final  -55.89 input  -65.29 | X-H torsion
[ 10718 10713 10712 10709 ] final   25.04 input   66.30 | X-H torsion
[ 10763 10752 10751 10750 ] final -169.84 input  -60.55 | X-H torsion
[ 11005 11000 10999 10996 ] final -141.57 input  -57.11 | X-H torsion

> <Gold.Protein.ActiveResidues>
 VAL166  LYS551  ARG553  GLY616  TRP617  ASP618  TYR619  PRO620  LYS621  CYS622 
 ASP623  PHE694  ASN695  SER759  ASP760  ASP761  ALA762  ILE779  LEU786  VAL792 
 PHE793  MET794  SER795  GLU796  ALA797  LYS798  CYS799  TRP800  GLU811  SER814 

> <Gold.Protein.RotatedAtoms>
  152.3767  133.6490  159.6128 H   0  0  0  0  0  0  0  0  0  0  0  0  # atno 6907 bound_to 6896
  150.7709  133.9182  159.3399 H   0  0  0  0  0  0  0  0  0  0  0  0  # atno 6908 bound_to 6896
  151.6995  135.0934  160.0299 H   0  0  0  0  0  0  0  0  0  0  0  0  # atno 6909 bound_to 6896
  144.8629  139.5971  143.5922 H   0  0  0  0  0  0  0  0  0  0  0  0  # atno 7974 bound_to 7965
  155.2516  140.3353  155.4281 H   0  0  0  0  0  0  0  0  0  0  0  0  # atno 8008 bound_to 7997
  156.2213  140.1810  156.7513 H   0  0  0  0  0  0  0  0  0  0  0  0  # atno 8009 bound_to 7997
  154.5830  140.0650  156.9116 H   0  0  0  0  0  0  0  0  0  0  0  0  # atno 8010 bound_to 7997
  140.6348  143.2477  151.5146 H   0  0  0  0  0  0  0  0  0  0  0  0  # atno 10167 bound_to 10162
  157.1880  130.6833  149.6138 H   0  0  0  0  0  0  0  0  0  0  0  0  # atno 10718 bound_to 10713
  154.6480  135.2907  155.0022 H   0  0  0  0  0  0  0  0  0  0  0  0  # atno 10763 bound_to 10752
  154.1125  135.6560  153.4891 H   0  0  0  0  0  0  0  0  0  0  0  0  # atno 10764 bound_to 10752
  153.0361  135.5268  154.7375 H   0  0  0  0  0  0  0  0  0  0  0  0  # atno 10765 bound_to 10752
  140.8311  134.2516  157.4856 H   0  0  0  0  0  0  0  0  0  0  0  0  # atno 11005 bound_to 11000
  146.2874  139.7041  142.9186 LP  0  0  0  0  0  0  0  0  0  0  0  0  # atno 17320 bound_to 7965
  145.4278  141.0412  143.2927 LP  0  0  0  0  0  0  0  0  0  0  0  0  # atno 17321 bound_to 7965
  139.5560  144.2276  152.1612 LP  0  0  0  0  0  0  0  0  0  0  0  0  # atno 17342 bound_to 10162
  140.1529  144.5097  150.6677 LP  0  0  0  0  0  0  0  0  0  0  0  0  # atno 17343 bound_to 10162
  155.9715  130.4624  150.6145 LP  0  0  0  0  0  0  0  0  0  0  0  0  # atno 17370 bound_to 10713
  157.3889  131.0792  151.1412 LP  0  0  0  0  0  0  0  0  0  0  0  0  # atno 17371 bound_to 10713
  139.8705  134.9586  156.4307 LP  0  0  0  0  0  0  0  0  0  0  0  0  # atno 17394 bound_to 11000
  140.8997  133.7788  155.9666 LP  0  0  0  0  0  0  0  0  0  0  0  0  # atno 17395 bound_to 11000

$$$$
