AV-unprocessed.smi:657|AV-procd|sdf|3225|dock5
  -GOLD-   22720 0163D 1   1.00000     0.00000
 Structure written by MMmdl.
 46 47  0  0  0  0  0  0  0  0  1 V2000
  147.3641  133.9945  154.9002 C   0  0  0  0  0  0  0  0  0  0  0  0
  146.1837  134.8093  154.3392 C   0  0  0  0  0  0  0  0  0  0  0  0
  144.9192  134.6532  155.2089 C   0  0  0  0  0  0  0  0  0  0  0  0
  145.9553  134.5165  152.9059 N   0  0  0  0  0  0  0  0  0  0  0  0
  145.6244  133.1054  152.6422 C   0  0  0  0  0  0  0  0  0  0  0  0
  145.6899  132.7944  151.1376 C   0  0  0  0  0  0  0  0  0  0  0  0
  144.7203  133.6797  150.3534 C   0  0  0  0  0  0  0  0  0  0  0  0
  145.0134  135.1475  150.6715 C   0  0  0  0  0  0  0  0  0  0  0  0
  144.9807  135.4087  152.1958 C   0  0  2  0  0  0  0  0  0  0  0  0
  145.1751  136.9155  152.4546 C   0  0  0  0  0  0  0  0  0  0  0  0
  144.3059  137.5649  153.0374 O   0  0  0  0  0  0  0  0  0  0  0  0
  146.3114  137.4600  151.9919 N   0  0  0  0  0  0  0  0  0  0  0  0
  146.6791  138.8652  152.1122 C   0  0  0  0  0  0  0  0  0  0  0  0
  146.7864  139.2958  153.5832 C   0  0  0  0  0  0  0  0  0  0  0  0
  148.2193  139.4773  153.9984 C   0  0  0  0  0  0  0  0  0  0  0  0
  148.8799  140.6887  154.3507 C   0  0  0  0  0  0  0  0  0  0  0  0
  150.1523  140.5079  154.6656 N   0  0  0  0  0  0  0  0  0  0  0  0
  150.3473  139.1805  154.5267 N   0  0  0  0  0  0  0  0  0  0  0  0
  151.6537  138.6193  154.7961 C   0  0  0  0  0  0  0  0  0  0  0  0
  149.1987  138.5331  154.1253 C   0  0  0  0  0  0  0  0  0  0  0  0
  147.6629  134.3798  155.8755 H   0  0  0  0  0  0  0  0  0  0  0  0
  148.2344  134.0569  154.2460 H   0  0  0  0  0  0  0  0  0  0  0  0
  147.1197  132.9422  155.0417 H   0  0  0  0  0  0  0  0  0  0  0  0
  146.5171  135.8412  154.4351 H   0  0  0  0  0  0  0  0  0  0  0  0
  145.1200  134.9697  156.2326 H   0  0  0  0  0  0  0  0  0  0  0  0
  144.5796  133.6185  155.2560 H   0  0  0  0  0  0  0  0  0  0  0  0
  144.0932  135.2622  154.8431 H   0  0  0  0  0  0  0  0  0  0  0  0
  146.3190  132.4352  153.1442 H   0  0  0  0  0  0  0  0  0  0  0  0
  144.6299  132.8686  153.0225 H   0  0  0  0  0  0  0  0  0  0  0  0
  146.7075  132.9451  150.7739 H   0  0  0  0  0  0  0  0  0  0  0  0
  145.4527  131.7443  150.9649 H   0  0  0  0  0  0  0  0  0  0  0  0
  144.8170  133.4956  149.2831 H   0  0  0  0  0  0  0  0  0  0  0  0
  143.6921  133.4375  150.6248 H   0  0  0  0  0  0  0  0  0  0  0  0
  145.9913  135.4116  150.2651 H   0  0  0  0  0  0  0  0  0  0  0  0
  144.2856  135.7793  150.1601 H   0  0  0  0  0  0  0  0  0  0  0  0
  143.9776  135.1540  152.5437 H   0  0  0  0  0  0  0  0  0  0  0  0
  146.9653  136.8564  151.5150 H   0  0  0  0  0  0  0  0  0  0  0  0
  147.6384  139.0050  151.6129 H   0  0  0  0  0  0  0  0  0  0  0  0
  145.9591  139.4897  151.5804 H   0  0  0  0  0  0  0  0  0  0  0  0
  146.2290  140.2212  153.7337 H   0  0  0  0  0  0  0  0  0  0  0  0
  146.2987  138.5509  154.2129 H   0  0  0  0  0  0  0  0  0  0  0  0
  148.4739  141.6890  154.3852 H   0  0  0  0  0  0  0  0  0  0  0  0
  151.6387  137.5413  154.6337 H   0  0  0  0  0  0  0  0  0  0  0  0
  151.9347  138.8180  155.8308 H   0  0  0  0  0  0  0  0  0  0  0  0
  152.3925  139.0676  154.1310 H   0  0  0  0  0  0  0  0  0  0  0  0
  149.1728  137.4656  153.9630 H   0  0  0  0  0  0  0  0  0  0  0  0
  1  2  1  0  0  0  0
  1 21  1  0  0  0  0
  1 22  1  0  0  0  0
  1 23  1  0  0  0  0
  2  3  1  0  0  0  0
  2  4  1  0  0  0  0
  2 24  1  0  0  0  0
  3 25  1  0  0  0  0
  3 26  1  0  0  0  0
  3 27  1  0  0  0  0
  4  9  1  0  0  0  0
  4  5  1  0  0  0  0
  5  6  1  0  0  0  0
  5 28  1  0  0  0  0
  5 29  1  0  0  0  0
  6  7  1  0  0  0  0
  6 30  1  0  0  0  0
  6 31  1  0  0  0  0
  7  8  1  0  0  0  0
  7 32  1  0  0  0  0
  7 33  1  0  0  0  0
  8  9  1  0  0  0  0
  8 34  1  0  0  0  0
  8 35  1  0  0  0  0
  9 10  1  0  0  0  0
  9 36  1  0  0  0  0
 10 11  2  0  0  0  0
 10 12  1  0  0  0  0
 12 13  1  0  0  0  0
 12 37  1  0  0  0  0
 13 14  1  0  0  0  0
 13 38  1  0  0  0  0
 13 39  1  0  0  0  0
 14 15  1  0  0  0  0
 14 40  1  0  0  0  0
 14 41  1  0  0  0  0
 15 20  2  0  0  0  0
 15 16  1  0  0  0  0
 16 17  2  0  0  0  0
 16 42  1  0  0  0  0
 17 18  1  0  0  0  0
 18 19  1  0  0  0  0
 18 20  1  0  0  0  0
 19 43  1  0  0  0  0
 19 44  1  0  0  0  0
 19 45  1  0  0  0  0
 20 46  1  0  0  0  0
M  END
> <s_m_source_file>
AV-unprocessed.smi

> <i_m_source_file_index>
657

> <i_lp_mmshare_version>
43012

> <i_f3d_flags>
0

> <s_epik_input>
W0NIM11bQ0hdKFtDSDNdKU4xW0NIMl1bQ0gyXVtDSDJdW0NIMl1bQ0BIXTFDKD1PKVtOSF1bQ0gyXVtDSDJdYzJbY0hdbm4oW0NIM10pW2NIXTI=

> <s_epik_cmdline>
J2VwaWtfcHl0aG9uJywgJy1waCcsICc3LjAnLCAnLXRuJywgJzgnLCAnLW1hJywgJzIwMCcsICctbWV0YWxfYmluZGluZycsICctaW1hZScsICc8aW5maWxlLm1hZT4nLCAnLW9tYWUnLCAnPG91dGZpbGUubWFlPic=

> <r_lp_tautomer_probability>
1

> <r_epik_Ionization_Penalty>
1.91154

> <r_epik_Ionization_Penalty_Charging>
0

> <r_epik_Ionization_Penalty_Neutral>
1.91154

> <r_epik_State_Penalty>
2.0331

> <r_epik_Charging_Adjusted_Penalty>
2.0331

> <i_epik_Tot_Q>
0

> <i_epik_Tot_abs_Q>
0

> <r_epik_Metal_State_Penalty>
2.04973

> <b_epik_Metal_Only>
0

> <s_lp_Force_Field>
OPLS_2005

> <r_lp_Energy>
15.3254

> <b_lp_Chiralities_Consistent>
1

> <s_lp_Variant>
AV-unprocessed.smi:657-6

> <Gold.Version>
5.8.1

> <Gold.Id.Protein>
6NUR|6NUR_protein|mol2

> <Gold.PLP.Fitness>
39.3427

> <Gold.PLP.PLP>
-32.3601

> <Gold.PLP.part.hbond>
-2.0000

> <Gold.PLP.part.metal>
0.0000

> <Gold.PLP.part.buried>
-2.6445

> <Gold.PLP.part.nonpolar>
-29.1043

> <Gold.PLP.part.repulsive>
0.8137

> <Gold.PLP.ligand.clash>
0.0000

> <Gold.PLP.ligand.torsion>
0.4447

> <Gold.PLP.Chemscore.Hbond>
1.6560

> <Gold.PLP.Chemscore.CHOScore>
0.9268

> <Gold.PLP.Chemscore.Metal>
0.0000

> <Gold.Chemscore.Hbonds>
donor molecule, donor type, donor heavy atom, donor atom, acceptor molecule, acceptor atom, score
      L1  H    12    37       P1  7948  0.65
      P1  H  7989  7998       L1    17  0.51
      L1  C    20    46       P1  7948  0.98

> <Gold.PLP.Chemscore.Internal.Correction>
0.1234

> <Gold.Rescore>
     Score         DG    S(hbond)    S(metal)    S(lipo)     H(rot)  DE(clash)    DE(int)     intcor
     13.03     -13.49       0.91        0.00      76.91       1.57       0.05       0.41       ----

> <Gold.Chemscore.Fitness>
13.0286

> <Gold.Chemscore.DG>
-13.4867

> <Gold.Chemscore.ZeroCoef>
-5.4800

> <Gold.Chemscore.Hbond>
0.9093

> <Gold.Chemscore.Metal>
0.0000

> <Gold.Chemscore.Lipo>
76.9074

> <Gold.Chemscore.Internal_Hbond>
0.0000

> <Gold.Chemscore.DEClash>
0.0489

> <Gold.Chemscore.DEInternal>
0.4092

> <Gold.Chemscore.Rot>
1.5736

> <Gold.Chemscore.Internal.Correction>
   9.000000E+99

> <Gold.Chemscore.Hbonds>
donor molecule, donor type, donor heavy atom, donor atom, acceptor molecule, acceptor atom, score
      L1  H    12    37       P1  7948  0.63
      P1  H  7989  7998       L1    17  0.03

> <Gold.Chemscore.Hbond.Weighted>
-3.0369

> <Gold.Chemscore.Metal.Weighted>
-0.0000

> <Gold.Chemscore.Lipo.Weighted>
-8.9982

> <Gold.Chemscore.Internal_Hbond.Weighted>
0.0000

> <Gold.Chemscore.DEClash.Weighted>
0.0489

> <Gold.Chemscore.DEInternal.Weighted>
0.4092

> <Gold.Chemscore.Rot.Weighted>
4.0284

> <Gold.Chemscore.Internal.Correction.Weighted>
   9.000000E+99

> <Gold.Protein.RotatedTorsions>
[ 6907 6896 6895 6894 ] final  -89.03 input  -60.11 | X-H torsion
[ 7974 7965 7964 7962 ] final   47.19 input  175.53 | X-H torsion
[ 8008 7997 7996 7995 ] final   87.03 input   59.86 | X-H torsion
[ 10167 10162 10161 10158 ] final  -87.91 input  -65.29 | X-H torsion
[ 10718 10713 10712 10709 ] final  -38.65 input   66.30 | X-H torsion
[ 10763 10752 10751 10750 ] final   93.48 input  -60.55 | X-H torsion
[ 11005 11000 10999 10996 ] final -159.02 input  -57.11 | X-H torsion

> <Gold.Protein.ActiveResidues>
 VAL166  LYS551  ARG553  GLY616  TRP617  ASP618  TYR619  PRO620  LYS621  CYS622 
 ASP623  PHE694  ASN695  SER759  ASP760  ASP761  ALA762  ILE779  LEU786  VAL792 
 PHE793  MET794  SER795  GLU796  ALA797  LYS798  CYS799  TRP800  GLU811  SER814 

> <Gold.Protein.RotatedAtoms>
  150.6871  134.2650  159.4564 H   0  0  0  0  0  0  0  0  0  0  0  0  # atno 6907 bound_to 6896
  152.0577  134.9611  160.0584 H   0  0  0  0  0  0  0  0  0  0  0  0  # atno 6908 bound_to 6896
  152.1050  133.4235  159.4641 H   0  0  0  0  0  0  0  0  0  0  0  0  # atno 6909 bound_to 6896
  146.0321  139.4776  142.9831 H   0  0  0  0  0  0  0  0  0  0  0  0  # atno 7974 bound_to 7965
  155.9703  140.3386  155.6570 H   0  0  0  0  0  0  0  0  0  0  0  0  # atno 8008 bound_to 7997
  155.6683  140.0724  157.2547 H   0  0  0  0  0  0  0  0  0  0  0  0  # atno 8009 bound_to 7997
  154.4165  140.1696  156.1839 H   0  0  0  0  0  0  0  0  0  0  0  0  # atno 8010 bound_to 7997
  140.3798  143.2754  151.9397 H   0  0  0  0  0  0  0  0  0  0  0  0  # atno 10167 bound_to 10162
  156.3013  130.4240  149.8140 H   0  0  0  0  0  0  0  0  0  0  0  0  # atno 10718 bound_to 10713
  153.2308  135.4324  155.0593 H   0  0  0  0  0  0  0  0  0  0  0  0  # atno 10763 bound_to 10752
  154.8296  135.3379  154.6790 H   0  0  0  0  0  0  0  0  0  0  0  0  # atno 10764 bound_to 10752
  153.7217  135.7016  153.5067 H   0  0  0  0  0  0  0  0  0  0  0  0  # atno 10765 bound_to 10752
  140.6471  134.4489  157.5234 H   0  0  0  0  0  0  0  0  0  0  0  0  # atno 11005 bound_to 11000
  145.7024  141.0132  143.1497 LP  0  0  0  0  0  0  0  0  0  0  0  0  # atno 17320 bound_to 7965
  144.7035  139.8660  143.7437 LP  0  0  0  0  0  0  0  0  0  0  0  0  # atno 17321 bound_to 7965
  139.4796  144.5829  151.7903 LP  0  0  0  0  0  0  0  0  0  0  0  0  # atno 17342 bound_to 10162
  140.4949  144.1256  150.5958 LP  0  0  0  0  0  0  0  0  0  0  0  0  # atno 17343 bound_to 10162
  156.5517  130.8345  151.3301 LP  0  0  0  0  0  0  0  0  0  0  0  0  # atno 17370 bound_to 10713
  157.7368  130.9786  150.2160 LP  0  0  0  0  0  0  0  0  0  0  0  0  # atno 17371 bound_to 10713
  139.9059  134.8451  156.1709 LP  0  0  0  0  0  0  0  0  0  0  0  0  # atno 17394 bound_to 11000
  141.0564  133.6863  156.1868 LP  0  0  0  0  0  0  0  0  0  0  0  0  # atno 17395 bound_to 11000

$$$$
