AV-unprocessed.smi:1911|AV-procd|sdf|7743|dock5
  -GOLD-   22720 9483D 1   1.00000     0.00000
 Structure written by MMmdl.
 53 55  0  0  0  0  0  0  0  0  3 V2000
  145.0460  135.9729  149.9069 N   0  0  0  0  0  0  0  0  0  0  0  0
  144.6488  135.4573  151.0725 C   0  0  0  0  0  0  0  0  0  0  0  0
  144.2435  136.1606  151.9962 O   0  0  0  0  0  0  0  0  0  0  0  0
  144.7003  133.9318  151.2066 C   0  0  0  0  0  0  0  0  0  0  0  0
  145.6358  133.4708  152.2650 N   0  3  2  0  0  0  0  0  0  0  0  0
  145.5205  134.2515  153.5258 C   0  0  0  0  0  0  0  0  0  0  0  0
  146.4033  133.6504  154.6333 C   0  0  0  0  0  0  0  0  0  0  0  0
  147.8783  133.5379  154.1989 C   0  0  2  0  0  0  0  0  0  0  0  0
  148.5207  134.8487  154.1012 N   0  0  0  0  0  0  0  0  0  0  0  0
  148.7637  135.6713  155.1321 C   0  0  0  0  0  0  0  0  0  0  0  0
  148.4481  135.4143  156.2933 O   0  0  0  0  0  0  0  0  0  0  0  0
  149.3672  136.8003  154.7228 N   0  0  0  0  0  0  0  0  0  0  0  0
  149.7889  137.9093  155.5049 C   0  0  0  0  0  0  0  0  0  0  0  0
  150.5573  138.9886  155.0015 C   0  0  0  0  0  0  0  0  0  0  0  0
  150.9073  140.0515  155.8596 C   0  0  0  0  0  0  0  0  0  0  0  0
  150.4875  140.0246  157.2103 C   0  0  0  0  0  0  0  0  0  0  0  0
  150.7639  141.0401  158.1384 N   0  0  0  0  0  0  0  0  0  0  0  0
  152.1638  141.2312  158.5135 C   0  0  0  0  0  0  0  0  0  0  0  0
  152.3865  142.7425  158.5933 C   0  0  0  0  0  0  0  0  0  0  0  0
  151.3617  143.2934  157.6101 C   0  0  0  0  0  0  0  0  0  0  0  0
  150.1876  142.3292  157.7736 C   0  0  0  0  0  0  0  0  0  0  0  0
  149.7359  138.9882  157.6416 N   0  3  0  0  0  0  0  0  0  0  0  0
  149.3772  137.9523  156.8533 C   0  0  0  0  0  0  0  0  0  0  0  0
  147.9665  132.7929  152.8556 C   0  0  0  0  0  0  0  0  0  0  0  0
  147.0413  133.4072  151.7887 C   0  0  0  0  0  0  0  0  0  0  0  0
  145.0266  136.9737  149.7697 H   0  0  0  0  0  0  0  0  0  0  0  0
  145.3614  135.3669  149.1632 H   0  0  0  0  0  0  0  0  0  0  0  0
  143.6868  133.6072  151.4461 H   0  0  0  0  0  0  0  0  0  0  0  0
  144.9590  133.4708  150.2517 H   0  0  0  0  0  0  0  0  0  0  0  0
  145.8009  135.2897  153.3414 H   0  0  0  0  0  0  0  0  0  0  0  0
  144.4847  134.2640  153.8662 H   0  0  0  0  0  0  0  0  0  0  0  0
  146.3132  134.2412  155.5455 H   0  0  0  0  0  0  0  0  0  0  0  0
  146.0294  132.6567  154.8834 H   0  0  0  0  0  0  0  0  0  0  0  0
  148.4210  132.9538  154.9445 H   0  0  0  0  0  0  0  0  0  0  0  0
  148.8169  135.1428  153.1820 H   0  0  0  0  0  0  0  0  0  0  0  0
  149.4892  136.9029  153.7260 H   0  0  0  0  0  0  0  0  0  0  0  0
  150.8704  139.0339  153.9700 H   0  0  0  0  0  0  0  0  0  0  0  0
  151.4796  140.8812  155.4712 H   0  0  0  0  0  0  0  0  0  0  0  0
  152.3668  140.7553  159.4732 H   0  0  0  0  0  0  0  0  0  0  0  0
  152.8459  140.7911  157.7866 H   0  0  0  0  0  0  0  0  0  0  0  0
  152.1603  143.0989  159.5994 H   0  0  0  0  0  0  0  0  0  0  0  0
  153.4093  143.0342  158.3536 H   0  0  0  0  0  0  0  0  0  0  0  0
  151.0906  144.3305  157.8095 H   0  0  0  0  0  0  0  0  0  0  0  0
  151.7537  143.2340  156.5939 H   0  0  0  0  0  0  0  0  0  0  0  0
  149.5791  142.2847  156.8687 H   0  0  0  0  0  0  0  0  0  0  0  0
  149.5403  142.6546  158.5885 H   0  0  0  0  0  0  0  0  0  0  0  0
  148.7763  137.1898  157.3278 H   0  0  0  0  0  0  0  0  0  0  0  0
  148.9963  132.7793  152.4962 H   0  0  0  0  0  0  0  0  0  0  0  0
  147.6864  131.7496  153.0079 H   0  0  0  0  0  0  0  0  0  0  0  0
  147.0951  132.8018  150.8831 H   0  0  0  0  0  0  0  0  0  0  0  0
  147.3811  134.4084  151.5194 H   0  0  0  0  0  0  0  0  0  0  0  0
  145.3657  132.5212  152.4808 H   0  0  0  0  0  0  0  0  0  0  0  0
  149.4247  138.9875  158.6134 H   0  0  0  0  0  0  0  0  0  0  0  0
  1  2  1  0  0  0  0
  1 26  1  0  0  0  0
  1 27  1  0  0  0  0
  2  3  2  0  0  0  0
  2  4  1  0  0  0  0
  4  5  1  0  0  0  0
  4 28  1  0  0  0  0
  4 29  1  0  0  0  0
  5 25  1  0  0  0  0
  5  6  1  0  0  0  0
  5 52  1  0  0  0  0
  6  7  1  0  0  0  0
  6 30  1  0  0  0  0
  6 31  1  0  0  0  0
  7  8  1  0  0  0  0
  7 32  1  0  0  0  0
  7 33  1  0  0  0  0
  8  9  1  0  0  0  0
  8 24  1  0  0  0  0
  8 34  1  0  0  0  0
  9 10  1  0  0  0  0
  9 35  1  0  0  0  0
 10 11  2  0  0  0  0
 10 12  1  0  0  0  0
 12 13  1  0  0  0  0
 12 36  1  0  0  0  0
 13 23  1  0  0  0  0
 13 14  2  0  0  0  0
 14 15  1  0  0  0  0
 14 37  1  0  0  0  0
 15 16  2  0  0  0  0
 15 38  1  0  0  0  0
 16 17  1  0  0  0  0
 16 22  1  0  0  0  0
 17 21  1  0  0  0  0
 17 18  1  0  0  0  0
 18 19  1  0  0  0  0
 18 39  1  0  0  0  0
 18 40  1  0  0  0  0
 19 20  1  0  0  0  0
 19 41  1  0  0  0  0
 19 42  1  0  0  0  0
 20 21  1  0  0  0  0
 20 43  1  0  0  0  0
 20 44  1  0  0  0  0
 21 45  1  0  0  0  0
 21 46  1  0  0  0  0
 22 23  2  0  0  0  0
 22 53  1  0  0  0  0
 23 47  1  0  0  0  0
 24 25  1  0  0  0  0
 24 48  1  0  0  0  0
 24 49  1  0  0  0  0
 25 50  1  0  0  0  0
 25 51  1  0  0  0  0
M  CHG  1   5   1
M  CHG  1  22   1
M  END
> <s_m_source_file>
AV-unprocessed.smi

> <i_m_source_file_index>
1911

> <i_lp_mmshare_version>
43012

> <i_f3d_flags>
0

> <s_epik_input>
W05IMl1DKD1PKVtDSDJdTjFbQ0gyXVtDSDJdW0NIXShbQ0gyXVtDSDJdMSlbTkhdQyg9TylbTkhdYzJbY0hdW2NIXWMobltjSF0yKU4zW0NIMl1bQ0gyXVtDSDJdW0NIMl0z

> <s_epik_cmdline>
J2VwaWtfcHl0aG9uJywgJy1waCcsICc3LjAnLCAnLXRuJywgJzgnLCAnLW1hJywgJzIwMCcsICctbWV0YWxfYmluZGluZycsICctaW1hZScsICc8aW5maWxlLm1hZT4nLCAnLW9tYWUnLCAnPG91dGZpbGUubWFlPic=

> <r_lp_tautomer_probability>
0.999994

> <r_epik_Ionization_Penalty>
2.11361

> <r_epik_Ionization_Penalty_Charging>
2.11355

> <r_epik_Ionization_Penalty_Neutral>
5.99226e-05

> <r_epik_State_Penalty>
2.13444

> <r_epik_Charging_Adjusted_Penalty>
4.24799

> <i_epik_Tot_Q>
2

> <i_epik_Tot_abs_Q>
2

> <r_epik_Metal_State_Penalty>
2.23538

> <b_epik_Metal_Only>
0

> <s_lp_Force_Field>
OPLS_2005

> <r_lp_Energy>
50.1523

> <b_lp_Chiralities_Consistent>
1

> <s_lp_Variant>
AV-unprocessed.smi:1911-6

> <Gold.Version>
5.8.1

> <Gold.Id.Protein>
6NUR|6NUR_protein|mol2

> <Gold.PLP.Fitness>
45.5319

> <Gold.PLP.PLP>
-34.2054

> <Gold.PLP.part.hbond>
-4.0000

> <Gold.PLP.part.metal>
0.0000

> <Gold.PLP.part.buried>
-7.0451

> <Gold.PLP.part.nonpolar>
-25.4859

> <Gold.PLP.part.repulsive>
0.3926

> <Gold.PLP.ligand.clash>
0.0000

> <Gold.PLP.ligand.torsion>
0.3036

> <Gold.PLP.Chemscore.Hbond>
3.9360

> <Gold.PLP.Chemscore.CHOScore>
0.0000

> <Gold.PLP.Chemscore.Metal>
0.0000

> <Gold.Chemscore.Hbonds>
donor molecule, donor type, donor heavy atom, donor atom, acceptor molecule, acceptor atom, score
      L1  H     1    26       P1 10171  0.90
      L1  H     1    27       P1  7921  1.00
      L1  H     9    35       P1  7948  1.00
      L1  H    12    36       P1  7948  0.94

> <Gold.PLP.Chemscore.Internal.Correction>
0.1257

> <Gold.Rescore>
     Score         DG    S(hbond)    S(metal)    S(lipo)     H(rot)  DE(clash)    DE(int)     intcor
     18.07     -21.22       3.78        0.00      75.21       2.22       0.00       3.15       ----

> <Gold.Chemscore.Fitness>
18.0723

> <Gold.Chemscore.DG>
-21.2222

> <Gold.Chemscore.ZeroCoef>
-5.4800

> <Gold.Chemscore.Hbond>
3.7807

> <Gold.Chemscore.Metal>
0.0000

> <Gold.Chemscore.Lipo>
75.2099

> <Gold.Chemscore.Internal_Hbond>
0.0000

> <Gold.Chemscore.DEClash>
0.0015

> <Gold.Chemscore.DEInternal>
3.1485

> <Gold.Chemscore.Rot>
2.2207

> <Gold.Chemscore.Internal.Correction>
   9.000000E+99

> <Gold.Chemscore.Hbonds>
donor molecule, donor type, donor heavy atom, donor atom, acceptor molecule, acceptor atom, score
      L1  H     1    26       P1 10171  0.87
      L1  H     1    27       P1  7921  1.00
      L1  H     9    35       P1  7948  0.49
      L1  H    12    36       P1  7948  0.75

> <Gold.Chemscore.Hbond.Weighted>
-12.6276

> <Gold.Chemscore.Metal.Weighted>
-0.0000

> <Gold.Chemscore.Lipo.Weighted>
-8.7996

> <Gold.Chemscore.Internal_Hbond.Weighted>
0.0000

> <Gold.Chemscore.DEClash.Weighted>
0.0015

> <Gold.Chemscore.DEInternal.Weighted>
3.1485

> <Gold.Chemscore.Rot.Weighted>
5.6849

> <Gold.Chemscore.Internal.Correction.Weighted>
   9.000000E+99

> <Gold.Protein.RotatedTorsions>
[ 6907 6896 6895 6894 ] final  -23.89 input  -60.11 | X-H torsion
[ 7974 7965 7964 7962 ] final   94.92 input  175.53 | X-H torsion
[ 8008 7997 7996 7995 ] final -155.28 input   59.86 | X-H torsion
[ 10167 10162 10161 10158 ] final   66.09 input  -65.29 | X-H torsion
[ 10718 10713 10712 10709 ] final  -54.36 input   66.30 | X-H torsion
[ 10763 10752 10751 10750 ] final  -44.28 input  -60.55 | X-H torsion
[ 11005 11000 10999 10996 ] final   26.22 input  -57.11 | X-H torsion

> <Gold.Protein.ActiveResidues>
 VAL166  LYS551  ARG553  GLY616  TRP617  ASP618  TYR619  PRO620  LYS621  CYS622 
 ASP623  PHE694  ASN695  SER759  ASP760  ASP761  ALA762  ILE779  LEU786  VAL792 
 PHE793  MET794  SER795  GLU796  ALA797  LYS798  CYS799  TRP800  GLU811  SER814 

> <Gold.Protein.RotatedAtoms>
  151.1974  135.0428  159.8857 H   0  0  0  0  0  0  0  0  0  0  0  0  # atno 6907 bound_to 6896
  152.5435  134.0888  159.8278 H   0  0  0  0  0  0  0  0  0  0  0  0  # atno 6908 bound_to 6896
  151.1024  133.5186  159.2641 H   0  0  0  0  0  0  0  0  0  0  0  0  # atno 6909 bound_to 6896
  145.4592  139.2288  143.2997 H   0  0  0  0  0  0  0  0  0  0  0  0  # atno 7974 bound_to 7965
  155.6993  140.0765  157.2416 H   0  0  0  0  0  0  0  0  0  0  0  0  # atno 8008 bound_to 7997
  154.4075  140.1650  156.2226 H   0  0  0  0  0  0  0  0  0  0  0  0  # atno 8009 bound_to 7997
  155.9382  140.3386  155.6308 H   0  0  0  0  0  0  0  0  0  0  0  0  # atno 8010 bound_to 7997
  140.1042  144.4876  150.7018 H   0  0  0  0  0  0  0  0  0  0  0  0  # atno 10167 bound_to 10162
  156.1457  130.4153  150.0028 H   0  0  0  0  0  0  0  0  0  0  0  0  # atno 10718 bound_to 10713
  154.0094  135.6683  153.4764 H   0  0  0  0  0  0  0  0  0  0  0  0  # atno 10763 bound_to 10752
  153.0627  135.5018  154.8127 H   0  0  0  0  0  0  0  0  0  0  0  0  # atno 10764 bound_to 10752
  154.7005  135.3078  154.9312 H   0  0  0  0  0  0  0  0  0  0  0  0  # atno 10765 bound_to 10752
  140.3394  134.2350  155.7692 H   0  0  0  0  0  0  0  0  0  0  0  0  # atno 11005 bound_to 11000
  146.2461  140.5359  142.8913 LP  0  0  0  0  0  0  0  0  0  0  0  0  # atno 17320 bound_to 7965
  144.8013  140.6219  143.6476 LP  0  0  0  0  0  0  0  0  0  0  0  0  # atno 17321 bound_to 7965
  140.6961  143.2405  151.4997 LP  0  0  0  0  0  0  0  0  0  0  0  0  # atno 17342 bound_to 10162
  139.5654  144.2054  152.1757 LP  0  0  0  0  0  0  0  0  0  0  0  0  # atno 17343 bound_to 10162
  156.7900  130.9252  151.3646 LP  0  0  0  0  0  0  0  0  0  0  0  0  # atno 17370 bound_to 10713
  157.6614  130.8970  149.9839 LP  0  0  0  0  0  0  0  0  0  0  0  0  # atno 17371 bound_to 10713
  141.2042  133.7891  157.0297 LP  0  0  0  0  0  0  0  0  0  0  0  0  # atno 17394 bound_to 11000
  140.0794  134.9657  157.1599 LP  0  0  0  0  0  0  0  0  0  0  0  0  # atno 17395 bound_to 11000

$$$$
