AV-unprocessed.smi:270|AV-procd|sdf|2046|dock9
  -GOLD-   2262021273D 1   1.00000     0.00000
 Structure written by MMmdl.
 54 57  0  0  0  0  0  0  0  0  1 V2000
  151.1452  144.9970  158.8319 C   0  0  0  0  0  0  0  0  0  0  0  0
  152.0231  143.7841  158.4773 C   0  0  1  0  0  0  0  0  0  0  0  0
  152.8611  143.4479  159.5821 O   0  0  0  0  0  0  0  0  0  0  0  0
  152.5528  142.1412  160.0413 C   0  0  0  0  0  0  0  0  0  0  0  0
  152.0899  141.4151  158.7861 C   0  0  0  0  0  0  0  0  0  0  0  0
  151.2853  142.4845  158.0616 C   0  0  1  0  0  0  0  0  0  0  0  0
  149.9632  142.4639  158.5761 O   0  0  0  0  0  0  0  0  0  0  0  0
  151.2240  142.2400  156.5345 C   0  0  0  0  0  0  0  0  0  0  0  0
  150.7579  140.9095  156.1777 N   0  0  0  0  0  0  0  0  0  0  0  0
  149.4803  140.4180  156.3204 C   0  0  0  0  0  0  0  0  0  0  0  0
  149.3132  139.1836  155.9329 N   0  0  0  0  0  0  0  0  0  0  0  0
  150.5677  138.7939  155.4780 C   0  0  0  0  0  0  0  0  0  0  0  0
  151.0826  137.5849  154.9254 C   0  0  0  0  0  0  0  0  0  0  0  0
  150.3003  136.4135  154.7084 N   0  0  0  0  0  0  0  0  0  0  0  0
  149.0984  136.2951  155.5212 C   0  0  0  0  0  0  0  0  0  0  0  0
  149.4797  134.8278  155.7394 C   0  0  0  0  0  0  0  0  0  0  0  0
  148.7424  133.9177  154.9377 O   0  0  0  0  0  0  0  0  0  0  0  0
  149.5265  132.8223  154.4913 C   0  0  0  0  0  0  0  0  0  0  0  0
  148.5958  131.6575  154.1350 C   0  0  0  0  0  0  0  0  0  0  0  0
  148.6732  130.6252  154.8026 O   0  0  0  0  0  0  0  0  0  0  0  0
  147.7170  131.8001  153.1152 N   0  0  0  0  0  0  0  0  0  0  0  0
  146.7493  130.7658  152.7383 C   0  0  0  0  0  0  0  0  0  0  0  0
  147.6759  133.0365  152.3301 C   0  0  0  0  0  0  0  0  0  0  0  0
  150.8549  135.1378  155.1470 C   0  0  0  0  0  0  0  0  0  0  0  0
  152.3911  137.6039  154.5543 N   0  0  0  0  0  0  0  0  0  0  0  0
  153.1460  138.6914  154.7352 C   0  0  0  0  0  0  0  0  0  0  0  0
  152.7995  139.8689  155.2555 N   0  0  0  0  0  0  0  0  0  0  0  0
  151.4848  139.8755  155.6137 C   0  0  0  0  0  0  0  0  0  0  0  0
  150.4856  145.2651  158.0068 H   0  0  0  0  0  0  0  0  0  0  0  0
  151.7628  145.8667  159.0565 H   0  0  0  0  0  0  0  0  0  0  0  0
  150.5263  144.8021  159.7080 H   0  0  0  0  0  0  0  0  0  0  0  0
  152.7055  144.0776  157.6793 H   0  0  0  0  0  0  0  0  0  0  0  0
  153.4152  141.6676  160.5106 H   0  0  0  0  0  0  0  0  0  0  0  0
  151.7486  142.1971  160.7763 H   0  0  0  0  0  0  0  0  0  0  0  0
  152.9633  141.1326  158.1963 H   0  0  0  0  0  0  0  0  0  0  0  0
  151.5244  140.5070  158.9991 H   0  0  0  0  0  0  0  0  0  0  0  0
  149.9657  141.9912  159.3942 H   0  0  0  0  0  0  0  0  0  0  0  0
  150.5589  142.9653  156.0641 H   0  0  0  0  0  0  0  0  0  0  0  0
  152.2064  142.3940  156.0860 H   0  0  0  0  0  0  0  0  0  0  0  0
  148.6712  141.0045  156.7310 H   0  0  0  0  0  0  0  0  0  0  0  0
  149.1329  136.8836  156.4393 H   0  0  0  0  0  0  0  0  0  0  0  0
  148.1794  136.4526  154.9561 H   0  0  0  0  0  0  0  0  0  0  0  0
  149.5351  134.5381  156.7900 H   0  0  0  0  0  0  0  0  0  0  0  0
  150.0953  133.1149  153.6069 H   0  0  0  0  0  0  0  0  0  0  0  0
  150.2504  132.5122  155.2458 H   0  0  0  0  0  0  0  0  0  0  0  0
  147.2594  129.8933  152.3286 H   0  0  0  0  0  0  0  0  0  0  0  0
  146.0428  131.1133  151.9842 H   0  0  0  0  0  0  0  0  0  0  0  0
  146.1562  130.4476  153.5960 H   0  0  0  0  0  0  0  0  0  0  0  0
  147.1660  133.8208  152.8902 H   0  0  0  0  0  0  0  0  0  0  0  0
  147.1539  132.9091  151.3814 H   0  0  0  0  0  0  0  0  0  0  0  0
  148.6799  133.3893  152.0888 H   0  0  0  0  0  0  0  0  0  0  0  0
  151.1492  134.4863  154.3238 H   0  0  0  0  0  0  0  0  0  0  0  0
  151.6279  135.2207  155.9125 H   0  0  0  0  0  0  0  0  0  0  0  0
  154.1743  138.6047  154.4165 H   0  0  0  0  0  0  0  0  0  0  0  0
  1  2  1  0  0  0  0
  1 29  1  0  0  0  0
  1 30  1  0  0  0  0
  1 31  1  0  0  0  0
  2  6  1  0  0  0  0
  2  3  1  0  0  0  0
  2 32  1  0  0  0  0
  3  4  1  0  0  0  0
  4  5  1  0  0  0  0
  4 33  1  0  0  0  0
  4 34  1  0  0  0  0
  5  6  1  0  0  0  0
  5 35  1  0  0  0  0
  5 36  1  0  0  0  0
  6  7  1  0  0  0  0
  6  8  1  0  0  0  0
  7 37  1  0  0  0  0
  8  9  1  0  0  0  0
  8 38  1  0  0  0  0
  8 39  1  0  0  0  0
  9 28  1  0  0  0  0
  9 10  1  0  0  0  0
 10 11  2  0  0  0  0
 10 40  1  0  0  0  0
 11 12  1  0  0  0  0
 12 28  2  0  0  0  0
 12 13  1  0  0  0  0
 13 14  1  0  0  0  0
 13 25  2  0  0  0  0
 14 24  1  0  0  0  0
 14 15  1  0  0  0  0
 15 16  1  0  0  0  0
 15 41  1  0  0  0  0
 15 42  1  0  0  0  0
 16 17  1  0  0  0  0
 16 24  1  0  0  0  0
 16 43  1  0  0  0  0
 17 18  1  0  0  0  0
 18 19  1  0  0  0  0
 18 44  1  0  0  0  0
 18 45  1  0  0  0  0
 19 20  2  0  0  0  0
 19 21  1  0  0  0  0
 21 22  1  0  0  0  0
 21 23  1  0  0  0  0
 22 46  1  0  0  0  0
 22 47  1  0  0  0  0
 22 48  1  0  0  0  0
 23 49  1  0  0  0  0
 23 50  1  0  0  0  0
 23 51  1  0  0  0  0
 24 52  1  0  0  0  0
 24 53  1  0  0  0  0
 25 26  1  0  0  0  0
 26 27  2  0  0  0  0
 26 54  1  0  0  0  0
 27 28  1  0  0  0  0
M  END
> <s_m_source_file>
AV-unprocessed.smi

> <i_m_source_file_index>
270

> <i_lp_mmshare_version>
43012

> <i_f3d_flags>
0

> <s_epik_input>
W0NIMl0xW0NIMl1PW0NAQEhdKFtDSDNdKVtDQEBdMShbT0hdKVtDSDJdbihbY0hdbjIpYyhjMjMpbltjSF1uYzNONFtDSDJdW0NIXShbQ0gyXTQpT1tDSDJdQyg9TylOKFtDSDNdKVtDSDNd

> <s_epik_cmdline>
J2VwaWtfcHl0aG9uJywgJy1waCcsICc3LjAnLCAnLXRuJywgJzgnLCAnLW1hJywgJzIwMCcsICctbWV0YWxfYmluZGluZycsICctaW1hZScsICc8aW5maWxlLm1hZT4nLCAnLW9tYWUnLCAnPG91dGZpbGUubWFlPic=

> <r_lp_tautomer_probability>
1

> <r_epik_Ionization_Penalty>
0.00375854

> <r_epik_Ionization_Penalty_Charging>
0

> <r_epik_Ionization_Penalty_Neutral>
0.00375854

> <r_epik_State_Penalty>
-0

> <r_epik_Charging_Adjusted_Penalty>
0

> <i_epik_Tot_Q>
0

> <i_epik_Tot_abs_Q>
0

> <r_epik_Metal_State_Penalty>
-0

> <b_epik_Metal_Only>
0

> <s_lp_Force_Field>
OPLS_2005

> <r_lp_Energy>
55.1289

> <b_lp_Chiralities_Consistent>
1

> <s_lp_Variant>
AV-unprocessed.smi:270-2

> <Gold.Version>
5.8.1

> <Gold.Id.Protein>
6NUR|6NUR_protein|mol2

> <Gold.PLP.Fitness>
52.8564

> <Gold.PLP.PLP>
-49.8644

> <Gold.PLP.part.hbond>
-3.0000

> <Gold.PLP.part.metal>
0.0000

> <Gold.PLP.part.buried>
-6.8871

> <Gold.PLP.part.nonpolar>
-41.7094

> <Gold.PLP.part.repulsive>
1.5737

> <Gold.PLP.ligand.clash>
0.0421

> <Gold.PLP.ligand.torsion>
1.0287

> <Gold.PLP.Chemscore.Hbond>
1.5864

> <Gold.PLP.Chemscore.CHOScore>
0.0000

> <Gold.PLP.Chemscore.Metal>
0.0000

> <Gold.Chemscore.Hbonds>
donor molecule, donor type, donor heavy atom, donor atom, acceptor molecule, acceptor atom, score
      P1  H  7997  8010       L1    27  0.70
      P1  H 10752 10764       L1    25  0.64

> <Gold.PLP.Chemscore.Internal.Correction>
0.3323

> <Gold.Rescore>
     Score         DG    S(hbond)    S(metal)    S(lipo)     H(rot)  DE(clash)    DE(int)     intcor
      7.50     -13.06       1.27        0.00      96.78       3.12       2.10       3.47       ----

> <Gold.Chemscore.Fitness>
7.4990

> <Gold.Chemscore.DG>
-13.0648

> <Gold.Chemscore.ZeroCoef>
-5.4800

> <Gold.Chemscore.Hbond>
1.2746

> <Gold.Chemscore.Metal>
0.0000

> <Gold.Chemscore.Lipo>
96.7831

> <Gold.Chemscore.Internal_Hbond>
0.0000

> <Gold.Chemscore.DEClash>
2.1008

> <Gold.Chemscore.DEInternal>
3.4650

> <Gold.Chemscore.Rot>
3.1234

> <Gold.Chemscore.Internal.Correction>
   9.000000E+99

> <Gold.Chemscore.Hbonds>
donor molecule, donor type, donor heavy atom, donor atom, acceptor molecule, acceptor atom, score
      P1  H  7997  8010       L1    27  0.07
      P1  H 10752 10764       L1    25  0.39

> <Gold.Chemscore.Hbond.Weighted>
-4.2570

> <Gold.Chemscore.Metal.Weighted>
-0.0000

> <Gold.Chemscore.Lipo.Weighted>
-11.3236

> <Gold.Chemscore.Internal_Hbond.Weighted>
0.0000

> <Gold.Chemscore.DEClash.Weighted>
2.1008

> <Gold.Chemscore.DEInternal.Weighted>
3.4650

> <Gold.Chemscore.Rot.Weighted>
7.9959

> <Gold.Chemscore.Internal.Correction.Weighted>
   9.000000E+99

> <Gold.Protein.RotatedTorsions>
[ 6907 6896 6895 6894 ] final  130.91 input  -60.11 | X-H torsion
[ 7974 7965 7964 7962 ] final  163.39 input  175.53 | X-H torsion
[ 8008 7997 7996 7995 ] final  103.93 input   59.86 | X-H torsion
[ 10167 10162 10161 10158 ] final  173.21 input  -65.29 | X-H torsion
[ 10718 10713 10712 10709 ] final  -26.45 input   66.30 | X-H torsion
[ 10763 10752 10751 10750 ] final  -80.04 input  -60.55 | X-H torsion
[ 11005 11000 10999 10996 ] final  -62.71 input  -57.11 | X-H torsion

> <Gold.Protein.ActiveResidues>
 VAL166  LYS551  ARG553  GLY616  TRP617  ASP618  TYR619  PRO620  LYS621  CYS622 
 ASP623  PHE694  ASN695  SER759  ASP760  ASP761  ALA762  ILE779  LEU786  VAL792 
 PHE793  MET794  SER795  GLU796  ALA797  LYS798  CYS799  TRP800  GLU811  SER814 

> <Gold.Protein.RotatedAtoms>
  152.3479  133.6144  159.5923 H   0  0  0  0  0  0  0  0  0  0  0  0  # atno 6907 bound_to 6896
  150.7519  133.9620  159.3527 H   0  0  0  0  0  0  0  0  0  0  0  0  # atno 6908 bound_to 6896
  151.7476  135.0841  160.0377 H   0  0  0  0  0  0  0  0  0  0  0  0  # atno 6909 bound_to 6896
  144.7592  139.8175  143.6339 H   0  0  0  0  0  0  0  0  0  0  0  0  # atno 7974 bound_to 7965
  156.1528  140.3156  155.8676 H   0  0  0  0  0  0  0  0  0  0  0  0  # atno 8008 bound_to 7997
  155.3938  140.0495  157.3056 H   0  0  0  0  0  0  0  0  0  0  0  0  # atno 8009 bound_to 7997
  154.5074  140.2152  155.9236 H   0  0  0  0  0  0  0  0  0  0  0  0  # atno 8010 bound_to 7997
  139.5101  144.3287  152.0133 H   0  0  0  0  0  0  0  0  0  0  0  0  # atno 10167 bound_to 10162
  156.4510  130.4484  149.6990 H   0  0  0  0  0  0  0  0  0  0  0  0  # atno 10718 bound_to 10713
  154.5462  135.5675  153.6882 H   0  0  0  0  0  0  0  0  0  0  0  0  # atno 10763 bound_to 10752
  152.9977  135.6240  154.2435 H   0  0  0  0  0  0  0  0  0  0  0  0  # atno 10764 bound_to 10752
  154.2368  135.2864  155.2849 H   0  0  0  0  0  0  0  0  0  0  0  0  # atno 10765 bound_to 10752
  141.1369  133.6643  156.5569 H   0  0  0  0  0  0  0  0  0  0  0  0  # atno 11005 bound_to 11000
  146.1637  139.4760  142.9972 LP  0  0  0  0  0  0  0  0  0  0  0  0  # atno 17320 bound_to 7965
  145.6675  141.0225  143.1675 LP  0  0  0  0  0  0  0  0  0  0  0  0  # atno 17321 bound_to 7965
  140.2727  144.3946  150.6146 LP  0  0  0  0  0  0  0  0  0  0  0  0  # atno 17342 bound_to 10162
  140.6076  143.2168  151.6949 LP  0  0  0  0  0  0  0  0  0  0  0  0  # atno 17343 bound_to 10162
  156.3816  130.7582  151.2575 LP  0  0  0  0  0  0  0  0  0  0  0  0  # atno 17370 bound_to 10713
  157.7503  131.0294  150.4091 LP  0  0  0  0  0  0  0  0  0  0  0  0  # atno 17371 bound_to 10713
  140.4019  134.7349  157.4785 LP  0  0  0  0  0  0  0  0  0  0  0  0  # atno 17394 bound_to 11000
  140.0490  134.6158  155.8886 LP  0  0  0  0  0  0  0  0  0  0  0  0  # atno 17395 bound_to 11000

$$$$
