#       Name:                AV-unprocessed.smi:3009
#       Creating user name   scv26
#       Creation time:       Fri Mar 27 16:38:37 2020


#       File generated by GOLD software.
#

@<TRIPOS>MOLECULE
AV-unprocessed.smi:3009
    49    50     1
SMALL
NO_CHARGES


@<TRIPOS>ATOM
      1 ****        -3.5185   2.9853   1.0702 C.3            1 S1                 0.0000
      2 ****        -4.2084   1.6810   1.5040 C.3            1 S1                 0.0000
      3 ****        -4.4788   1.6276   3.0177 C.3            1 S1                 0.0000
      4 ****        -3.5357   0.4031   0.9442 C.3            1 S1                 0.0000
      5 ****        -2.0709   0.3811   0.8712 N.3            1 S1                 0.0000
      6 ****        -1.4285   0.3375   2.1821 C.3            1 S1                 0.0000
      7 ****         0.1039   0.2601   2.0729 C.3            1 S1                 0.0000
      8 ****         0.4728  -0.8622   1.2797 O.3            1 S1                 0.0000
      9 ****        -0.0787  -0.8148  -0.0338 C.3            1 S1                 0.0000
     10 ****         0.3949  -2.0559  -0.8095 C.3            1 S1                 0.0000
     11 ****         1.8451  -2.0734  -0.9679 N.am           1 S1                 0.0000
     12 ****         2.5276  -1.3711  -1.8829 C.2            1 S1                 0.0000
     13 ****         1.9939  -0.6344  -2.7128 O.2            1 S1                 0.0000
     14 ****         3.8499  -1.5781  -1.7705 N.am           1 S1                 0.0000
     15 ****         4.8813  -1.0024  -2.5548 C.2            1 S1                 0.0000
     16 ****         6.2671  -1.2756  -2.3959 C.2            1 S1                 0.0000
     17 ****         6.9975  -0.5928  -3.2660 N.2            1 S1                 0.0000
     18 ****         6.0910   0.1145  -3.9780 N.pl3          1 S1                 0.0000
     19 ****         4.7904  -0.1026  -3.5797 C.2            1 S1                 0.0000
     20 ****        -1.6143  -0.7602   0.0834 C.3            1 S1                 0.0000
     21 ****         6.3721   0.7350  -4.7241 H              1 S1                 0.0000
     22 ****        -2.5306   3.0897   1.5190 H              1 S1                 0.0000
     23 ****        -4.1063   3.8545   1.3661 H              1 S1                 0.0000
     24 ****        -3.3985   3.0227  -0.0128 H              1 S1                 0.0000
     25 ****        -5.1994   1.7023   1.0485 H              1 S1                 0.0000
     26 ****        -3.5674   1.6740   3.6100 H              1 S1                 0.0000
     27 ****        -5.0058   0.7127   3.2895 H              1 S1                 0.0000
     28 ****        -5.1045   2.4656   3.3267 H              1 S1                 0.0000
     29 ****        -3.8952  -0.4729   1.4862 H              1 S1                 0.0000
     30 ****        -3.9164   0.2826  -0.0712 H              1 S1                 0.0000
     31 ****        -1.6772   1.2289   2.7530 H              1 S1                 0.0000
     32 ****        -1.7967  -0.5190   2.7488 H              1 S1                 0.0000
     33 ****         0.5063   1.1735   1.6320 H              1 S1                 0.0000
     34 ****         0.5496   0.1592   3.0625 H              1 S1                 0.0000
     35 ****         0.2735   0.0863  -0.5394 H              1 S1                 0.0000
     36 ****         0.0959  -2.9628  -0.2832 H              1 S1                 0.0000
     37 ****        -0.0827  -2.0956  -1.7901 H              1 S1                 0.0000
     38 ****         2.3651  -2.6491  -0.3220 H              1 S1                 0.0000
     39 ****         4.1510  -2.2132  -1.0459 H              1 S1                 0.0000
     40 ****         6.7571  -1.9332  -1.6927 H              1 S1                 0.0000
     41 ****         3.9518   0.3898  -4.0496 H              1 S1                 0.0000
     42 ****        -1.9766  -1.6863   0.5330 H              1 S1                 0.0000
     43 ****        -2.0461  -0.7112  -0.9172 H              1 S1                 0.0000
     44 ****        -1.8058   1.2394   0.4318 LP             1 S1                 0.0000
     45 ****         0.1497  -1.6934   1.7322 LP             1 S1                 0.0000
     46 ****         1.4698  -0.8883   1.2069 LP             1 S1                 0.0000
     47 ****         0.9988  -0.5361  -2.7275 LP             1 S1                 0.0000
     48 ****         2.5555  -0.1344  -3.3721 LP             1 S1                 0.0000
     49 ****         7.9918  -0.5992  -3.3718 LP             1 S1                 0.0000
@<TRIPOS>BOND
    1    1    2 1     
    2    1   22 1     
    3    1   23 1     
    4    1   24 1     
    5    2    3 1     
    6    2    4 1     
    7    2   25 1     
    8    3   26 1     
    9    3   27 1     
   10    3   28 1     
   11    4    5 1     
   12    4   29 1     
   13    4   30 1     
   14    5   20 1     
   15    5    6 1     
   16    6    7 1     
   17    6   31 1     
   18    6   32 1     
   19    7    8 1     
   20    7   33 1     
   21    7   34 1     
   22    8    9 1     
   23    9   10 1     
   24    9   20 1     
   25    9   35 1     
   26   10   11 1     
   27   10   36 1     
   28   10   37 1     
   29   11   12 am    
   30   11   38 1     
   31   12   13 2     
   32   12   14 am    
   33   14   15 1     
   34   14   39 1     
   35   15   19 2     
   36   15   16 1     
   37   16   17 2     
   38   16   40 1     
   39   17   18 1     
   40   18   21 1     
   41   18   19 1     
   42   19   41 1     
   43   20   42 1     
   44   20   43 1     
   45    5   44 1     
   46    8   45 1     
   47    8   46 1     
   48   13   47 1     
   49   13   48 1     
   50   17   49 1     
@<TRIPOS>SUBSTRUCTURE
      1 S1             1
@<TRIPOS>SET
LONE_PAIRS      STATIC     ATOMS    <user>   **** ""
6 44 45 46 47 48 49
DONOR_HYDROGENS      STATIC     ATOMS    <user>   **** ""
3 38 39 21
ATOM$BLUE        STATIC     ATOMS    COLORGROUP SYSTEM
6 44 45 46 47 48 49
ATOM$RED        STATIC     ATOMS    COLORGROUP SYSTEM
3 38 39 21
