AV-unprocessed.smi:114|AV-procd|sdf|1120|dock4
  -GOLD-   2262018243D 1   1.00000     0.00000
 Structure written by MMmdl.
 32 34  0  0  0  0  0  0  0  0  1 V2000
  148.6546  130.0536  155.5583 N   0  0  0  0  0  0  0  0  0  0  0  0
  148.5660  131.1663  154.8159 C   0  0  0  0  0  0  0  0  0  0  0  0
  149.3469  132.2231  155.1417 N   0  0  0  0  0  0  0  0  0  0  0  0
  149.2880  133.3540  154.4268 C   0  0  0  0  0  0  0  0  0  0  0  0
  150.1037  134.3588  154.8237 F   0  0  0  0  0  0  0  0  0  0  0  0
  148.5134  133.6038  153.3650 N   0  0  0  0  0  0  0  0  0  0  0  0
  147.7272  132.5389  153.0353 C   0  0  0  0  0  0  0  0  0  0  0  0
  147.6931  131.2891  153.7075 C   0  0  0  0  0  0  0  0  0  0  0  0
  146.7736  130.4485  153.0947 N   0  0  0  0  0  0  0  0  0  0  0  0
  146.2923  131.1684  152.1157 C   0  0  0  0  0  0  0  0  0  0  0  0
  146.8092  132.4439  152.0129 N   0  0  0  0  0  0  0  0  0  0  0  0
  146.4943  133.5263  151.0235 C   0  0  1  0  0  0  0  0  0  0  0  0
  145.8549  132.9488  149.9252 O   0  0  0  0  0  0  0  0  0  0  0  0
  144.4547  133.1905  150.0026 C   0  0  2  0  0  0  0  0  0  0  0  0
  143.7790  133.0051  148.6333 C   0  0  0  0  0  0  0  0  0  0  0  0
  142.6599  132.1547  148.7606 O   0  0  0  0  0  0  0  0  0  0  0  0
  144.3982  134.6078  150.5860 C   0  0  2  0  0  0  0  0  0  0  0  0
  144.6298  135.5823  149.5846 O   0  0  0  0  0  0  0  0  0  0  0  0
  145.5375  134.6008  151.5985 C   0  0  1  0  0  0  0  0  0  0  0  0
  145.0297  134.2952  152.8864 O   0  0  0  0  0  0  0  0  0  0  0  0
  147.4676  133.9190  150.7269 H   0  0  0  0  0  0  0  0  0  0  0  0
  144.0131  132.5079  150.7311 H   0  0  0  0  0  0  0  0  0  0  0  0
  143.4305  134.8204  151.0427 H   0  0  0  0  0  0  0  0  0  0  0  0
  146.0525  135.5612  151.6498 H   0  0  0  0  0  0  0  0  0  0  0  0
  148.0806  129.2535  155.3336 H   0  0  0  0  0  0  0  0  0  0  0  0
  149.2926  130.0174  156.3401 H   0  0  0  0  0  0  0  0  0  0  0  0
  145.5440  130.7796  151.4407 H   0  0  0  0  0  0  0  0  0  0  0  0
  143.4191  133.9639  148.2590 H   0  0  0  0  0  0  0  0  0  0  0  0
  144.4750  132.6054  147.8951 H   0  0  0  0  0  0  0  0  0  0  0  0
  141.9210  132.6701  149.0461 H   0  0  0  0  0  0  0  0  0  0  0  0
  144.2708  136.4060  149.8774 H   0  0  0  0  0  0  0  0  0  0  0  0
  144.8105  135.1065  153.3191 H   0  0  0  0  0  0  0  0  0  0  0  0
  1  2  1  0  0  0  0
  1 25  1  0  0  0  0
  1 26  1  0  0  0  0
  2  8  1  0  0  0  0
  2  3  2  0  0  0  0
  3  4  1  0  0  0  0
  4  5  1  0  0  0  0
  4  6  2  0  0  0  0
  6  7  1  0  0  0  0
  7 11  1  0  0  0  0
  7  8  2  0  0  0  0
  8  9  1  0  0  0  0
  9 10  2  0  0  0  0
 10 11  1  0  0  0  0
 10 27  1  0  0  0  0
 11 12  1  0  0  0  0
 12 21  1  0  0  0  0
 12 19  1  0  0  0  0
 12 13  1  0  0  0  0
 13 14  1  0  0  0  0
 14 22  1  0  0  0  0
 14 15  1  0  0  0  0
 14 17  1  0  0  0  0
 15 16  1  0  0  0  0
 15 28  1  0  0  0  0
 15 29  1  0  0  0  0
 16 30  1  0  0  0  0
 17 23  1  0  0  0  0
 17 18  1  0  0  0  0
 17 19  1  0  0  0  0
 18 31  1  0  0  0  0
 19 24  1  0  0  0  0
 19 20  1  0  0  0  0
 20 32  1  0  0  0  0
M  END
> <s_m_source_file>
AV-unprocessed.smi

> <i_m_source_file_index>
114

> <i_lp_mmshare_version>
43012

> <i_f3d_flags>
0

> <s_epik_input>
RmMobjEpbmMoW05IMl0pYyhjMTIpbltjSF1uMltDQEBIXTNPW0NASF0oW0NIMl1bT0hdKVtDQEBIXShbT0hdKVtDQEBIXTNbT0hd

> <s_epik_cmdline>
J2VwaWtfcHl0aG9uJywgJy1waCcsICc3LjAnLCAnLXRuJywgJzgnLCAnLW1hJywgJzIwMCcsICctbWV0YWxfYmluZGluZycsICctaW1hZScsICc8aW5maWxlLm1hZT4nLCAnLW9tYWUnLCAnPG91dGZpbGUubWFlPic=

> <r_lp_tautomer_probability>
1

> <r_epik_Ionization_Penalty>
1.13199e-05

> <r_epik_Ionization_Penalty_Charging>
0

> <r_epik_Ionization_Penalty_Neutral>
1.13199e-05

> <r_epik_State_Penalty>
-0

> <r_epik_Charging_Adjusted_Penalty>
0

> <i_epik_Tot_Q>
0

> <i_epik_Tot_abs_Q>
0

> <r_epik_Metal_State_Penalty>
-0

> <b_epik_Metal_Only>
0

> <s_epik_Chemistry_Notes>
This compound contains an acetal/aminal-like group ( X-CH(R)-Y where X, Y are N, S, or O) that may be acid/base labile, releasing an aldehyde.

> <s_lp_Force_Field>
OPLS_2005

> <r_lp_Energy>
38.7556

> <b_lp_Chiralities_Consistent>
1

> <s_lp_Variant>
AV-unprocessed.smi:114-14

> <Gold.Version>
5.8.1

> <Gold.Id.Protein>
6NUR|6NUR_protein|mol2

> <Gold.PLP.Fitness>
39.6648

> <Gold.PLP.PLP>
-34.5003

> <Gold.PLP.part.hbond>
-4.8434

> <Gold.PLP.part.metal>
0.0000

> <Gold.PLP.part.buried>
-4.7018

> <Gold.PLP.part.nonpolar>
-26.2138

> <Gold.PLP.part.repulsive>
2.6863

> <Gold.PLP.ligand.clash>
0.0000

> <Gold.PLP.ligand.torsion>
1.2265

> <Gold.PLP.Chemscore.Hbond>
2.5188

> <Gold.PLP.Chemscore.CHOScore>
0.0000

> <Gold.PLP.Chemscore.Metal>
0.0000

> <Gold.Chemscore.Hbonds>
donor molecule, donor type, donor heavy atom, donor atom, acceptor molecule, acceptor atom, score
      L1  H    16    30       P1 10186  1.00
      L1  H    18    31       P1 10171  0.60
      P1  H 10785 10796       L1    16  0.89

> <Gold.PLP.Chemscore.Internal.Correction>
0.0612

> <Gold.Rescore>
     Score         DG    S(hbond)    S(metal)    S(lipo)     H(rot)  DE(clash)    DE(int)     intcor
      4.83      -6.14       2.09        0.00      34.12       4.03       0.32       1.00       ----

> <Gold.Chemscore.Fitness>
4.8282

> <Gold.Chemscore.DG>
-6.1446

> <Gold.Chemscore.ZeroCoef>
-5.4800

> <Gold.Chemscore.Hbond>
2.0908

> <Gold.Chemscore.Metal>
0.0000

> <Gold.Chemscore.Lipo>
34.1231

> <Gold.Chemscore.Internal_Hbond>
0.0000

> <Gold.Chemscore.DEClash>
0.3186

> <Gold.Chemscore.DEInternal>
0.9977

> <Gold.Chemscore.Rot>
4.0277

> <Gold.Chemscore.Internal.Correction>
   9.000000E+99

> <Gold.Chemscore.Hbonds>
donor molecule, donor type, donor heavy atom, donor atom, acceptor molecule, acceptor atom, score
      L1  H    16    30       P1 10186  0.92
      L1  H    18    31       P1 10171  0.60
      P1  H 10785 10796       L1    16  0.68

> <Gold.Chemscore.Hbond.Weighted>
-6.9832

> <Gold.Chemscore.Metal.Weighted>
-0.0000

> <Gold.Chemscore.Lipo.Weighted>
-3.9924

> <Gold.Chemscore.Internal_Hbond.Weighted>
0.0000

> <Gold.Chemscore.DEClash.Weighted>
0.3186

> <Gold.Chemscore.DEInternal.Weighted>
0.9977

> <Gold.Chemscore.Rot.Weighted>
10.3110

> <Gold.Chemscore.Internal.Correction.Weighted>
   9.000000E+99

> <Gold.Protein.RotatedTorsions>
[ 6907 6896 6895 6894 ] final -155.91 input  -60.11 | X-H torsion
[ 7974 7965 7964 7962 ] final  -46.18 input  175.53 | X-H torsion
[ 8008 7997 7996 7995 ] final  -78.22 input   59.86 | X-H torsion
[ 10167 10162 10161 10158 ] final   42.98 input  -65.29 | X-H torsion
[ 10718 10713 10712 10709 ] final  116.32 input   66.30 | X-H torsion
[ 10763 10752 10751 10750 ] final -170.15 input  -60.55 | X-H torsion
[ 11005 11000 10999 10996 ] final  -23.07 input  -57.11 | X-H torsion

> <Gold.Protein.ActiveResidues>
 VAL166  LYS551  ARG553  GLY616  TRP617  ASP618  TYR619  PRO620  LYS621  CYS622 
 ASP623  PHE694  ASN695  SER759  ASP760  ASP761  ALA762  ILE779  LEU786  VAL792 
 PHE793  MET794  SER795  GLU796  ALA797  LYS798  CYS799  TRP800  GLU811  SER814 

> <Gold.Protein.RotatedAtoms>
  151.2797  133.4215  159.2625 H   0  0  0  0  0  0  0  0  0  0  0  0  # atno 6907 bound_to 6896
  151.0372  134.9581  159.8152 H   0  0  0  0  0  0  0  0  0  0  0  0  # atno 6908 bound_to 6896
  152.5358  134.2756  159.9040 H   0  0  0  0  0  0  0  0  0  0  0  0  # atno 6909 bound_to 6896
  145.9746  140.7348  142.9394 H   0  0  0  0  0  0  0  0  0  0  0  0  # atno 7974 bound_to 7965
  154.5669  140.0698  156.8904 H   0  0  0  0  0  0  0  0  0  0  0  0  # atno 8008 bound_to 7997
  155.2707  140.3365  155.4247 H   0  0  0  0  0  0  0  0  0  0  0  0  # atno 8009 bound_to 7997
  156.2087  140.1750  156.7728 H   0  0  0  0  0  0  0  0  0  0  0  0  # atno 8010 bound_to 7997
  140.3489  144.2375  150.6147 H   0  0  0  0  0  0  0  0  0  0  0  0  # atno 10167 bound_to 10162
  157.6168  131.1024  150.7455 H   0  0  0  0  0  0  0  0  0  0  0  0  # atno 10718 bound_to 10713
  154.6446  135.2903  155.0061 H   0  0  0  0  0  0  0  0  0  0  0  0  # atno 10763 bound_to 10752
  154.1176  135.6553  153.4900 H   0  0  0  0  0  0  0  0  0  0  0  0  # atno 10764 bound_to 10752
  153.0344  135.5280  154.7328 H   0  0  0  0  0  0  0  0  0  0  0  0  # atno 10765 bound_to 10752
  140.8717  133.7716  156.0194 H   0  0  0  0  0  0  0  0  0  0  0  0  # atno 11005 bound_to 11000
  144.6845  140.2805  143.7293 LP  0  0  0  0  0  0  0  0  0  0  0  0  # atno 17320 bound_to 7965
  145.7858  139.1908  143.2131 LP  0  0  0  0  0  0  0  0  0  0  0  0  # atno 17321 bound_to 7965
  140.5238  143.2259  151.8347 LP  0  0  0  0  0  0  0  0  0  0  0  0  # atno 17342 bound_to 10162
  139.4829  144.4805  151.9313 LP  0  0  0  0  0  0  0  0  0  0  0  0  # atno 17343 bound_to 10162
  156.7821  130.4863  149.5399 LP  0  0  0  0  0  0  0  0  0  0  0  0  # atno 17370 bound_to 10713
  156.1294  130.6167  151.0310 LP  0  0  0  0  0  0  0  0  0  0  0  0  # atno 17371 bound_to 10713
  140.8565  134.2891  157.5253 LP  0  0  0  0  0  0  0  0  0  0  0  0  # atno 17394 bound_to 11000
  139.8712  134.9496  156.4029 LP  0  0  0  0  0  0  0  0  0  0  0  0  # atno 17395 bound_to 11000

$$$$
