AV-unprocessed.smi:36|AV-procd|sdf|282|dock3
  -GOLD-   2262016 53D 1   1.00000     0.00000
 Structure written by MMmdl.
 64 67  0  0  0  0  0  0  0  0  1 V2000
  145.0906  134.9160  161.7022 C   0  0  0  0  0  0  0  0  0  0  0  0
  146.4762  134.5035  161.1766 C   0  0  0  0  0  0  0  0  0  0  0  0
  147.2373  135.7569  160.7121 C   0  0  0  0  0  0  0  0  0  0  0  0
  147.2689  133.8030  162.2928 C   0  0  0  0  0  0  0  0  0  0  0  0
  146.2515  133.2858  159.7142 Si  0  0  0  0  0  0  0  0  0  0  0  0
  145.3082  131.7398  160.2877 C   0  0  0  0  0  0  0  0  0  0  0  0
  145.3247  134.1055  158.2711 C   0  0  0  0  0  0  0  0  0  0  0  0
  147.7715  132.7741  159.1699 O   0  0  0  0  0  0  0  0  0  0  0  0
  148.0438  132.3682  157.8439 C   0  0  0  0  0  0  0  0  0  0  0  0
  148.5435  133.5740  157.0343 C   0  0  1  0  0  0  0  0  0  0  0  0
  149.8224  134.0038  157.4883 O   0  0  0  0  0  0  0  0  0  0  0  0
  150.5277  134.6080  156.4440 C   0  0  2  0  0  0  0  0  0  0  0  0
  150.7294  136.0473  156.7828 N   0  0  0  0  0  0  0  0  0  0  0  0
  150.5173  136.6950  157.9809 C   0  0  0  0  0  0  0  0  0  0  0  0
  150.7827  137.9743  157.9777 N   0  0  0  0  0  0  0  0  0  0  0  0
  151.2065  138.2273  156.6788 C   0  0  0  0  0  0  0  0  0  0  0  0
  151.6464  139.3907  155.9948 C   0  0  0  0  0  0  0  0  0  0  0  0
  151.7075  140.5790  156.6406 N   0  0  0  0  0  0  0  0  0  0  0  0
  152.1088  140.8331  158.0132 C   0  0  0  0  0  0  0  0  0  0  0  0
  152.5102  139.9358  158.7548 O   0  0  0  0  0  0  0  0  0  0  0  0
  152.0758  142.2668  158.4577 C   0  0  0  0  0  0  0  0  0  0  0  0
  152.4683  142.6076  159.7719 C   0  0  0  0  0  0  0  0  0  0  0  0
  152.4236  143.9469  160.2056 C   0  0  0  0  0  0  0  0  0  0  0  0
  151.9794  144.9565  159.3311 C   0  0  0  0  0  0  0  0  0  0  0  0
  151.5763  144.6253  158.0239 C   0  0  0  0  0  0  0  0  0  0  0  0
  151.6201  143.2861  157.5890 C   0  0  0  0  0  0  0  0  0  0  0  0
  151.9838  139.2552  154.6850 N   0  0  0  0  0  0  0  0  0  0  0  0
  151.9009  138.0628  154.0875 C   0  0  0  0  0  0  0  0  0  0  0  0
  151.5121  136.8954  154.6052 N   0  0  0  0  0  0  0  0  0  0  0  0
  151.1716  137.0249  155.9197 C   0  0  0  0  0  0  0  0  0  0  0  0
  149.6813  134.4822  155.1720 C   0  0  0  0  0  0  0  0  0  0  0  0
  148.7264  133.3606  155.5267 C   0  0  1  0  0  0  0  0  0  0  0  0
  149.2946  132.1002  155.2256 O   0  0  0  0  0  0  0  0  0  0  0  0
  145.1745  135.6099  162.5392 H   0  0  0  0  0  0  0  0  0  0  0  0
  144.5226  134.0530  162.0505 H   0  0  0  0  0  0  0  0  0  0  0  0
  144.5020  135.4066  160.9265 H   0  0  0  0  0  0  0  0  0  0  0  0
  146.7280  136.2496  159.8837 H   0  0  0  0  0  0  0  0  0  0  0  0
  148.2474  135.5161  160.3859 H   0  0  0  0  0  0  0  0  0  0  0  0
  147.3265  136.4850  161.5191 H   0  0  0  0  0  0  0  0  0  0  0  0
  147.4261  134.4664  163.1440 H   0  0  0  0  0  0  0  0  0  0  0  0
  148.2494  133.4817  161.9402 H   0  0  0  0  0  0  0  0  0  0  0  0
  146.7458  132.9191  162.6582 H   0  0  0  0  0  0  0  0  0  0  0  0
  144.3029  131.9853  160.6293 H   0  0  0  0  0  0  0  0  0  0  0  0
  145.8189  131.2397  161.1103 H   0  0  0  0  0  0  0  0  0  0  0  0
  145.2069  131.0140  159.4811 H   0  0  0  0  0  0  0  0  0  0  0  0
  144.3323  134.4406  158.5718 H   0  0  0  0  0  0  0  0  0  0  0  0
  145.1952  133.4152  157.4377 H   0  0  0  0  0  0  0  0  0  0  0  0
  145.8593  134.9753  157.8899 H   0  0  0  0  0  0  0  0  0  0  0  0
  148.8111  131.5941  157.8648 H   0  0  0  0  0  0  0  0  0  0  0  0
  147.1618  131.9232  157.3854 H   0  0  0  0  0  0  0  0  0  0  0  0
  147.8559  134.4083  157.1820 H   0  0  0  0  0  0  0  0  0  0  0  0
  151.5266  134.1782  156.3598 H   0  0  0  0  0  0  0  0  0  0  0  0
  150.1594  136.1868  158.8642 H   0  0  0  0  0  0  0  0  0  0  0  0
  151.4089  141.3855  156.1118 H   0  0  0  0  0  0  0  0  0  0  0  0
  152.8096  141.8444  160.4563 H   0  0  0  0  0  0  0  0  0  0  0  0
  152.7289  144.1988  161.2104 H   0  0  0  0  0  0  0  0  0  0  0  0
  151.9444  145.9832  159.6641 H   0  0  0  0  0  0  0  0  0  0  0  0
  151.2302  145.3990  157.3545 H   0  0  0  0  0  0  0  0  0  0  0  0
  151.2968  143.0544  156.5846 H   0  0  0  0  0  0  0  0  0  0  0  0
  152.1875  138.0415  153.0465 H   0  0  0  0  0  0  0  0  0  0  0  0
  149.1237  135.4057  155.0061 H   0  0  0  0  0  0  0  0  0  0  0  0
  150.3031  134.2871  154.2976 H   0  0  0  0  0  0  0  0  0  0  0  0
  147.7813  133.4480  154.9898 H   0  0  0  0  0  0  0  0  0  0  0  0
  150.1807  132.2356  154.9259 H   0  0  0  0  0  0  0  0  0  0  0  0
  1  2  1  0  0  0  0
  1 34  1  0  0  0  0
  1 35  1  0  0  0  0
  1 36  1  0  0  0  0
  2  3  1  0  0  0  0
  2  4  1  0  0  0  0
  2  5  1  0  0  0  0
  3 37  1  0  0  0  0
  3 38  1  0  0  0  0
  3 39  1  0  0  0  0
  4 40  1  0  0  0  0
  4 41  1  0  0  0  0
  4 42  1  0  0  0  0
  5  6  1  0  0  0  0
  5  7  1  0  0  0  0
  5  8  1  0  0  0  0
  6 43  1  0  0  0  0
  6 44  1  0  0  0  0
  6 45  1  0  0  0  0
  7 46  1  0  0  0  0
  7 47  1  0  0  0  0
  7 48  1  0  0  0  0
  8  9  1  0  0  0  0
  9 10  1  0  0  0  0
  9 49  1  0  0  0  0
  9 50  1  0  0  0  0
 10 32  1  0  0  0  0
 10 11  1  0  0  0  0
 10 51  1  0  0  0  0
 11 12  1  0  0  0  0
 12 13  1  0  0  0  0
 12 31  1  0  0  0  0
 12 52  1  0  0  0  0
 13 30  1  0  0  0  0
 13 14  1  0  0  0  0
 14 15  2  0  0  0  0
 14 53  1  0  0  0  0
 15 16  1  0  0  0  0
 16 30  2  0  0  0  0
 16 17  1  0  0  0  0
 17 18  1  0  0  0  0
 17 27  2  0  0  0  0
 18 19  1  0  0  0  0
 18 54  1  0  0  0  0
 19 20  2  0  0  0  0
 19 21  1  0  0  0  0
 21 26  1  0  0  0  0
 21 22  2  0  0  0  0
 22 23  1  0  0  0  0
 22 55  1  0  0  0  0
 23 24  2  0  0  0  0
 23 56  1  0  0  0  0
 24 25  1  0  0  0  0
 24 57  1  0  0  0  0
 25 26  2  0  0  0  0
 25 58  1  0  0  0  0
 26 59  1  0  0  0  0
 27 28  1  0  0  0  0
 28 29  2  0  0  0  0
 28 60  1  0  0  0  0
 29 30  1  0  0  0  0
 31 32  1  0  0  0  0
 31 61  1  0  0  0  0
 31 62  1  0  0  0  0
 32 33  1  0  0  0  0
 32 63  1  0  0  0  0
 33 64  1  0  0  0  0
M  END
> <s_m_source_file>
AV-unprocessed.smi

> <i_m_source_file_index>
36

> <i_lp_mmshare_version>
43012

> <i_f3d_flags>
0

> <s_epik_input>
W0NIM11DKFtDSDNdKShbQ0gzXSlbU2ldKFtDSDNdKShbQ0gzXSlPW0NIMl1bQ0BASF0xT1tDQEhdKFtDSDJdW0NASF0xW09IXSluKFtjSF1uMiljKGMyMyluW2NIXW5jM1tOSF1DKD1PKWM0W2NIXVtjSF1bY0hdW2NIXVtjSF00

> <s_epik_cmdline>
J2VwaWtfcHl0aG9uJywgJy1waCcsICc3LjAnLCAnLXRuJywgJzgnLCAnLW1hJywgJzIwMCcsICctbWV0YWxfYmluZGluZycsICctaW1hZScsICc8aW5maWxlLm1hZT4nLCAnLW9tYWUnLCAnPG91dGZpbGUubWFlPic=

> <r_lp_tautomer_probability>
1

> <r_epik_Ionization_Penalty>
0.00150433

> <r_epik_Ionization_Penalty_Charging>
0

> <r_epik_Ionization_Penalty_Neutral>
0.00150433

> <r_epik_State_Penalty>
0.00724046

> <r_epik_Charging_Adjusted_Penalty>
0.00724046

> <i_epik_Tot_Q>
0

> <i_epik_Tot_abs_Q>
0

> <r_epik_Metal_State_Penalty>
0.323355

> <b_epik_Metal_Only>
0

> <s_epik_Chemistry_Notes>
This compound contains an acetal/aminal-like group ( X-CH(R)-Y where X, Y are N, S, or O) that may be acid/base labile, releasing an aldehyde.

> <s_lp_Force_Field>
OPLS_2005

> <r_lp_Energy>
37.9666

> <b_lp_Chiralities_Consistent>
1

> <s_lp_Variant>
AV-unprocessed.smi:36-4

> <Gold.Version>
5.8.1

> <Gold.Id.Protein>
6NUR|6NUR_protein|mol2

> <Gold.PLP.Fitness>
58.0291

> <Gold.PLP.PLP>
-50.4141

> <Gold.PLP.part.hbond>
-3.0000

> <Gold.PLP.part.metal>
0.0000

> <Gold.PLP.part.buried>
-8.3894

> <Gold.PLP.part.nonpolar>
-39.1133

> <Gold.PLP.part.repulsive>
0.3533

> <Gold.PLP.ligand.clash>
0.0000

> <Gold.PLP.ligand.torsion>
1.2593

> <Gold.PLP.Chemscore.Hbond>
2.8640

> <Gold.PLP.Chemscore.CHOScore>
0.4072

> <Gold.PLP.Chemscore.Metal>
0.0000

> <Gold.Chemscore.Hbonds>
donor molecule, donor type, donor heavy atom, donor atom, acceptor molecule, acceptor atom, score
      P1  H  6896  6909       L1    11  1.00
      P1  H  7989  7998       L1    27  0.93
      P1  H 10752 10764       L1    29  0.91
      L1  C    28    60       P1  7949  0.32

> <Gold.PLP.Chemscore.Internal.Correction>
0.3201

> <Gold.Rescore>
     Score         DG    S(hbond)    S(metal)    S(lipo)     H(rot)  DE(clash)    DE(int)     intcor
     17.46     -19.73       2.11        0.00     120.64       2.70       0.04       2.23       ----

> <Gold.Chemscore.Fitness>
17.4635

> <Gold.Chemscore.DG>
-19.7332

> <Gold.Chemscore.ZeroCoef>
-5.4800

> <Gold.Chemscore.Hbond>
2.1141

> <Gold.Chemscore.Metal>
0.0000

> <Gold.Chemscore.Lipo>
120.6368

> <Gold.Chemscore.Internal_Hbond>
0.0000

> <Gold.Chemscore.DEClash>
0.0412

> <Gold.Chemscore.DEInternal>
2.2285

> <Gold.Chemscore.Rot>
2.7041

> <Gold.Chemscore.Internal.Correction>
   9.000000E+99

> <Gold.Chemscore.Hbonds>
donor molecule, donor type, donor heavy atom, donor atom, acceptor molecule, acceptor atom, score
      P1  H  6896  6909       L1    11  0.83
      P1  H  7989  7998       L1    27  0.72
      P1  H 10752 10764       L1    29  0.26

> <Gold.Chemscore.Hbond.Weighted>
-7.0612

> <Gold.Chemscore.Metal.Weighted>
-0.0000

> <Gold.Chemscore.Lipo.Weighted>
-14.1145

> <Gold.Chemscore.Internal_Hbond.Weighted>
0.0000

> <Gold.Chemscore.DEClash.Weighted>
0.0412

> <Gold.Chemscore.DEInternal.Weighted>
2.2285

> <Gold.Chemscore.Rot.Weighted>
6.9225

> <Gold.Chemscore.Internal.Correction.Weighted>
   9.000000E+99

> <Gold.Protein.RotatedTorsions>
[ 6907 6896 6895 6894 ] final   -2.02 input  -60.11 | X-H torsion
[ 7974 7965 7964 7962 ] final  179.45 input  175.53 | X-H torsion
[ 8008 7997 7996 7995 ] final -177.62 input   59.86 | X-H torsion
[ 10167 10162 10161 10158 ] final -178.32 input  -65.29 | X-H torsion
[ 10718 10713 10712 10709 ] final   73.72 input   66.30 | X-H torsion
[ 10763 10752 10751 10750 ] final  -93.21 input  -60.55 | X-H torsion
[ 11005 11000 10999 10996 ] final -160.92 input  -57.11 | X-H torsion

> <Gold.Protein.ActiveResidues>
 VAL166  LYS551  ARG553  GLY616  TRP617  ASP618  TYR619  PRO620  LYS621  CYS622 
 ASP623  PHE694  ASN695  SER759  ASP760  ASP761  ALA762  ILE779  LEU786  VAL792 
 PHE793  MET794  SER795  GLU796  ALA797  LYS798  CYS799  TRP800  GLU811  SER814 

> <Gold.Protein.RotatedAtoms>
  151.5367  135.1068  159.9915 H   0  0  0  0  0  0  0  0  0  0  0  0  # atno 6907 bound_to 6896
  152.4554  133.7708  159.6808 H   0  0  0  0  0  0  0  0  0  0  0  0  # atno 6908 bound_to 6896
  150.8496  133.7742  159.3055 H   0  0  0  0  0  0  0  0  0  0  0  0  # atno 6909 bound_to 6896
  144.7145  140.0550  143.6434 H   0  0  0  0  0  0  0  0  0  0  0  0  # atno 7974 bound_to 7965
  156.0091  140.1236  157.0472 H   0  0  0  0  0  0  0  0  0  0  0  0  # atno 8008 bound_to 7997
  154.4269  140.1091  156.5873 H   0  0  0  0  0  0  0  0  0  0  0  0  # atno 8009 bound_to 7997
  155.6106  140.3471  155.4623 H   0  0  0  0  0  0  0  0  0  0  0  0  # atno 8010 bound_to 7997
  139.5438  144.2291  152.0947 H   0  0  0  0  0  0  0  0  0  0  0  0  # atno 10167 bound_to 10162
  157.6561  130.9643  150.1110 H   0  0  0  0  0  0  0  0  0  0  0  0  # atno 10718 bound_to 10713
  154.6937  135.5202  153.8428 H   0  0  0  0  0  0  0  0  0  0  0  0  # atno 10763 bound_to 10752
  153.0651  135.6582  154.0382 H   0  0  0  0  0  0  0  0  0  0  0  0  # atno 10764 bound_to 10752
  154.0252  135.2990  155.3355 H   0  0  0  0  0  0  0  0  0  0  0  0  # atno 10765 bound_to 10752
  140.6262  134.4699  157.5227 H   0  0  0  0  0  0  0  0  0  0  0  0  # atno 11005 bound_to 11000
  145.9912  139.3016  143.0984 LP  0  0  0  0  0  0  0  0  0  0  0  0  # atno 17320 bound_to 7965
  145.8901  140.9309  143.0556 LP  0  0  0  0  0  0  0  0  0  0  0  0  # atno 17321 bound_to 7965
  140.1774  144.4877  150.6546 LP  0  0  0  0  0  0  0  0  0  0  0  0  # atno 17342 bound_to 10162
  140.6678  143.2274  151.5700 LP  0  0  0  0  0  0  0  0  0  0  0  0  # atno 17343 bound_to 10162
  156.2006  130.3660  149.8792 LP  0  0  0  0  0  0  0  0  0  0  0  0  # atno 17370 bound_to 10713
  156.6697  130.8815  151.3560 LP  0  0  0  0  0  0  0  0  0  0  0  0  # atno 17371 bound_to 10713
  139.9134  134.8297  156.1450 LP  0  0  0  0  0  0  0  0  0  0  0  0  # atno 17394 bound_to 11000
  141.0708  133.6798  156.2136 LP  0  0  0  0  0  0  0  0  0  0  0  0  # atno 17395 bound_to 11000

$$$$
