AV-unprocessed.smi:257|AV-procd|sdf|1963|dock4
  -GOLD-   2262021113D 1   1.00000     0.00000
 Structure written by MMmdl.
 50 53  0  0  0  0  0  0  0  0  1 V2000
  152.3951  143.9027  157.3753 C   0  0  0  0  0  0  0  0  0  0  0  0
  151.5627  142.9768  156.6233 N   0  0  0  0  0  0  0  0  0  0  0  0
  151.6955  141.6433  156.6582 C   0  0  0  0  0  0  0  0  0  0  0  0
  152.5399  141.0705  157.3488 O   0  0  0  0  0  0  0  0  0  0  0  0
  150.7143  140.8427  155.7826 C   0  0  2  0  0  0  0  0  0  0  0  0
  149.9293  141.7593  154.8278 C   0  0  0  0  0  0  0  0  0  0  0  0
  148.6705  142.1351  155.6072 C   0  0  0  0  0  0  0  0  0  0  0  0
  148.3737  140.8707  156.4121 C   0  0  0  0  0  0  0  0  0  0  0  0
  149.6619  140.2035  156.5736 N   0  0  0  0  0  0  0  0  0  0  0  0
  149.8013  139.0490  157.2835 C   0  0  0  0  0  0  0  0  0  0  0  0
  151.0339  138.4762  157.3225 N   0  0  0  0  0  0  0  0  0  0  0  0
  151.2422  137.3426  157.9958 C   0  0  0  0  0  0  0  0  0  0  0  0
  150.3700  136.6191  158.6964 N   0  0  0  0  0  0  0  0  0  0  0  0
  149.1292  137.1819  158.6709 C   0  0  0  0  0  0  0  0  0  0  0  0
  148.7569  138.3824  157.9962 C   0  0  0  0  0  0  0  0  0  0  0  0
  147.4026  138.6231  158.2067 N   0  0  0  0  0  0  0  0  0  0  0  0
  147.0025  137.6314  158.9524 C   0  0  0  0  0  0  0  0  0  0  0  0
  147.9782  136.7227  159.2878 N   0  0  0  0  0  0  0  0  0  0  0  0
  147.8114  135.5292  160.1048 C   0  0  0  0  0  0  0  0  0  0  0  0
  147.6613  135.8157  161.6243 C   0  0  0  0  0  0  0  0  0  0  0  0
  148.8347  136.4836  162.0511 O   0  0  0  0  0  0  0  0  0  0  0  0
  146.4720  136.7533  161.9140 C   0  0  0  0  0  0  0  0  0  0  0  0
  145.1249  136.0184  161.7881 C   0  0  0  0  0  0  0  0  0  0  0  0
  145.1064  134.8841  162.6478 O   0  0  0  0  0  0  0  0  0  0  0  0
  146.1071  133.9243  162.3262 C   0  0  0  0  0  0  0  0  0  0  0  0
  147.5044  134.5481  162.4917 C   0  0  0  0  0  0  0  0  0  0  0  0
  152.0748  144.9272  157.1870 H   0  0  0  0  0  0  0  0  0  0  0  0
  153.4407  143.8119  157.0780 H   0  0  0  0  0  0  0  0  0  0  0  0
  152.3194  143.7117  158.4465 H   0  0  0  0  0  0  0  0  0  0  0  0
  150.8459  143.3731  156.0327 H   0  0  0  0  0  0  0  0  0  0  0  0
  151.2581  140.1049  155.1919 H   0  0  0  0  0  0  0  0  0  0  0  0
  150.4926  142.6340  154.4994 H   0  0  0  0  0  0  0  0  0  0  0  0
  149.6501  141.1994  153.9341 H   0  0  0  0  0  0  0  0  0  0  0  0
  148.8887  142.9635  156.2828 H   0  0  0  0  0  0  0  0  0  0  0  0
  147.8420  142.4336  154.9646 H   0  0  0  0  0  0  0  0  0  0  0  0
  147.9152  141.1142  157.3713 H   0  0  0  0  0  0  0  0  0  0  0  0
  147.6968  140.2160  155.8617 H   0  0  0  0  0  0  0  0  0  0  0  0
  152.2522  136.9610  157.9687 H   0  0  0  0  0  0  0  0  0  0  0  0
  145.9789  137.5375  159.2850 H   0  0  0  0  0  0  0  0  0  0  0  0
  146.9355  134.9926  159.7374 H   0  0  0  0  0  0  0  0  0  0  0  0
  148.6603  134.8725  159.9163 H   0  0  0  0  0  0  0  0  0  0  0  0
  148.9705  136.2958  162.9675 H   0  0  0  0  0  0  0  0  0  0  0  0
  146.5512  137.1442  162.9298 H   0  0  0  0  0  0  0  0  0  0  0  0
  146.4936  137.6195  161.2514 H   0  0  0  0  0  0  0  0  0  0  0  0
  144.3109  136.6848  162.0738 H   0  0  0  0  0  0  0  0  0  0  0  0
  144.9318  135.7138  160.7591 H   0  0  0  0  0  0  0  0  0  0  0  0
  146.0000  133.0700  162.9944 H   0  0  0  0  0  0  0  0  0  0  0  0
  145.9532  133.5520  161.3134 H   0  0  0  0  0  0  0  0  0  0  0  0
  148.2783  133.8134  162.2693 H   0  0  0  0  0  0  0  0  0  0  0  0
  147.6350  134.8077  163.5434 H   0  0  0  0  0  0  0  0  0  0  0  0
  1  2  1  0  0  0  0
  1 27  1  0  0  0  0
  1 28  1  0  0  0  0
  1 29  1  0  0  0  0
  2  3  1  0  0  0  0
  2 30  1  0  0  0  0
  3  4  2  0  0  0  0
  3  5  1  0  0  0  0
  5  9  1  0  0  0  0
  5  6  1  0  0  0  0
  5 31  1  0  0  0  0
  6  7  1  0  0  0  0
  6 32  1  0  0  0  0
  6 33  1  0  0  0  0
  7  8  1  0  0  0  0
  7 34  1  0  0  0  0
  7 35  1  0  0  0  0
  8  9  1  0  0  0  0
  8 36  1  0  0  0  0
  8 37  1  0  0  0  0
  9 10  1  0  0  0  0
 10 15  1  0  0  0  0
 10 11  2  0  0  0  0
 11 12  1  0  0  0  0
 12 13  2  0  0  0  0
 12 38  1  0  0  0  0
 13 14  1  0  0  0  0
 14 18  1  0  0  0  0
 14 15  2  0  0  0  0
 15 16  1  0  0  0  0
 16 17  2  0  0  0  0
 17 18  1  0  0  0  0
 17 39  1  0  0  0  0
 18 19  1  0  0  0  0
 19 20  1  0  0  0  0
 19 40  1  0  0  0  0
 19 41  1  0  0  0  0
 20 26  1  0  0  0  0
 20 21  1  0  0  0  0
 20 22  1  0  0  0  0
 21 42  1  0  0  0  0
 22 23  1  0  0  0  0
 22 43  1  0  0  0  0
 22 44  1  0  0  0  0
 23 24  1  0  0  0  0
 23 45  1  0  0  0  0
 23 46  1  0  0  0  0
 24 25  1  0  0  0  0
 25 26  1  0  0  0  0
 25 47  1  0  0  0  0
 25 48  1  0  0  0  0
 26 49  1  0  0  0  0
 26 50  1  0  0  0  0
M  END
> <s_m_source_file>
AV-unprocessed.smi

> <i_m_source_file_index>
257

> <i_lp_mmshare_version>
43012

> <i_f3d_flags>
0

> <s_epik_input>
W0NIM11bTkhdQyg9TylbQ0BASF0xW0NIMl1bQ0gyXVtDSDJdTjFjKG5bY0hdbjIpYyhjMjMpbltjSF1uM1tDSDJdQzQoW09IXSlbQ0gyXVtDSDJdT1tDSDJdW0NIMl00

> <s_epik_cmdline>
J2VwaWtfcHl0aG9uJywgJy1waCcsICc3LjAnLCAnLXRuJywgJzgnLCAnLW1hJywgJzIwMCcsICctbWV0YWxfYmluZGluZycsICctaW1hZScsICc8aW5maWxlLm1hZT4nLCAnLW9tYWUnLCAnPG91dGZpbGUubWFlPic=

> <r_lp_tautomer_probability>
1

> <r_epik_Ionization_Penalty>
0.000951012

> <r_epik_Ionization_Penalty_Charging>
0

> <r_epik_Ionization_Penalty_Neutral>
0.000951012

> <r_epik_State_Penalty>
0.000495984

> <r_epik_Charging_Adjusted_Penalty>
0.000495984

> <i_epik_Tot_Q>
0

> <i_epik_Tot_abs_Q>
0

> <r_epik_Metal_State_Penalty>
-0

> <b_epik_Metal_Only>
0

> <s_lp_Force_Field>
OPLS_2005

> <r_lp_Energy>
35.0404

> <b_lp_Chiralities_Consistent>
1

> <s_lp_Variant>
AV-unprocessed.smi:257-1

> <Gold.Version>
5.8.1

> <Gold.Id.Protein>
6NUR|6NUR_protein|mol2

> <Gold.PLP.Fitness>
46.6107

> <Gold.PLP.PLP>
-39.8915

> <Gold.PLP.part.hbond>
-3.1621

> <Gold.PLP.part.metal>
0.0000

> <Gold.PLP.part.buried>
-4.6133

> <Gold.PLP.part.nonpolar>
-31.8374

> <Gold.PLP.part.repulsive>
0.0497

> <Gold.PLP.ligand.clash>
1.2448

> <Gold.PLP.ligand.torsion>
0.4650

> <Gold.PLP.Chemscore.Hbond>
2.9280

> <Gold.PLP.Chemscore.CHOScore>
0.0000

> <Gold.PLP.Chemscore.Metal>
0.0000

> <Gold.Chemscore.Hbonds>
donor molecule, donor type, donor heavy atom, donor atom, acceptor molecule, acceptor atom, score
      L1  H     2    30       P1  8028  0.08
      P1  H  6896  6908       L1    13  0.98
      P1  H  6931  6943       L1    21  1.00
      P1  H  7997  8009       L1     4  0.02

> <Gold.PLP.Chemscore.Internal.Correction>
0.1099

> <Gold.Rescore>
     Score         DG    S(hbond)    S(metal)    S(lipo)     H(rot)  DE(clash)    DE(int)     intcor
     12.38     -15.69       1.89        0.00      83.30       2.29       1.31       2.00       ----

> <Gold.Chemscore.Fitness>
12.3752

> <Gold.Chemscore.DG>
-15.6897

> <Gold.Chemscore.ZeroCoef>
-5.4800

> <Gold.Chemscore.Hbond>
1.8932

> <Gold.Chemscore.Metal>
0.0000

> <Gold.Chemscore.Lipo>
83.2991

> <Gold.Chemscore.Internal_Hbond>
0.0000

> <Gold.Chemscore.DEClash>
1.3140

> <Gold.Chemscore.DEInternal>
2.0005

> <Gold.Chemscore.Rot>
2.2889

> <Gold.Chemscore.Internal.Correction>
   9.000000E+99

> <Gold.Chemscore.Hbonds>
donor molecule, donor type, donor heavy atom, donor atom, acceptor molecule, acceptor atom, score
      L1  H     2    30       P1  8028  0.12
      P1  H  6896  6908       L1    13  0.88
      P1  H  6931  6943       L1    21  0.45
      P1  H  7997  8009       L1     4  0.03

> <Gold.Chemscore.Hbond.Weighted>
-6.3233

> <Gold.Chemscore.Metal.Weighted>
-0.0000

> <Gold.Chemscore.Lipo.Weighted>
-9.7460

> <Gold.Chemscore.Internal_Hbond.Weighted>
0.0000

> <Gold.Chemscore.DEClash.Weighted>
1.3140

> <Gold.Chemscore.DEInternal.Weighted>
2.0005

> <Gold.Chemscore.Rot.Weighted>
5.8596

> <Gold.Chemscore.Internal.Correction.Weighted>
   9.000000E+99

> <Gold.Protein.RotatedTorsions>
[ 6907 6896 6895 6894 ] final -161.69 input  -60.11 | X-H torsion
[ 7974 7965 7964 7962 ] final   33.75 input  175.53 | X-H torsion
[ 8008 7997 7996 7995 ] final -144.86 input   59.86 | X-H torsion
[ 10167 10162 10161 10158 ] final   -6.18 input  -65.29 | X-H torsion
[ 10718 10713 10712 10709 ] final  -54.84 input   66.30 | X-H torsion
[ 10763 10752 10751 10750 ] final   62.93 input  -60.55 | X-H torsion
[ 11005 11000 10999 10996 ] final -109.67 input  -57.11 | X-H torsion

> <Gold.Protein.ActiveResidues>
 VAL166  LYS551  ARG553  GLY616  TRP617  ASP618  TYR619  PRO620  LYS621  CYS622 
 ASP623  PHE694  ASN695  SER759  ASP760  ASP761  ALA762  ILE779  LEU786  VAL792 
 PHE793  MET794  SER795  GLU796  ALA797  LYS798  CYS799  TRP800  GLU811  SER814 

> <Gold.Protein.RotatedAtoms>
  151.3687  133.3863  159.2697 H   0  0  0  0  0  0  0  0  0  0  0  0  # atno 6907 bound_to 6896
  150.9668  134.9049  159.7774 H   0  0  0  0  0  0  0  0  0  0  0  0  # atno 6908 bound_to 6896
  152.5170  134.3647  159.9349 H   0  0  0  0  0  0  0  0  0  0  0  0  # atno 6909 bound_to 6896
  146.1400  139.6357  142.9170 H   0  0  0  0  0  0  0  0  0  0  0  0  # atno 7974 bound_to 7965
  155.5337  140.0602  157.2884 H   0  0  0  0  0  0  0  0  0  0  0  0  # atno 8008 bound_to 7997
  154.4475  140.1931  156.0565 H   0  0  0  0  0  0  0  0  0  0  0  0  # atno 8009 bound_to 7997
  156.0634  140.3269  155.7492 H   0  0  0  0  0  0  0  0  0  0  0  0  # atno 8010 bound_to 7997
  140.6988  143.6224  150.8600 H   0  0  0  0  0  0  0  0  0  0  0  0  # atno 10167 bound_to 10162
  156.1417  130.4154  150.0092 H   0  0  0  0  0  0  0  0  0  0  0  0  # atno 10718 bound_to 10713
  153.0000  135.5447  154.6272 H   0  0  0  0  0  0  0  0  0  0  0  0  # atno 10763 bound_to 10752
  154.5557  135.2830  155.0968 H   0  0  0  0  0  0  0  0  0  0  0  0  # atno 10764 bound_to 10752
  154.2191  135.6454  153.5191 H   0  0  0  0  0  0  0  0  0  0  0  0  # atno 10765 bound_to 10752
  141.0835  133.9180  157.2238 H   0  0  0  0  0  0  0  0  0  0  0  0  # atno 11005 bound_to 11000
  145.5069  141.0436  143.2509 LP  0  0  0  0  0  0  0  0  0  0  0  0  # atno 17320 bound_to 7965
  144.7781  139.6585  143.7166 LP  0  0  0  0  0  0  0  0  0  0  0  0  # atno 17321 bound_to 7965
  139.9944  143.5812  152.2898 LP  0  0  0  0  0  0  0  0  0  0  0  0  # atno 17342 bound_to 10162
  139.6478  144.7659  151.2208 LP  0  0  0  0  0  0  0  0  0  0  0  0  # atno 17343 bound_to 10162
  156.7975  130.9278  151.3646 LP  0  0  0  0  0  0  0  0  0  0  0  0  # atno 17370 bound_to 10713
  157.6581  130.8942  149.9772 LP  0  0  0  0  0  0  0  0  0  0  0  0  # atno 17371 bound_to 10713
  139.9650  135.0144  156.9364 LP  0  0  0  0  0  0  0  0  0  0  0  0  # atno 17394 bound_to 11000
  140.5416  134.0714  155.7343 LP  0  0  0  0  0  0  0  0  0  0  0  0  # atno 17395 bound_to 11000

$$$$
