AV-unprocessed.smi:1995|AV-procd|sdf|8082|dock1
  -GOLD-   2272010293D 1   1.00000     0.00000
 Structure written by MMmdl.
 42 43  0  0  0  0  0  0  0  0  3 V2000
  148.7964  132.5779  153.9916 C   0  0  0  0  0  0  0  0  0  0  0  0
  149.3166  134.0127  153.7939 C   0  0  0  0  0  0  0  0  0  0  0  0
  148.7969  135.0816  154.8032 C   0  0  1  0  0  0  0  0  0  0  0  0
  147.2469  135.1419  154.7350 C   0  0  0  0  0  0  0  0  0  0  0  0
  149.1719  134.6778  156.2614 C   0  0  0  0  0  0  0  0  0  0  0  0
  148.5055  135.5185  157.2579 N   0  0  0  0  0  0  0  0  0  0  0  0
  148.2655  135.2075  158.5397 C   0  0  0  0  0  0  0  0  0  0  0  0
  148.5128  134.0755  158.9595 O   0  0  0  0  0  0  0  0  0  0  0  0
  147.7813  136.2398  159.2636 N   0  5  0  0  0  0  0  0  0  0  0  0
  147.3749  136.0372  160.5272 C   0  0  0  0  0  0  0  0  0  0  0  0
  147.1934  137.0334  161.4020 N   0  0  0  0  0  0  0  0  0  0  0  0
  146.7691  136.5972  162.6585 C   0  0  0  0  0  0  0  0  0  0  0  0
  146.6173  135.2384  162.7394 C   0  0  0  0  0  0  0  0  0  0  0  0
  147.0064  134.4611  161.2314 S   0  0  0  0  0  0  0  0  0  0  0  0
  149.3941  136.4358  154.5046 N   0  3  0  0  0  0  0  0  0  0  0  0
  148.6720  137.6001  155.0880 C   0  0  0  0  0  0  0  0  0  0  0  0
  149.1944  138.9053  154.4708 C   0  0  0  0  0  0  0  0  0  0  0  0
  150.5836  139.0210  154.7478 O   0  0  0  0  0  0  0  0  0  0  0  0
  151.3278  137.9569  154.1690 C   0  0  0  0  0  0  0  0  0  0  0  0
  150.8563  136.6036  154.7334 C   0  0  0  0  0  0  0  0  0  0  0  0
  149.2469  131.9086  153.2586 H   0  0  0  0  0  0  0  0  0  0  0  0
  147.7167  132.5128  153.8606 H   0  0  0  0  0  0  0  0  0  0  0  0
  149.0450  132.1876  154.9779 H   0  0  0  0  0  0  0  0  0  0  0  0
  150.4045  133.9613  153.8341 H   0  0  0  0  0  0  0  0  0  0  0  0
  149.0693  134.3220  152.7780 H   0  0  0  0  0  0  0  0  0  0  0  0
  146.7892  134.2445  155.1520 H   0  0  0  0  0  0  0  0  0  0  0  0
  146.8858  135.2276  153.7096 H   0  0  0  0  0  0  0  0  0  0  0  0
  146.8488  135.9842  155.3024 H   0  0  0  0  0  0  0  0  0  0  0  0
  148.8652  133.6516  156.4627 H   0  0  0  0  0  0  0  0  0  0  0  0
  150.2520  134.6817  156.4096 H   0  0  0  0  0  0  0  0  0  0  0  0
  148.2590  136.4526  156.9640 H   0  0  0  0  0  0  0  0  0  0  0  0
  146.5966  137.3245  163.4379 H   0  0  0  0  0  0  0  0  0  0  0  0
  146.3014  134.6502  163.5877 H   0  0  0  0  0  0  0  0  0  0  0  0
  147.5991  137.5300  154.9207 H   0  0  0  0  0  0  0  0  0  0  0  0
  148.8211  137.6344  156.1678 H   0  0  0  0  0  0  0  0  0  0  0  0
  149.0142  138.9326  153.3945 H   0  0  0  0  0  0  0  0  0  0  0  0
  148.6762  139.7606  154.9042 H   0  0  0  0  0  0  0  0  0  0  0  0
  151.2238  137.9789  153.0827 H   0  0  0  0  0  0  0  0  0  0  0  0
  152.3850  138.1069  154.3887 H   0  0  0  0  0  0  0  0  0  0  0  0
  151.0767  136.5386  155.7996 H   0  0  0  0  0  0  0  0  0  0  0  0
  151.4393  135.8315  154.2347 H   0  0  0  0  0  0  0  0  0  0  0  0
  149.2821  136.5301  153.5041 H   0  0  0  0  0  0  0  0  0  0  0  0
  1  2  1  0  0  0  0
  1 21  1  0  0  0  0
  1 22  1  0  0  0  0
  1 23  1  0  0  0  0
  2  3  1  0  0  0  0
  2 24  1  0  0  0  0
  2 25  1  0  0  0  0
  3  4  1  0  0  0  0
  3  5  1  0  0  0  0
  3 15  1  0  0  0  0
  4 26  1  0  0  0  0
  4 27  1  0  0  0  0
  4 28  1  0  0  0  0
  5  6  1  0  0  0  0
  5 29  1  0  0  0  0
  5 30  1  0  0  0  0
  6  7  1  0  0  0  0
  6 31  1  0  0  0  0
  7  8  2  0  0  0  0
  7  9  1  0  0  0  0
  9 10  1  0  0  0  0
 10 14  1  0  0  0  0
 10 11  2  0  0  0  0
 11 12  1  0  0  0  0
 12 13  2  0  0  0  0
 12 32  1  0  0  0  0
 13 14  1  0  0  0  0
 13 33  1  0  0  0  0
 15 20  1  0  0  0  0
 15 16  1  0  0  0  0
 15 42  1  0  0  0  0
 16 17  1  0  0  0  0
 16 34  1  0  0  0  0
 16 35  1  0  0  0  0
 17 18  1  0  0  0  0
 17 36  1  0  0  0  0
 17 37  1  0  0  0  0
 18 19  1  0  0  0  0
 19 20  1  0  0  0  0
 19 38  1  0  0  0  0
 19 39  1  0  0  0  0
 20 40  1  0  0  0  0
 20 41  1  0  0  0  0
M  CHG  1   9  -1
M  CHG  1  15   1
M  END
> <s_m_source_file>
AV-unprocessed.smi

> <i_m_source_file_index>
1995

> <i_lp_mmshare_version>
43012

> <i_f3d_flags>
0

> <s_epik_input>
W0NIMl0xW0NIMl1PW0NIMl1bQ0gyXU4xW0NAQF0oW0NIM10pKFtDSDJdW0NIM10pW0NIMl1bTkhdQyg9TylbTkhdYzJuW2NIXVtjSF1zMg==

> <s_epik_cmdline>
J2VwaWtfcHl0aG9uJywgJy1waCcsICc3LjAnLCAnLXRuJywgJzgnLCAnLW1hJywgJzIwMCcsICctbWV0YWxfYmluZGluZycsICctaW1hZScsICc8aW5maWxlLm1hZT4nLCAnLW9tYWUnLCAnPG91dGZpbGUubWFlPic=

> <r_lp_tautomer_probability>
0.999

> <r_epik_Ionization_Penalty>
8.09417

> <r_epik_Ionization_Penalty_Charging>
6.70334

> <r_epik_Ionization_Penalty_Neutral>
1.39083

> <r_epik_State_Penalty>
6.86521

> <r_epik_Charging_Adjusted_Penalty>
13.5685

> <i_epik_Tot_Q>
0

> <i_epik_Tot_abs_Q>
2

> <r_epik_Metal_State_Penalty>
2.79608

> <b_epik_Metal_Only>
1

> <s_lp_Force_Field>
OPLS_2005

> <r_lp_Energy>
20.9753

> <b_lp_Chiralities_Consistent>
1

> <s_lp_Variant>
AV-unprocessed.smi:1995-7

> <Gold.Version>
5.8.1

> <Gold.Id.Protein>
6NUR|6NUR_protein|mol2

> <Gold.PLP.Fitness>
46.2978

> <Gold.PLP.PLP>
-32.0122

> <Gold.PLP.part.hbond>
-4.0000

> <Gold.PLP.part.metal>
0.0000

> <Gold.PLP.part.buried>
-1.0836

> <Gold.PLP.part.nonpolar>
-25.8182

> <Gold.PLP.part.repulsive>
0.2013

> <Gold.PLP.ligand.clash>
0.0000

> <Gold.PLP.ligand.torsion>
0.6028

> <Gold.PLP.Chemscore.Hbond>
4.9755

> <Gold.PLP.Chemscore.CHOScore>
0.0000

> <Gold.PLP.Chemscore.Metal>
0.0000

> <Gold.Chemscore.Hbonds>
donor molecule, donor type, donor heavy atom, donor atom, acceptor molecule, acceptor atom, score
      L1  H    15    42       P1  7948  2.00
      P1  H  6896  6909       L1     8  0.60
      P1  H  6931  6943       L1    11  0.39
      P1  H  6934  6947       L1    11  0.98

> <Gold.PLP.Chemscore.Internal.Correction>
0.5646

> <Gold.Rescore>
     Score         DG    S(hbond)    S(metal)    S(lipo)     H(rot)  DE(clash)    DE(int)     intcor
     15.98     -19.74       3.08        0.00      72.40       1.75       0.81       2.95       ----

> <Gold.Chemscore.Fitness>
15.9825

> <Gold.Chemscore.DG>
-19.7402

> <Gold.Chemscore.ZeroCoef>
-5.4800

> <Gold.Chemscore.Hbond>
3.0764

> <Gold.Chemscore.Metal>
0.0000

> <Gold.Chemscore.Lipo>
72.4000

> <Gold.Chemscore.Internal_Hbond>
0.0000

> <Gold.Chemscore.DEClash>
0.8120

> <Gold.Chemscore.DEInternal>
2.9457

> <Gold.Chemscore.Rot>
1.7523

> <Gold.Chemscore.Internal.Correction>
   9.000000E+99

> <Gold.Chemscore.Hbonds>
donor molecule, donor type, donor heavy atom, donor atom, acceptor molecule, acceptor atom, score
      L1  H    15    42       P1  7948  0.93
      P1  H  6896  6909       L1     8  0.35
      P1  H  6931  6943       L1    11  0.13
      P1  H  6934  6947       L1    11  0.86

> <Gold.Chemscore.Hbond.Weighted>
-10.2753

> <Gold.Chemscore.Metal.Weighted>
-0.0000

> <Gold.Chemscore.Lipo.Weighted>
-8.4708

> <Gold.Chemscore.Internal_Hbond.Weighted>
0.0000

> <Gold.Chemscore.DEClash.Weighted>
0.8120

> <Gold.Chemscore.DEInternal.Weighted>
2.9457

> <Gold.Chemscore.Rot.Weighted>
4.4858

> <Gold.Chemscore.Internal.Correction.Weighted>
   9.000000E+99

> <Gold.Protein.RotatedTorsions>
[ 6907 6896 6895 6894 ] final   13.98 input  -60.11 | X-H torsion
[ 7974 7965 7964 7962 ] final  111.37 input  175.53 | X-H torsion
[ 8008 7997 7996 7995 ] final  -60.94 input   59.86 | X-H torsion
[ 10167 10162 10161 10158 ] final   39.12 input  -65.29 | X-H torsion
[ 10718 10713 10712 10709 ] final  124.91 input   66.30 | X-H torsion
[ 10763 10752 10751 10750 ] final   21.04 input  -60.55 | X-H torsion
[ 11005 11000 10999 10996 ] final -166.15 input  -57.11 | X-H torsion

> <Gold.Protein.ActiveResidues>
 VAL166  LYS551  ARG553  GLY616  TRP617  ASP618  TYR619  PRO620  LYS621  CYS622 
 ASP623  PHE694  ASN695  SER759  ASP760  ASP761  ALA762  ILE779  LEU786  VAL792 
 PHE793  MET794  SER795  GLU796  ALA797  LYS798  CYS799  TRP800  GLU811  SER814 

> <Gold.Protein.RotatedAtoms>
  151.7950  135.0725  160.0392 H   0  0  0  0  0  0  0  0  0  0  0  0  # atno 6907 bound_to 6896
  152.3129  133.5768  159.5701 H   0  0  0  0  0  0  0  0  0  0  0  0  # atno 6908 bound_to 6896
  150.7329  134.0041  159.3690 H   0  0  0  0  0  0  0  0  0  0  0  0  # atno 6909 bound_to 6896
  145.2431  139.2770  143.4107 H   0  0  0  0  0  0  0  0  0  0  0  0  # atno 7974 bound_to 7965
  154.4423  140.1028  156.6353 H   0  0  0  0  0  0  0  0  0  0  0  0  # atno 8008 bound_to 7997
  155.5560  140.3486  155.4461 H   0  0  0  0  0  0  0  0  0  0  0  0  # atno 8009 bound_to 7997
  156.0494  140.1300  157.0056 H   0  0  0  0  0  0  0  0  0  0  0  0  # atno 8010 bound_to 7997
  140.3870  144.1903  150.6130 H   0  0  0  0  0  0  0  0  0  0  0  0  # atno 10167 bound_to 10162
  157.5546  131.1092  150.8643 H   0  0  0  0  0  0  0  0  0  0  0  0  # atno 10718 bound_to 10713
  153.1027  135.6677  153.9642 H   0  0  0  0  0  0  0  0  0  0  0  0  # atno 10763 bound_to 10752
  153.9208  135.3014  155.3449 H   0  0  0  0  0  0  0  0  0  0  0  0  # atno 10764 bound_to 10752
  154.7448  135.5062  153.9261 H   0  0  0  0  0  0  0  0  0  0  0  0  # atno 10765 bound_to 10752
  140.5678  134.5269  157.5156 H   0  0  0  0  0  0  0  0  0  0  0  0  # atno 11005 bound_to 11000
  146.3323  140.2800  142.8610 LP  0  0  0  0  0  0  0  0  0  0  0  0  # atno 17320 bound_to 7965
  144.9571  140.8237  143.5536 LP  0  0  0  0  0  0  0  0  0  0  0  0  # atno 17321 bound_to 7965
  140.4879  143.2357  151.8861 LP  0  0  0  0  0  0  0  0  0  0  0  0  # atno 17342 bound_to 10162
  139.4791  144.5198  151.8817 LP  0  0  0  0  0  0  0  0  0  0  0  0  # atno 17343 bound_to 10162
  156.9158  130.5297  149.5279 LP  0  0  0  0  0  0  0  0  0  0  0  0  # atno 17370 bound_to 10713
  156.0607  130.5660  150.9187 LP  0  0  0  0  0  0  0  0  0  0  0  0  # atno 17371 bound_to 10713
  139.9376  134.7845  156.0761 LP  0  0  0  0  0  0  0  0  0  0  0  0  # atno 17394 bound_to 11000
  141.1075  133.6655  156.2899 LP  0  0  0  0  0  0  0  0  0  0  0  0  # atno 17395 bound_to 11000

$$$$
