AV-unprocessed.smi:3253|AV-procd|sdf|12448|dock4
  -GOLD-   2272018343D 1   1.00000     0.00000
 Structure written by MMmdl.
 37 38  0  0  0  0  0  0  0  0  2 V2000
  146.2800  129.1527  153.0698 C   0  0  0  0  0  0  0  0  0  0  0  0
  146.7753  130.4610  152.4392 C   0  0  1  0  0  0  0  0  0  0  0  0
  145.8305  131.6365  152.7743 C   0  0  0  0  0  0  0  0  0  0  0  0
  145.0339  132.0832  151.6261 N   0  0  0  0  0  0  0  0  0  0  0  0
  145.3591  131.9804  150.2975 C   0  0  0  0  0  0  0  0  0  0  0  0
  144.3071  132.5102  149.5957 C   0  0  0  0  0  0  0  0  0  0  0  0
  143.3895  132.9223  150.5247 N   0  3  0  0  0  0  0  0  0  0  0  0
  143.8355  132.6666  151.7588 C   0  0  0  0  0  0  0  0  0  0  0  0
  148.1349  130.7284  152.9077 N   0  0  0  0  0  0  0  0  0  0  0  0
  148.5088  130.8555  154.1911 C   0  0  0  0  0  0  0  0  0  0  0  0
  147.7214  130.7771  155.1351 O   0  0  0  0  0  0  0  0  0  0  0  0
  150.0068  131.0747  154.4517 C   0  0  1  0  0  0  0  0  0  0  0  0
  150.2632  132.3544  155.2743 C   0  0  0  0  0  0  0  0  0  0  0  0
  150.7368  131.8340  156.6218 C   0  0  0  0  0  0  0  0  0  0  0  0
  150.9311  132.5660  157.5907 O   0  0  0  0  0  0  0  0  0  0  0  0
  150.8893  130.5070  156.5944 N   0  0  0  0  0  0  0  0  0  0  0  0
  151.3068  129.6736  157.7135 C   0  0  0  0  0  0  0  0  0  0  0  0
  150.6179  129.9304  155.2892 C   0  0  0  0  0  0  0  0  0  0  0  0
  145.2763  128.9051  152.7232 H   0  0  0  0  0  0  0  0  0  0  0  0
  146.2481  129.2219  154.1579 H   0  0  0  0  0  0  0  0  0  0  0  0
  146.9319  128.3187  152.8075 H   0  0  0  0  0  0  0  0  0  0  0  0
  146.7831  130.3118  151.3579 H   0  0  0  0  0  0  0  0  0  0  0  0
  145.1321  131.3503  153.5621 H   0  0  0  0  0  0  0  0  0  0  0  0
  146.3948  132.4921  153.1488 H   0  0  0  0  0  0  0  0  0  0  0  0
  146.2858  131.5403  149.9585 H   0  0  0  0  0  0  0  0  0  0  0  0
  144.1465  132.6214  148.5332 H   0  0  0  0  0  0  0  0  0  0  0  0
  143.3220  132.8768  152.6802 H   0  0  0  0  0  0  0  0  0  0  0  0
  148.8500  130.8106  152.1993 H   0  0  0  0  0  0  0  0  0  0  0  0
  150.5273  131.1436  153.4949 H   0  0  0  0  0  0  0  0  0  0  0  0
  151.0499  132.9596  154.8233 H   0  0  0  0  0  0  0  0  0  0  0  0
  149.3814  132.9857  155.3949 H   0  0  0  0  0  0  0  0  0  0  0  0
  152.2659  130.0115  158.1077 H   0  0  0  0  0  0  0  0  0  0  0  0
  151.4149  128.6320  157.4098 H   0  0  0  0  0  0  0  0  0  0  0  0
  150.5699  129.7181  158.5162 H   0  0  0  0  0  0  0  0  0  0  0  0
  149.9565  129.0666  155.3815 H   0  0  0  0  0  0  0  0  0  0  0  0
  151.5529  129.5835  154.8469 H   0  0  0  0  0  0  0  0  0  0  0  0
  142.4996  133.3553  150.3113 H   0  0  0  0  0  0  0  0  0  0  0  0
  1  2  1  0  0  0  0
  1 19  1  0  0  0  0
  1 20  1  0  0  0  0
  1 21  1  0  0  0  0
  2  3  1  0  0  0  0
  2  9  1  0  0  0  0
  2 22  1  0  0  0  0
  3  4  1  0  0  0  0
  3 23  1  0  0  0  0
  3 24  1  0  0  0  0
  4  8  1  0  0  0  0
  4  5  1  0  0  0  0
  5  6  2  0  0  0  0
  5 25  1  0  0  0  0
  6  7  1  0  0  0  0
  6 26  1  0  0  0  0
  7  8  2  0  0  0  0
  7 37  1  0  0  0  0
  8 27  1  0  0  0  0
  9 10  1  0  0  0  0
  9 28  1  0  0  0  0
 10 11  2  0  0  0  0
 10 12  1  0  0  0  0
 12 18  1  0  0  0  0
 12 13  1  0  0  0  0
 12 29  1  0  0  0  0
 13 14  1  0  0  0  0
 13 30  1  0  0  0  0
 13 31  1  0  0  0  0
 14 15  2  0  0  0  0
 14 16  1  0  0  0  0
 16 17  1  0  0  0  0
 16 18  1  0  0  0  0
 17 32  1  0  0  0  0
 17 33  1  0  0  0  0
 17 34  1  0  0  0  0
 18 35  1  0  0  0  0
 18 36  1  0  0  0  0
M  CHG  1   7   1
M  END
> <s_m_source_file>
AV-unprocessed.smi

> <i_m_source_file_index>
3253

> <i_lp_mmshare_version>
43012

> <i_f3d_flags>
0

> <s_epik_input>
W2NIXTFuW2NIXVtjSF1uMVtDSDJdW0NAQEhdKFtDSDNdKVtOSF1DKD1PKVtDQEBIXTJbQ0gyXUMoPU8pTihbQ0gzXSlbQ0gyXTI=

> <s_epik_cmdline>
J2VwaWtfcHl0aG9uJywgJy1waCcsICc3LjAnLCAnLXRuJywgJzgnLCAnLW1hJywgJzIwMCcsICctbWV0YWxfYmluZGluZycsICctaW1hZScsICc8aW5maWxlLm1hZT4nLCAnLW9tYWUnLCAnPG91dGZpbGUubWFlPic=

> <r_lp_tautomer_probability>
1

> <r_epik_Ionization_Penalty>
0.251561

> <r_epik_Ionization_Penalty_Charging>
0

> <r_epik_Ionization_Penalty_Neutral>
0.251561

> <r_epik_State_Penalty>
0.242926

> <r_epik_Charging_Adjusted_Penalty>
0.242926

> <i_epik_Tot_Q>
1

> <i_epik_Tot_abs_Q>
1

> <r_epik_Metal_State_Penalty>
0.533885

> <b_epik_Metal_Only>
0

> <s_lp_Force_Field>
OPLS_2005

> <r_lp_Energy>
13.8895

> <b_lp_Chiralities_Consistent>
1

> <s_lp_Variant>
AV-unprocessed.smi:3253-4

> <Gold.Version>
5.8.1

> <Gold.Id.Protein>
6NUR|6NUR_protein|mol2

> <Gold.PLP.Fitness>
43.5901

> <Gold.PLP.PLP>
-30.0885

> <Gold.PLP.part.hbond>
-3.0000

> <Gold.PLP.part.metal>
0.0000

> <Gold.PLP.part.buried>
-3.9835

> <Gold.PLP.part.nonpolar>
-23.3857

> <Gold.PLP.part.repulsive>
0.0674

> <Gold.PLP.ligand.clash>
0.0000

> <Gold.PLP.ligand.torsion>
1.0844

> <Gold.PLP.Chemscore.Hbond>
3.7760

> <Gold.PLP.Chemscore.CHOScore>
1.4375

> <Gold.PLP.Chemscore.Metal>
0.0000

> <Gold.Chemscore.Hbonds>
donor molecule, donor type, donor heavy atom, donor atom, acceptor molecule, acceptor atom, score
      L1  H     7    37       P1 10186  2.00
      L1  H     9    28       P1 10747  0.80
      P1  H  6896  6907       L1    15  1.00
      L1  C     5    25       P1 10747  0.37
      L1  C     8    27       P1 10957  0.96

> <Gold.PLP.Chemscore.Internal.Correction>
0.0298

> <Gold.Rescore>
     Score         DG    S(hbond)    S(metal)    S(lipo)     H(rot)  DE(clash)    DE(int)     intcor
     14.13     -16.22       2.70        0.00      59.24       2.03       0.01       2.08       ----

> <Gold.Chemscore.Fitness>
14.1314

> <Gold.Chemscore.DG>
-16.2156

> <Gold.Chemscore.ZeroCoef>
-5.4800

> <Gold.Chemscore.Hbond>
2.6981

> <Gold.Chemscore.Metal>
0.0000

> <Gold.Chemscore.Lipo>
59.2398

> <Gold.Chemscore.Internal_Hbond>
0.0000

> <Gold.Chemscore.DEClash>
0.0089

> <Gold.Chemscore.DEInternal>
2.0753

> <Gold.Chemscore.Rot>
2.0341

> <Gold.Chemscore.Internal.Correction>
   9.000000E+99

> <Gold.Chemscore.Hbonds>
donor molecule, donor type, donor heavy atom, donor atom, acceptor molecule, acceptor atom, score
      L1  H     7    37       P1 10186  0.97
      L1  H     9    28       P1 10747  0.48
      P1  H  6896  6907       L1    15  0.96

> <Gold.Chemscore.Hbond.Weighted>
-9.0118

> <Gold.Chemscore.Metal.Weighted>
-0.0000

> <Gold.Chemscore.Lipo.Weighted>
-6.9311

> <Gold.Chemscore.Internal_Hbond.Weighted>
0.0000

> <Gold.Chemscore.DEClash.Weighted>
0.0089

> <Gold.Chemscore.DEInternal.Weighted>
2.0753

> <Gold.Chemscore.Rot.Weighted>
5.2072

> <Gold.Chemscore.Internal.Correction.Weighted>
   9.000000E+99

> <Gold.Protein.RotatedTorsions>
[ 6907 6896 6895 6894 ] final -170.87 input  -60.11 | X-H torsion
[ 7974 7965 7964 7962 ] final   50.92 input  175.53 | X-H torsion
[ 8008 7997 7996 7995 ] final  -63.09 input   59.86 | X-H torsion
[ 10167 10162 10161 10158 ] final   22.09 input  -65.29 | X-H torsion
[ 10718 10713 10712 10709 ] final  147.94 input   66.30 | X-H torsion
[ 10763 10752 10751 10750 ] final -120.98 input  -60.55 | X-H torsion
[ 11005 11000 10999 10996 ] final   88.43 input  -57.11 | X-H torsion

> <Gold.Protein.ActiveResidues>
 VAL166  LYS551  ARG553  GLY616  TRP617  ASP618  TYR619  PRO620  LYS621  CYS622 
 ASP623  PHE694  ASN695  SER759  ASP760  ASP761  ALA762  ILE779  LEU786  VAL792 
 PHE793  MET794  SER795  GLU796  ALA797  LYS798  CYS799  TRP800  GLU811  SER814 

> <Gold.Protein.RotatedAtoms>
  151.5147  133.3478  159.2890 H   0  0  0  0  0  0  0  0  0  0  0  0  # atno 6907 bound_to 6896
  150.8690  134.8062  159.7151 H   0  0  0  0  0  0  0  0  0  0  0  0  # atno 6908 bound_to 6896
  152.4685  134.5028  159.9782 H   0  0  0  0  0  0  0  0  0  0  0  0  # atno 6909 bound_to 6896
  145.9965  139.4393  143.0041 H   0  0  0  0  0  0  0  0  0  0  0  0  # atno 7974 bound_to 7965
  154.4535  140.0982  156.6688 H   0  0  0  0  0  0  0  0  0  0  0  0  # atno 8008 bound_to 7997
  155.5211  140.3479  155.4388 H   0  0  0  0  0  0  0  0  0  0  0  0  # atno 8009 bound_to 7997
  156.0730  140.1354  156.9795 H   0  0  0  0  0  0  0  0  0  0  0  0  # atno 8010 bound_to 7997
  140.5376  143.9733  150.6500 H   0  0  0  0  0  0  0  0  0  0  0  0  # atno 10167 bound_to 10162
  157.3147  131.0894  151.1288 H   0  0  0  0  0  0  0  0  0  0  0  0  # atno 10718 bound_to 10713
  154.8657  135.4184  154.2547 H   0  0  0  0  0  0  0  0  0  0  0  0  # atno 10763 bound_to 10752
  153.3487  135.6997  153.6812 H   0  0  0  0  0  0  0  0  0  0  0  0  # atno 10764 bound_to 10752
  153.5761  135.3582  155.2829 H   0  0  0  0  0  0  0  0  0  0  0  0  # atno 10765 bound_to 10752
  139.8897  134.8487  156.2999 H   0  0  0  0  0  0  0  0  0  0  0  0  # atno 11005 bound_to 11000
  145.7552  140.9957  143.1229 LP  0  0  0  0  0  0  0  0  0  0  0  0  # atno 17320 bound_to 7965
  144.6905  139.9263  143.7470 LP  0  0  0  0  0  0  0  0  0  0  0  0  # atno 17321 bound_to 7965
  140.3125  143.3189  152.0865 LP  0  0  0  0  0  0  0  0  0  0  0  0  # atno 17342 bound_to 10162
  139.4976  144.6627  151.6428 LP  0  0  0  0  0  0  0  0  0  0  0  0  # atno 17343 bound_to 10162
  157.2596  130.6652  149.5968 LP  0  0  0  0  0  0  0  0  0  0  0  0  # atno 17370 bound_to 10713
  155.9680  130.4513  150.5729 LP  0  0  0  0  0  0  0  0  0  0  0  0  # atno 17371 bound_to 10713
  140.9920  133.7203  156.0829 LP  0  0  0  0  0  0  0  0  0  0  0  0  # atno 17394 bound_to 11000
  140.7612  134.3937  157.5525 LP  0  0  0  0  0  0  0  0  0  0  0  0  # atno 17395 bound_to 11000

$$$$
