AV-unprocessed.smi:1175|AV-procd|sdf|4951|dock9
  -GOLD-   22720 3543D 1   1.00000     0.00000
 Structure written by MMmdl.
 36 37  0  0  0  0  0  0  0  0  1 V2000
  151.4968  140.9910  156.6814 O   0  0  0  0  0  0  0  0  0  0  0  0
  150.8176  142.0185  156.6631 C   0  0  0  0  0  0  0  0  0  0  0  0
  151.4038  143.3581  157.1319 C   0  0  0  0  0  0  0  0  0  0  0  0
  151.7966  143.3587  158.5513 N   0  0  0  0  0  0  0  0  0  0  0  0
  152.6493  142.3230  158.9818 C   0  0  0  0  0  0  0  0  0  0  0  0
  153.0752  142.2053  160.2542 C   0  0  0  0  0  0  0  0  0  0  0  0
  154.0435  141.1112  160.6764 C   0  0  0  0  0  0  0  0  0  0  0  0
  154.3099  141.1831  161.9806 F   0  0  0  0  0  0  0  0  0  0  0  0
  153.5117  139.9154  160.4274 F   0  0  0  0  0  0  0  0  0  0  0  0
  155.1941  141.2010  160.0083 F   0  0  0  0  0  0  0  0  0  0  0  0
  152.6353  143.2314  161.1790 C   0  0  0  0  0  0  0  0  0  0  0  0
  151.8295  144.2353  160.7811 C   0  0  0  0  0  0  0  0  0  0  0  0
  151.3591  144.3385  159.3980 C   0  0  0  0  0  0  0  0  0  0  0  0
  150.6194  145.2490  159.0236 O   0  0  0  0  0  0  0  0  0  0  0  0
  149.5374  142.0473  156.2626 N   0  0  0  0  0  0  0  0  0  0  0  0
  148.7736  140.9006  155.7809 C   0  0  0  0  0  0  0  0  0  0  0  0
  147.3621  141.3040  155.3147 C   0  0  1  0  0  0  0  0  0  0  0  0
  146.6323  142.2076  156.2876 C   0  0  0  0  0  0  0  0  0  0  0  0
  145.5347  142.8056  155.4111 C   0  0  0  0  0  0  0  0  0  0  0  0
  146.0561  142.8246  154.0846 O   0  0  0  0  0  0  0  0  0  0  0  0
  147.3116  142.1544  154.0445 C   0  0  0  0  0  0  0  0  0  0  0  0
  152.2601  143.6172  156.5065 H   0  0  0  0  0  0  0  0  0  0  0  0
  150.6653  144.1378  156.9393 H   0  0  0  0  0  0  0  0  0  0  0  0
  152.9448  141.6328  158.2049 H   0  0  0  0  0  0  0  0  0  0  0  0
  152.9546  143.1936  162.2101 H   0  0  0  0  0  0  0  0  0  0  0  0
  151.5211  144.9820  161.4981 H   0  0  0  0  0  0  0  0  0  0  0  0
  149.0559  142.9345  156.2862 H   0  0  0  0  0  0  0  0  0  0  0  0
  149.3221  140.4692  154.9433 H   0  0  0  0  0  0  0  0  0  0  0  0
  148.7211  140.1204  156.5422 H   0  0  0  0  0  0  0  0  0  0  0  0
  146.7605  140.4064  155.1606 H   0  0  0  0  0  0  0  0  0  0  0  0
  146.2397  141.6767  157.1554 H   0  0  0  0  0  0  0  0  0  0  0  0
  147.2955  142.9977  156.6429 H   0  0  0  0  0  0  0  0  0  0  0  0
  144.6475  142.1716  155.4246 H   0  0  0  0  0  0  0  0  0  0  0  0
  145.2422  143.8038  155.7380 H   0  0  0  0  0  0  0  0  0  0  0  0
  148.1024  142.9058  154.0507 H   0  0  0  0  0  0  0  0  0  0  0  0
  147.4161  141.5609  153.1361 H   0  0  0  0  0  0  0  0  0  0  0  0
  1  2  2  0  0  0  0
  2  3  1  0  0  0  0
  2 15  1  0  0  0  0
  3  4  1  0  0  0  0
  3 22  1  0  0  0  0
  3 23  1  0  0  0  0
  4 13  1  0  0  0  0
  4  5  1  0  0  0  0
  5  6  2  0  0  0  0
  5 24  1  0  0  0  0
  6  7  1  0  0  0  0
  6 11  1  0  0  0  0
  7  8  1  0  0  0  0
  7  9  1  0  0  0  0
  7 10  1  0  0  0  0
 11 12  2  0  0  0  0
 11 25  1  0  0  0  0
 12 13  1  0  0  0  0
 12 26  1  0  0  0  0
 13 14  2  0  0  0  0
 15 16  1  0  0  0  0
 15 27  1  0  0  0  0
 16 17  1  0  0  0  0
 16 28  1  0  0  0  0
 16 29  1  0  0  0  0
 17 21  1  0  0  0  0
 17 18  1  0  0  0  0
 17 30  1  0  0  0  0
 18 19  1  0  0  0  0
 18 31  1  0  0  0  0
 18 32  1  0  0  0  0
 19 20  1  0  0  0  0
 19 33  1  0  0  0  0
 19 34  1  0  0  0  0
 20 21  1  0  0  0  0
 21 35  1  0  0  0  0
 21 36  1  0  0  0  0
M  END
> <s_m_source_file>
AV-unprocessed.smi

> <i_m_source_file_index>
1175

> <i_lp_mmshare_version>
43012

> <i_f3d_flags>
0

> <s_epik_input>
W0NIMl0xT1tDSDJdW0NIMl1bQ0BIXTFbQ0gyXVtOSF1DKD1PKVtDSDJdbjJbY0hdYyhDKEYpKEYpRilbY0hdW2NIXWMyPU8=

> <s_epik_cmdline>
J2VwaWtfcHl0aG9uJywgJy1waCcsICc3LjAnLCAnLXRuJywgJzgnLCAnLW1hJywgJzIwMCcsICctbWV0YWxfYmluZGluZycsICctaW1hZScsICc8aW5maWxlLm1hZT4nLCAnLW9tYWUnLCAnPG91dGZpbGUubWFlPic=

> <r_lp_tautomer_probability>
1

> <r_epik_Ionization_Penalty>
3.67963e-08

> <r_epik_Ionization_Penalty_Charging>
1.809e-08

> <r_epik_Ionization_Penalty_Neutral>
1.87063e-08

> <r_epik_State_Penalty>
-0

> <r_epik_Charging_Adjusted_Penalty>
1.809e-08

> <i_epik_Tot_Q>
0

> <i_epik_Tot_abs_Q>
0

> <r_epik_Metal_State_Penalty>
-0

> <b_epik_Metal_Only>
0

> <s_lp_Force_Field>
OPLS_2005

> <r_lp_Energy>
29.657

> <b_lp_Chiralities_Consistent>
1

> <s_lp_Variant>
AV-unprocessed.smi:1175-2

> <Gold.Version>
5.8.1

> <Gold.Id.Protein>
6NUR|6NUR_protein|mol2

> <Gold.PLP.Fitness>
49.0707

> <Gold.PLP.PLP>
-46.3564

> <Gold.PLP.part.hbond>
-1.0000

> <Gold.PLP.part.metal>
0.0000

> <Gold.PLP.part.buried>
-5.6721

> <Gold.PLP.part.nonpolar>
-39.5372

> <Gold.PLP.part.repulsive>
0.4726

> <Gold.PLP.ligand.clash>
0.0000

> <Gold.PLP.ligand.torsion>
0.1715

> <Gold.PLP.Chemscore.Hbond>
1.0000

> <Gold.PLP.Chemscore.CHOScore>
0.0000

> <Gold.PLP.Chemscore.Metal>
0.0000

> <Gold.Chemscore.Hbonds>
donor molecule, donor type, donor heavy atom, donor atom, acceptor molecule, acceptor atom, score
      L1  H    15    27       P1  8028  0.99

> <Gold.PLP.Chemscore.Internal.Correction>
0.0573

> <Gold.Rescore>
     Score         DG    S(hbond)    S(metal)    S(lipo)     H(rot)  DE(clash)    DE(int)     intcor
     12.97     -14.30       0.97        0.00      88.40       1.87       0.17       1.15       ----

> <Gold.Chemscore.Fitness>
12.9677

> <Gold.Chemscore.DG>
-14.2951

> <Gold.Chemscore.ZeroCoef>
-5.4800

> <Gold.Chemscore.Hbond>
0.9743

> <Gold.Chemscore.Metal>
0.0000

> <Gold.Chemscore.Lipo>
88.4024

> <Gold.Chemscore.Internal_Hbond>
0.0000

> <Gold.Chemscore.DEClash>
0.1727

> <Gold.Chemscore.DEInternal>
1.1548

> <Gold.Chemscore.Rot>
1.8681

> <Gold.Chemscore.Internal.Correction>
   9.000000E+99

> <Gold.Chemscore.Hbonds>
donor molecule, donor type, donor heavy atom, donor atom, acceptor molecule, acceptor atom, score
      L1  H    15    27       P1  8028  0.94

> <Gold.Chemscore.Hbond.Weighted>
-3.2543

> <Gold.Chemscore.Metal.Weighted>
-0.0000

> <Gold.Chemscore.Lipo.Weighted>
-10.3431

> <Gold.Chemscore.Internal_Hbond.Weighted>
0.0000

> <Gold.Chemscore.DEClash.Weighted>
0.1727

> <Gold.Chemscore.DEInternal.Weighted>
1.1548

> <Gold.Chemscore.Rot.Weighted>
4.7822

> <Gold.Chemscore.Internal.Correction.Weighted>
   9.000000E+99

> <Gold.Protein.RotatedTorsions>
[ 6907 6896 6895 6894 ] final -176.57 input  -60.11 | X-H torsion
[ 7974 7965 7964 7962 ] final  144.82 input  175.53 | X-H torsion
[ 8008 7997 7996 7995 ] final  132.56 input   59.86 | X-H torsion
[ 10167 10162 10161 10158 ] final   94.80 input  -65.29 | X-H torsion
[ 10718 10713 10712 10709 ] final   -3.91 input   66.30 | X-H torsion
[ 10763 10752 10751 10750 ] final   39.68 input  -60.55 | X-H torsion
[ 11005 11000 10999 10996 ] final  111.36 input  -57.11 | X-H torsion

> <Gold.Protein.ActiveResidues>
 VAL166  LYS551  ARG553  GLY616  TRP617  ASP618  TYR619  PRO620  LYS621  CYS622 
 ASP623  PHE694  ASN695  SER759  ASP760  ASP761  ALA762  ILE779  LEU786  VAL792 
 PHE793  MET794  SER795  GLU796  ALA797  LYS798  CYS799  TRP800  GLU811  SER814 

> <Gold.Protein.RotatedAtoms>
  151.6069  133.3351  159.3059 H   0  0  0  0  0  0  0  0  0  0  0  0  # atno 6907 bound_to 6896
  150.8177  134.7372  159.6756 H   0  0  0  0  0  0  0  0  0  0  0  0  # atno 6908 bound_to 6896
  152.4272  134.5851  160.0010 H   0  0  0  0  0  0  0  0  0  0  0  0  # atno 6909 bound_to 6896
  144.8803  139.5709  143.5846 H   0  0  0  0  0  0  0  0  0  0  0  0  # atno 7974 bound_to 7965
  156.2984  140.2543  156.3109 H   0  0  0  0  0  0  0  0  0  0  0  0  # atno 8008 bound_to 7997
  154.9327  140.0398  157.2075 H   0  0  0  0  0  0  0  0  0  0  0  0  # atno 8009 bound_to 7997
  154.8203  140.2859  155.5796 H   0  0  0  0  0  0  0  0  0  0  0  0  # atno 8010 bound_to 7997
  139.8049  144.6798  150.9716 H   0  0  0  0  0  0  0  0  0  0  0  0  # atno 10167 bound_to 10162
  156.7690  130.5294  149.5771 H   0  0  0  0  0  0  0  0  0  0  0  0  # atno 10718 bound_to 10713
  152.9959  135.6213  154.2504 H   0  0  0  0  0  0  0  0  0  0  0  0  # atno 10763 bound_to 10752
  154.2243  135.2794  155.2915 H   0  0  0  0  0  0  0  0  0  0  0  0  # atno 10764 bound_to 10752
  154.5502  135.5735  153.6974 H   0  0  0  0  0  0  0  0  0  0  0  0  # atno 10765 bound_to 10752
  139.8902  134.9506  156.6420 H   0  0  0  0  0  0  0  0  0  0  0  0  # atno 11005 bound_to 11000
  146.2990  139.7367  142.9105 LP  0  0  0  0  0  0  0  0  0  0  0  0  # atno 17320 bound_to 7965
  145.3966  141.0379  143.3094 LP  0  0  0  0  0  0  0  0  0  0  0  0  # atno 17321 bound_to 7965
  140.7819  143.4244  151.0792 LP  0  0  0  0  0  0  0  0  0  0  0  0  # atno 17342 bound_to 10162
  139.7913  143.8214  152.3152 LP  0  0  0  0  0  0  0  0  0  0  0  0  # atno 17343 bound_to 10162
  156.1290  130.6164  151.0306 LP  0  0  0  0  0  0  0  0  0  0  0  0  # atno 17370 bound_to 10713
  157.6700  131.0863  150.7636 LP  0  0  0  0  0  0  0  0  0  0  0  0  # atno 17371 bound_to 10713
  140.7586  133.8837  155.8401 LP  0  0  0  0  0  0  0  0  0  0  0  0  # atno 17394 bound_to 11000
  140.9941  134.1239  157.4380 LP  0  0  0  0  0  0  0  0  0  0  0  0  # atno 17395 bound_to 11000

$$$$
