AV-unprocessed.smi:164|AV-procd|sdf|1385|dock5
  -GOLD-   2262019113D 1   1.00000     0.00000
 Structure written by MMmdl.
 53 55  0  0  0  0  0  0  0  0  1 V2000
  151.2622  145.4894  159.8862 C   0  0  0  0  0  0  0  0  0  0  0  0
  151.9550  144.2284  160.3734 C   0  0  0  0  0  0  0  0  0  0  0  0
  152.2271  144.0867  161.7496 C   0  0  0  0  0  0  0  0  0  0  0  0
  152.8719  142.9348  162.2333 C   0  0  0  0  0  0  0  0  0  0  0  0
  153.2420  141.9054  161.3464 C   0  0  0  0  0  0  0  0  0  0  0  0
  153.9417  140.6694  161.8814 C   0  0  0  0  0  0  0  0  0  0  0  0
  152.9572  142.0300  159.9673 C   0  0  0  0  0  0  0  0  0  0  0  0
  153.3115  141.0172  159.1146 O   0  0  0  0  0  0  0  0  0  0  0  0
  152.5907  139.8117  159.3346 C   0  0  0  0  0  0  0  0  0  0  0  0
  152.3720  139.0786  158.0019 C   0  0  1  0  0  0  0  0  0  0  0  0
  153.6338  138.9363  157.3811 O   0  0  0  0  0  0  0  0  0  0  0  0
  151.6950  137.7013  158.1784 C   0  0  0  0  0  0  0  0  0  0  0  0
  150.8746  137.3169  157.0421 N   0  0  0  0  0  0  0  0  0  0  0  0
  151.2081  136.1234  156.3570 C   0  0  0  0  0  0  0  0  0  0  0  0
  152.1561  135.4138  156.6976 O   0  0  0  0  0  0  0  0  0  0  0  0
  150.3486  135.8193  155.2181 C   0  0  0  0  0  0  0  0  0  0  0  0
  150.5609  134.6991  154.5070 F   0  0  0  0  0  0  0  0  0  0  0  0
  149.3408  136.6456  154.8629 C   0  0  0  0  0  0  0  0  0  0  0  0
  149.0562  137.8232  155.5355 N   0  0  0  0  0  0  0  0  0  0  0  0
  147.9262  138.7391  155.1128 C   0  0  1  0  0  0  0  0  0  0  0  0
  148.4697  140.1249  154.7143 C   0  0  0  0  0  0  0  0  0  0  0  0
  147.8604  140.3438  153.3434 C   0  0  0  0  0  0  0  0  0  0  0  0
  147.7168  138.9191  152.8301 C   0  0  0  0  0  0  0  0  0  0  0  0
  147.2837  138.2138  153.9860 O   0  0  0  0  0  0  0  0  0  0  0  0
  149.8263  138.1878  156.6614 C   0  0  0  0  0  0  0  0  0  0  0  0
  149.5938  139.2338  157.2729 O   0  0  0  0  0  0  0  0  0  0  0  0
  152.3304  143.2012  159.4719 C   0  0  0  0  0  0  0  0  0  0  0  0
  152.0612  143.3535  157.9805 C   0  0  0  0  0  0  0  0  0  0  0  0
  150.9174  146.1005  160.7206 H   0  0  0  0  0  0  0  0  0  0  0  0
  150.3937  145.2415  159.2755 H   0  0  0  0  0  0  0  0  0  0  0  0
  151.9470  146.0921  159.2891 H   0  0  0  0  0  0  0  0  0  0  0  0
  151.9464  144.8660  162.4432 H   0  0  0  0  0  0  0  0  0  0  0  0
  153.0801  142.8450  163.2894 H   0  0  0  0  0  0  0  0  0  0  0  0
  154.7768  140.3897  161.2383 H   0  0  0  0  0  0  0  0  0  0  0  0
  153.2468  139.8309  161.9280 H   0  0  0  0  0  0  0  0  0  0  0  0
  154.3346  140.8409  162.8840 H   0  0  0  0  0  0  0  0  0  0  0  0
  153.1721  139.1710  159.9990 H   0  0  0  0  0  0  0  0  0  0  0  0
  151.6393  140.0010  159.8347 H   0  0  0  0  0  0  0  0  0  0  0  0
  151.7639  139.7208  157.3634 H   0  0  0  0  0  0  0  0  0  0  0  0
  153.5483  138.3282  156.6626 H   0  0  0  0  0  0  0  0  0  0  0  0
  152.4121  136.9042  158.3829 H   0  0  0  0  0  0  0  0  0  0  0  0
  151.0368  137.6964  159.0493 H   0  0  0  0  0  0  0  0  0  0  0  0
  148.7442  136.3555  154.0118 H   0  0  0  0  0  0  0  0  0  0  0  0
  147.2307  138.7553  155.9539 H   0  0  0  0  0  0  0  0  0  0  0  0
  148.1764  140.8835  155.4405 H   0  0  0  0  0  0  0  0  0  0  0  0
  149.5586  140.1001  154.6469 H   0  0  0  0  0  0  0  0  0  0  0  0
  146.8775  140.8072  153.4388 H   0  0  0  0  0  0  0  0  0  0  0  0
  148.4752  140.9708  152.6971 H   0  0  0  0  0  0  0  0  0  0  0  0
  146.9989  138.8335  152.0143 H   0  0  0  0  0  0  0  0  0  0  0  0
  148.6771  138.5313  152.4876 H   0  0  0  0  0  0  0  0  0  0  0  0
  152.6214  142.6339  157.3839 H   0  0  0  0  0  0  0  0  0  0  0  0
  152.3479  144.3455  157.6322 H   0  0  0  0  0  0  0  0  0  0  0  0
  151.0006  143.2093  157.7742 H   0  0  0  0  0  0  0  0  0  0  0  0
  1  2  1  0  0  0  0
  1 29  1  0  0  0  0
  1 30  1  0  0  0  0
  1 31  1  0  0  0  0
  2 27  1  0  0  0  0
  2  3  2  0  0  0  0
  3  4  1  0  0  0  0
  3 32  1  0  0  0  0
  4  5  2  0  0  0  0
  4 33  1  0  0  0  0
  5  6  1  0  0  0  0
  5  7  1  0  0  0  0
  6 34  1  0  0  0  0
  6 35  1  0  0  0  0
  6 36  1  0  0  0  0
  7  8  1  0  0  0  0
  7 27  2  0  0  0  0
  8  9  1  0  0  0  0
  9 10  1  0  0  0  0
  9 37  1  0  0  0  0
  9 38  1  0  0  0  0
 10 11  1  0  0  0  0
 10 12  1  0  0  0  0
 10 39  1  0  0  0  0
 11 40  1  0  0  0  0
 12 13  1  0  0  0  0
 12 41  1  0  0  0  0
 12 42  1  0  0  0  0
 13 25  1  0  0  0  0
 13 14  1  0  0  0  0
 14 15  2  0  0  0  0
 14 16  1  0  0  0  0
 16 17  1  0  0  0  0
 16 18  2  0  0  0  0
 18 19  1  0  0  0  0
 18 43  1  0  0  0  0
 19 20  1  0  0  0  0
 19 25  1  0  0  0  0
 20 24  1  0  0  0  0
 20 21  1  0  0  0  0
 20 44  1  0  0  0  0
 21 22  1  0  0  0  0
 21 45  1  0  0  0  0
 21 46  1  0  0  0  0
 22 23  1  0  0  0  0
 22 47  1  0  0  0  0
 22 48  1  0  0  0  0
 23 24  1  0  0  0  0
 23 49  1  0  0  0  0
 23 50  1  0  0  0  0
 25 26  2  0  0  0  0
 27 28  1  0  0  0  0
 28 51  1  0  0  0  0
 28 52  1  0  0  0  0
 28 53  1  0  0  0  0
M  END
> <s_m_source_file>
AV-unprocessed.smi

> <i_m_source_file_index>
164

> <i_lp_mmshare_version>
43012

> <i_f3d_flags>
0

> <s_epik_input>
W0NIM11jMVtjSF1bY0hdYyhbQ0gzXSljKGMxW0NIM10pT1tDSDJdW0NASF0oW09IXSlbQ0gyXW4yYyg9TyljKEYpW2NIXW4oYzI9TylbQ0BASF0zW0NIMl1bQ0gyXVtDSDJdTzM=

> <s_epik_cmdline>
J2VwaWtfcHl0aG9uJywgJy1waCcsICc3LjAnLCAnLXRuJywgJzgnLCAnLW1hJywgJzIwMCcsICctbWV0YWxfYmluZGluZycsICctaW1hZScsICc8aW5maWxlLm1hZT4nLCAnLW9tYWUnLCAnPG91dGZpbGUubWFlPic=

> <r_lp_tautomer_probability>
1

> <r_epik_Ionization_Penalty>
1.45842e-07

> <r_epik_Ionization_Penalty_Charging>
2.86622e-08

> <r_epik_Ionization_Penalty_Neutral>
1.1718e-07

> <r_epik_State_Penalty>
-0

> <r_epik_Charging_Adjusted_Penalty>
2.86622e-08

> <i_epik_Tot_Q>
0

> <i_epik_Tot_abs_Q>
0

> <r_epik_Metal_State_Penalty>
-0

> <b_epik_Metal_Only>
0

> <s_epik_Chemistry_Notes>
This compound contains an acetal/aminal-like group ( X-CH(R)-Y where X, Y are N, S, or O) that may be acid/base labile, releasing an aldehyde.

> <s_lp_Force_Field>
OPLS_2005

> <r_lp_Energy>
46.8287

> <b_lp_Chiralities_Consistent>
1

> <s_lp_Variant>
AV-unprocessed.smi:164-4

> <Gold.Version>
5.8.1

> <Gold.Id.Protein>
6NUR|6NUR_protein|mol2

> <Gold.PLP.Fitness>
57.9359

> <Gold.PLP.PLP>
-50.2109

> <Gold.PLP.part.hbond>
-1.9059

> <Gold.PLP.part.metal>
0.0000

> <Gold.PLP.part.buried>
-6.1881

> <Gold.PLP.part.nonpolar>
-40.6311

> <Gold.PLP.part.repulsive>
0.1169

> <Gold.PLP.ligand.clash>
0.0000

> <Gold.PLP.ligand.torsion>
0.6568

> <Gold.PLP.Chemscore.Hbond>
1.9913

> <Gold.PLP.Chemscore.CHOScore>
0.9906

> <Gold.PLP.Chemscore.Metal>
0.0000

> <Gold.Chemscore.Hbonds>
donor molecule, donor type, donor heavy atom, donor atom, acceptor molecule, acceptor atom, score
      P1  H  7997  8010       L1    11  0.88
      P1  H 10752 10763       L1    15  1.00
      L1  C    18    43       P1  7948  1.00

> <Gold.PLP.Chemscore.Internal.Correction>
0.0931

> <Gold.Rescore>
     Score         DG    S(hbond)    S(metal)    S(lipo)     H(rot)  DE(clash)    DE(int)     intcor
     17.51     -20.68       1.88        0.00     135.96       2.73       0.10       3.08       ----

> <Gold.Chemscore.Fitness>
17.5074

> <Gold.Chemscore.DG>
-20.6830

> <Gold.Chemscore.ZeroCoef>
-5.4800

> <Gold.Chemscore.Hbond>
1.8828

> <Gold.Chemscore.Metal>
0.0000

> <Gold.Chemscore.Lipo>
135.9567

> <Gold.Chemscore.Internal_Hbond>
0.0000

> <Gold.Chemscore.DEClash>
0.0956

> <Gold.Chemscore.DEInternal>
3.0800

> <Gold.Chemscore.Rot>
2.7315

> <Gold.Chemscore.Internal.Correction>
   9.000000E+99

> <Gold.Chemscore.Hbonds>
donor molecule, donor type, donor heavy atom, donor atom, acceptor molecule, acceptor atom, score
      P1  H  7997  8010       L1    11  0.55
      P1  H 10752 10763       L1    15  0.30

> <Gold.Chemscore.Hbond.Weighted>
-6.2886

> <Gold.Chemscore.Metal.Weighted>
-0.0000

> <Gold.Chemscore.Lipo.Weighted>
-15.9069

> <Gold.Chemscore.Internal_Hbond.Weighted>
0.0000

> <Gold.Chemscore.DEClash.Weighted>
0.0956

> <Gold.Chemscore.DEInternal.Weighted>
3.0800

> <Gold.Chemscore.Rot.Weighted>
6.9925

> <Gold.Chemscore.Internal.Correction.Weighted>
   9.000000E+99

> <Gold.Protein.RotatedTorsions>
[ 6907 6896 6895 6894 ] final  115.22 input  -60.11 | X-H torsion
[ 7974 7965 7964 7962 ] final   -0.58 input  175.53 | X-H torsion
[ 8008 7997 7996 7995 ] final   37.28 input   59.86 | X-H torsion
[ 10167 10162 10161 10158 ] final  -63.54 input  -65.29 | X-H torsion
[ 10718 10713 10712 10709 ] final  -58.20 input   66.30 | X-H torsion
[ 10763 10752 10751 10750 ] final   93.76 input  -60.55 | X-H torsion
[ 11005 11000 10999 10996 ] final  176.91 input  -57.11 | X-H torsion

> <Gold.Protein.ActiveResidues>
 VAL166  LYS551  ARG553  GLY616  TRP617  ASP618  TYR619  PRO620  LYS621  CYS622 
 ASP623  PHE694  ASN695  SER759  ASP760  ASP761  ALA762  ILE779  LEU786  VAL792 
 PHE793  MET794  SER795  GLU796  ALA797  LYS798  CYS799  TRP800  GLU811  SER814 

> <Gold.Protein.RotatedAtoms>
  152.4755  133.8128  159.7011 H   0  0  0  0  0  0  0  0  0  0  0  0  # atno 6907 bound_to 6896
  150.8769  133.7417  159.2950 H   0  0  0  0  0  0  0  0  0  0  0  0  # atno 6908 bound_to 6896
  151.4934  135.1062  159.9861 H   0  0  0  0  0  0  0  0  0  0  0  0  # atno 6909 bound_to 6896
  146.2426  140.1292  142.8338 H   0  0  0  0  0  0  0  0  0  0  0  0  # atno 7974 bound_to 7965
  155.2012  140.3316  155.4343 H   0  0  0  0  0  0  0  0  0  0  0  0  # atno 8008 bound_to 7997
  156.2406  140.1893  156.7049 H   0  0  0  0  0  0  0  0  0  0  0  0  # atno 8009 bound_to 7997
  154.6140  140.0605  156.9516 H   0  0  0  0  0  0  0  0  0  0  0  0  # atno 8010 bound_to 7997
  140.5863  143.2334  151.6235 H   0  0  0  0  0  0  0  0  0  0  0  0  # atno 10167 bound_to 10162
  156.1153  130.4171  150.0545 H   0  0  0  0  0  0  0  0  0  0  0  0  # atno 10718 bound_to 10713
  153.2339  135.4314  155.0625 H   0  0  0  0  0  0  0  0  0  0  0  0  # atno 10763 bound_to 10752
  154.8310  135.3386  154.6747 H   0  0  0  0  0  0  0  0  0  0  0  0  # atno 10764 bound_to 10752
  153.7173  135.7019  153.5078 H   0  0  0  0  0  0  0  0  0  0  0  0  # atno 10765 bound_to 10752
  140.3783  134.6969  157.4435 H   0  0  0  0  0  0  0  0  0  0  0  0  # atno 11005 bound_to 11000
  145.0341  140.8894  143.5092 LP  0  0  0  0  0  0  0  0  0  0  0  0  # atno 17320 bound_to 7965
  145.1361  139.2601  143.5514 LP  0  0  0  0  0  0  0  0  0  0  0  0  # atno 17321 bound_to 7965
  139.5200  144.3237  152.0888 LP  0  0  0  0  0  0  0  0  0  0  0  0  # atno 17342 bound_to 10162
  140.2394  144.4285  150.6266 LP  0  0  0  0  0  0  0  0  0  0  0  0  # atno 17343 bound_to 10162
  156.8498  130.9455  151.3626 LP  0  0  0  0  0  0  0  0  0  0  0  0  # atno 17370 bound_to 10713
  157.6335  130.8748  149.9317 LP  0  0  0  0  0  0  0  0  0  0  0  0  # atno 17371 bound_to 10713
  140.0498  134.6147  155.8875 LP  0  0  0  0  0  0  0  0  0  0  0  0  # atno 17394 bound_to 11000
  141.1932  133.6578  156.5537 LP  0  0  0  0  0  0  0  0  0  0  0  0  # atno 17395 bound_to 11000

$$$$
