AV-unprocessed.smi:82|AV-procd|sdf|798|dock2
  -GOLD-   2262017173D 1   1.00000     0.00000
 Structure written by MMmdl.
 58 61  0  0  0  0  0  0  0  0  1 V2000
  151.1436  144.8906  159.8269 C   0  0  0  0  0  0  0  0  0  0  0  0
  152.3335  144.2403  160.2380 O   0  0  0  0  0  0  0  0  0  0  0  0
  152.1726  143.5294  161.4539 C   0  0  0  0  0  0  0  0  0  0  0  0
  153.0192  142.2476  161.3850 C   0  0  0  0  0  0  0  0  0  0  0  0
  153.0643  141.6043  160.0657 N   0  0  0  0  0  0  0  0  0  0  0  0
  151.7195  141.5847  159.4826 C   0  0  0  0  0  0  0  0  0  0  0  0
  151.6966  141.0017  158.0629 C   0  0  0  0  0  0  0  0  0  0  0  0
  152.2505  139.6524  158.0761 N   0  0  0  0  0  0  0  0  0  0  0  0
  152.0296  138.9343  156.9453 C   0  0  0  0  0  0  0  0  0  0  0  0
  152.6747  139.2622  155.7933 N   0  0  0  0  0  0  0  0  0  0  0  0
  152.4582  138.5632  154.6753 C   0  0  0  0  0  0  0  0  0  0  0  0
  151.6519  137.5168  154.4881 N   0  0  0  0  0  0  0  0  0  0  0  0
  151.0047  137.1786  155.6398 C   0  0  0  0  0  0  0  0  0  0  0  0
  151.1388  137.8244  156.9018 C   0  0  0  0  0  0  0  0  0  0  0  0
  150.3481  137.1813  157.8469 N   0  0  0  0  0  0  0  0  0  0  0  0
  149.7768  136.2152  157.1813 C   0  0  0  0  0  0  0  0  0  0  0  0
  150.0907  136.1585  155.8420 N   0  0  0  0  0  0  0  0  0  0  0  0
  149.6393  135.1794  154.8960 C   0  0  0  0  0  0  0  0  0  0  0  0
  148.1452  134.9539  154.6451 C   0  0  0  0  0  0  0  0  0  0  0  0
  148.3873  133.4365  154.4816 C   0  0  0  0  0  0  0  0  0  0  0  0
  147.3892  132.5509  155.2438 C   0  0  0  0  0  0  0  0  0  0  0  0
  146.1418  132.4891  154.5821 O   0  0  0  0  0  0  0  0  0  0  0  0
  148.4514  132.9062  153.0319 C   0  0  0  0  0  0  0  0  0  0  0  0
  148.6839  131.5144  152.9552 O   0  0  0  0  0  0  0  0  0  0  0  0
  149.7313  133.6813  155.2028 C   0  0  0  0  0  0  0  0  0  0  0  0
  153.5791  139.5904  158.6838 C   0  0  0  0  0  0  0  0  0  0  0  0
  153.5730  140.2148  160.0987 C   0  0  1  0  0  0  0  0  0  0  0  0
  154.9798  140.0456  160.6983 C   0  0  0  0  0  0  0  0  0  0  0  0
  151.3203  145.4208  158.8912 H   0  0  0  0  0  0  0  0  0  0  0  0
  150.8151  145.6187  160.5697 H   0  0  0  0  0  0  0  0  0  0  0  0
  150.3393  144.1728  159.6603 H   0  0  0  0  0  0  0  0  0  0  0  0
  152.5098  144.1463  162.2885 H   0  0  0  0  0  0  0  0  0  0  0  0
  151.1170  143.3211  161.6139 H   0  0  0  0  0  0  0  0  0  0  0  0
  154.0303  142.4374  161.7475 H   0  0  0  0  0  0  0  0  0  0  0  0
  152.5794  141.5611  162.1100 H   0  0  0  0  0  0  0  0  0  0  0  0
  151.0441  141.0146  160.1229 H   0  0  0  0  0  0  0  0  0  0  0  0
  151.3217  142.5993  159.4399 H   0  0  0  0  0  0  0  0  0  0  0  0
  150.6744  141.0111  157.6866 H   0  0  0  0  0  0  0  0  0  0  0  0
  152.2876  141.6254  157.3908 H   0  0  0  0  0  0  0  0  0  0  0  0
  153.0078  138.8915  153.8054 H   0  0  0  0  0  0  0  0  0  0  0  0
  149.1025  135.5157  157.6540 H   0  0  0  0  0  0  0  0  0  0  0  0
  150.1540  135.4117  153.9630 H   0  0  0  0  0  0  0  0  0  0  0  0
  147.5400  135.1979  155.5197 H   0  0  0  0  0  0  0  0  0  0  0  0
  147.7601  135.4564  153.7572 H   0  0  0  0  0  0  0  0  0  0  0  0
  147.7653  131.5315  155.3363 H   0  0  0  0  0  0  0  0  0  0  0  0
  147.2334  132.9150  156.2600 H   0  0  0  0  0  0  0  0  0  0  0  0
  145.6507  131.7626  154.9346 H   0  0  0  0  0  0  0  0  0  0  0  0
  147.5213  133.1087  152.5006 H   0  0  0  0  0  0  0  0  0  0  0  0
  149.2443  133.4049  152.4732 H   0  0  0  0  0  0  0  0  0  0  0  0
  148.9946  131.3095  152.0864 H   0  0  0  0  0  0  0  0  0  0  0  0
  150.5894  133.1819  154.7517 H   0  0  0  0  0  0  0  0  0  0  0  0
  149.6774  133.4710  156.2723 H   0  0  0  0  0  0  0  0  0  0  0  0
  153.8980  138.5490  158.7445 H   0  0  0  0  0  0  0  0  0  0  0  0
  154.2956  140.1120  158.0470 H   0  0  0  0  0  0  0  0  0  0  0  0
  152.8965  139.6165  160.7116 H   0  0  0  0  0  0  0  0  0  0  0  0
  155.3366  139.0223  160.5773 H   0  0  0  0  0  0  0  0  0  0  0  0
  154.9857  140.2462  161.7691 H   0  0  0  0  0  0  0  0  0  0  0  0
  155.7023  140.7041  160.2149 H   0  0  0  0  0  0  0  0  0  0  0  0
  1  2  1  0  0  0  0
  1 29  1  0  0  0  0
  1 30  1  0  0  0  0
  1 31  1  0  0  0  0
  2  3  1  0  0  0  0
  3  4  1  0  0  0  0
  3 32  1  0  0  0  0
  3 33  1  0  0  0  0
  4  5  1  0  0  0  0
  4 34  1  0  0  0  0
  4 35  1  0  0  0  0
  5 27  1  0  0  0  0
  5  6  1  0  0  0  0
  6  7  1  0  0  0  0
  6 36  1  0  0  0  0
  6 37  1  0  0  0  0
  7  8  1  0  0  0  0
  7 38  1  0  0  0  0
  7 39  1  0  0  0  0
  8  9  1  0  0  0  0
  8 26  1  0  0  0  0
  9 14  1  0  0  0  0
  9 10  2  0  0  0  0
 10 11  1  0  0  0  0
 11 12  2  0  0  0  0
 11 40  1  0  0  0  0
 12 13  1  0  0  0  0
 13 17  1  0  0  0  0
 13 14  2  0  0  0  0
 14 15  1  0  0  0  0
 15 16  2  0  0  0  0
 16 17  1  0  0  0  0
 16 41  1  0  0  0  0
 17 18  1  0  0  0  0
 18 25  1  0  0  0  0
 18 19  1  0  0  0  0
 18 42  1  0  0  0  0
 19 20  1  0  0  0  0
 19 43  1  0  0  0  0
 19 44  1  0  0  0  0
 20 21  1  0  0  0  0
 20 23  1  0  0  0  0
 20 25  1  0  0  0  0
 21 22  1  0  0  0  0
 21 45  1  0  0  0  0
 21 46  1  0  0  0  0
 22 47  1  0  0  0  0
 23 24  1  0  0  0  0
 23 48  1  0  0  0  0
 23 49  1  0  0  0  0
 24 50  1  0  0  0  0
 25 51  1  0  0  0  0
 25 52  1  0  0  0  0
 26 27  1  0  0  0  0
 26 53  1  0  0  0  0
 26 54  1  0  0  0  0
 27 28  1  0  0  0  0
 27 55  1  0  0  0  0
 28 56  1  0  0  0  0
 28 57  1  0  0  0  0
 28 58  1  0  0  0  0
M  END
> <s_m_source_file>
AV-unprocessed.smi

> <i_m_source_file_index>
82

> <i_lp_mmshare_version>
43012

> <i_f3d_flags>
0

> <s_epik_input>
W0NIM11PW0NIMl1bQ0gyXU4xW0NIMl1bQ0gyXU4oW0NIMl1bQ0BIXTFbQ0gzXSljKG5bY0hdbjIpYyhjMjMpbltjSF1uM1tDSF0oW0NIMl00KVtDSDJdQzQoW0NIMl1bT0hdKVtDSDJdW09IXQ==

> <s_epik_cmdline>
J2VwaWtfcHl0aG9uJywgJy1waCcsICc3LjAnLCAnLXRuJywgJzgnLCAnLW1hJywgJzIwMCcsICctbWV0YWxfYmluZGluZycsICctaW1hZScsICc8aW5maWxlLm1hZT4nLCAnLW9tYWUnLCAnPG91dGZpbGUubWFlPic=

> <r_lp_tautomer_probability>
1

> <r_epik_Ionization_Penalty>
0.549054

> <r_epik_Ionization_Penalty_Charging>
0

> <r_epik_Ionization_Penalty_Neutral>
0.549054

> <r_epik_State_Penalty>
0.552556

> <r_epik_Charging_Adjusted_Penalty>
0.552556

> <i_epik_Tot_Q>
0

> <i_epik_Tot_abs_Q>
0

> <r_epik_Metal_State_Penalty>
0.545162

> <b_epik_Metal_Only>
0

> <s_lp_Force_Field>
OPLS_2005

> <r_lp_Energy>
72.4409

> <b_lp_Chiralities_Consistent>
1

> <s_lp_Variant>
AV-unprocessed.smi:82-5

> <Gold.Version>
5.8.1

> <Gold.Id.Protein>
6NUR|6NUR_protein|mol2

> <Gold.PLP.Fitness>
51.5295

> <Gold.PLP.PLP>
-43.9685

> <Gold.PLP.part.hbond>
-3.0000

> <Gold.PLP.part.metal>
0.0000

> <Gold.PLP.part.buried>
-4.7431

> <Gold.PLP.part.nonpolar>
-34.9942

> <Gold.PLP.part.repulsive>
0.1607

> <Gold.PLP.ligand.clash>
0.0000

> <Gold.PLP.ligand.torsion>
0.9294

> <Gold.PLP.Chemscore.Hbond>
2.8318

> <Gold.PLP.Chemscore.CHOScore>
0.0000

> <Gold.PLP.Chemscore.Metal>
0.0000

> <Gold.Chemscore.Hbonds>
donor molecule, donor type, donor heavy atom, donor atom, acceptor molecule, acceptor atom, score
      L1  H    24    50       P1 10747  1.00
      P1  H  7997  8010       L1    10  1.00
      P1  H 10752 10764       L1    12  0.34

> <Gold.PLP.Chemscore.Internal.Correction>
0.9242

> <Gold.Rescore>
     Score         DG    S(hbond)    S(metal)    S(lipo)     H(rot)  DE(clash)    DE(int)     intcor
     11.91     -14.16       2.13        0.00      97.43       3.84       0.18       2.07       ----

> <Gold.Chemscore.Fitness>
11.9120

> <Gold.Chemscore.DG>
-14.1599

> <Gold.Chemscore.ZeroCoef>
-5.4800

> <Gold.Chemscore.Hbond>
2.1315

> <Gold.Chemscore.Metal>
0.0000

> <Gold.Chemscore.Lipo>
97.4332

> <Gold.Chemscore.Internal_Hbond>
0.0000

> <Gold.Chemscore.DEClash>
0.1752

> <Gold.Chemscore.DEInternal>
2.0727

> <Gold.Chemscore.Rot>
3.8434

> <Gold.Chemscore.Internal.Correction>
   9.000000E+99

> <Gold.Chemscore.Hbonds>
donor molecule, donor type, donor heavy atom, donor atom, acceptor molecule, acceptor atom, score
      L1  H    24    50       P1 10747  0.65
      P1  H  7997  8010       L1    10  0.77
      P1  H 10752 10764       L1    12  0.07

> <Gold.Chemscore.Hbond.Weighted>
-7.1193

> <Gold.Chemscore.Metal.Weighted>
-0.0000

> <Gold.Chemscore.Lipo.Weighted>
-11.3997

> <Gold.Chemscore.Internal_Hbond.Weighted>
0.0000

> <Gold.Chemscore.DEClash.Weighted>
0.1752

> <Gold.Chemscore.DEInternal.Weighted>
2.0727

> <Gold.Chemscore.Rot.Weighted>
9.8391

> <Gold.Chemscore.Internal.Correction.Weighted>
   9.000000E+99

> <Gold.Protein.RotatedTorsions>
[ 6907 6896 6895 6894 ] final  110.66 input  -60.11 | X-H torsion
[ 7974 7965 7964 7962 ] final   41.10 input  175.53 | X-H torsion
[ 8008 7997 7996 7995 ] final   87.12 input   59.86 | X-H torsion
[ 10167 10162 10161 10158 ] final   83.28 input  -65.29 | X-H torsion
[ 10718 10713 10712 10709 ] final   -0.61 input   66.30 | X-H torsion
[ 10763 10752 10751 10750 ] final  -87.97 input  -60.55 | X-H torsion
[ 11005 11000 10999 10996 ] final  165.24 input  -57.11 | X-H torsion

> <Gold.Protein.ActiveResidues>
 VAL166  LYS551  ARG553  GLY616  TRP617  ASP618  TYR619  PRO620  LYS621  CYS622 
 ASP623  PHE694  ASN695  SER759  ASP760  ASP761  ALA762  ILE779  LEU786  VAL792 
 PHE793  MET794  SER795  GLU796  ALA797  LYS798  CYS799  TRP800  GLU811  SER814 

> <Gold.Protein.RotatedAtoms>
  152.5009  133.8769  159.7326 H   0  0  0  0  0  0  0  0  0  0  0  0  # atno 6907 bound_to 6896
  150.9241  133.6836  159.2832 H   0  0  0  0  0  0  0  0  0  0  0  0  # atno 6908 bound_to 6896
  151.4203  135.1001  159.9664 H   0  0  0  0  0  0  0  0  0  0  0  0  # atno 6909 bound_to 6896
  146.0851  139.5455  142.9512 H   0  0  0  0  0  0  0  0  0  0  0  0  # atno 7974 bound_to 7965
  155.9714  140.3385  155.6579 H   0  0  0  0  0  0  0  0  0  0  0  0  # atno 8008 bound_to 7997
  155.6669  140.0722  157.2552 H   0  0  0  0  0  0  0  0  0  0  0  0  # atno 8009 bound_to 7997
  154.4167  140.1698  156.1825 H   0  0  0  0  0  0  0  0  0  0  0  0  # atno 8010 bound_to 7997
  139.9200  144.6218  150.8449 H   0  0  0  0  0  0  0  0  0  0  0  0  # atno 10167 bound_to 10162
  156.8179  130.5446  149.5701 H   0  0  0  0  0  0  0  0  0  0  0  0  # atno 10718 bound_to 10713
  154.6395  135.5394  153.7773 H   0  0  0  0  0  0  0  0  0  0  0  0  # atno 10763 bound_to 10752
  153.0326  135.6455  154.1181 H   0  0  0  0  0  0  0  0  0  0  0  0  # atno 10764 bound_to 10752
  154.1106  135.2927  155.3211 H   0  0  0  0  0  0  0  0  0  0  0  0  # atno 10765 bound_to 10752
  140.2541  134.7954  157.3529 H   0  0  0  0  0  0  0  0  0  0  0  0  # atno 11005 bound_to 11000
  145.6146  141.0333  143.1948 LP  0  0  0  0  0  0  0  0  0  0  0  0  # atno 17320 bound_to 7965
  144.7320  139.7698  143.7343 LP  0  0  0  0  0  0  0  0  0  0  0  0  # atno 17321 bound_to 7965
  140.7664  143.3303  151.2424 LP  0  0  0  0  0  0  0  0  0  0  0  0  # atno 17342 bound_to 10162
  139.6869  143.9758  152.2839 LP  0  0  0  0  0  0  0  0  0  0  0  0  # atno 17343 bound_to 10162
  156.1006  130.5966  150.9887 LP  0  0  0  0  0  0  0  0  0  0  0  0  # atno 17370 bound_to 10713
  157.6472  131.0902  150.8128 LP  0  0  0  0  0  0  0  0  0  0  0  0  # atno 17371 bound_to 10713
  140.1529  134.4827  155.7948 LP  0  0  0  0  0  0  0  0  0  0  0  0  # atno 17394 bound_to 11000
  141.2198  133.6869  156.7409 LP  0  0  0  0  0  0  0  0  0  0  0  0  # atno 17395 bound_to 11000

$$$$
