#       Name:                AV-unprocessed.smi:765
#       Creating user name   scv26
#       Creation time:       Fri Mar 27 01:04:56 2020


#       File generated by GOLD software.
#

@<TRIPOS>MOLECULE
AV-unprocessed.smi:765
    43    44     1
SMALL
NO_CHARGES


@<TRIPOS>ATOM
      1 ****        -3.8193  -2.4490   0.7490 C.3            1 S1                 0.0000
      2 ****        -3.1769  -1.1695   0.1949 C.3            1 S1                 0.0000
      3 ****        -3.5655  -0.9375  -1.2763 C.3            1 S1                 0.0000
      4 ****        -2.9110   0.3318  -1.8394 C.3            1 S1                 0.0000
      5 ****        -1.3839   0.2852  -1.6698 C.3            1 S1                 0.0000
      6 ****        -0.9636   0.0848  -0.1970 C.3            1 S1                 0.0000
      7 ****        -1.3718   1.2649   0.5920 C.1            1 S1                 0.0000
      8 ****        -1.6916   2.1901   1.2094 N.1            1 S1                 0.0000
      9 ****         0.4921  -0.0735  -0.1822 N.am           1 S1                 0.0000
     10 ****         1.2898  -0.1251   0.8983 C.2            1 S1                 0.0000
     11 ****         0.8677  -0.0704   2.0536 O.2            1 S1                 0.0000
     12 ****         2.7955  -0.2489   0.6176 C.3            1 S1                 0.0000
     13 ****         3.5899  -0.7819   1.8244 C.3            1 S1                 0.0000
     14 ****         3.3328   1.0273   0.1632 N.pl3          1 S1                 0.0000
     15 ****         3.3384   2.2470   0.8126 C.2            1 S1                 0.0000
     16 ****         3.9585   3.1448  -0.0078 C.2            1 S1                 0.0000
     17 ****         4.3068   2.3726  -1.1507 C.2            1 S1                 0.0000
     18 ****         3.9333   1.1077  -1.0449 N.2            1 S1                 0.0000
     19 ****        -1.6420  -1.1983   0.3464 C.3            1 S1                 0.0000
     20 ****        -3.4787  -3.3318   0.2070 H              1 S1                 0.0000
     21 ****        -4.9060  -2.4084   0.6698 H              1 S1                 0.0000
     22 ****        -3.5716  -2.5885   1.8016 H              1 S1                 0.0000
     23 ****        -3.5621  -0.3342   0.7811 H              1 S1                 0.0000
     24 ****        -3.2650  -1.7970  -1.8771 H              1 S1                 0.0000
     25 ****        -4.6494  -0.8607  -1.3692 H              1 S1                 0.0000
     26 ****        -3.1632   0.4412  -2.8945 H              1 S1                 0.0000
     27 ****        -3.3156   1.2098  -1.3349 H              1 S1                 0.0000
     28 ****        -0.9856  -0.5250  -2.2828 H              1 S1                 0.0000
     29 ****        -0.9471   1.2053  -2.0608 H              1 S1                 0.0000
     30 ****         0.9407  -0.1237  -1.0855 H              1 S1                 0.0000
     31 ****         2.9094  -0.9730  -0.1918 H              1 S1                 0.0000
     32 ****         3.1971  -1.7405   2.1651 H              1 S1                 0.0000
     33 ****         3.5586  -0.0902   2.6673 H              1 S1                 0.0000
     34 ****         4.6373  -0.9334   1.5622 H              1 S1                 0.0000
     35 ****         2.9038   2.3724   1.7936 H              1 S1                 0.0000
     36 ****         4.1376   4.1930   0.1805 H              1 S1                 0.0000
     37 ****         4.8175   2.6912  -2.0473 H              1 S1                 0.0000
     38 ****        -1.3920  -1.3379   1.3986 H              1 S1                 0.0000
     39 ****        -1.2462  -2.0705  -0.1767 H              1 S1                 0.0000
     40 ****        -1.9679   2.9895   1.7429 LP             1 S1                 0.0000
     41 ****        -0.1138   0.0169   2.2237 LP             1 S1                 0.0000
     42 ****         1.5065  -0.1133   2.8219 LP             1 S1                 0.0000
     43 ****         4.0660   0.3739  -1.7111 LP             1 S1                 0.0000
@<TRIPOS>BOND
    1    1    2 1     
    2    1   20 1     
    3    1   21 1     
    4    1   22 1     
    5    2   19 1     
    6    2    3 1     
    7    2   23 1     
    8    3    4 1     
    9    3   24 1     
   10    3   25 1     
   11    4    5 1     
   12    4   26 1     
   13    4   27 1     
   14    5    6 1     
   15    5   28 1     
   16    5   29 1     
   17    6    7 1     
   18    6    9 1     
   19    6   19 1     
   20    7    8 3     
   21    9   10 am    
   22    9   30 1     
   23   10   11 2     
   24   10   12 1     
   25   12   13 1     
   26   12   14 1     
   27   12   31 1     
   28   13   32 1     
   29   13   33 1     
   30   13   34 1     
   31   14   18 1     
   32   14   15 1     
   33   15   16 2     
   34   15   35 1     
   35   16   17 1     
   36   16   36 1     
   37   17   18 2     
   38   17   37 1     
   39   19   38 1     
   40   19   39 1     
   41    8   40 1     
   42   11   41 1     
   43   11   42 1     
   44   18   43 1     
@<TRIPOS>SUBSTRUCTURE
      1 S1             1
@<TRIPOS>SET
LONE_PAIRS      STATIC     ATOMS    <user>   **** ""
4 40 41 42 43
DONOR_HYDROGENS      STATIC     ATOMS    <user>   **** ""
1 30
ATOM$BLUE        STATIC     ATOMS    COLORGROUP SYSTEM
4 40 41 42 43
ATOM$RED        STATIC     ATOMS    COLORGROUP SYSTEM
1 30
