#       Name:                AV-unprocessed.smi:3336
#       Creating user name   scv26
#       Creation time:       Fri Mar 27 19:24:59 2020


#       File generated by GOLD software.
#

@<TRIPOS>MOLECULE
AV-unprocessed.smi:3336
    47    48     1
SMALL
NO_CHARGES


@<TRIPOS>ATOM
      1 ****        -1.6058  -0.2075   2.3950 C.3            1 S1                 0.0000
      2 ****        -1.2099   0.5291   1.1041 C.3            1 S1                 0.0000
      3 ****        -1.8282  -0.1232  -0.1547 C.3            1 S1                 0.0000
      4 ****        -3.2733  -0.2396  -0.0827 N.pl3          1 S1                 0.0000
      5 ****        -4.0398  -1.3822   0.0141 C.2            1 S1                 0.0000
      6 ****        -5.3478  -0.9916   0.0444 C.2            1 S1                 0.0000
      7 ****        -5.2797   0.4268  -0.0481 C.2            1 S1                 0.0000
      8 ****        -4.0363   0.8736  -0.1263 N.2            1 S1                 0.0000
      9 ****         0.2689   0.5777   1.0106 N.4            1 S1                 1.0000
     10 ****         0.8575   1.5917   0.1013 C.3            1 S1                 0.0000
     11 ****         0.7188   3.0116   0.6932 C.3            1 S1                 0.0000
     12 ****         2.3331   1.2320  -0.1731 C.2            1 S1                 0.0000
     13 ****         3.2096   1.8596   0.4233 O.2            1 S1                 0.0000
     14 ****         2.6382   0.2269  -1.0327 N.am           1 S1                 0.0000
     15 ****         4.0149  -0.2047  -1.2980 C.3            1 S1                 0.0000
     16 ****         4.1820  -1.6442  -0.7785 C.3            1 S1                 0.0000
     17 ****         3.2311  -2.4961  -1.4130 O.3            1 S1                 0.0000
     18 ****         1.8826  -2.0843  -1.2060 C.3            1 S1                 0.0000
     19 ****         1.6935  -0.6506  -1.7326 C.3            1 S1                 0.0000
     20 ****        -2.6842  -0.1885   2.5549 H              1 S1                 0.0000
     21 ****        -1.1456   0.2563   3.2682 H              1 S1                 0.0000
     22 ****        -1.2917  -1.2516   2.3687 H              1 S1                 0.0000
     23 ****        -1.5885   1.5467   1.1939 H              1 S1                 0.0000
     24 ****        -1.5894   0.4490  -1.0510 H              1 S1                 0.0000
     25 ****        -1.4128  -1.1212  -0.3019 H              1 S1                 0.0000
     26 ****        -3.5972  -2.3666   0.0557 H              1 S1                 0.0000
     27 ****        -6.2210  -1.6229   0.1186 H              1 S1                 0.0000
     28 ****        -6.0914   1.1394  -0.0619 H              1 S1                 0.0000
     29 ****         0.6388   0.7561   1.9337 H              1 S1                 0.0000
     30 ****         0.3322   1.6029  -0.8519 H              1 S1                 0.0000
     31 ****         1.2375   3.7486   0.0782 H              1 S1                 0.0000
     32 ****         1.1302   3.0713   1.7017 H              1 S1                 0.0000
     33 ****        -0.3223   3.3289   0.7440 H              1 S1                 0.0000
     34 ****         4.2063  -0.1681  -2.3714 H              1 S1                 0.0000
     35 ****         4.7645   0.4406  -0.8383 H              1 S1                 0.0000
     36 ****         5.1853  -2.0107  -0.9961 H              1 S1                 0.0000
     37 ****         4.0540  -1.6843   0.3043 H              1 S1                 0.0000
     38 ****         1.2192  -2.7708  -1.7321 H              1 S1                 0.0000
     39 ****         1.6315  -2.1459  -0.1459 H              1 S1                 0.0000
     40 ****         0.6516  -0.3636  -1.6239 H              1 S1                 0.0000
     41 ****         1.8971  -0.6167  -2.8039 H              1 S1                 0.0000
     42 ****         0.5873  -0.3347   0.7172 H              1 S1                 0.0000
     43 ****        -3.7305   1.8228  -0.2010 LP             1 S1                 0.0000
     44 ****         2.9571   2.5821   1.0669 LP             1 S1                 0.0000
     45 ****         4.1735   1.6465   0.2638 LP             1 S1                 0.0000
     46 ****         3.3404  -3.4211  -1.0491 LP             1 S1                 0.0000
     47 ****         3.4147  -2.5008  -2.3960 LP             1 S1                 0.0000
@<TRIPOS>BOND
    1    1    2 1     
    2    1   20 1     
    3    1   21 1     
    4    1   22 1     
    5    2    3 1     
    6    2    9 1     
    7    2   23 1     
    8    3    4 1     
    9    3   24 1     
   10    3   25 1     
   11    4    8 1     
   12    4    5 1     
   13    5    6 2     
   14    5   26 1     
   15    6    7 1     
   16    6   27 1     
   17    7    8 2     
   18    7   28 1     
   19    9   10 1     
   20    9   29 1     
   21    9   42 1     
   22   10   11 1     
   23   10   12 1     
   24   10   30 1     
   25   11   31 1     
   26   11   32 1     
   27   11   33 1     
   28   12   13 2     
   29   12   14 am    
   30   14   19 1     
   31   14   15 1     
   32   15   16 1     
   33   15   34 1     
   34   15   35 1     
   35   16   17 1     
   36   16   36 1     
   37   16   37 1     
   38   17   18 1     
   39   18   19 1     
   40   18   38 1     
   41   18   39 1     
   42   19   40 1     
   43   19   41 1     
   44    8   43 1     
   45   13   44 1     
   46   13   45 1     
   47   17   46 1     
   48   17   47 1     
@<TRIPOS>SUBSTRUCTURE
      1 S1             1
@<TRIPOS>SET
LONE_PAIRS      STATIC     ATOMS    <user>   **** ""
5 43 44 45 46 47
DONOR_HYDROGENS      STATIC     ATOMS    <user>   **** ""
2 29 42
ATOM$BLUE        STATIC     ATOMS    COLORGROUP SYSTEM
5 43 44 45 46 47
ATOM$RED        STATIC     ATOMS    COLORGROUP SYSTEM
2 29 42
