AV-unprocessed.smi:1103|AV-procd|sdf|4773|dock3
  -GOLD-   22720 3313D 1   1.00000     0.00000
 Structure written by MMmdl.
 44 45  0  0  0  0  0  0  0  0  2 V2000
  145.8811  134.8182  151.9524 C   0  0  0  0  0  0  0  0  0  0  0  0
  145.8737  135.6564  153.2386 C   0  0  0  0  0  0  0  0  0  0  0  0
  146.5389  136.9723  153.0644 N   0  3  1  0  0  0  0  0  0  0  0  0
  146.0471  137.6928  151.8615 C   0  0  0  0  0  0  0  0  0  0  0  0
  146.8471  138.9825  151.6182 C   0  0  0  0  0  0  0  0  0  0  0  0
  146.8182  139.8883  152.8569 C   0  0  0  0  0  0  0  0  0  0  0  0
  147.2881  139.1276  154.1144 C   0  0  2  0  0  0  0  0  0  0  0  0
  148.8114  138.8565  154.1520 C   0  0  0  0  0  0  0  0  0  0  0  0
  149.3889  139.0847  155.4725 N   0  0  0  0  0  0  0  0  0  0  0  0
  150.6151  139.5798  155.6991 C   0  0  0  0  0  0  0  0  0  0  0  0
  151.3850  139.9044  154.7937 O   0  0  0  0  0  0  0  0  0  0  0  0
  151.0200  139.7262  157.1706 C   0  0  0  0  0  0  0  0  0  0  0  0
  151.2826  141.1076  157.5399 N   0  0  0  0  0  0  0  0  0  0  0  0
  151.9737  141.5869  158.6334 C   0  0  0  0  0  0  0  0  0  0  0  0
  151.9652  142.9508  158.5602 C   0  0  0  0  0  0  0  0  0  0  0  0
  152.5818  143.9444  159.5023 C   0  0  0  0  0  0  0  0  0  0  0  0
  151.2293  143.2134  157.3695 C   0  0  0  0  0  0  0  0  0  0  0  0
  150.8207  142.1108  156.7634 N   0  0  0  0  0  0  0  0  0  0  0  0
  146.4722  137.8284  154.2801 C   0  0  0  0  0  0  0  0  0  0  0  0
  145.3005  133.9054  152.0885 H   0  0  0  0  0  0  0  0  0  0  0  0
  146.8878  134.5180  151.6630 H   0  0  0  0  0  0  0  0  0  0  0  0
  145.4397  135.3682  151.1209 H   0  0  0  0  0  0  0  0  0  0  0  0
  144.8328  135.8155  153.5224 H   0  0  0  0  0  0  0  0  0  0  0  0
  146.3364  135.1074  154.0599 H   0  0  0  0  0  0  0  0  0  0  0  0
  146.1324  137.0509  150.9838 H   0  0  0  0  0  0  0  0  0  0  0  0
  144.9877  137.9244  151.9832 H   0  0  0  0  0  0  0  0  0  0  0  0
  147.8771  138.7362  151.3584 H   0  0  0  0  0  0  0  0  0  0  0  0
  146.4363  139.5161  150.7608 H   0  0  0  0  0  0  0  0  0  0  0  0
  147.4183  140.7827  152.6879 H   0  0  0  0  0  0  0  0  0  0  0  0
  145.7971  140.2387  153.0138 H   0  0  0  0  0  0  0  0  0  0  0  0
  147.0571  139.7555  154.9761 H   0  0  0  0  0  0  0  0  0  0  0  0
  149.0198  137.8320  153.8387 H   0  0  0  0  0  0  0  0  0  0  0  0
  149.3342  139.4975  153.4422 H   0  0  0  0  0  0  0  0  0  0  0  0
  148.8175  138.8481  156.2710 H   0  0  0  0  0  0  0  0  0  0  0  0
  150.2271  139.3244  157.8034 H   0  0  0  0  0  0  0  0  0  0  0  0
  151.9196  139.1427  157.3706 H   0  0  0  0  0  0  0  0  0  0  0  0
  152.4132  140.9230  159.3635 H   0  0  0  0  0  0  0  0  0  0  0  0
  152.4852  144.9662  159.1345 H   0  0  0  0  0  0  0  0  0  0  0  0
  153.6456  143.7547  159.6465 H   0  0  0  0  0  0  0  0  0  0  0  0
  152.1119  143.9110  160.4853 H   0  0  0  0  0  0  0  0  0  0  0  0
  150.9813  144.1681  156.9299 H   0  0  0  0  0  0  0  0  0  0  0  0
  145.4284  138.0731  154.4838 H   0  0  0  0  0  0  0  0  0  0  0  0
  146.8359  137.2865  155.1526 H   0  0  0  0  0  0  0  0  0  0  0  0
  147.5152  136.7769  152.8953 H   0  0  0  0  0  0  0  0  0  0  0  0
  1  2  1  0  0  0  0
  1 20  1  0  0  0  0
  1 21  1  0  0  0  0
  1 22  1  0  0  0  0
  2  3  1  0  0  0  0
  2 23  1  0  0  0  0
  2 24  1  0  0  0  0
  3 19  1  0  0  0  0
  3  4  1  0  0  0  0
  3 44  1  0  0  0  0
  4  5  1  0  0  0  0
  4 25  1  0  0  0  0
  4 26  1  0  0  0  0
  5  6  1  0  0  0  0
  5 27  1  0  0  0  0
  5 28  1  0  0  0  0
  6  7  1  0  0  0  0
  6 29  1  0  0  0  0
  6 30  1  0  0  0  0
  7  8  1  0  0  0  0
  7 19  1  0  0  0  0
  7 31  1  0  0  0  0
  8  9  1  0  0  0  0
  8 32  1  0  0  0  0
  8 33  1  0  0  0  0
  9 10  1  0  0  0  0
  9 34  1  0  0  0  0
 10 11  2  0  0  0  0
 10 12  1  0  0  0  0
 12 13  1  0  0  0  0
 12 35  1  0  0  0  0
 12 36  1  0  0  0  0
 13 18  1  0  0  0  0
 13 14  1  0  0  0  0
 14 15  2  0  0  0  0
 14 37  1  0  0  0  0
 15 16  1  0  0  0  0
 15 17  1  0  0  0  0
 16 38  1  0  0  0  0
 16 39  1  0  0  0  0
 16 40  1  0  0  0  0
 17 18  2  0  0  0  0
 17 41  1  0  0  0  0
 19 42  1  0  0  0  0
 19 43  1  0  0  0  0
M  CHG  1   3   1
M  END
> <s_m_source_file>
AV-unprocessed.smi

> <i_m_source_file_index>
1103

> <i_lp_mmshare_version>
43012

> <i_f3d_flags>
0

> <s_epik_input>
W0NIM11bQ0gyXU4xW0NIMl1bQ0gyXVtDSDJdW0NASF0oW0NIMl0xKVtDSDJdW05IXUMoPU8pW0NIMl1uMltjSF1jKFtDSDNdKVtjSF1uMg==

> <s_epik_cmdline>
J2VwaWtfcHl0aG9uJywgJy1waCcsICc3LjAnLCAnLXRuJywgJzgnLCAnLW1hJywgJzIwMCcsICctbWV0YWxfYmluZGluZycsICctaW1hZScsICc8aW5maWxlLm1hZT4nLCAnLW9tYWUnLCAnPG91dGZpbGUubWFlPic=

> <r_lp_tautomer_probability>
1

> <r_epik_Ionization_Penalty>
0.000672456

> <r_epik_Ionization_Penalty_Charging>
0.000647327

> <r_epik_Ionization_Penalty_Neutral>
2.51297e-05

> <r_epik_State_Penalty>
0.000409793

> <r_epik_Charging_Adjusted_Penalty>
0.00105712

> <i_epik_Tot_Q>
1

> <i_epik_Tot_abs_Q>
1

> <r_epik_Metal_State_Penalty>
-0

> <b_epik_Metal_Only>
0

> <s_lp_Force_Field>
OPLS_2005

> <r_lp_Energy>
22.1898

> <b_lp_Chiralities_Consistent>
1

> <s_lp_Variant>
AV-unprocessed.smi:1103-3

> <Gold.Version>
5.8.1

> <Gold.Id.Protein>
6NUR|6NUR_protein|mol2

> <Gold.PLP.Fitness>
42.2360

> <Gold.PLP.PLP>
-32.2591

> <Gold.PLP.part.hbond>
-1.9875

> <Gold.PLP.part.metal>
0.0000

> <Gold.PLP.part.buried>
-0.4702

> <Gold.PLP.part.nonpolar>
-31.1395

> <Gold.PLP.part.repulsive>
0.2036

> <Gold.PLP.ligand.clash>
0.0000

> <Gold.PLP.ligand.torsion>
1.0052

> <Gold.PLP.Chemscore.Hbond>
3.0000

> <Gold.PLP.Chemscore.CHOScore>
0.9614

> <Gold.PLP.Chemscore.Metal>
0.0000

> <Gold.Chemscore.Hbonds>
donor molecule, donor type, donor heavy atom, donor atom, acceptor molecule, acceptor atom, score
      L1  H     3    44       P1  7948  2.00
      P1  H  7989  7998       L1    11  1.00
      L1  C    17    41       P1  8028  0.95

> <Gold.PLP.Chemscore.Internal.Correction>
0.1032

> <Gold.Rescore>
     Score         DG    S(hbond)    S(metal)    S(lipo)     H(rot)  DE(clash)    DE(int)     intcor
     16.19     -18.93       1.95        0.00      96.20       1.68       1.57       1.18       ----

> <Gold.Chemscore.Fitness>
16.1857

> <Gold.Chemscore.DG>
-18.9285

> <Gold.Chemscore.ZeroCoef>
-5.4800

> <Gold.Chemscore.Hbond>
1.9459

> <Gold.Chemscore.Metal>
0.0000

> <Gold.Chemscore.Lipo>
96.2022

> <Gold.Chemscore.Internal_Hbond>
0.0000

> <Gold.Chemscore.DEClash>
1.5653

> <Gold.Chemscore.DEInternal>
1.1775

> <Gold.Chemscore.Rot>
1.6823

> <Gold.Chemscore.Internal.Correction>
   9.000000E+99

> <Gold.Chemscore.Hbonds>
donor molecule, donor type, donor heavy atom, donor atom, acceptor molecule, acceptor atom, score
      L1  H     3    44       P1  7948  0.98
      P1  H  7989  7998       L1    11  0.99

> <Gold.Chemscore.Hbond.Weighted>
-6.4994

> <Gold.Chemscore.Metal.Weighted>
-0.0000

> <Gold.Chemscore.Lipo.Weighted>
-11.2557

> <Gold.Chemscore.Internal_Hbond.Weighted>
0.0000

> <Gold.Chemscore.DEClash.Weighted>
1.5653

> <Gold.Chemscore.DEInternal.Weighted>
1.1775

> <Gold.Chemscore.Rot.Weighted>
4.3066

> <Gold.Chemscore.Internal.Correction.Weighted>
   9.000000E+99

> <Gold.Protein.RotatedTorsions>
[ 6907 6896 6895 6894 ] final  -97.04 input  -60.11 | X-H torsion
[ 7974 7965 7964 7962 ] final -157.85 input  175.53 | X-H torsion
[ 8008 7997 7996 7995 ] final  173.42 input   59.86 | X-H torsion
[ 10167 10162 10161 10158 ] final  145.60 input  -65.29 | X-H torsion
[ 10718 10713 10712 10709 ] final   94.39 input   66.30 | X-H torsion
[ 10763 10752 10751 10750 ] final  -68.90 input  -60.55 | X-H torsion
[ 11005 11000 10999 10996 ] final  135.40 input  -57.11 | X-H torsion

> <Gold.Protein.ActiveResidues>
 VAL166  LYS551  ARG553  GLY616  TRP617  ASP618  TYR619  PRO620  LYS621  CYS622 
 ASP623  PHE694  ASN695  SER759  ASP760  ASP761  ALA762  ILE779  LEU786  VAL792 
 PHE793  MET794  SER795  GLU796  ALA797  LYS798  CYS799  TRP800  GLU811  SER814 

> <Gold.Protein.RotatedAtoms>
  150.7005  134.1410  159.4104 H   0  0  0  0  0  0  0  0  0  0  0  0  # atno 6907 bound_to 6896
  151.9394  135.0218  160.0544 H   0  0  0  0  0  0  0  0  0  0  0  0  # atno 6908 bound_to 6896
  152.2107  133.4874  159.5145 H   0  0  0  0  0  0  0  0  0  0  0  0  # atno 6909 bound_to 6896
  144.7530  140.3911  143.6033 H   0  0  0  0  0  0  0  0  0  0  0  0  # atno 7974 bound_to 7965
  156.1077  140.1460  156.9382 H   0  0  0  0  0  0  0  0  0  0  0  0  # atno 8008 bound_to 7997
  154.4745  140.0899  156.7271 H   0  0  0  0  0  0  0  0  0  0  0  0  # atno 8009 bound_to 7997
  155.4651  140.3439  155.4320 H   0  0  0  0  0  0  0  0  0  0  0  0  # atno 8010 bound_to 7997
  139.4923  144.5890  151.6720 H   0  0  0  0  0  0  0  0  0  0  0  0  # atno 10167 bound_to 10162
  157.6948  131.0510  150.4179 H   0  0  0  0  0  0  0  0  0  0  0  0  # atno 10718 bound_to 10713
  154.3957  135.6042  153.5868 H   0  0  0  0  0  0  0  0  0  0  0  0  # atno 10763 bound_to 10752
  152.9787  135.5894  154.4244 H   0  0  0  0  0  0  0  0  0  0  0  0  # atno 10764 bound_to 10752
  154.4035  135.2843  155.2059 H   0  0  0  0  0  0  0  0  0  0  0  0  # atno 10765 bound_to 10752
  139.9977  134.9491  157.0002 H   0  0  0  0  0  0  0  0  0  0  0  0  # atno 11005 bound_to 11000
  145.6875  139.1632  143.2665 LP  0  0  0  0  0  0  0  0  0  0  0  0  # atno 17320 bound_to 7965
  146.1506  140.6930  142.9324 LP  0  0  0  0  0  0  0  0  0  0  0  0  # atno 17321 bound_to 7965
  140.5512  144.0422  150.6128 LP  0  0  0  0  0  0  0  0  0  0  0  0  # atno 17342 bound_to 10162
  140.3477  143.2982  152.0521 LP  0  0  0  0  0  0  0  0  0  0  0  0  # atno 17343 bound_to 10162
  156.4557  130.4021  149.6608 LP  0  0  0  0  0  0  0  0  0  0  0  0  # atno 17370 bound_to 10713
  156.3741  130.7546  151.2532 LP  0  0  0  0  0  0  0  0  0  0  0  0  # atno 17371 bound_to 10713
  140.4786  134.1312  155.7213 LP  0  0  0  0  0  0  0  0  0  0  0  0  # atno 17394 bound_to 11000
  141.1618  133.8779  157.1828 LP  0  0  0  0  0  0  0  0  0  0  0  0  # atno 17395 bound_to 11000

$$$$
