#       Name:                AV-unprocessed.smi:1510
#       Creating user name   scv26
#       Creation time:       Fri Mar 27 06:22:34 2020


#       File generated by GOLD software.
#

@<TRIPOS>MOLECULE
AV-unprocessed.smi:1510
    42    43     1
SMALL
NO_CHARGES


@<TRIPOS>ATOM
      1 ****        -0.8111   1.0031  -1.3527 O.2            1 S1                 0.0000
      2 ****         0.0381   0.1251  -1.5111 C.2            1 S1                 0.0000
      3 ****         1.5090   0.4968  -1.7419 C.3            1 S1                 0.0000
      4 ****         1.9379   1.6455  -0.9319 N.am           1 S1                 0.0000
      5 ****         1.9994   2.8423  -1.6297 N.2            1 S1                 0.0000
      6 ****         2.3509   3.9247  -1.0220 C.2            1 S1                 0.0000
      7 ****         2.3933   5.0889  -1.7489 O.3            1 S1                 0.0000
      8 ****         2.6916   3.9177   0.3837 C.2            1 S1                 0.0000
      9 ****         2.6321   2.7462   1.0541 C.2            1 S1                 0.0000
     10 ****         2.2340   1.5003   0.3966 C.2            1 S1                 0.0000
     11 ****         2.1693   0.4194   0.9823 O.2            1 S1                 0.0000
     12 ****        -0.2484  -1.1852  -1.5094 N.am           1 S1                 0.0000
     13 ****        -1.5700  -1.7556  -1.2740 C.3            1 S1                 0.0000
     14 ****        -1.9901  -1.6575   0.2038 C.3            1 S1                 0.0000
     15 ****        -1.0355  -2.3268   1.1906 C.3            1 S1                 0.0000
     16 ****        -1.9225  -2.5990   2.3937 C.3            1 S1                 0.0000
     17 ****        -3.3463  -2.5426   1.8289 C.3            1 S1                 0.0000
     18 ****        -3.1980  -2.3660   0.4256 O.3            1 S1                 0.0000
     19 ****         2.1256   4.8485  -2.6226 H              1 S1                 0.0000
     20 ****         2.1504  -0.3622  -1.5349 H              1 S1                 0.0000
     21 ****         1.6397   0.7104  -2.8042 H              1 S1                 0.0000
     22 ****         2.9857   4.8328   0.8764 H              1 S1                 0.0000
     23 ****         2.8839   2.7262   2.1042 H              1 S1                 0.0000
     24 ****         0.5092  -1.8366  -1.6551 H              1 S1                 0.0000
     25 ****        -2.3073  -1.2642  -1.9108 H              1 S1                 0.0000
     26 ****        -1.5430  -2.8010  -1.5824 H              1 S1                 0.0000
     27 ****        -2.1442  -0.6150   0.4885 H              1 S1                 0.0000
     28 ****        -0.6716  -3.2703   0.7818 H              1 S1                 0.0000
     29 ****        -0.1715  -1.7062   1.4308 H              1 S1                 0.0000
     30 ****        -1.6961  -3.5657   2.8442 H              1 S1                 0.0000
     31 ****        -1.7888  -1.8329   3.1581 H              1 S1                 0.0000
     32 ****        -3.9158  -3.4470   2.0439 H              1 S1                 0.0000
     33 ****        -3.8900  -1.6928   2.2435 H              1 S1                 0.0000
     34 ****        -0.5441   1.9665  -1.3739 LP             1 S1                 0.0000
     35 ****        -1.7675   0.7524  -1.2028 LP             1 S1                 0.0000
     36 ****         1.7715   2.8663  -2.6031 LP             1 S1                 0.0000
     37 ****         3.3208   5.4626  -1.7574 LP             1 S1                 0.0000
     38 ****         1.7650   5.7649  -1.3639 LP             1 S1                 0.0000
     39 ****         1.8904  -0.4025   0.4857 LP             1 S1                 0.0000
     40 ****         2.3957   0.3633   1.9548 LP             1 S1                 0.0000
     41 ****        -3.1581  -3.2568  -0.0271 LP             1 S1                 0.0000
     42 ****        -3.9703  -1.8432   0.0650 LP             1 S1                 0.0000
@<TRIPOS>BOND
    1    1    2 2     
    2    2    3 1     
    3    2   12 am    
    4    3   20 1     
    5    3   21 1     
    6    3    4 1     
    7    4    5 1     
    8    4   10 am    
    9    5    6 2     
   10    6    7 1     
   11    6    8 1     
   12    7   19 1     
   13    8   22 1     
   14    8    9 2     
   15    9   23 1     
   16    9   10 1     
   17   10   11 2     
   18   12   13 1     
   19   12   24 1     
   20   13   14 1     
   21   13   25 1     
   22   13   26 1     
   23   14   18 1     
   24   14   15 1     
   25   14   27 1     
   26   15   16 1     
   27   15   28 1     
   28   15   29 1     
   29   16   17 1     
   30   16   30 1     
   31   16   31 1     
   32   17   18 1     
   33   17   32 1     
   34   17   33 1     
   35    1   34 1     
   36    1   35 1     
   37    5   36 1     
   38    7   37 1     
   39    7   38 1     
   40   11   39 1     
   41   11   40 1     
   42   18   41 1     
   43   18   42 1     
@<TRIPOS>SUBSTRUCTURE
      1 S1             1
@<TRIPOS>SET
LONE_PAIRS      STATIC     ATOMS    <user>   **** ""
9 34 35 36 37 38 39 40 41 42
DONOR_HYDROGENS      STATIC     ATOMS    <user>   **** ""
2 19 24
ATOM$BLUE        STATIC     ATOMS    COLORGROUP SYSTEM
9 34 35 36 37 38 39 40 41 42
ATOM$RED        STATIC     ATOMS    COLORGROUP SYSTEM
2 19 24
