AV-unprocessed.smi:465|AV-procd|sdf|2639|dock1
  -GOLD-   2262023 43D 1   1.00000     0.00000
 Structure written by MMmdl.
 42 44  0  0  0  0  0  0  0  0  1 V2000
  154.2766  142.4607  163.9594 C   0  0  0  0  0  0  0  0  0  0  0  0
  153.5694  142.5927  162.6264 C   0  0  0  0  0  0  0  0  0  0  0  0
  152.7289  143.6937  162.3695 C   0  0  0  0  0  0  0  0  0  0  0  0
  152.0787  143.8104  161.1258 C   0  0  0  0  0  0  0  0  0  0  0  0
  152.2570  142.8362  160.1222 C   0  0  0  0  0  0  0  0  0  0  0  0
  151.5863  143.0315  158.9337 O   0  0  0  0  0  0  0  0  0  0  0  0
  151.6385  142.0016  157.9568 C   0  0  0  0  0  0  0  0  0  0  0  0
  150.2295  141.4254  157.7743 C   0  0  0  0  0  0  0  0  0  0  0  0
  150.0139  140.9670  156.4107 N   0  0  0  0  0  0  0  0  0  0  0  0
  150.8166  140.1865  155.6424 C   0  0  0  0  0  0  0  0  0  0  0  0
  152.1265  139.6386  156.1305 C   0  0  0  0  0  0  0  0  0  0  0  0
  152.7853  138.6653  155.1397 C   0  0  0  0  0  0  0  0  0  0  0  0
  154.0276  138.2078  155.6306 O   0  0  0  0  0  0  0  0  0  0  0  0
  150.3658  139.9261  154.4142 N   0  0  0  0  0  0  0  0  0  0  0  0
  149.1630  140.6038  154.3801 C   0  0  0  0  0  0  0  0  0  0  0  0
  148.2047  140.7227  153.3478 C   0  0  0  0  0  0  0  0  0  0  0  0
  147.0340  141.4839  153.5451 C   0  0  0  0  0  0  0  0  0  0  0  0
  146.8052  142.1358  154.7743 C   0  0  0  0  0  0  0  0  0  0  0  0
  147.7469  142.0297  155.8159 C   0  0  0  0  0  0  0  0  0  0  0  0
  148.9135  141.2676  155.6142 C   0  0  0  0  0  0  0  0  0  0  0  0
  153.1029  141.7298  160.3884 C   0  0  0  0  0  0  0  0  0  0  0  0
  153.7537  141.6124  161.6320 C   0  0  0  0  0  0  0  0  0  0  0  0
  153.8680  143.1537  164.6954 H   0  0  0  0  0  0  0  0  0  0  0  0
  155.3396  142.6723  163.8431 H   0  0  0  0  0  0  0  0  0  0  0  0
  154.1683  141.4486  164.3502 H   0  0  0  0  0  0  0  0  0  0  0  0
  152.5801  144.4533  163.1228 H   0  0  0  0  0  0  0  0  0  0  0  0
  151.4370  144.6590  160.9391 H   0  0  0  0  0  0  0  0  0  0  0  0
  151.9959  142.4012  157.0063 H   0  0  0  0  0  0  0  0  0  0  0  0
  152.3242  141.2150  158.2757 H   0  0  0  0  0  0  0  0  0  0  0  0
  150.0541  140.6055  158.4697 H   0  0  0  0  0  0  0  0  0  0  0  0
  149.4829  142.1850  158.0072 H   0  0  0  0  0  0  0  0  0  0  0  0
  152.7968  140.4847  156.2858 H   0  0  0  0  0  0  0  0  0  0  0  0
  152.0133  139.1759  157.1106 H   0  0  0  0  0  0  0  0  0  0  0  0
  152.1326  137.8176  154.9282 H   0  0  0  0  0  0  0  0  0  0  0  0
  152.9690  139.1730  154.1925 H   0  0  0  0  0  0  0  0  0  0  0  0
  154.6573  138.2312  154.9262 H   0  0  0  0  0  0  0  0  0  0  0  0
  148.3714  140.2285  152.4021 H   0  0  0  0  0  0  0  0  0  0  0  0
  146.3084  141.5686  152.7495 H   0  0  0  0  0  0  0  0  0  0  0  0
  145.9062  142.7176  154.9167 H   0  0  0  0  0  0  0  0  0  0  0  0
  147.5750  142.5288  156.7579 H   0  0  0  0  0  0  0  0  0  0  0  0
  153.2705  140.9566  159.6543 H   0  0  0  0  0  0  0  0  0  0  0  0
  154.3974  140.7656  161.8202 H   0  0  0  0  0  0  0  0  0  0  0  0
  1  2  1  0  0  0  0
  1 23  1  0  0  0  0
  1 24  1  0  0  0  0
  1 25  1  0  0  0  0
  2 22  1  0  0  0  0
  2  3  2  0  0  0  0
  3  4  1  0  0  0  0
  3 26  1  0  0  0  0
  4  5  2  0  0  0  0
  4 27  1  0  0  0  0
  5  6  1  0  0  0  0
  5 21  1  0  0  0  0
  6  7  1  0  0  0  0
  7  8  1  0  0  0  0
  7 28  1  0  0  0  0
  7 29  1  0  0  0  0
  8  9  1  0  0  0  0
  8 30  1  0  0  0  0
  8 31  1  0  0  0  0
  9 20  1  0  0  0  0
  9 10  1  0  0  0  0
 10 11  1  0  0  0  0
 10 14  2  0  0  0  0
 11 12  1  0  0  0  0
 11 32  1  0  0  0  0
 11 33  1  0  0  0  0
 12 13  1  0  0  0  0
 12 34  1  0  0  0  0
 12 35  1  0  0  0  0
 13 36  1  0  0  0  0
 14 15  1  0  0  0  0
 15 20  2  0  0  0  0
 15 16  1  0  0  0  0
 16 17  2  0  0  0  0
 16 37  1  0  0  0  0
 17 18  1  0  0  0  0
 17 38  1  0  0  0  0
 18 19  2  0  0  0  0
 18 39  1  0  0  0  0
 19 20  1  0  0  0  0
 19 40  1  0  0  0  0
 21 22  2  0  0  0  0
 21 41  1  0  0  0  0
 22 42  1  0  0  0  0
M  END
> <s_m_source_file>
AV-unprocessed.smi

> <i_m_source_file_index>
465

> <i_lp_mmshare_version>
43012

> <i_f3d_flags>
0

> <s_epik_input>
W0NIM11jMVtjSF1bY0hdYyhbY0hdW2NIXTEpT1tDSDJdW0NIMl1uKGMobjIpW0NIMl1bQ0gyXVtPSF0pYyhjMjMpW2NIXVtjSF1bY0hdW2NIXTM=

> <s_epik_cmdline>
J2VwaWtfcHl0aG9uJywgJy1waCcsICc3LjAnLCAnLXRuJywgJzgnLCAnLW1hJywgJzIwMCcsICctbWV0YWxfYmluZGluZycsICctaW1hZScsICc8aW5maWxlLm1hZT4nLCAnLW9tYWUnLCAnPG91dGZpbGUubWFlPic=

> <r_lp_tautomer_probability>
1

> <r_epik_Ionization_Penalty>
0.207749

> <r_epik_Ionization_Penalty_Charging>
0

> <r_epik_Ionization_Penalty_Neutral>
0.207749

> <r_epik_State_Penalty>
0.197758

> <r_epik_Charging_Adjusted_Penalty>
0.197758

> <i_epik_Tot_Q>
0

> <i_epik_Tot_abs_Q>
0

> <r_epik_Metal_State_Penalty>
0.000234715

> <b_epik_Metal_Only>
0

> <s_lp_Force_Field>
OPLS_2005

> <r_lp_Energy>
16.7212

> <b_lp_Chiralities_Consistent>
1

> <s_lp_Variant>
AV-unprocessed.smi:465-1

> <Gold.Version>
5.8.1

> <Gold.Id.Protein>
6NUR|6NUR_protein|mol2

> <Gold.PLP.Fitness>
55.6449

> <Gold.PLP.PLP>
-53.3986

> <Gold.PLP.part.hbond>
-2.0562

> <Gold.PLP.part.metal>
0.0000

> <Gold.PLP.part.buried>
-0.2797

> <Gold.PLP.part.nonpolar>
-50.2140

> <Gold.PLP.part.repulsive>
0.1341

> <Gold.PLP.ligand.clash>
0.0000

> <Gold.PLP.ligand.torsion>
0.7707

> <Gold.PLP.Chemscore.Hbond>
1.1708

> <Gold.PLP.Chemscore.CHOScore>
0.0000

> <Gold.PLP.Chemscore.Metal>
0.0000

> <Gold.Chemscore.Hbonds>
donor molecule, donor type, donor heavy atom, donor atom, acceptor molecule, acceptor atom, score
      P1  H  7989  7998       L1    14  0.90
      P1  H  7997  8009       L1    13  0.18

> <Gold.PLP.Chemscore.Internal.Correction>
0.2754

> <Gold.Rescore>
     Score         DG    S(hbond)    S(metal)    S(lipo)     H(rot)  DE(clash)    DE(int)     intcor
     13.28     -16.60       0.13        0.00     141.40       2.28       1.48       1.85       ----

> <Gold.Chemscore.Fitness>
13.2809

> <Gold.Chemscore.DG>
-16.6050

> <Gold.Chemscore.ZeroCoef>
-5.4800

> <Gold.Chemscore.Hbond>
0.1267

> <Gold.Chemscore.Metal>
0.0000

> <Gold.Chemscore.Lipo>
141.4006

> <Gold.Chemscore.Internal_Hbond>
0.0000

> <Gold.Chemscore.DEClash>
1.4780

> <Gold.Chemscore.DEInternal>
1.8461

> <Gold.Chemscore.Rot>
2.2821

> <Gold.Chemscore.Internal.Correction>
   9.000000E+99

> <Gold.Chemscore.Hbonds>
donor molecule, donor type, donor heavy atom, donor atom, acceptor molecule, acceptor atom, score
      P1  H  7989  7998       L1    14  0.12

> <Gold.Chemscore.Hbond.Weighted>
-0.4232

> <Gold.Chemscore.Metal.Weighted>
-0.0000

> <Gold.Chemscore.Lipo.Weighted>
-16.5439

> <Gold.Chemscore.Internal_Hbond.Weighted>
0.0000

> <Gold.Chemscore.DEClash.Weighted>
1.4780

> <Gold.Chemscore.DEInternal.Weighted>
1.8461

> <Gold.Chemscore.Rot.Weighted>
5.8421

> <Gold.Chemscore.Internal.Correction.Weighted>
   9.000000E+99

> <Gold.Protein.RotatedTorsions>
[ 6907 6896 6895 6894 ] final  -73.15 input  -60.11 | X-H torsion
[ 7974 7965 7964 7962 ] final   17.39 input  175.53 | X-H torsion
[ 8008 7997 7996 7995 ] final -174.52 input   59.86 | X-H torsion
[ 10167 10162 10161 10158 ] final   50.15 input  -65.29 | X-H torsion
[ 10718 10713 10712 10709 ] final  117.94 input   66.30 | X-H torsion
[ 10763 10752 10751 10750 ] final -136.75 input  -60.55 | X-H torsion
[ 11005 11000 10999 10996 ] final   39.88 input  -57.11 | X-H torsion

> <Gold.Protein.ActiveResidues>
 VAL166  LYS551  ARG553  GLY616  TRP617  ASP618  TYR619  PRO620  LYS621  CYS622 
 ASP623  PHE694  ASN695  SER759  ASP760  ASP761  ALA762  ILE779  LEU786  VAL792 
 PHE793  MET794  SER795  GLU796  ALA797  LYS798  CYS799  TRP800  GLU811  SER814 

> <Gold.Protein.RotatedAtoms>
  150.7141  134.5058  159.5582 H   0  0  0  0  0  0  0  0  0  0  0  0  # atno 6907 bound_to 6896
  152.2645  134.7996  160.0434 H   0  0  0  0  0  0  0  0  0  0  0  0  # atno 6908 bound_to 6896
  151.8697  133.3438  159.3767 H   0  0  0  0  0  0  0  0  0  0  0  0  # atno 6909 bound_to 6896
  146.2220  139.8609  142.8605 H   0  0  0  0  0  0  0  0  0  0  0  0  # atno 7974 bound_to 7965
  155.9711  140.1163  157.0811 H   0  0  0  0  0  0  0  0  0  0  0  0  # atno 8008 bound_to 7997
  154.4156  140.1163  156.5375 H   0  0  0  0  0  0  0  0  0  0  0  0  # atno 8009 bound_to 7997
  155.6595  140.3473  155.4780 H   0  0  0  0  0  0  0  0  0  0  0  0  # atno 8010 bound_to 7997
  140.2754  144.3217  150.6278 H   0  0  0  0  0  0  0  0  0  0  0  0  # atno 10167 bound_to 10162
  157.6064  131.1042  150.7685 H   0  0  0  0  0  0  0  0  0  0  0  0  # atno 10718 bound_to 10713
  154.8677  135.3663  154.5111 H   0  0  0  0  0  0  0  0  0  0  0  0  # atno 10763 bound_to 10752
  153.5746  135.7020  153.5494 H   0  0  0  0  0  0  0  0  0  0  0  0  # atno 10764 bound_to 10752
  153.3511  135.4072  155.1609 H   0  0  0  0  0  0  0  0  0  0  0  0  # atno 10765 bound_to 10752
  140.1984  134.3900  155.8109 H   0  0  0  0  0  0  0  0  0  0  0  0  # atno 11005 bound_to 11000
  145.2705  141.0107  143.3774 LP  0  0  0  0  0  0  0  0  0  0  0  0  # atno 17320 bound_to 7965
  144.9227  139.4392  143.6533 LP  0  0  0  0  0  0  0  0  0  0  0  0  # atno 17321 bound_to 7965
  140.5855  143.2170  151.7350 LP  0  0  0  0  0  0  0  0  0  0  0  0  # atno 17342 bound_to 10162
  139.4977  144.4017  152.0174 LP  0  0  0  0  0  0  0  0  0  0  0  0  # atno 17343 bound_to 10162
  156.8073  130.4940  149.5361 LP  0  0  0  0  0  0  0  0  0  0  0  0  # atno 17370 bound_to 10713
  156.1151  130.6069  151.0108 LP  0  0  0  0  0  0  0  0  0  0  0  0  # atno 17371 bound_to 10713
  141.2227  133.7081  156.8216 LP  0  0  0  0  0  0  0  0  0  0  0  0  # atno 17394 bound_to 11000
  140.2081  134.8848  157.3244 LP  0  0  0  0  0  0  0  0  0  0  0  0  # atno 17395 bound_to 11000

$$$$
