AV-unprocessed.smi:8|AV-procd|sdf|45|dock5
  -GOLD-   2262015163D 1   1.00000     0.00000
 Structure written by MMmdl.
 34 35  0  0  0  0  0  0  0  0  1 V2000
  150.5686  136.8125  154.9567 C   0  0  0  0  0  0  0  0  0  0  0  0
  150.4471  135.8329  156.1336 C   0  0  0  0  0  0  0  0  0  0  0  0
  149.9419  134.5408  155.7394 N   0  0  0  0  0  0  0  0  0  0  0  0
  149.4534  134.2895  154.4665 C   0  0  0  0  0  0  0  0  0  0  0  0
  148.9508  133.0906  154.0761 C   0  0  0  0  0  0  0  0  0  0  0  0
  148.4478  132.8551  152.6602 C   0  0  0  0  0  0  0  0  0  0  0  0
  147.6217  133.9474  152.1621 N   0  0  0  0  0  0  0  0  0  0  0  0
  146.4722  133.6812  151.4025 C   0  0  0  0  0  0  0  0  0  0  0  0
  146.0840  132.3951  151.2292 N   0  0  0  0  0  0  0  0  0  0  0  0
  144.9855  132.1781  150.5018 C   0  0  0  0  0  0  0  0  0  0  0  0
  144.2189  133.1017  149.9190 N   0  0  0  0  0  0  0  0  0  0  0  0
  144.5910  134.3887  150.0836 C   0  0  0  0  0  0  0  0  0  0  0  0
  145.7339  134.7456  150.8315 C   0  0  0  0  0  0  0  0  0  0  0  0
  146.1343  136.1996  151.0024 C   0  0  0  0  0  0  0  0  0  0  0  0
  148.9295  131.9768  155.0314 C   0  0  0  0  0  0  0  0  0  0  0  0
  148.5176  130.8424  154.7952 O   0  0  0  0  0  0  0  0  0  0  0  0
  149.4264  132.2774  156.3032 N   0  0  0  0  0  0  0  0  0  0  0  0
  149.9279  133.5131  156.7087 C   0  0  0  0  0  0  0  0  0  0  0  0
  150.3292  133.6650  157.8628 O   0  0  0  0  0  0  0  0  0  0  0  0
  149.4202  131.5358  156.9885 H   0  0  0  0  0  0  0  0  0  0  0  0
  150.9893  137.7623  155.2873 H   0  0  0  0  0  0  0  0  0  0  0  0
  149.5986  137.0217  154.5052 H   0  0  0  0  0  0  0  0  0  0  0  0
  151.2206  136.4136  154.1792 H   0  0  0  0  0  0  0  0  0  0  0  0
  151.4234  135.6552  156.5869 H   0  0  0  0  0  0  0  0  0  0  0  0
  149.8055  136.2137  156.9311 H   0  0  0  0  0  0  0  0  0  0  0  0
  149.4683  135.0947  153.7455 H   0  0  0  0  0  0  0  0  0  0  0  0
  149.2950  132.7189  151.9870 H   0  0  0  0  0  0  0  0  0  0  0  0
  147.8772  131.9254  152.6433 H   0  0  0  0  0  0  0  0  0  0  0  0
  148.0044  134.8815  152.1592 H   0  0  0  0  0  0  0  0  0  0  0  0
  144.6881  131.1483  150.3701 H   0  0  0  0  0  0  0  0  0  0  0  0
  143.9706  135.1375  149.6134 H   0  0  0  0  0  0  0  0  0  0  0  0
  145.4405  136.8630  150.4856 H   0  0  0  0  0  0  0  0  0  0  0  0
  147.1320  136.3696  150.5966 H   0  0  0  0  0  0  0  0  0  0  0  0
  146.1392  136.4708  152.0584 H   0  0  0  0  0  0  0  0  0  0  0  0
  1  2  1  0  0  0  0
  1 21  1  0  0  0  0
  1 22  1  0  0  0  0
  1 23  1  0  0  0  0
  2  3  1  0  0  0  0
  2 24  1  0  0  0  0
  2 25  1  0  0  0  0
  3 18  1  0  0  0  0
  3  4  1  0  0  0  0
  4  5  2  0  0  0  0
  4 26  1  0  0  0  0
  5  6  1  0  0  0  0
  5 15  1  0  0  0  0
  6  7  1  0  0  0  0
  6 27  1  0  0  0  0
  6 28  1  0  0  0  0
  7  8  1  0  0  0  0
  7 29  1  0  0  0  0
  8 13  1  0  0  0  0
  8  9  2  0  0  0  0
  9 10  1  0  0  0  0
 10 11  2  0  0  0  0
 10 30  1  0  0  0  0
 11 12  1  0  0  0  0
 12 13  2  0  0  0  0
 12 31  1  0  0  0  0
 13 14  1  0  0  0  0
 14 32  1  0  0  0  0
 14 33  1  0  0  0  0
 14 34  1  0  0  0  0
 15 16  2  0  0  0  0
 15 17  1  0  0  0  0
 17 20  1  0  0  0  0
 17 18  1  0  0  0  0
 18 19  2  0  0  0  0
M  END
> <s_m_source_file>
AV-unprocessed.smi

> <i_m_source_file_index>
8

> <i_lp_mmshare_version>
43012

> <i_f3d_flags>
0

> <s_epik_input>
W0NIM11bQ0gyXW4xW2NIXWMoYyg9TylbbkhdYzE9TylbQ0gyXVtOSF1jMm5bY0hdbltjSF1jMltDSDNd

> <s_epik_cmdline>
J2VwaWtfcHl0aG9uJywgJy1waCcsICc3LjAnLCAnLXRuJywgJzgnLCAnLW1hJywgJzIwMCcsICctbWV0YWxfYmluZGluZycsICctaW1hZScsICc8aW5maWxlLm1hZT4nLCAnLW9tYWUnLCAnPG91dGZpbGUubWFlPic=

> <r_lp_tautomer_probability>
0.999537

> <r_epik_Ionization_Penalty>
0.0165471

> <r_epik_Ionization_Penalty_Charging>
0.000694205

> <r_epik_Ionization_Penalty_Neutral>
0.0158529

> <r_epik_State_Penalty>
0.0119799

> <r_epik_Charging_Adjusted_Penalty>
0.0126741

> <i_epik_Tot_Q>
0

> <i_epik_Tot_abs_Q>
0

> <r_epik_Metal_State_Penalty>
0.262409

> <b_epik_Metal_Only>
0

> <s_lp_Force_Field>
OPLS_2005

> <r_lp_Energy>
9.23324

> <b_lp_Chiralities_Consistent>
1

> <s_lp_Variant>
AV-unprocessed.smi:8-1

> <Gold.Version>
5.8.1

> <Gold.Id.Protein>
6NUR|6NUR_protein|mol2

> <Gold.PLP.Fitness>
41.8872

> <Gold.PLP.PLP>
-30.7662

> <Gold.PLP.part.hbond>
-2.0000

> <Gold.PLP.part.metal>
0.0000

> <Gold.PLP.part.buried>
-3.9163

> <Gold.PLP.part.nonpolar>
-26.3305

> <Gold.PLP.part.repulsive>
0.3962

> <Gold.PLP.ligand.clash>
0.0000

> <Gold.PLP.ligand.torsion>
0.4180

> <Gold.PLP.Chemscore.Hbond>
1.9840

> <Gold.PLP.Chemscore.CHOScore>
2.0000

> <Gold.PLP.Chemscore.Metal>
0.0000

> <Gold.Chemscore.Hbonds>
donor molecule, donor type, donor heavy atom, donor atom, acceptor molecule, acceptor atom, score
      L1  H     7    29       P1  7948  1.00
      P1  H  6896  6908       L1    19  0.84
      L1  C     4    26       P1  7948  0.79

> <Gold.PLP.Chemscore.Internal.Correction>
0.0049

> <Gold.Rescore>
     Score         DG    S(hbond)    S(metal)    S(lipo)     H(rot)  DE(clash)    DE(int)     intcor
     12.06     -12.44       1.81        0.00      45.65       1.73       0.02       0.36       ----

> <Gold.Chemscore.Fitness>
12.0590

> <Gold.Chemscore.DG>
-12.4357

> <Gold.Chemscore.ZeroCoef>
-5.4800

> <Gold.Chemscore.Hbond>
1.8099

> <Gold.Chemscore.Metal>
0.0000

> <Gold.Chemscore.Lipo>
45.6513

> <Gold.Chemscore.Internal_Hbond>
0.0000

> <Gold.Chemscore.DEClash>
0.0170

> <Gold.Chemscore.DEInternal>
0.3597

> <Gold.Chemscore.Rot>
1.7307

> <Gold.Chemscore.Internal.Correction>
   9.000000E+99

> <Gold.Chemscore.Hbonds>
donor molecule, donor type, donor heavy atom, donor atom, acceptor molecule, acceptor atom, score
      L1  H     7    29       P1  7948  0.55
      P1  H  6896  6908       L1    19  0.78

> <Gold.Chemscore.Hbond.Weighted>
-6.0450

> <Gold.Chemscore.Metal.Weighted>
-0.0000

> <Gold.Chemscore.Lipo.Weighted>
-5.3412

> <Gold.Chemscore.Internal_Hbond.Weighted>
0.0000

> <Gold.Chemscore.DEClash.Weighted>
0.0170

> <Gold.Chemscore.DEInternal.Weighted>
0.3597

> <Gold.Chemscore.Rot.Weighted>
4.4305

> <Gold.Chemscore.Internal.Correction.Weighted>
   9.000000E+99

> <Gold.Protein.RotatedTorsions>
[ 6907 6896 6895 6894 ] final  115.93 input  -60.11 | X-H torsion
[ 7974 7965 7964 7962 ] final   -3.95 input  175.53 | X-H torsion
[ 8008 7997 7996 7995 ] final  162.91 input   59.86 | X-H torsion
[ 10167 10162 10161 10158 ] final   20.58 input  -65.29 | X-H torsion
[ 10718 10713 10712 10709 ] final  -59.08 input   66.30 | X-H torsion
[ 10763 10752 10751 10750 ] final  -90.36 input  -60.55 | X-H torsion
[ 11005 11000 10999 10996 ] final   55.85 input  -57.11 | X-H torsion

> <Gold.Protein.ActiveResidues>
 VAL166  LYS551  ARG553  GLY616  TRP617  ASP618  TYR619  PRO620  LYS621  CYS622 
 ASP623  PHE694  ASN695  SER759  ASP760  ASP761  ALA762  ILE779  LEU786  VAL792 
 PHE793  MET794  SER795  GLU796  ALA797  LYS798  CYS799  TRP800  GLU811  SER814 

> <Gold.Protein.RotatedAtoms>
  152.4711  133.8031  159.6963 H   0  0  0  0  0  0  0  0  0  0  0  0  # atno 6907 bound_to 6896
  150.8700  133.7509  159.2971 H   0  0  0  0  0  0  0  0  0  0  0  0  # atno 6908 bound_to 6896
  151.5047  135.1066  159.9890 H   0  0  0  0  0  0  0  0  0  0  0  0  # atno 6909 bound_to 6896
  146.2381  140.1798  142.8332 H   0  0  0  0  0  0  0  0  0  0  0  0  # atno 7974 bound_to 7965
  156.1996  140.1737  156.7926 H   0  0  0  0  0  0  0  0  0  0  0  0  # atno 8008 bound_to 7997
  154.5574  140.0706  156.8797 H   0  0  0  0  0  0  0  0  0  0  0  0  # atno 8009 bound_to 7997
  155.2912  140.3355  155.4255 H   0  0  0  0  0  0  0  0  0  0  0  0  # atno 8010 bound_to 7997
  140.5493  143.9538  150.6567 H   0  0  0  0  0  0  0  0  0  0  0  0  # atno 10167 bound_to 10162
  156.1088  130.4177  150.0666 H   0  0  0  0  0  0  0  0  0  0  0  0  # atno 10718 bound_to 10713
  154.6650  135.5307  153.8065 H   0  0  0  0  0  0  0  0  0  0  0  0  # atno 10763 bound_to 10752
  153.0465  135.6515  154.0814 H   0  0  0  0  0  0  0  0  0  0  0  0  # atno 10764 bound_to 10752
  154.0718  135.2953  155.3286 H   0  0  0  0  0  0  0  0  0  0  0  0  # atno 10765 bound_to 10752
  140.0575  134.5649  155.9191 H   0  0  0  0  0  0  0  0  0  0  0  0  # atno 11005 bound_to 11000
  144.9944  140.8576  143.5320 LP  0  0  0  0  0  0  0  0  0  0  0  0  # atno 17320 bound_to 7965
  145.1808  139.2353  143.5293 LP  0  0  0  0  0  0  0  0  0  0  0  0  # atno 17321 bound_to 7965
  140.2960  143.3292  152.1017 LP  0  0  0  0  0  0  0  0  0  0  0  0  # atno 17342 bound_to 10162
  139.5020  144.6726  151.6205 LP  0  0  0  0  0  0  0  0  0  0  0  0  # atno 17343 bound_to 10162
  156.8634  130.9499  151.3616 LP  0  0  0  0  0  0  0  0  0  0  0  0  # atno 17370 bound_to 10713
  157.6267  130.8697  149.9202 LP  0  0  0  0  0  0  0  0  0  0  0  0  # atno 17371 bound_to 10713
  141.1958  133.6589  156.5663 LP  0  0  0  0  0  0  0  0  0  0  0  0  # atno 17394 bound_to 11000
  140.3821  134.7514  157.4668 LP  0  0  0  0  0  0  0  0  0  0  0  0  # atno 17395 bound_to 11000

$$$$
