AV-unprocessed.smi:3047|AV-procd|sdf|11624|dock1
  -GOLD-   2272017 13D 1   1.00000     0.00000
 Structure written by MMmdl.
 37 38  0  0  0  0  0  0  0  0  1 V2000
  148.3404  137.6184  158.5816 C   0  0  0  0  0  0  0  0  0  0  0  0
  150.1215  137.1786  158.4312 S   0  0  0  0  0  0  0  0  0  0  0  0
  150.8310  137.7653  159.5782 O   0  0  0  0  0  0  0  0  0  0  0  0
  150.2311  135.7375  158.1574 O   0  0  0  0  0  0  0  0  0  0  0  0
  150.6303  138.0393  157.0126 N   0  0  0  0  0  0  0  0  0  0  0  0
  150.7355  137.3954  155.7057 C   0  0  0  0  0  0  0  0  0  0  0  0
  150.9751  138.5511  154.7388 C   0  0  0  0  0  0  0  0  0  0  0  0
  151.7501  139.5712  155.5690 C   0  0  0  0  0  0  0  0  0  0  0  0
  151.2402  139.3816  157.0141 C   0  0  2  0  0  0  0  0  0  0  0  0
  152.3498  139.5946  158.0558 C   0  0  0  0  0  0  0  0  0  0  0  0
  153.0051  138.6423  158.4808 O   0  0  0  0  0  0  0  0  0  0  0  0
  152.5302  140.8523  158.4825 N   0  0  0  0  0  0  0  0  0  0  0  0
  153.4771  141.2434  159.5160 C   0  0  0  0  0  0  0  0  0  0  0  0
  152.7630  142.0154  160.6329 C   0  0  0  0  0  0  0  0  0  0  0  0
  152.4298  143.3626  160.2174 N   0  0  0  0  0  0  0  0  0  0  0  0
  151.9217  144.3831  161.0102 C   0  0  0  0  0  0  0  0  0  0  0  0
  151.7586  145.4750  160.1875 C   0  0  0  0  0  0  0  0  0  0  0  0
  152.1564  145.1501  158.8926 N   0  0  0  0  0  0  0  0  0  0  0  0
  152.5408  143.8837  158.9878 C   0  0  0  0  0  0  0  0  0  0  0  0
  147.9435  137.1962  159.5044 H   0  0  0  0  0  0  0  0  0  0  0  0
  147.7808  137.2152  157.7396 H   0  0  0  0  0  0  0  0  0  0  0  0
  148.2320  138.7022  158.6060 H   0  0  0  0  0  0  0  0  0  0  0  0
  151.5803  136.7059  155.7140 H   0  0  0  0  0  0  0  0  0  0  0  0
  149.8300  136.8380  155.4650 H   0  0  0  0  0  0  0  0  0  0  0  0
  151.5077  138.2454  153.8379 H   0  0  0  0  0  0  0  0  0  0  0  0
  150.0185  138.9774  154.4334 H   0  0  0  0  0  0  0  0  0  0  0  0
  152.8170  139.3629  155.4769 H   0  0  0  0  0  0  0  0  0  0  0  0
  151.5881  140.5877  155.2088 H   0  0  0  0  0  0  0  0  0  0  0  0
  150.4375  140.0976  157.1984 H   0  0  0  0  0  0  0  0  0  0  0  0
  151.9444  141.5777  158.0944 H   0  0  0  0  0  0  0  0  0  0  0  0
  153.9536  140.3509  159.9251 H   0  0  0  0  0  0  0  0  0  0  0  0
  154.2634  141.8576  159.0740 H   0  0  0  0  0  0  0  0  0  0  0  0
  151.8442  141.5048  160.9247 H   0  0  0  0  0  0  0  0  0  0  0  0
  153.3928  142.0719  161.5220 H   0  0  0  0  0  0  0  0  0  0  0  0
  151.7226  144.2514  162.0636 H   0  0  0  0  0  0  0  0  0  0  0  0
  151.3878  146.4612  160.4256 H   0  0  0  0  0  0  0  0  0  0  0  0
  152.9101  143.3215  158.1425 H   0  0  0  0  0  0  0  0  0  0  0  0
  1  2  1  0  0  0  0
  1 20  1  0  0  0  0
  1 21  1  0  0  0  0
  1 22  1  0  0  0  0
  2  3  2  0  0  0  0
  2  4  2  0  0  0  0
  2  5  1  0  0  0  0
  5  9  1  0  0  0  0
  5  6  1  0  0  0  0
  6  7  1  0  0  0  0
  6 23  1  0  0  0  0
  6 24  1  0  0  0  0
  7  8  1  0  0  0  0
  7 25  1  0  0  0  0
  7 26  1  0  0  0  0
  8  9  1  0  0  0  0
  8 27  1  0  0  0  0
  8 28  1  0  0  0  0
  9 10  1  0  0  0  0
  9 29  1  0  0  0  0
 10 11  2  0  0  0  0
 10 12  1  0  0  0  0
 12 13  1  0  0  0  0
 12 30  1  0  0  0  0
 13 14  1  0  0  0  0
 13 31  1  0  0  0  0
 13 32  1  0  0  0  0
 14 15  1  0  0  0  0
 14 33  1  0  0  0  0
 14 34  1  0  0  0  0
 15 19  1  0  0  0  0
 15 16  1  0  0  0  0
 16 17  2  0  0  0  0
 16 35  1  0  0  0  0
 17 18  1  0  0  0  0
 17 36  1  0  0  0  0
 18 19  2  0  0  0  0
 19 37  1  0  0  0  0
M  END
> <s_m_source_file>
AV-unprocessed.smi

> <i_m_source_file_index>
3047

> <i_lp_mmshare_version>
43012

> <i_f3d_flags>
0

> <s_epik_input>
W0NIM11TKD1PKSg9TylOMVtDSDJdW0NIMl1bQ0gyXVtDQEhdMUMoPU8pW05IXVtDSDJdW0NIMl1uMltjSF1bY0hdbltjSF0y

> <s_epik_cmdline>
J2VwaWtfcHl0aG9uJywgJy1waCcsICc3LjAnLCAnLXRuJywgJzgnLCAnLW1hJywgJzIwMCcsICctbWV0YWxfYmluZGluZycsICctaW1hZScsICc8aW5maWxlLm1hZT4nLCAnLW9tYWUnLCAnPG91dGZpbGUubWFlPic=

> <r_lp_tautomer_probability>
1

> <r_epik_Ionization_Penalty>
0.575721

> <r_epik_Ionization_Penalty_Charging>
0.575721

> <r_epik_Ionization_Penalty_Neutral>
1.33078e-07

> <r_epik_State_Penalty>
0.588056

> <r_epik_Charging_Adjusted_Penalty>
1.16378

> <i_epik_Tot_Q>
0

> <i_epik_Tot_abs_Q>
0

> <r_epik_Metal_State_Penalty>
0.294357

> <b_epik_Metal_Only>
0

> <s_lp_Force_Field>
OPLS_2005

> <r_lp_Energy>
9.27481

> <b_lp_Chiralities_Consistent>
1

> <s_lp_Variant>
AV-unprocessed.smi:3047-4

> <Gold.Version>
5.8.1

> <Gold.Id.Protein>
6NUR|6NUR_protein|mol2

> <Gold.PLP.Fitness>
40.1574

> <Gold.PLP.PLP>
-39.2620

> <Gold.PLP.part.hbond>
-1.7470

> <Gold.PLP.part.metal>
0.0000

> <Gold.PLP.part.buried>
-6.5050

> <Gold.PLP.part.nonpolar>
-32.0312

> <Gold.PLP.part.repulsive>
0.1427

> <Gold.PLP.ligand.clash>
0.0000

> <Gold.PLP.ligand.torsion>
1.8680

> <Gold.PLP.Chemscore.Hbond>
0.8640

> <Gold.PLP.Chemscore.CHOScore>
0.0000

> <Gold.PLP.Chemscore.Metal>
0.0000

> <Gold.Chemscore.Hbonds>
donor molecule, donor type, donor heavy atom, donor atom, acceptor molecule, acceptor atom, score
      P1  H  6896  6908       L1     4  0.83

> <Gold.PLP.Chemscore.Internal.Correction>
2.0395

> <Gold.Rescore>
     Score         DG    S(hbond)    S(metal)    S(lipo)     H(rot)  DE(clash)    DE(int)     intcor
      8.04     -11.06       0.91        0.00      66.08       2.03       0.02       3.00       ----

> <Gold.Chemscore.Fitness>
8.0368

> <Gold.Chemscore.DG>
-11.0627

> <Gold.Chemscore.ZeroCoef>
-5.4800

> <Gold.Chemscore.Hbond>
0.9093

> <Gold.Chemscore.Metal>
0.0000

> <Gold.Chemscore.Lipo>
66.0849

> <Gold.Chemscore.Internal_Hbond>
0.0000

> <Gold.Chemscore.DEClash>
0.0234

> <Gold.Chemscore.DEInternal>
3.0025

> <Gold.Chemscore.Rot>
2.0259

> <Gold.Chemscore.Internal.Correction>
   9.000000E+99

> <Gold.Chemscore.Hbonds>
donor molecule, donor type, donor heavy atom, donor atom, acceptor molecule, acceptor atom, score
      P1  H  6896  6908       L1     4  0.78

> <Gold.Chemscore.Hbond.Weighted>
-3.0371

> <Gold.Chemscore.Metal.Weighted>
-0.0000

> <Gold.Chemscore.Lipo.Weighted>
-7.7319

> <Gold.Chemscore.Internal_Hbond.Weighted>
0.0000

> <Gold.Chemscore.DEClash.Weighted>
0.0234

> <Gold.Chemscore.DEInternal.Weighted>
3.0025

> <Gold.Chemscore.Rot.Weighted>
5.1863

> <Gold.Chemscore.Internal.Correction.Weighted>
   9.000000E+99

> <Gold.Protein.RotatedTorsions>
[ 6907 6896 6895 6894 ] final  173.08 input  -60.11 | X-H torsion
[ 7974 7965 7964 7962 ] final -150.61 input  175.53 | X-H torsion
[ 8008 7997 7996 7995 ] final  115.36 input   59.86 | X-H torsion
[ 10167 10162 10161 10158 ] final  156.98 input  -65.29 | X-H torsion
[ 10718 10713 10712 10709 ] final  108.20 input   66.30 | X-H torsion
[ 10763 10752 10751 10750 ] final   53.05 input  -60.55 | X-H torsion
[ 11005 11000 10999 10996 ] final  158.38 input  -57.11 | X-H torsion

> <Gold.Protein.ActiveResidues>
 VAL166  LYS551  ARG553  GLY616  TRP617  ASP618  TYR619  PRO620  LYS621  CYS622 
 ASP623  PHE694  ASN695  SER759  ASP760  ASP761  ALA762  ILE779  LEU786  VAL792 
 PHE793  MET794  SER795  GLU796  ALA797  LYS798  CYS799  TRP800  GLU811  SER814 

> <Gold.Protein.RotatedAtoms>
  151.7740  133.3343  159.3452 H   0  0  0  0  0  0  0  0  0  0  0  0  # atno 6907 bound_to 6896
  150.7451  134.5992  159.6037 H   0  0  0  0  0  0  0  0  0  0  0  0  # atno 6908 bound_to 6896
  152.3321  134.7247  160.0338 H   0  0  0  0  0  0  0  0  0  0  0  0  # atno 6909 bound_to 6896
  144.7898  140.4909  143.5781 H   0  0  0  0  0  0  0  0  0  0  0  0  # atno 7974 bound_to 7965
  156.2377  140.2940  156.0357 H   0  0  0  0  0  0  0  0  0  0  0  0  # atno 8008 bound_to 7997
  155.2044  140.0410  157.2940 H   0  0  0  0  0  0  0  0  0  0  0  0  # atno 8009 bound_to 7997
  154.6109  140.2451  155.7677 H   0  0  0  0  0  0  0  0  0  0  0  0  # atno 8010 bound_to 7997
  139.4822  144.4959  151.8240 H   0  0  0  0  0  0  0  0  0  0  0  0  # atno 10167 bound_to 10162
  157.6596  131.0889  150.6270 H   0  0  0  0  0  0  0  0  0  0  0  0  # atno 10718 bound_to 10713
  152.9792  135.5792  154.4678 H   0  0  0  0  0  0  0  0  0  0  0  0  # atno 10763 bound_to 10752
  154.4245  135.2772  155.1956 H   0  0  0  0  0  0  0  0  0  0  0  0  # atno 10764 bound_to 10752
  154.3690  135.6172  153.5784 H   0  0  0  0  0  0  0  0  0  0  0  0  # atno 10765 bound_to 10752
  140.1860  134.8441  157.2857 H   0  0  0  0  0  0  0  0  0  0  0  0  # atno 11005 bound_to 11000
  145.5825  139.1490  143.3227 LP  0  0  0  0  0  0  0  0  0  0  0  0  # atno 17320 bound_to 7965
  146.2145  140.5955  142.9045 LP  0  0  0  0  0  0  0  0  0  0  0  0  # atno 17321 bound_to 7965
  140.4448  144.1937  150.5893 LP  0  0  0  0  0  0  0  0  0  0  0  0  # atno 17342 bound_to 10162
  140.4646  143.2436  151.9173 LP  0  0  0  0  0  0  0  0  0  0  0  0  # atno 17343 bound_to 10162
  156.6573  130.4502  149.5699 LP  0  0  0  0  0  0  0  0  0  0  0  0  # atno 17370 bound_to 10713
  156.2093  130.6669  151.1252 LP  0  0  0  0  0  0  0  0  0  0  0  0  # atno 17371 bound_to 10713
  140.2213  134.4019  155.7564 LP  0  0  0  0  0  0  0  0  0  0  0  0  # atno 17394 bound_to 11000
  141.2225  133.7167  156.8495 LP  0  0  0  0  0  0  0  0  0  0  0  0  # atno 17395 bound_to 11000

$$$$
