AV-unprocessed.smi:1817|AV-procd|sdf|7374|dock3
  -GOLD-   22720 9 43D 1   1.00000     0.00000
 Structure written by MMmdl.
 42 43  0  0  0  0  0  0  0  0  3 V2000
  146.7851  138.7584  151.6619 C   0  0  0  0  0  0  0  0  0  0  0  0
  146.7720  139.7924  152.7969 C   0  0  0  0  0  0  0  0  0  0  0  0
  148.1171  140.0107  153.3840 N   0  3  0  0  0  0  0  0  0  0  0  0
  148.6369  138.8016  154.0676 C   0  0  0  0  0  0  0  0  0  0  0  0
  150.0541  139.0633  154.6169 C   0  0  0  0  0  0  0  0  0  0  0  0
  150.0630  140.1660  155.5886 N   0  0  0  0  0  0  0  0  0  0  0  0
  149.3458  139.9145  156.8595 C   0  0  2  0  0  0  0  0  0  0  0  0
  149.7868  140.9402  157.9313 C   0  0  0  0  0  0  0  0  0  0  0  0
  149.5706  138.4673  157.3682 C   0  0  0  0  0  0  0  0  0  0  0  0
  148.8608  138.2162  158.6170 N   0  0  0  0  0  0  0  0  0  0  0  0
  148.9416  137.0920  159.3404 C   0  0  0  0  0  0  0  0  0  0  0  0
  149.6705  136.1713  158.9644 O   0  0  0  0  0  0  0  0  0  0  0  0
  148.1716  137.1047  160.4516 N   0  5  0  0  0  0  0  0  0  0  0  0
  147.8145  135.9481  161.0341 C   0  0  0  0  0  0  0  0  0  0  0  0
  147.6651  134.8103  160.3369 N   0  0  0  0  0  0  0  0  0  0  0  0
  147.2878  133.7319  161.1258 N   0  0  0  0  0  0  0  0  0  0  0  0
  147.1544  134.0877  162.4033 C   0  0  0  0  0  0  0  0  0  0  0  0
  147.4728  135.7725  162.7580 S   0  0  0  0  0  0  0  0  0  0  0  0
  149.6168  141.3577  154.8519 C   0  0  0  0  0  0  0  0  0  0  0  0
  148.1896  141.1897  154.2848 C   0  0  0  0  0  0  0  0  0  0  0  0
  145.7708  138.5567  151.3165 H   0  0  0  0  0  0  0  0  0  0  0  0
  147.2131  137.8125  151.9957 H   0  0  0  0  0  0  0  0  0  0  0  0
  147.3564  139.1030  150.8003 H   0  0  0  0  0  0  0  0  0  0  0  0
  146.3558  140.7396  152.4506 H   0  0  0  0  0  0  0  0  0  0  0  0
  146.1005  139.4263  153.5746 H   0  0  0  0  0  0  0  0  0  0  0  0
  147.9554  138.4908  154.8607 H   0  0  0  0  0  0  0  0  0  0  0  0
  148.6792  137.9774  153.3547 H   0  0  0  0  0  0  0  0  0  0  0  0
  150.4835  138.1560  155.0374 H   0  0  0  0  0  0  0  0  0  0  0  0
  150.7170  139.3226  153.7900 H   0  0  0  0  0  0  0  0  0  0  0  0
  148.2748  140.0359  156.7038 H   0  0  0  0  0  0  0  0  0  0  0  0
  149.3458  140.7284  158.9049 H   0  0  0  0  0  0  0  0  0  0  0  0
  149.4737  141.9546  157.6889 H   0  0  0  0  0  0  0  0  0  0  0  0
  150.8699  140.9395  158.0584 H   0  0  0  0  0  0  0  0  0  0  0  0
  149.1936  137.7364  156.6537 H   0  0  0  0  0  0  0  0  0  0  0  0
  150.6348  138.2713  157.5092 H   0  0  0  0  0  0  0  0  0  0  0  0
  148.2570  138.9489  158.9598 H   0  0  0  0  0  0  0  0  0  0  0  0
  146.8625  133.3547  163.1403 H   0  0  0  0  0  0  0  0  0  0  0  0
  149.6808  142.2534  155.4666 H   0  0  0  0  0  0  0  0  0  0  0  0
  150.3098  141.5352  154.0282 H   0  0  0  0  0  0  0  0  0  0  0  0
  147.9312  142.0909  153.7297 H   0  0  0  0  0  0  0  0  0  0  0  0
  147.4546  141.1013  155.0854 H   0  0  0  0  0  0  0  0  0  0  0  0
  148.7475  140.1891  152.6155 H   0  0  0  0  0  0  0  0  0  0  0  0
  1  2  1  0  0  0  0
  1 21  1  0  0  0  0
  1 22  1  0  0  0  0
  1 23  1  0  0  0  0
  2  3  1  0  0  0  0
  2 24  1  0  0  0  0
  2 25  1  0  0  0  0
  3 20  1  0  0  0  0
  3  4  1  0  0  0  0
  3 42  1  0  0  0  0
  4  5  1  0  0  0  0
  4 26  1  0  0  0  0
  4 27  1  0  0  0  0
  5  6  1  0  0  0  0
  5 28  1  0  0  0  0
  5 29  1  0  0  0  0
  6  7  1  0  0  0  0
  6 19  1  0  0  0  0
  7  8  1  0  0  0  0
  7  9  1  0  0  0  0
  7 30  1  0  0  0  0
  8 31  1  0  0  0  0
  8 32  1  0  0  0  0
  8 33  1  0  0  0  0
  9 10  1  0  0  0  0
  9 34  1  0  0  0  0
  9 35  1  0  0  0  0
 10 11  1  0  0  0  0
 10 36  1  0  0  0  0
 11 12  2  0  0  0  0
 11 13  1  0  0  0  0
 13 14  1  0  0  0  0
 14 18  1  0  0  0  0
 14 15  2  0  0  0  0
 15 16  1  0  0  0  0
 16 17  2  0  0  0  0
 17 18  1  0  0  0  0
 17 37  1  0  0  0  0
 19 20  1  0  0  0  0
 19 38  1  0  0  0  0
 19 39  1  0  0  0  0
 20 40  1  0  0  0  0
 20 41  1  0  0  0  0
M  CHG  1   3   1
M  CHG  1  13  -1
M  END
> <s_m_source_file>
AV-unprocessed.smi

> <i_m_source_file_index>
1817

> <i_lp_mmshare_version>
43012

> <i_f3d_flags>
0

> <s_epik_input>
W0NIM11bQ0gyXU4xW0NIMl1bQ0gyXU4oW0NIMl1bQ0gyXTEpW0NASF0oW0NIM10pW0NIMl1bTkhdQyg9TylbTkhdYzJubltjSF1zMg==

> <s_epik_cmdline>
J2VwaWtfcHl0aG9uJywgJy1waCcsICc3LjAnLCAnLXRuJywgJzgnLCAnLW1hJywgJzIwMCcsICctbWV0YWxfYmluZGluZycsICctaW1hZScsICc8aW5maWxlLm1hZT4nLCAnLW9tYWUnLCAnPG91dGZpbGUubWFlPic=

> <r_lp_tautomer_probability>
1

> <r_epik_Ionization_Penalty>
3.58527

> <r_epik_Ionization_Penalty_Charging>
3.54445

> <r_epik_Ionization_Penalty_Neutral>
0.0408199

> <r_epik_State_Penalty>
3.6633

> <r_epik_Charging_Adjusted_Penalty>
7.20774

> <i_epik_Tot_Q>
0

> <i_epik_Tot_abs_Q>
2

> <r_epik_Metal_State_Penalty>
0.683711

> <b_epik_Metal_Only>
1

> <s_lp_Force_Field>
OPLS_2005

> <r_lp_Energy>
15.1911

> <b_lp_Chiralities_Consistent>
1

> <s_lp_Variant>
AV-unprocessed.smi:1817-7

> <Gold.Version>
5.8.1

> <Gold.Id.Protein>
6NUR|6NUR_protein|mol2

> <Gold.PLP.Fitness>
49.7419

> <Gold.PLP.PLP>
-37.2948

> <Gold.PLP.part.hbond>
-4.0000

> <Gold.PLP.part.metal>
0.0000

> <Gold.PLP.part.buried>
-2.4917

> <Gold.PLP.part.nonpolar>
-31.3189

> <Gold.PLP.part.repulsive>
0.3373

> <Gold.PLP.ligand.clash>
0.0000

> <Gold.PLP.ligand.torsion>
0.5993

> <Gold.PLP.Chemscore.Hbond>
4.4847

> <Gold.PLP.Chemscore.CHOScore>
0.0000

> <Gold.PLP.Chemscore.Metal>
0.0000

> <Gold.Chemscore.Hbonds>
donor molecule, donor type, donor heavy atom, donor atom, acceptor molecule, acceptor atom, score
      L1  H     3    42       P1  7957  1.00
      P1  H  6896  6907       L1    12  1.00
      P1  H  6931  6943       L1    13  1.52
      P1  H  6934  6947       L1    13  0.80

> <Gold.PLP.Chemscore.Internal.Correction>
0.1915

> <Gold.Rescore>
     Score         DG    S(hbond)    S(metal)    S(lipo)     H(rot)  DE(clash)    DE(int)     intcor
     16.00     -18.44       2.86        0.00      70.34       1.88       0.56       1.88       ----

> <Gold.Chemscore.Fitness>
15.9996

> <Gold.Chemscore.DG>
-18.4405

> <Gold.Chemscore.ZeroCoef>
-5.4800

> <Gold.Chemscore.Hbond>
2.8593

> <Gold.Chemscore.Metal>
0.0000

> <Gold.Chemscore.Lipo>
70.3374

> <Gold.Chemscore.Internal_Hbond>
0.0000

> <Gold.Chemscore.DEClash>
0.5613

> <Gold.Chemscore.DEInternal>
1.8796

> <Gold.Chemscore.Rot>
1.8825

> <Gold.Chemscore.Internal.Correction>
   9.000000E+99

> <Gold.Chemscore.Hbonds>
donor molecule, donor type, donor heavy atom, donor atom, acceptor molecule, acceptor atom, score
      L1  H     3    42       P1  7957  1.00
      P1  H  6896  6907       L1    12  1.00
      P1  H  6931  6943       L1    13  0.32
      P1  H  6934  6947       L1    13  0.36

> <Gold.Chemscore.Hbond.Weighted>
-9.5501

> <Gold.Chemscore.Metal.Weighted>
-0.0000

> <Gold.Chemscore.Lipo.Weighted>
-8.2295

> <Gold.Chemscore.Internal_Hbond.Weighted>
0.0000

> <Gold.Chemscore.DEClash.Weighted>
0.5613

> <Gold.Chemscore.DEInternal.Weighted>
1.8796

> <Gold.Chemscore.Rot.Weighted>
4.8191

> <Gold.Chemscore.Internal.Correction.Weighted>
   9.000000E+99

> <Gold.Protein.RotatedTorsions>
[ 6907 6896 6895 6894 ] final  -62.04 input  -60.11 | X-H torsion
[ 7974 7965 7964 7962 ] final -128.91 input  175.53 | X-H torsion
[ 8008 7997 7996 7995 ] final  138.63 input   59.86 | X-H torsion
[ 10167 10162 10161 10158 ] final   31.14 input  -65.29 | X-H torsion
[ 10718 10713 10712 10709 ] final   -5.69 input   66.30 | X-H torsion
[ 10763 10752 10751 10750 ] final   99.85 input  -60.55 | X-H torsion
[ 11005 11000 10999 10996 ] final   63.91 input  -57.11 | X-H torsion

> <Gold.Protein.ActiveResidues>
 VAL166  LYS551  ARG553  GLY616  TRP617  ASP618  TYR619  PRO620  LYS621  CYS622 
 ASP623  PHE694  ASN695  SER759  ASP760  ASP761  ALA762  ILE779  LEU786  VAL792 
 PHE793  MET794  SER795  GLU796  ALA797  LYS798  CYS799  TRP800  GLU811  SER814 

> <Gold.Protein.RotatedAtoms>
  150.7743  134.6624  159.6346 H   0  0  0  0  0  0  0  0  0  0  0  0  # atno 6907 bound_to 6896
  152.3807  134.6592  160.0153 H   0  0  0  0  0  0  0  0  0  0  0  0  # atno 6908 bound_to 6896
  151.6923  133.3274  159.3282 H   0  0  0  0  0  0  0  0  0  0  0  0  # atno 6909 bound_to 6896
  144.9624  140.7460  143.4721 H   0  0  0  0  0  0  0  0  0  0  0  0  # atno 7974 bound_to 7965
  156.2996  140.2388  156.4105 H   0  0  0  0  0  0  0  0  0  0  0  0  # atno 8008 bound_to 7997
  154.8446  140.0427  157.1584 H   0  0  0  0  0  0  0  0  0  0  0  0  # atno 8009 bound_to 7997
  154.9065  140.2984  155.5293 H   0  0  0  0  0  0  0  0  0  0  0  0  # atno 8010 bound_to 7997
  140.4616  144.0898  150.6214 H   0  0  0  0  0  0  0  0  0  0  0  0  # atno 10167 bound_to 10162
  156.7429  130.5215  149.5820 H   0  0  0  0  0  0  0  0  0  0  0  0  # atno 10718 bound_to 10713
  153.3065  135.4099  155.1299 H   0  0  0  0  0  0  0  0  0  0  0  0  # atno 10763 bound_to 10752
  154.8564  135.3554  154.5781 H   0  0  0  0  0  0  0  0  0  0  0  0  # atno 10764 bound_to 10752
  153.6208  135.7064  153.5370 H   0  0  0  0  0  0  0  0  0  0  0  0  # atno 10765 bound_to 10752
  139.9993  134.6467  155.9957 H   0  0  0  0  0  0  0  0  0  0  0  0  # atno 11005 bound_to 11000
  145.2680  139.1965  143.4856 LP  0  0  0  0  0  0  0  0  0  0  0  0  # atno 17320 bound_to 7965
  146.3357  140.2622  142.8602 LP  0  0  0  0  0  0  0  0  0  0  0  0  # atno 17321 bound_to 7965
  140.4087  143.2667  151.9859 LP  0  0  0  0  0  0  0  0  0  0  0  0  # atno 17342 bound_to 10162
  139.4807  144.5934  151.7732 LP  0  0  0  0  0  0  0  0  0  0  0  0  # atno 17343 bound_to 10162
  156.1452  130.6272  151.0522 LP  0  0  0  0  0  0  0  0  0  0  0  0  # atno 17370 bound_to 10713
  157.6810  131.0838  150.7368 LP  0  0  0  0  0  0  0  0  0  0  0  0  # atno 17371 bound_to 10713
  141.1629  133.6538  156.4381 LP  0  0  0  0  0  0  0  0  0  0  0  0  # atno 17394 bound_to 11000
  140.4758  134.6711  157.5149 LP  0  0  0  0  0  0  0  0  0  0  0  0  # atno 17395 bound_to 11000

$$$$
