#       Name:                AV-unprocessed.smi:3255
#       Creating user name   scv26
#       Creation time:       Fri Mar 27 18:36:10 2020


#       File generated by GOLD software.
#

@<TRIPOS>MOLECULE
AV-unprocessed.smi:3255
    43    44     1
SMALL
NO_CHARGES


@<TRIPOS>ATOM
      1 ****        -2.6690  -1.5946   1.4716 C.3            1 S1                 0.0000
      2 ****        -2.0808  -0.9348   0.2121 C.3            1 S1                 0.0000
      3 ****        -0.6224  -1.0041   0.2537 N.am           1 S1                 0.0000
      4 ****         0.1762  -0.1340   0.8873 C.2            1 S1                 0.0000
      5 ****        -0.2296   0.8242   1.5454 O.2            1 S1                 0.0000
      6 ****         1.4714  -0.4304   0.7135 N.am           1 S1                 0.0000
      7 ****         2.5822   0.3335   1.2687 C.3            1 S1                 0.0000
      8 ****         2.8726   1.5930   0.4363 C.3            1 S1                 0.0000
      9 ****         3.9806   2.3472   0.9852 N.pl3          1 S1                 0.0000
     10 ****         3.9129   3.3765   1.9145 C.2            1 S1                 0.0000
     11 ****         5.2074   3.7867   2.1407 C.2            1 S1                 0.0000
     12 ****         6.0821   3.0273   1.3668 N.2            1 S1                 0.0000
     13 ****         5.2832   2.1962   0.7097 C.2            1 S1                 0.0000
     14 ****        -2.5786  -1.6033  -1.0834 C.3            1 S1                 0.0000
     15 ****        -4.0871  -1.5038  -1.3187 C.3            1 S1                 0.0000
     16 ****        -4.2255  -1.5879  -2.8312 C.3            1 S1                 0.0000
     17 ****        -2.8012  -1.3767  -3.3504 C.3            1 S1                 0.0000
     18 ****        -2.0605  -0.9331  -2.2228 O.3            1 S1                 0.0000
     19 ****        -3.7566  -1.5237   1.4859 H              1 S1                 0.0000
     20 ****        -2.3036  -1.1119   2.3787 H              1 S1                 0.0000
     21 ****        -2.4033  -2.6506   1.5268 H              1 S1                 0.0000
     22 ****        -2.3850   0.1135   0.1934 H              1 S1                 0.0000
     23 ****        -0.1909  -1.7557  -0.2638 H              1 S1                 0.0000
     24 ****         1.7057  -1.2373   0.1538 H              1 S1                 0.0000
     25 ****         2.3705   0.5996   2.3059 H              1 S1                 0.0000
     26 ****         3.4607  -0.3120   1.2871 H              1 S1                 0.0000
     27 ****         3.1100   1.3252  -0.5942 H              1 S1                 0.0000
     28 ****         1.9983   2.2445   0.4018 H              1 S1                 0.0000
     29 ****         2.9756   3.7211   2.3264 H              1 S1                 0.0000
     30 ****         5.5735   4.5628   2.7964 H              1 S1                 0.0000
     31 ****         5.6545   1.4589   0.0130 H              1 S1                 0.0000
     32 ****        -2.2662  -2.6491  -1.1191 H              1 S1                 0.0000
     33 ****        -4.6458  -2.2836  -0.8004 H              1 S1                 0.0000
     34 ****        -4.4601  -0.5383  -0.9742 H              1 S1                 0.0000
     35 ****        -4.6110  -2.5580  -3.1464 H              1 S1                 0.0000
     36 ****        -4.9057  -0.8195  -3.2000 H              1 S1                 0.0000
     37 ****        -2.3801  -2.3174  -3.7081 H              1 S1                 0.0000
     38 ****        -2.7534  -0.6511  -4.1628 H              1 S1                 0.0000
     39 ****        -1.2118   0.9913   1.6320 LP             1 S1                 0.0000
     40 ****         0.4229   1.4354   1.9933 LP             1 S1                 0.0000
     41 ****         7.0787   3.0931   1.3179 LP             1 S1                 0.0000
     42 ****        -1.0929  -1.1566  -2.3401 LP             1 S1                 0.0000
     43 ****        -2.1634   0.0556  -2.1138 LP             1 S1                 0.0000
@<TRIPOS>BOND
    1    1    2 1     
    2    1   19 1     
    3    1   20 1     
    4    1   21 1     
    5    2    3 1     
    6    2   14 1     
    7    2   22 1     
    8    3    4 am    
    9    3   23 1     
   10    4    5 2     
   11    4    6 am    
   12    6    7 1     
   13    6   24 1     
   14    7    8 1     
   15    7   25 1     
   16    7   26 1     
   17    8    9 1     
   18    8   27 1     
   19    8   28 1     
   20    9   13 1     
   21    9   10 1     
   22   10   11 2     
   23   10   29 1     
   24   11   12 1     
   25   11   30 1     
   26   12   13 2     
   27   13   31 1     
   28   14   18 1     
   29   14   15 1     
   30   14   32 1     
   31   15   16 1     
   32   15   33 1     
   33   15   34 1     
   34   16   17 1     
   35   16   35 1     
   36   16   36 1     
   37   17   18 1     
   38   17   37 1     
   39   17   38 1     
   40    5   39 1     
   41    5   40 1     
   42   12   41 1     
   43   18   42 1     
   44   18   43 1     
@<TRIPOS>SUBSTRUCTURE
      1 S1             1
@<TRIPOS>SET
LONE_PAIRS      STATIC     ATOMS    <user>   **** ""
5 39 40 41 42 43
DONOR_HYDROGENS      STATIC     ATOMS    <user>   **** ""
2 23 24
ATOM$BLUE        STATIC     ATOMS    COLORGROUP SYSTEM
5 39 40 41 42 43
ATOM$RED        STATIC     ATOMS    COLORGROUP SYSTEM
2 23 24
