AV-unprocessed.smi:21|AV-procd|sdf|134|dock7
  -GOLD-   2262015323D 1   1.00000     0.00000
 Structure written by MMmdl.
 62 65  0  0  0  0  0  0  0  0  2 V2000
  144.9770  135.8123  156.0938 C   0  0  0  0  0  0  0  0  0  0  0  0
  144.4030  137.0624  156.4410 O   0  0  0  0  0  0  0  0  0  0  0  0
  144.4399  138.0174  155.3900 C   0  0  2  0  0  0  0  0  0  0  0  0
  145.8489  138.6111  155.2678 C   0  0  0  0  0  0  0  0  0  0  0  0
  145.6946  140.1323  155.4330 C   0  0  1  0  0  0  0  0  0  0  0  0
  146.6178  140.9542  154.5062 C   0  0  0  0  0  0  0  0  0  0  0  0
  147.5019  140.1112  153.6967 N   0  0  0  0  0  0  0  0  0  0  0  0
  146.9257  139.3792  152.5748 C   0  0  0  0  0  0  0  0  0  0  0  0
  148.7557  139.8064  154.1458 C   0  0  0  0  0  0  0  0  0  0  0  0
  149.4502  138.8313  153.4979 N   0  0  0  0  0  0  0  0  0  0  0  0
  150.6805  138.4873  153.8852 C   0  0  0  0  0  0  0  0  0  0  0  0
  151.4070  138.9849  154.8846 N   0  0  0  0  0  0  0  0  0  0  0  0
  150.7289  139.9656  155.5440 C   0  0  0  0  0  0  0  0  0  0  0  0
  149.4137  140.4337  155.2509 C   0  0  0  0  0  0  0  0  0  0  0  0
  149.0783  141.4420  156.1507 N   0  0  0  0  0  0  0  0  0  0  0  0
  150.1232  141.5598  156.9220 C   0  0  0  0  0  0  0  0  0  0  0  0
  151.1664  140.7172  156.6198 N   0  0  0  0  0  0  0  0  0  0  0  0
  152.4473  140.6351  157.3000 C   0  0  0  0  0  0  0  0  0  0  0  0
  152.3280  140.8473  158.8321 C   0  0  1  0  0  0  0  0  0  0  0  0
  153.1399  139.7880  159.6131 C   0  0  0  0  0  0  0  0  0  0  0  0
  154.4968  139.7899  159.2210 O   0  0  0  0  0  0  0  0  0  0  0  0
  152.6742  142.2924  159.2857 C   0  0  1  0  0  0  0  0  0  0  0  0
  151.9328  143.4226  158.5823 C   0  0  0  0  0  0  0  0  0  0  0  0
  152.0059  144.5374  159.6156 C   0  0  0  0  0  0  0  0  0  0  0  0
  151.7841  143.8492  160.8355 O   0  0  0  0  0  0  0  0  0  0  0  0
  152.4580  142.5956  160.7794 C   0  0  0  0  0  0  0  0  0  0  0  0
  144.2638  140.4027  155.1795 N   0  3  2  0  0  0  0  0  0  0  0  0
  143.7632  141.6781  155.7390 C   0  0  0  0  0  0  0  0  0  0  0  0
  143.5292  139.2199  155.6660 C   0  0  0  0  0  0  0  0  0  0  0  0
  144.1742  137.5517  154.4391 H   0  0  0  0  0  0  0  0  0  0  0  0
  145.8930  140.3818  156.4770 H   0  0  0  0  0  0  0  0  0  0  0  0
  144.9340  135.1417  156.9519 H   0  0  0  0  0  0  0  0  0  0  0  0
  146.0239  135.9245  155.8095 H   0  0  0  0  0  0  0  0  0  0  0  0
  144.4401  135.3376  155.2719 H   0  0  0  0  0  0  0  0  0  0  0  0
  146.5368  138.2060  156.0110 H   0  0  0  0  0  0  0  0  0  0  0  0
  146.2550  138.3612  154.2871 H   0  0  0  0  0  0  0  0  0  0  0  0
  146.0115  141.5761  153.8466 H   0  0  0  0  0  0  0  0  0  0  0  0
  147.2175  141.6598  155.0806 H   0  0  0  0  0  0  0  0  0  0  0  0
  147.5716  139.4443  151.6990 H   0  0  0  0  0  0  0  0  0  0  0  0
  145.9556  139.7891  152.2934 H   0  0  0  0  0  0  0  0  0  0  0  0
  146.7806  138.3295  152.8317 H   0  0  0  0  0  0  0  0  0  0  0  0
  151.1503  137.7013  153.3122 H   0  0  0  0  0  0  0  0  0  0  0  0
  150.1644  142.2752  157.7303 H   0  0  0  0  0  0  0  0  0  0  0  0
  152.8831  139.6609  157.0793 H   0  0  0  0  0  0  0  0  0  0  0  0
  153.1047  141.3747  156.8448 H   0  0  0  0  0  0  0  0  0  0  0  0
  151.2796  140.6926  159.0921 H   0  0  0  0  0  0  0  0  0  0  0  0
  153.1166  139.9866  160.6843 H   0  0  0  0  0  0  0  0  0  0  0  0
  152.7223  138.7918  159.4661 H   0  0  0  0  0  0  0  0  0  0  0  0
  154.9683  139.1773  159.7648 H   0  0  0  0  0  0  0  0  0  0  0  0
  153.7374  142.4573  159.1051 H   0  0  0  0  0  0  0  0  0  0  0  0
  152.3849  143.6994  157.6293 H   0  0  0  0  0  0  0  0  0  0  0  0
  150.8881  143.1739  158.4021 H   0  0  0  0  0  0  0  0  0  0  0  0
  152.9955  144.9974  159.6273 H   0  0  0  0  0  0  0  0  0  0  0  0
  151.2620  145.3171  159.4503 H   0  0  0  0  0  0  0  0  0  0  0  0
  151.8719  141.8397  161.3004 H   0  0  0  0  0  0  0  0  0  0  0  0
  153.4159  142.6731  161.2954 H   0  0  0  0  0  0  0  0  0  0  0  0
  143.8920  141.7129  156.8216 H   0  0  0  0  0  0  0  0  0  0  0  0
  142.7019  141.7967  155.5184 H   0  0  0  0  0  0  0  0  0  0  0  0
  144.2884  142.5294  155.3064 H   0  0  0  0  0  0  0  0  0  0  0  0
  142.5533  139.1244  155.1889 H   0  0  0  0  0  0  0  0  0  0  0  0
  143.3687  139.3195  156.7412 H   0  0  0  0  0  0  0  0  0  0  0  0
  144.1436  140.4303  154.1771 H   0  0  0  0  0  0  0  0  0  0  0  0
  1  2  1  0  0  0  0
  1 32  1  0  0  0  0
  1 33  1  0  0  0  0
  1 34  1  0  0  0  0
  2  3  1  0  0  0  0
  3 30  1  0  0  0  0
  3 29  1  0  0  0  0
  3  4  1  0  0  0  0
  4  5  1  0  0  0  0
  4 35  1  0  0  0  0
  4 36  1  0  0  0  0
  5 31  1  0  0  0  0
  5  6  1  0  0  0  0
  5 27  1  0  0  0  0
  6  7  1  0  0  0  0
  6 37  1  0  0  0  0
  6 38  1  0  0  0  0
  7  8  1  0  0  0  0
  7  9  1  0  0  0  0
  8 39  1  0  0  0  0
  8 40  1  0  0  0  0
  8 41  1  0  0  0  0
  9 14  1  0  0  0  0
  9 10  2  0  0  0  0
 10 11  1  0  0  0  0
 11 12  2  0  0  0  0
 11 42  1  0  0  0  0
 12 13  1  0  0  0  0
 13 17  1  0  0  0  0
 13 14  2  0  0  0  0
 14 15  1  0  0  0  0
 15 16  2  0  0  0  0
 16 17  1  0  0  0  0
 16 43  1  0  0  0  0
 17 18  1  0  0  0  0
 18 19  1  0  0  0  0
 18 44  1  0  0  0  0
 18 45  1  0  0  0  0
 19 20  1  0  0  0  0
 19 22  1  0  0  0  0
 19 46  1  0  0  0  0
 20 21  1  0  0  0  0
 20 47  1  0  0  0  0
 20 48  1  0  0  0  0
 21 49  1  0  0  0  0
 22 26  1  0  0  0  0
 22 23  1  0  0  0  0
 22 50  1  0  0  0  0
 23 24  1  0  0  0  0
 23 51  1  0  0  0  0
 23 52  1  0  0  0  0
 24 25  1  0  0  0  0
 24 53  1  0  0  0  0
 24 54  1  0  0  0  0
 25 26  1  0  0  0  0
 26 55  1  0  0  0  0
 26 56  1  0  0  0  0
 27 28  1  0  0  0  0
 27 29  1  0  0  0  0
 27 62  1  0  0  0  0
 28 57  1  0  0  0  0
 28 58  1  0  0  0  0
 28 59  1  0  0  0  0
 29 60  1  0  0  0  0
 29 61  1  0  0  0  0
M  CHG  1  27   1
M  END
> <s_m_source_file>
AV-unprocessed.smi

> <i_m_source_file_index>
21

> <i_lp_mmshare_version>
43012

> <i_f3d_flags>
0

> <s_epik_input>
W0NIM11PW0NASF0xW0NIMl1bQ0BIXShOKFtDSDNdKVtDSDJdMSlbQ0gyXU4oW0NIM10pYyhuW2NIXW4yKWMoYzIzKW5bY0hdbjNbQ0gyXVtDQEhdKFtDSDJdW09IXSlbQ0BASF00W0NIMl1bQ0gyXU9bQ0gyXTQ=

> <s_epik_cmdline>
J2VwaWtfcHl0aG9uJywgJy1waCcsICc3LjAnLCAnLXRuJywgJzgnLCAnLW1hJywgJzIwMCcsICctbWV0YWxfYmluZGluZycsICctaW1hZScsICc8aW5maWxlLm1hZT4nLCAnLW9tYWUnLCAnPG91dGZpbGUubWFlPic=

> <r_lp_tautomer_probability>
1

> <r_epik_Ionization_Penalty>
0.0157465

> <r_epik_Ionization_Penalty_Charging>
0.015354

> <r_epik_Ionization_Penalty_Neutral>
0.000392529

> <r_epik_State_Penalty>
0.0120612

> <r_epik_Charging_Adjusted_Penalty>
0.0274152

> <i_epik_Tot_Q>
1

> <i_epik_Tot_abs_Q>
1

> <r_epik_Metal_State_Penalty>
0.0121253

> <b_epik_Metal_Only>
0

> <s_lp_Force_Field>
OPLS_2005

> <r_lp_Energy>
60.5183

> <b_lp_Chiralities_Consistent>
1

> <s_lp_Variant>
AV-unprocessed.smi:21-14

> <Gold.Version>
5.8.1

> <Gold.Id.Protein>
6NUR|6NUR_protein|mol2

> <Gold.PLP.Fitness>
48.8827

> <Gold.PLP.PLP>
-40.9064

> <Gold.PLP.part.hbond>
-2.0000

> <Gold.PLP.part.metal>
0.0000

> <Gold.PLP.part.buried>
-5.8643

> <Gold.PLP.part.nonpolar>
-36.0287

> <Gold.PLP.part.repulsive>
2.7884

> <Gold.PLP.ligand.clash>
0.0000

> <Gold.PLP.ligand.torsion>
2.1495

> <Gold.PLP.Chemscore.Hbond>
2.9913

> <Gold.PLP.Chemscore.CHOScore>
0.9152

> <Gold.PLP.Chemscore.Metal>
0.0000

> <Gold.Chemscore.Hbonds>
donor molecule, donor type, donor heavy atom, donor atom, acceptor molecule, acceptor atom, score
      L1  H    27    62       P1 10175  2.00
      P1  H  7997  8009       L1    21  1.00
      L1  C    11    42       P1  7949  1.00

> <Gold.PLP.Chemscore.Internal.Correction>
0.5560

> <Gold.Rescore>
     Score         DG    S(hbond)    S(metal)    S(lipo)     H(rot)  DE(clash)    DE(int)     intcor
     10.37     -14.55       1.98        0.00      88.25       3.08       0.72       3.47       ----

> <Gold.Chemscore.Fitness>
10.3663

> <Gold.Chemscore.DG>
-14.5517

> <Gold.Chemscore.ZeroCoef>
-5.4800

> <Gold.Chemscore.Hbond>
1.9823

> <Gold.Chemscore.Metal>
0.0000

> <Gold.Chemscore.Lipo>
88.2474

> <Gold.Chemscore.Internal_Hbond>
0.0000

> <Gold.Chemscore.DEClash>
0.7194

> <Gold.Chemscore.DEInternal>
3.4659

> <Gold.Chemscore.Rot>
3.0758

> <Gold.Chemscore.Internal.Correction>
   9.000000E+99

> <Gold.Chemscore.Hbonds>
donor molecule, donor type, donor heavy atom, donor atom, acceptor molecule, acceptor atom, score
      L1  H    27    62       P1 10175  1.00
      P1  H  7997  8009       L1    21  0.93

> <Gold.Chemscore.Hbond.Weighted>
-6.6209

> <Gold.Chemscore.Metal.Weighted>
-0.0000

> <Gold.Chemscore.Lipo.Weighted>
-10.3249

> <Gold.Chemscore.Internal_Hbond.Weighted>
0.0000

> <Gold.Chemscore.DEClash.Weighted>
0.7194

> <Gold.Chemscore.DEInternal.Weighted>
3.4659

> <Gold.Chemscore.Rot.Weighted>
7.8741

> <Gold.Chemscore.Internal.Correction.Weighted>
   9.000000E+99

> <Gold.Protein.RotatedTorsions>
[ 6907 6896 6895 6894 ] final  -91.58 input  -60.11 | X-H torsion
[ 7974 7965 7964 7962 ] final  -24.63 input  175.53 | X-H torsion
[ 8008 7997 7996 7995 ] final  125.07 input   59.86 | X-H torsion
[ 10167 10162 10161 10158 ] final   74.42 input  -65.29 | X-H torsion
[ 10718 10713 10712 10709 ] final  131.20 input   66.30 | X-H torsion
[ 10763 10752 10751 10750 ] final -155.69 input  -60.55 | X-H torsion
[ 11005 11000 10999 10996 ] final -170.94 input  -57.11 | X-H torsion

> <Gold.Protein.ActiveResidues>
 VAL166  LYS551  ARG553  GLY616  TRP617  ASP618  TYR619  PRO620  LYS621  CYS622 
 ASP623  PHE694  ASN695  SER759  ASP760  ASP761  ALA762  ILE779  LEU786  VAL792 
 PHE793  MET794  SER795  GLU796  ALA797  LYS798  CYS799  TRP800  GLU811  SER814 

> <Gold.Protein.RotatedAtoms>
  150.6894  134.2255  159.4413 H   0  0  0  0  0  0  0  0  0  0  0  0  # atno 6907 bound_to 6896
  152.0209  134.9821  160.0580 H   0  0  0  0  0  0  0  0  0  0  0  0  # atno 6908 bound_to 6896
  152.1398  133.4422  159.4798 H   0  0  0  0  0  0  0  0  0  0  0  0  # atno 6909 bound_to 6896
  146.1542  140.4778  142.8598 H   0  0  0  0  0  0  0  0  0  0  0  0  # atno 7974 bound_to 7965
  156.2822  140.2725  156.1890 H   0  0  0  0  0  0  0  0  0  0  0  0  # atno 8008 bound_to 7997
  155.0478  140.0386  157.2551 H   0  0  0  0  0  0  0  0  0  0  0  0  # atno 8009 bound_to 7997
  154.7220  140.2689  155.6538 H   0  0  0  0  0  0  0  0  0  0  0  0  # atno 8010 bound_to 7997
  140.0139  144.5593  150.7636 H   0  0  0  0  0  0  0  0  0  0  0  0  # atno 10167 bound_to 10162
  157.4990  131.1093  150.9453 H   0  0  0  0  0  0  0  0  0  0  0  0  # atno 10718 bound_to 10713
  154.7768  135.3162  154.8074 H   0  0  0  0  0  0  0  0  0  0  0  0  # atno 10763 bound_to 10752
  153.8795  135.6836  153.4772 H   0  0  0  0  0  0  0  0  0  0  0  0  # atno 10764 bound_to 10752
  153.1394  135.4745  154.9409 H   0  0  0  0  0  0  0  0  0  0  0  0  # atno 10765 bound_to 10752
  140.5138  134.5776  157.5027 H   0  0  0  0  0  0  0  0  0  0  0  0  # atno 11005 bound_to 11000
  144.7942  140.6091  143.6521 LP  0  0  0  0  0  0  0  0  0  0  0  0  # atno 17320 bound_to 7965
  145.4748  139.1500  143.3794 LP  0  0  0  0  0  0  0  0  0  0  0  0  # atno 17321 bound_to 7965
  140.7370  143.2760  151.3740 LP  0  0  0  0  0  0  0  0  0  0  0  0  # atno 17342 bound_to 10162
  139.6186  144.0952  152.2370 LP  0  0  0  0  0  0  0  0  0  0  0  0  # atno 17343 bound_to 10162
  157.0130  130.5644  149.5323 LP  0  0  0  0  0  0  0  0  0  0  0  0  # atno 17370 bound_to 10713
  156.0218  130.5312  150.8295 LP  0  0  0  0  0  0  0  0  0  0  0  0  # atno 17371 bound_to 10713
  139.9644  134.7398  156.0169 LP  0  0  0  0  0  0  0  0  0  0  0  0  # atno 17394 bound_to 11000
  141.1371  133.6572  156.3625 LP  0  0  0  0  0  0  0  0  0  0  0  0  # atno 17395 bound_to 11000

$$$$
