#       Name:                AV-unprocessed.smi:1203
#       Creating user name   scv26
#       Creation time:       Fri Mar 27 04:06:07 2020


#       File generated by GOLD software.
#

@<TRIPOS>MOLECULE
AV-unprocessed.smi:1203
    42    43     1
SMALL
NO_CHARGES


@<TRIPOS>ATOM
      1 ****         0.1122   3.8483  -0.8143 C.3            1 S1                 0.0000
      2 ****        -1.2488   3.0622  -1.7718 S.o2           1 S1                 0.0000
      3 ****        -2.2851   4.0793  -2.0054 O.2            1 S1                 0.0000
      4 ****        -0.6667   2.3294  -2.9068 O.2            1 S1                 0.0000
      5 ****        -1.9020   1.9023  -0.6593 N.pl3          1 S1                 0.0000
      6 ****        -2.8095   2.2799   0.4212 C.3            1 S1                 0.0000
      7 ****        -3.3079   0.9475   0.9737 C.3            1 S1                 0.0000
      8 ****        -2.1369  -0.0054   0.7486 C.3            1 S1                 0.0000
      9 ****        -1.4484   0.5061  -0.5350 C.3            1 S1                 0.0000
     10 ****         0.0741   0.3101  -0.4858 C.2            1 S1                 0.0000
     11 ****         0.7194   0.6723   0.4987 O.2            1 S1                 0.0000
     12 ****         0.6354  -0.2685  -1.5594 N.am           1 S1                 0.0000
     13 ****         2.0566  -0.5659  -1.7200 C.3            1 S1                 0.0000
     14 ****         2.4023  -2.0143  -1.3215 C.3            1 S1                 0.0000
     15 ****         2.0405  -2.3555   0.1141 C.ar           1 S1                 0.0000
     16 ****         2.8150  -1.8593   1.1860 C.ar           1 S1                 0.0000
     17 ****         2.4387  -2.1645   2.5106 C.ar           1 S1                 0.0000
     18 ****         1.2976  -2.9618   2.7334 C.ar           1 S1                 0.0000
     19 ****         0.5835  -3.4226   1.6831 N.pl3          1 S1                 1.0000
     20 ****         0.9106  -3.1527   0.4004 C.ar           1 S1                 0.0000
     21 ****         0.5458   4.6553  -1.4043 H              1 S1                 0.0000
     22 ****         0.8869   3.1170  -0.5919 H              1 S1                 0.0000
     23 ****        -0.2830   4.2561   0.1157 H              1 S1                 0.0000
     24 ****        -2.2537   2.8369   1.1761 H              1 S1                 0.0000
     25 ****        -3.6243   2.9041   0.0534 H              1 S1                 0.0000
     26 ****        -3.6089   1.0100   2.0197 H              1 S1                 0.0000
     27 ****        -4.1705   0.6118   0.3964 H              1 S1                 0.0000
     28 ****        -1.4757   0.0371   1.6156 H              1 S1                 0.0000
     29 ****        -2.4718  -1.0383   0.6495 H              1 S1                 0.0000
     30 ****        -1.8517  -0.0389  -1.3900 H              1 S1                 0.0000
     31 ****         0.0310  -0.5143  -2.3304 H              1 S1                 0.0000
     32 ****         2.3175  -0.4055  -2.7662 H              1 S1                 0.0000
     33 ****         2.6625   0.1383  -1.1474 H              1 S1                 0.0000
     34 ****         1.8945  -2.7089  -1.9921 H              1 S1                 0.0000
     35 ****         3.4700  -2.1867  -1.4617 H              1 S1                 0.0000
     36 ****         3.6810  -1.2416   0.9969 H              1 S1                 0.0000
     37 ****         3.0155  -1.7894   3.3434 H              1 S1                 0.0000
     38 ****         0.9373  -3.2428   3.7123 H              1 S1                 0.0000
     39 ****         0.2561  -3.5701  -0.3511 H              1 S1                 0.0000
     40 ****        -0.2389  -3.9981   1.8665 H              1 S1                 0.0000
     41 ****         0.2523   1.0976   1.2739 LP             1 S1                 0.0000
     42 ****         1.7105   0.5411   0.5228 LP             1 S1                 0.0000
@<TRIPOS>BOND
    1    1    2 1     
    2    1   21 1     
    3    1   22 1     
    4    1   23 1     
    5    2    3 2     
    6    2    4 2     
    7    2    5 1     
    8    5    9 1     
    9    5    6 1     
   10    6    7 1     
   11    6   24 1     
   12    6   25 1     
   13    7    8 1     
   14    7   26 1     
   15    7   27 1     
   16    8    9 1     
   17    8   28 1     
   18    8   29 1     
   19    9   10 1     
   20    9   30 1     
   21   10   11 2     
   22   10   12 am    
   23   12   13 1     
   24   12   31 1     
   25   13   14 1     
   26   13   32 1     
   27   13   33 1     
   28   14   15 1     
   29   14   34 1     
   30   14   35 1     
   31   15   20 ar    
   32   15   16 ar    
   33   16   17 ar    
   34   16   36 1     
   35   17   18 ar    
   36   17   37 1     
   37   18   19 ar    
   38   18   38 1     
   39   19   20 ar    
   40   19   40 1     
   41   20   39 1     
   42   11   41 1     
   43   11   42 1     
@<TRIPOS>SUBSTRUCTURE
      1 S1             1
@<TRIPOS>SET
LONE_PAIRS      STATIC     ATOMS    <user>   **** ""
4 3 4 41 42
DONOR_HYDROGENS      STATIC     ATOMS    <user>   **** ""
2 31 40
ATOM$BLUE        STATIC     ATOMS    COLORGROUP SYSTEM
4 3 4 41 42
ATOM$RED        STATIC     ATOMS    COLORGROUP SYSTEM
2 31 40
