#       Name:                AV-unprocessed.smi:1983
#       Creating user name   scv26
#       Creation time:       Fri Mar 27 10:22:56 2020


#       File generated by GOLD software.
#

@<TRIPOS>MOLECULE
AV-unprocessed.smi:1983
    57    58     1
SMALL
NO_CHARGES


@<TRIPOS>ATOM
      1 ****        -4.8263   0.2992  -1.9682 C.3            1 S1                 0.0000
      2 ****        -4.4445  -0.2949  -3.3351 C.3            1 S1                 0.0000
      3 ****        -5.5957  -1.0975  -3.9660 C.3            1 S1                 0.0000
      4 ****        -6.6178  -0.2302  -4.4087 O.3            1 S1                 0.0000
      5 ****        -3.2739  -1.1583  -3.2033 N.am           1 S1                 0.0000
      6 ****        -1.9996  -0.7428  -3.2199 C.2            1 S1                 0.0000
      7 ****        -1.6567   0.4349  -3.3262 O.2            1 S1                 0.0000
      8 ****        -1.1396  -1.7648  -3.1072 N.am           1 S1                 0.0000
      9 ****         0.3123  -1.6282  -3.1164 C.3            1 S1                 0.0000
     10 ****         0.8680  -1.0589  -1.8222 C.ar           1 S1                 0.0000
     11 ****         0.6590  -1.7203  -0.5925 C.ar           1 S1                 0.0000
     12 ****         1.1898  -1.1677   0.5913 C.ar           1 S1                 0.0000
     13 ****         1.9218   0.0412   0.5250 C.ar           1 S1                 0.0000
     14 ****         2.4852   0.6706   1.6432 N.3            1 S1                 0.0000
     15 ****         1.5079   1.4231   2.4172 C.3            1 S1                 0.0000
     16 ****         2.2114   2.2079   3.5416 C.3            1 S1                 0.0000
     17 ****         1.2124   2.9212   4.4589 C.3            1 S1                 0.0000
     18 ****         2.9797   1.3037   4.3332 O.3            1 S1                 0.0000
     19 ****         3.9895   0.6343   3.5811 C.3            1 S1                 0.0000
     20 ****         4.8069  -0.2399   4.5378 C.3            1 S1                 0.0000
     21 ****         3.3144  -0.1940   2.4726 C.3            1 S1                 0.0000
     22 ****         2.0875   0.6464  -0.6723 N.pl3          1 S1                 1.0000
     23 ****         1.5989   0.1477  -1.8285 C.ar           1 S1                 0.0000
     24 ****        -5.6869   0.9631  -2.0551 H              1 S1                 0.0000
     25 ****        -4.0074   0.8838  -1.5478 H              1 S1                 0.0000
     26 ****        -5.0805  -0.4822  -1.2515 H              1 S1                 0.0000
     27 ****        -4.1925   0.5220  -4.0146 H              1 S1                 0.0000
     28 ****        -5.2400  -1.6580  -4.8316 H              1 S1                 0.0000
     29 ****        -6.0058  -1.8206  -3.2601 H              1 S1                 0.0000
     30 ****        -7.2999  -0.7479  -4.8083 H              1 S1                 0.0000
     31 ****        -3.4501  -2.1478  -3.1075 H              1 S1                 0.0000
     32 ****        -1.5129  -2.6998  -3.0295 H              1 S1                 0.0000
     33 ****         0.7476  -2.6149  -3.2766 H              1 S1                 0.0000
     34 ****         0.6216  -1.0143  -3.9644 H              1 S1                 0.0000
     35 ****         0.0973  -2.6424  -0.5558 H              1 S1                 0.0000
     36 ****         1.0273  -1.6678   1.5347 H              1 S1                 0.0000
     37 ****         0.9673   2.1088   1.7632 H              1 S1                 0.0000
     38 ****         0.7747   0.7352   2.8412 H              1 S1                 0.0000
     39 ****         2.8780   2.9547   3.1065 H              1 S1                 0.0000
     40 ****         0.6071   3.6358   3.9008 H              1 S1                 0.0000
     41 ****         1.7292   3.4689   5.2473 H              1 S1                 0.0000
     42 ****         0.5372   2.2103   4.9358 H              1 S1                 0.0000
     43 ****         4.6548   1.3758   3.1349 H              1 S1                 0.0000
     44 ****         5.6006  -0.7666   4.0069 H              1 S1                 0.0000
     45 ****         4.1787  -0.9851   5.0266 H              1 S1                 0.0000
     46 ****         5.2732   0.3650   5.3159 H              1 S1                 0.0000
     47 ****         2.7047  -0.9796   2.9206 H              1 S1                 0.0000
     48 ****         4.0693  -0.6807   1.8536 H              1 S1                 0.0000
     49 ****         1.8025   0.7288  -2.7163 H              1 S1                 0.0000
     50 ****         2.6119   1.5211  -0.7056 H              1 S1                 0.0000
     51 ****        -6.2471   0.4134  -5.0783 LP             1 S1                 0.0000
     52 ****        -6.9906   0.2759  -3.6309 LP             1 S1                 0.0000
     53 ****        -2.3490   1.1519  -3.4072 LP             1 S1                 0.0000
     54 ****        -0.6858   0.6745  -3.3315 LP             1 S1                 0.0000
     55 ****         3.1243   1.3371   1.2593 LP             1 S1                 0.0000
     56 ****         2.3648   0.6186   4.7238 LP             1 S1                 0.0000
     57 ****         3.4180   1.8174   5.0709 LP             1 S1                 0.0000
@<TRIPOS>BOND
    1    1    2 1     
    2    1   24 1     
    3    1   25 1     
    4    1   26 1     
    5    2    3 1     
    6    2    5 1     
    7    2   27 1     
    8    3    4 1     
    9    3   28 1     
   10    3   29 1     
   11    4   30 1     
   12    5    6 am    
   13    5   31 1     
   14    6    7 2     
   15    6    8 am    
   16    8    9 1     
   17    8   32 1     
   18    9   10 1     
   19    9   33 1     
   20    9   34 1     
   21   10   23 ar    
   22   10   11 ar    
   23   11   12 ar    
   24   11   35 1     
   25   12   13 ar    
   26   12   36 1     
   27   13   14 1     
   28   13   22 ar    
   29   14   21 1     
   30   14   15 1     
   31   15   16 1     
   32   15   37 1     
   33   15   38 1     
   34   16   17 1     
   35   16   18 1     
   36   16   39 1     
   37   17   40 1     
   38   17   41 1     
   39   17   42 1     
   40   18   19 1     
   41   19   20 1     
   42   19   21 1     
   43   19   43 1     
   44   20   44 1     
   45   20   45 1     
   46   20   46 1     
   47   21   47 1     
   48   21   48 1     
   49   22   23 ar    
   50   22   50 1     
   51   23   49 1     
   52    4   51 1     
   53    4   52 1     
   54    7   53 1     
   55    7   54 1     
   56   14   55 1     
   57   18   56 1     
   58   18   57 1     
@<TRIPOS>SUBSTRUCTURE
      1 S1             1
@<TRIPOS>SET
LONE_PAIRS      STATIC     ATOMS    <user>   **** ""
7 51 52 53 54 55 56 57
DONOR_HYDROGENS      STATIC     ATOMS    <user>   **** ""
4 30 31 32 50
ATOM$BLUE        STATIC     ATOMS    COLORGROUP SYSTEM
7 51 52 53 54 55 56 57
ATOM$RED        STATIC     ATOMS    COLORGROUP SYSTEM
4 30 31 32 50
