AV-unprocessed.smi:2881|AV-procd|sdf|11056|dock2
  -GOLD-   2272015523D 1   1.00000     0.00000
 Structure written by MMmdl.
 40 42  0  0  0  0  0  0  0  0  1 V2000
  150.9846  145.0913  158.7759 C   0  0  0  0  0  0  0  0  0  0  0  0
  151.2304  143.6547  158.4626 C   0  0  0  0  0  0  0  0  0  0  0  0
  151.9647  142.7009  159.1089 C   0  0  0  0  0  0  0  0  0  0  0  0
  151.7938  141.5265  158.3176 C   0  0  0  0  0  0  0  0  0  0  0  0
  152.3557  140.1507  158.5667 C   0  0  0  0  0  0  0  0  0  0  0  0
  152.1991  139.2837  157.3159 C   0  0  0  0  0  0  0  0  0  0  0  0
  153.1877  138.7804  156.7831 O   0  0  0  0  0  0  0  0  0  0  0  0
  150.9473  139.1106  156.8660 N   0  0  0  0  0  0  0  0  0  0  0  0
  150.5561  138.2594  155.7446 C   0  0  1  0  0  0  0  0  0  0  0  0
  149.5272  137.1652  156.1364 C   0  0  1  0  0  0  0  0  0  0  0  0
  148.3443  137.7646  156.9275 C   0  0  0  0  0  0  0  0  0  0  0  0
  147.6077  138.5861  155.8549 C   0  0  0  0  0  0  0  0  0  0  0  0
  148.4351  138.3127  154.5804 C   0  0  2  0  0  0  0  0  0  0  0  0
  148.8547  136.8645  154.8012 C   0  0  0  0  0  0  0  0  0  0  0  0
  149.8068  139.0265  154.6160 C   0  0  1  0  0  0  0  0  0  0  0  0
  149.7333  140.5684  154.7053 C   0  0  0  0  0  0  0  0  0  0  0  0
  149.4032  141.1205  153.4478 O   0  0  0  0  0  0  0  0  0  0  0  0
  151.0219  141.7395  157.2599 N   0  0  0  0  0  0  0  0  0  0  0  0
  150.6834  143.0380  157.3614 N   0  0  0  0  0  0  0  0  0  0  0  0
  150.0870  143.4852  156.6798 H   0  0  0  0  0  0  0  0  0  0  0  0
  151.6394  145.4329  159.5778 H   0  0  0  0  0  0  0  0  0  0  0  0
  149.9535  145.2463  159.0938 H   0  0  0  0  0  0  0  0  0  0  0  0
  151.1682  145.7172  157.9025 H   0  0  0  0  0  0  0  0  0  0  0  0
  152.5330  142.8193  160.0196 H   0  0  0  0  0  0  0  0  0  0  0  0
  153.4115  140.1989  158.8371 H   0  0  0  0  0  0  0  0  0  0  0  0
  151.8407  139.6785  159.4042 H   0  0  0  0  0  0  0  0  0  0  0  0
  150.2013  139.5742  157.3642 H   0  0  0  0  0  0  0  0  0  0  0  0
  151.4511  137.7968  155.3246 H   0  0  0  0  0  0  0  0  0  0  0  0
  149.9772  136.2997  156.6235 H   0  0  0  0  0  0  0  0  0  0  0  0
  147.6984  136.9700  157.3035 H   0  0  0  0  0  0  0  0  0  0  0  0
  148.6444  138.3657  157.7856 H   0  0  0  0  0  0  0  0  0  0  0  0
  146.5874  138.2195  155.7355 H   0  0  0  0  0  0  0  0  0  0  0  0
  147.5435  139.6435  156.1082 H   0  0  0  0  0  0  0  0  0  0  0  0
  147.8813  138.4867  153.6575 H   0  0  0  0  0  0  0  0  0  0  0  0
  149.5454  136.4899  154.0437 H   0  0  0  0  0  0  0  0  0  0  0  0
  148.0121  136.1755  154.8845 H   0  0  0  0  0  0  0  0  0  0  0  0
  150.3037  138.7911  153.6727 H   0  0  0  0  0  0  0  0  0  0  0  0
  148.9604  140.8625  155.4156 H   0  0  0  0  0  0  0  0  0  0  0  0
  150.6679  141.0079  155.0532 H   0  0  0  0  0  0  0  0  0  0  0  0
  149.3359  140.4183  152.8188 H   0  0  0  0  0  0  0  0  0  0  0  0
  1  2  1  0  0  0  0
  1 21  1  0  0  0  0
  1 22  1  0  0  0  0
  1 23  1  0  0  0  0
  2 19  1  0  0  0  0
  2  3  2  0  0  0  0
  3  4  1  0  0  0  0
  3 24  1  0  0  0  0
  4  5  1  0  0  0  0
  4 18  2  0  0  0  0
  5  6  1  0  0  0  0
  5 25  1  0  0  0  0
  5 26  1  0  0  0  0
  6  7  2  0  0  0  0
  6  8  1  0  0  0  0
  8  9  1  0  0  0  0
  8 27  1  0  0  0  0
  9 15  1  0  0  0  0
  9 10  1  0  0  0  0
  9 28  1  0  0  0  0
 10 14  1  0  0  0  0
 10 11  1  0  0  0  0
 10 29  1  0  0  0  0
 11 12  1  0  0  0  0
 11 30  1  0  0  0  0
 11 31  1  0  0  0  0
 12 13  1  0  0  0  0
 12 32  1  0  0  0  0
 12 33  1  0  0  0  0
 13 14  1  0  0  0  0
 13 15  1  0  0  0  0
 13 34  1  0  0  0  0
 14 35  1  0  0  0  0
 14 36  1  0  0  0  0
 15 16  1  0  0  0  0
 15 37  1  0  0  0  0
 16 17  1  0  0  0  0
 16 38  1  0  0  0  0
 16 39  1  0  0  0  0
 17 40  1  0  0  0  0
 18 19  1  0  0  0  0
 19 20  1  0  0  0  0
M  END
> <s_m_source_file>
AV-unprocessed.smi

> <i_m_source_file_index>
2881

> <i_lp_mmshare_version>
43012

> <i_f3d_flags>
0

> <s_epik_input>
W0NIM11jMVtjSF1jKG5bbkhdMSlbQ0gyXUMoPU8pW05IXVtDQEhdKFtDQEBIXTIzKVtDQEhdKFtDSDJdW09IXSlbQ0BASF0oW0NIMl0zKVtDSDJdW0NIMl0y

> <s_epik_cmdline>
J2VwaWtfcHl0aG9uJywgJy1waCcsICc3LjAnLCAnLXRuJywgJzgnLCAnLW1hJywgJzIwMCcsICctbWV0YWxfYmluZGluZycsICctaW1hZScsICc8aW5maWxlLm1hZT4nLCAnLW9tYWUnLCAnPG91dGZpbGUubWFlPic=

> <r_lp_tautomer_probability>
0.5

> <r_epik_Ionization_Penalty>
9.4349e-05

> <r_epik_Ionization_Penalty_Charging>
0

> <r_epik_Ionization_Penalty_Neutral>
9.4349e-05

> <r_epik_State_Penalty>
0.41068

> <r_epik_Charging_Adjusted_Penalty>
0.41068

> <i_epik_Tot_Q>
0

> <i_epik_Tot_abs_Q>
0

> <r_epik_Metal_State_Penalty>
0.4107

> <b_epik_Metal_Only>
0

> <s_lp_Force_Field>
OPLS_2005

> <r_lp_Energy>
48.3908

> <b_lp_Chiralities_Consistent>
1

> <s_lp_Variant>
AV-unprocessed.smi:2881-2

> <Gold.Version>
5.8.1

> <Gold.Id.Protein>
6NUR|6NUR_protein|mol2

> <Gold.PLP.Fitness>
38.3737

> <Gold.PLP.PLP>
-27.7367

> <Gold.PLP.part.hbond>
-5.0000

> <Gold.PLP.part.metal>
0.0000

> <Gold.PLP.part.buried>
-3.6189

> <Gold.PLP.part.nonpolar>
-18.8286

> <Gold.PLP.part.repulsive>
0.0865

> <Gold.PLP.ligand.clash>
0.0000

> <Gold.PLP.ligand.torsion>
0.3162

> <Gold.PLP.Chemscore.Hbond>
3.7520

> <Gold.PLP.Chemscore.CHOScore>
0.0000

> <Gold.PLP.Chemscore.Metal>
0.0000

> <Gold.Chemscore.Hbonds>
donor molecule, donor type, donor heavy atom, donor atom, acceptor molecule, acceptor atom, score
      L1  H    17    40       P1  7957  0.83
      L1  H    19    20       P1  8028  1.00
      P1  H  7997  8009       L1     7  1.00
      P1  H  8011  8017       L1    17  0.90

> <Gold.PLP.Chemscore.Internal.Correction>
0.0134

> <Gold.Rescore>
     Score         DG    S(hbond)    S(metal)    S(lipo)     H(rot)  DE(clash)    DE(int)     intcor
     16.60     -18.29       3.01        0.00      73.31       2.28       0.03       1.66       ----

> <Gold.Chemscore.Fitness>
16.5980

> <Gold.Chemscore.DG>
-18.2897

> <Gold.Chemscore.ZeroCoef>
-5.4800

> <Gold.Chemscore.Hbond>
3.0111

> <Gold.Chemscore.Metal>
0.0000

> <Gold.Chemscore.Lipo>
73.3135

> <Gold.Chemscore.Internal_Hbond>
0.0000

> <Gold.Chemscore.DEClash>
0.0348

> <Gold.Chemscore.DEInternal>
1.6569

> <Gold.Chemscore.Rot>
2.2755

> <Gold.Chemscore.Internal.Correction>
   9.000000E+99

> <Gold.Chemscore.Hbonds>
donor molecule, donor type, donor heavy atom, donor atom, acceptor molecule, acceptor atom, score
      L1  H    17    40       P1  7957  0.83
      L1  H    19    20       P1  8028  0.97
      P1  H  7997  8009       L1     7  0.60
      P1  H  8011  8017       L1    17  0.17

> <Gold.Chemscore.Hbond.Weighted>
-10.0572

> <Gold.Chemscore.Metal.Weighted>
-0.0000

> <Gold.Chemscore.Lipo.Weighted>
-8.5777

> <Gold.Chemscore.Internal_Hbond.Weighted>
0.0000

> <Gold.Chemscore.DEClash.Weighted>
0.0348

> <Gold.Chemscore.DEInternal.Weighted>
1.6569

> <Gold.Chemscore.Rot.Weighted>
5.8252

> <Gold.Chemscore.Internal.Correction.Weighted>
   9.000000E+99

> <Gold.Protein.RotatedTorsions>
[ 6907 6896 6895 6894 ] final    6.26 input  -60.11 | X-H torsion
[ 7974 7965 7964 7962 ] final -103.11 input  175.53 | X-H torsion
[ 8008 7997 7996 7995 ] final -175.23 input   59.86 | X-H torsion
[ 10167 10162 10161 10158 ] final -117.02 input  -65.29 | X-H torsion
[ 10718 10713 10712 10709 ] final  137.46 input   66.30 | X-H torsion
[ 10763 10752 10751 10750 ] final  -70.22 input  -60.55 | X-H torsion
[ 11005 11000 10999 10996 ] final   46.65 input  -57.11 | X-H torsion

> <Gold.Protein.ActiveResidues>
 VAL166  LYS551  ARG553  GLY616  TRP617  ASP618  TYR619  PRO620  LYS621  CYS622 
 ASP623  PHE694  ASN695  SER759  ASP760  ASP761  ALA762  ILE779  LEU786  VAL792 
 PHE793  MET794  SER795  GLU796  ALA797  LYS798  CYS799  TRP800  GLU811  SER814 

> <Gold.Protein.RotatedAtoms>
  151.6709  135.0976  160.0197 H   0  0  0  0  0  0  0  0  0  0  0  0  # atno 6907 bound_to 6896
  152.3892  133.6650  159.6232 H   0  0  0  0  0  0  0  0  0  0  0  0  # atno 6908 bound_to 6896
  150.7811  133.8900  159.3351 H   0  0  0  0  0  0  0  0  0  0  0  0  # atno 6909 bound_to 6896
  145.2601  140.9266  143.3046 H   0  0  0  0  0  0  0  0  0  0  0  0  # atno 7974 bound_to 7965
  155.9799  140.1179  157.0736 H   0  0  0  0  0  0  0  0  0  0  0  0  # atno 8008 bound_to 7997
  154.4180  140.1146  156.5489 H   0  0  0  0  0  0  0  0  0  0  0  0  # atno 8009 bound_to 7997
  155.6484  140.3473  155.4742 H   0  0  0  0  0  0  0  0  0  0  0  0  # atno 8010 bound_to 7997
  140.0728  143.4861  152.1970 H   0  0  0  0  0  0  0  0  0  0  0  0  # atno 10167 bound_to 10162
  157.4358  131.1053  151.0199 H   0  0  0  0  0  0  0  0  0  0  0  0  # atno 10718 bound_to 10713
  154.4146  135.6001  153.5973 H   0  0  0  0  0  0  0  0  0  0  0  0  # atno 10763 bound_to 10752
  152.9791  135.5937  154.4028 H   0  0  0  0  0  0  0  0  0  0  0  0  # atno 10764 bound_to 10752
  154.3845  135.2841  155.2170 H   0  0  0  0  0  0  0  0  0  0  0  0  # atno 10765 bound_to 10752
  140.1349  134.4657  155.8493 H   0  0  0  0  0  0  0  0  0  0  0  0  # atno 11005 bound_to 11000
  144.9426  139.4172  143.6441 LP  0  0  0  0  0  0  0  0  0  0  0  0  # atno 17320 bound_to 7965
  146.3278  139.8394  142.8893 LP  0  0  0  0  0  0  0  0  0  0  0  0  # atno 17321 bound_to 7965
  139.5825  144.7517  151.3602 LP  0  0  0  0  0  0  0  0  0  0  0  0  # atno 17342 bound_to 10162
  140.7117  143.7373  150.7579 LP  0  0  0  0  0  0  0  0  0  0  0  0  # atno 17343 bound_to 10162
  157.1080  130.6009  149.5475 LP  0  0  0  0  0  0  0  0  0  0  0  0  # atno 17370 bound_to 10713
  155.9930  130.4989  150.7362 LP  0  0  0  0  0  0  0  0  0  0  0  0  # atno 17371 bound_to 10713
  141.2176  133.6810  156.7139 LP  0  0  0  0  0  0  0  0  0  0  0  0  # atno 17394 bound_to 11000
  140.2794  134.8328  157.3920 LP  0  0  0  0  0  0  0  0  0  0  0  0  # atno 17395 bound_to 11000

$$$$
