AV-unprocessed.smi:710|AV-procd|sdf|3463|dock9
  -GOLD-   22720 0453D 1   1.00000     0.00000
 Structure written by MMmdl.
 40 41  0  0  0  0  0  0  0  0  1 V2000
  154.2374  140.5872  160.8711 C   0  0  0  0  0  0  0  0  0  0  0  0
  153.2189  141.5138  160.2704 C   0  0  0  0  0  0  0  0  0  0  0  0
  153.3071  142.8090  160.5198 N   0  0  0  0  0  0  0  0  0  0  0  0
  152.2750  143.3620  159.8534 N   0  0  0  0  0  0  0  0  0  0  0  0
  152.0969  144.8000  159.9234 C   0  0  0  0  0  0  0  0  0  0  0  0
  151.5294  142.4112  159.1801 C   0  0  0  0  0  0  0  0  0  0  0  0
  150.3304  142.7639  158.3589 C   0  0  0  0  0  0  0  0  0  0  0  0
  152.1121  141.1962  159.4283 C   0  0  0  0  0  0  0  0  0  0  0  0
  151.6982  139.8330  158.9335 C   0  0  0  0  0  0  0  0  0  0  0  0
  151.4346  139.8910  157.4289 C   0  0  0  0  0  0  0  0  0  0  0  0
  152.3703  140.0533  156.6466 O   0  0  0  0  0  0  0  0  0  0  0  0
  150.1567  139.7633  157.0413 N   0  0  0  0  0  0  0  0  0  0  0  0
  149.6848  139.8018  155.6599 C   0  0  0  0  0  0  0  0  0  0  0  0
  148.7695  141.0143  155.3608 C   0  0  2  0  0  0  0  0  0  0  0  0
  149.5439  142.1929  155.4953 O   0  0  0  0  0  0  0  0  0  0  0  0
  147.6164  141.1250  156.3730 C   0  0  0  0  0  0  0  0  0  0  0  0
  146.6174  142.1575  155.8396 C   0  0  0  0  0  0  0  0  0  0  0  0
  146.6310  142.0501  154.0322 S   0  0  0  0  0  0  0  0  0  0  0  0
  148.1019  140.9915  153.9735 C   0  0  0  0  0  0  0  0  0  0  0  0
  154.2539  139.6253  160.3592 H   0  0  0  0  0  0  0  0  0  0  0  0
  154.0214  140.3994  161.9229 H   0  0  0  0  0  0  0  0  0  0  0  0
  155.2413  141.0076  160.8070 H   0  0  0  0  0  0  0  0  0  0  0  0
  151.1746  145.1026  159.4287 H   0  0  0  0  0  0  0  0  0  0  0  0
  152.9365  145.2968  159.4368 H   0  0  0  0  0  0  0  0  0  0  0  0
  152.0529  145.1151  160.9664 H   0  0  0  0  0  0  0  0  0  0  0  0
  149.8831  141.8791  157.9073 H   0  0  0  0  0  0  0  0  0  0  0  0
  150.6007  143.4468  157.5533 H   0  0  0  0  0  0  0  0  0  0  0  0
  149.5684  143.2452  158.9720 H   0  0  0  0  0  0  0  0  0  0  0  0
  152.4716  139.0891  159.1277 H   0  0  0  0  0  0  0  0  0  0  0  0
  150.8056  139.4712  159.4448 H   0  0  0  0  0  0  0  0  0  0  0  0
  149.4568  139.6379  157.7578 H   0  0  0  0  0  0  0  0  0  0  0  0
  150.5826  139.8689  155.0449 H   0  0  0  0  0  0  0  0  0  0  0  0
  149.2040  138.8628  155.3789 H   0  0  0  0  0  0  0  0  0  0  0  0
  148.9629  142.9379  155.4729 H   0  0  0  0  0  0  0  0  0  0  0  0
  147.1092  140.1620  156.4500 H   0  0  0  0  0  0  0  0  0  0  0  0
  147.9648  141.3782  157.3753 H   0  0  0  0  0  0  0  0  0  0  0  0
  145.6139  141.9986  156.2347 H   0  0  0  0  0  0  0  0  0  0  0  0
  146.9284  143.1634  156.1228 H   0  0  0  0  0  0  0  0  0  0  0  0
  148.7769  141.3025  153.1750 H   0  0  0  0  0  0  0  0  0  0  0  0
  147.7635  139.9813  153.7402 H   0  0  0  0  0  0  0  0  0  0  0  0
  1  2  1  0  0  0  0
  1 20  1  0  0  0  0
  1 21  1  0  0  0  0
  1 22  1  0  0  0  0
  2  8  1  0  0  0  0
  2  3  2  0  0  0  0
  3  4  1  0  0  0  0
  4  5  1  0  0  0  0
  4  6  1  0  0  0  0
  5 23  1  0  0  0  0
  5 24  1  0  0  0  0
  5 25  1  0  0  0  0
  6  7  1  0  0  0  0
  6  8  2  0  0  0  0
  7 26  1  0  0  0  0
  7 27  1  0  0  0  0
  7 28  1  0  0  0  0
  8  9  1  0  0  0  0
  9 10  1  0  0  0  0
  9 29  1  0  0  0  0
  9 30  1  0  0  0  0
 10 11  2  0  0  0  0
 10 12  1  0  0  0  0
 12 13  1  0  0  0  0
 12 31  1  0  0  0  0
 13 14  1  0  0  0  0
 13 32  1  0  0  0  0
 13 33  1  0  0  0  0
 14 19  1  0  0  0  0
 14 15  1  0  0  0  0
 14 16  1  0  0  0  0
 15 34  1  0  0  0  0
 16 17  1  0  0  0  0
 16 35  1  0  0  0  0
 16 36  1  0  0  0  0
 17 18  1  0  0  0  0
 17 37  1  0  0  0  0
 17 38  1  0  0  0  0
 18 19  1  0  0  0  0
 19 39  1  0  0  0  0
 19 40  1  0  0  0  0
M  END
> <s_m_source_file>
AV-unprocessed.smi

> <i_m_source_file_index>
710

> <i_lp_mmshare_version>
43012

> <i_f3d_flags>
0

> <s_epik_input>
W0NIM11jMW5uKFtDSDNdKWMoW0NIM10pYzFbQ0gyXUMoPU8pW05IXVtDSDJdW0NAQF0yKFtPSF0pW0NIMl1bQ0gyXVNbQ0gyXTI=

> <s_epik_cmdline>
J2VwaWtfcHl0aG9uJywgJy1waCcsICc3LjAnLCAnLXRuJywgJzgnLCAnLW1hJywgJzIwMCcsICctbWV0YWxfYmluZGluZycsICctaW1hZScsICc8aW5maWxlLm1hZT4nLCAnLW9tYWUnLCAnPG91dGZpbGUubWFlPic=

> <r_lp_tautomer_probability>
1

> <r_epik_Ionization_Penalty>
0.00343686

> <r_epik_Ionization_Penalty_Charging>
0

> <r_epik_Ionization_Penalty_Neutral>
0.00343686

> <r_epik_State_Penalty>
0.00243544

> <r_epik_Charging_Adjusted_Penalty>
0.00243544

> <i_epik_Tot_Q>
0

> <i_epik_Tot_abs_Q>
0

> <r_epik_Metal_State_Penalty>
-0

> <b_epik_Metal_Only>
0

> <s_lp_Force_Field>
OPLS_2005

> <r_lp_Energy>
11.3483

> <b_lp_Chiralities_Consistent>
1

> <s_lp_Variant>
AV-unprocessed.smi:710-2

> <Gold.Version>
5.8.1

> <Gold.Id.Protein>
6NUR|6NUR_protein|mol2

> <Gold.PLP.Fitness>
43.4274

> <Gold.PLP.PLP>
-37.9562

> <Gold.PLP.part.hbond>
-2.0000

> <Gold.PLP.part.metal>
0.0000

> <Gold.PLP.part.buried>
-3.5442

> <Gold.PLP.part.nonpolar>
-31.1605

> <Gold.PLP.part.repulsive>
0.0108

> <Gold.PLP.ligand.clash>
0.0000

> <Gold.PLP.ligand.torsion>
0.2721

> <Gold.PLP.Chemscore.Hbond>
2.0000

> <Gold.PLP.Chemscore.CHOScore>
0.0000

> <Gold.PLP.Chemscore.Metal>
0.0000

> <Gold.Chemscore.Hbonds>
donor molecule, donor type, donor heavy atom, donor atom, acceptor molecule, acceptor atom, score
      L1  H    15    34       P1  8028  0.90
      P1  H  7997  8008       L1    11  1.00

> <Gold.PLP.Chemscore.Internal.Correction>
0.0155

> <Gold.Rescore>
     Score         DG    S(hbond)    S(metal)    S(lipo)     H(rot)  DE(clash)    DE(int)     intcor
     16.25     -16.71       1.73        0.00      92.10       2.07       0.12       0.34       ----

> <Gold.Chemscore.Fitness>
16.2481

> <Gold.Chemscore.DG>
-16.7137

> <Gold.Chemscore.ZeroCoef>
-5.4800

> <Gold.Chemscore.Hbond>
1.7274

> <Gold.Chemscore.Metal>
0.0000

> <Gold.Chemscore.Lipo>
92.1034

> <Gold.Chemscore.Internal_Hbond>
0.0000

> <Gold.Chemscore.DEClash>
0.1243

> <Gold.Chemscore.DEInternal>
0.3413

> <Gold.Chemscore.Rot>
2.0750

> <Gold.Chemscore.Internal.Correction>
   9.000000E+99

> <Gold.Chemscore.Hbonds>
donor molecule, donor type, donor heavy atom, donor atom, acceptor molecule, acceptor atom, score
      L1  H    15    34       P1  8028  0.88
      P1  H  7997  8008       L1    11  0.95

> <Gold.Chemscore.Hbond.Weighted>
-5.7696

> <Gold.Chemscore.Metal.Weighted>
-0.0000

> <Gold.Chemscore.Lipo.Weighted>
-10.7761

> <Gold.Chemscore.Internal_Hbond.Weighted>
0.0000

> <Gold.Chemscore.DEClash.Weighted>
0.1243

> <Gold.Chemscore.DEInternal.Weighted>
0.3413

> <Gold.Chemscore.Rot.Weighted>
5.3120

> <Gold.Chemscore.Internal.Correction.Weighted>
   9.000000E+99

> <Gold.Protein.RotatedTorsions>
[ 6907 6896 6895 6894 ] final  -56.09 input  -60.11 | X-H torsion
[ 7974 7965 7964 7962 ] final   -0.47 input  175.53 | X-H torsion
[ 8008 7997 7996 7995 ] final  -59.26 input   59.86 | X-H torsion
[ 10167 10162 10161 10158 ] final -136.06 input  -65.29 | X-H torsion
[ 10718 10713 10712 10709 ] final   -7.37 input   66.30 | X-H torsion
[ 10763 10752 10751 10750 ] final  -55.65 input  -60.55 | X-H torsion
[ 11005 11000 10999 10996 ] final -158.54 input  -57.11 | X-H torsion

> <Gold.Protein.ActiveResidues>
 VAL166  LYS551  ARG553  GLY616  TRP617  ASP618  TYR619  PRO620  LYS621  CYS622 
 ASP623  PHE694  ASN695  SER759  ASP760  ASP761  ALA762  ILE779  LEU786  VAL792 
 PHE793  MET794  SER795  GLU796  ALA797  LYS798  CYS799  TRP800  GLU811  SER814 

> <Gold.Protein.RotatedAtoms>
  150.8196  134.7397  159.6760 H   0  0  0  0  0  0  0  0  0  0  0  0  # atno 6907 bound_to 6896
  152.4313  134.5769  159.9946 H   0  0  0  0  0  0  0  0  0  0  0  0  # atno 6908 bound_to 6896
  151.5956  133.3324  159.3073 H   0  0  0  0  0  0  0  0  0  0  0  0  # atno 6909 bound_to 6896
  146.2427  140.1274  142.8339 H   0  0  0  0  0  0  0  0  0  0  0  0  # atno 7974 bound_to 7965
  154.4344  140.1066  156.6087 H   0  0  0  0  0  0  0  0  0  0  0  0  # atno 8008 bound_to 7997
  155.5833  140.3491  155.4527 H   0  0  0  0  0  0  0  0  0  0  0  0  # atno 8009 bound_to 7997
  156.0302  140.1259  157.0255 H   0  0  0  0  0  0  0  0  0  0  0  0  # atno 8010 bound_to 7997
  139.8716  143.6951  152.2639 H   0  0  0  0  0  0  0  0  0  0  0  0  # atno 10167 bound_to 10162
  156.7181  130.5142  149.5875 H   0  0  0  0  0  0  0  0  0  0  0  0  # atno 10718 bound_to 10713
  154.1941  135.6422  153.5068 H   0  0  0  0  0  0  0  0  0  0  0  0  # atno 10763 bound_to 10752
  153.0028  135.5436  154.6384 H   0  0  0  0  0  0  0  0  0  0  0  0  # atno 10764 bound_to 10752
  154.5780  135.2922  155.0734 H   0  0  0  0  0  0  0  0  0  0  0  0  # atno 10765 bound_to 10752
  140.6524  134.4436  157.5235 H   0  0  0  0  0  0  0  0  0  0  0  0  # atno 11005 bound_to 11000
  145.0355  140.8904  143.5084 LP  0  0  0  0  0  0  0  0  0  0  0  0  # atno 17320 bound_to 7965
  145.1346  139.2610  143.5522 LP  0  0  0  0  0  0  0  0  0  0  0  0  # atno 17321 bound_to 7965
  139.7279  144.7589  151.0849 LP  0  0  0  0  0  0  0  0  0  0  0  0  # atno 17342 bound_to 10162
  140.7760  143.5125  150.9635 LP  0  0  0  0  0  0  0  0  0  0  0  0  # atno 17343 bound_to 10162
  156.1613  130.6376  151.0723 LP  0  0  0  0  0  0  0  0  0  0  0  0  # atno 17370 bound_to 10713
  157.6909  131.0810  150.7110 LP  0  0  0  0  0  0  0  0  0  0  0  0  # atno 17371 bound_to 10713
  139.9041  134.8489  156.1776 LP  0  0  0  0  0  0  0  0  0  0  0  0  # atno 17394 bound_to 11000
  141.0526  133.6881  156.1801 LP  0  0  0  0  0  0  0  0  0  0  0  0  # atno 17395 bound_to 11000

$$$$
