#       Name:                AV-unprocessed.smi:283
#       Creating user name   scv26
#       Creation time:       Thu Mar 26 21:44:04 2020


#       File generated by GOLD software.
#

@<TRIPOS>MOLECULE
AV-unprocessed.smi:283
    59    62     1
SMALL
NO_CHARGES


@<TRIPOS>ATOM
      1 ****        -5.3047  -0.3152   0.5852 C.3            1 S1                 0.0000
      2 ****        -3.7907  -0.0984   0.4582 C.3            1 S1                 0.0000
      3 ****        -3.4700   1.3026   0.7237 N.pl3          1 S1                 0.0000
      4 ****        -2.1944   1.7474   0.6856 C.ar           1 S1                 0.0000
      5 ****        -2.0428   3.0637   0.4056 N.ar           1 S1                 0.0000
      6 ****        -0.8204   3.5955   0.3221 C.ar           1 S1                 0.0000
      7 ****         0.3615   2.9993   0.4874 N.ar           1 S1                 0.0000
      8 ****         0.2183   1.6755   0.7868 C.ar           1 S1                 0.0000
      9 ****        -1.0159   0.9749   0.9068 C.ar           1 S1                 0.0000
     10 ****        -0.7575  -0.3516   1.2291 N.2            1 S1                 0.0000
     11 ****         0.5437  -0.4289   1.2722 C.2            1 S1                 0.0000
     12 ****         1.2140   0.7531   1.0328 N.pl3          1 S1                 0.0000
     13 ****         2.6893   1.0277   0.9769 C.3            1 S1                 0.0000
     14 ****         3.1733   0.4860  -0.2139 O.3            1 S1                 0.0000
     15 ****         3.7257  -0.8015   0.0323 C.3            1 S1                 0.0000
     16 ****         4.6488  -1.2423  -1.1183 C.3            1 S1                 0.0000
     17 ****         3.8848  -1.7923  -2.1704 O.3            1 S1                 0.0000
     18 ****         4.4048  -0.6038   1.3956 C.3            1 S1                 0.0000
     19 ****         5.6985  -0.0446   1.2317 O.3            1 S1                 0.0000
     20 ****         3.4414   0.3350   2.1301 C.3            1 S1                 0.0000
     21 ****         4.1047   1.2495   2.9829 O.3            1 S1                 0.0000
     22 ****        -3.2890  -0.6269  -0.8890 C.ar           1 S1                 0.0000
     23 ****        -3.2909   0.2183  -2.0234 C.ar           1 S1                 0.0000
     24 ****        -2.8279  -0.2477  -3.2679 C.ar           1 S1                 0.0000
     25 ****        -2.3663  -1.5698  -3.3953 C.ar           1 S1                 0.0000
     26 ****        -2.3745  -2.4250  -2.2782 C.ar           1 S1                 0.0000
     27 ****        -2.8365  -1.9634  -1.0293 C.ar           1 S1                 0.0000
     28 ****        -2.8368  -3.0641   0.3043 Cl             1 S1                 0.0000
     29 ****         2.7869   2.1136   0.9745 H              1 S1                 0.0000
     30 ****         2.9189  -1.5254   0.1488 H              1 S1                 0.0000
     31 ****         4.5170  -1.5515   1.9233 H              1 S1                 0.0000
     32 ****         2.7479  -0.2460   2.7374 H              1 S1                 0.0000
     33 ****        -5.5601  -1.3700   0.4795 H              1 S1                 0.0000
     34 ****        -5.8511   0.2375  -0.1800 H              1 S1                 0.0000
     35 ****        -5.6689   0.0137   1.5590 H              1 S1                 0.0000
     36 ****        -3.3246  -0.6693   1.2592 H              1 S1                 0.0000
     37 ****        -4.2539   1.9343   0.6485 H              1 S1                 0.0000
     38 ****        -0.7840   4.6490   0.0871 H              1 S1                 0.0000
     39 ****         1.0417  -1.3616   1.4902 H              1 S1                 0.0000
     40 ****         5.2533  -0.4129  -1.4867 H              1 S1                 0.0000
     41 ****         5.3339  -2.0177  -0.7738 H              1 S1                 0.0000
     42 ****         3.4008  -2.5322  -1.8370 H              1 S1                 0.0000
     43 ****         5.6085   0.8030   0.8234 H              1 S1                 0.0000
     44 ****         3.4573   1.8078   3.3861 H              1 S1                 0.0000
     45 ****        -3.6457   1.2354  -1.9453 H              1 S1                 0.0000
     46 ****        -2.8287   0.4096  -4.1248 H              1 S1                 0.0000
     47 ****        -2.0113  -1.9292  -4.3500 H              1 S1                 0.0000
     48 ****        -2.0265  -3.4423  -2.3813 H              1 S1                 0.0000
     49 ****        -2.8480   3.6389   0.2610 LP             1 S1                 0.0000
     50 ****         1.2426   3.4645   0.4025 LP             1 S1                 0.0000
     51 ****        -1.4202  -1.0827   1.3915 LP             1 S1                 0.0000
     52 ****         3.8813   1.0852  -0.5877 LP             1 S1                 0.0000
     53 ****         2.4237   0.4056  -0.8710 LP             1 S1                 0.0000
     54 ****         4.4916  -2.0910  -2.9070 LP             1 S1                 0.0000
     55 ****         3.2492  -1.1042  -2.5206 LP             1 S1                 0.0000
     56 ****         6.2531  -0.6413   0.6518 LP             1 S1                 0.0000
     57 ****         6.1384   0.0557   2.1241 LP             1 S1                 0.0000
     58 ****         4.7439   1.8044   2.4504 LP             1 S1                 0.0000
     59 ****         4.6057   0.7494   3.6892 LP             1 S1                 0.0000
@<TRIPOS>BOND
    1    1    2 1     
    2    1   33 1     
    3    1   34 1     
    4    1   35 1     
    5    2    3 1     
    6    2   22 1     
    7    2   36 1     
    8    3    4 1     
    9    3   37 1     
   10    4    9 ar    
   11    4    5 ar    
   12    5    6 ar    
   13    6    7 ar    
   14    6   38 1     
   15    7    8 ar    
   16    8   12 1     
   17    8    9 ar    
   18    9   10 1     
   19   10   11 2     
   20   11   12 1     
   21   11   39 1     
   22   12   13 1     
   23   13   29 1     
   24   13   20 1     
   25   13   14 1     
   26   14   15 1     
   27   15   30 1     
   28   15   16 1     
   29   15   18 1     
   30   16   17 1     
   31   16   40 1     
   32   16   41 1     
   33   17   42 1     
   34   18   31 1     
   35   18   19 1     
   36   18   20 1     
   37   19   43 1     
   38   20   32 1     
   39   20   21 1     
   40   21   44 1     
   41   22   27 ar    
   42   22   23 ar    
   43   23   24 ar    
   44   23   45 1     
   45   24   25 ar    
   46   24   46 1     
   47   25   26 ar    
   48   25   47 1     
   49   26   27 ar    
   50   26   48 1     
   51   27   28 1     
   52    5   49 1     
   53    7   50 1     
   54   10   51 1     
   55   14   52 1     
   56   14   53 1     
   57   17   54 1     
   58   17   55 1     
   59   19   56 1     
   60   19   57 1     
   61   21   58 1     
   62   21   59 1     
@<TRIPOS>SUBSTRUCTURE
      1 S1             1
@<TRIPOS>SET
LONE_PAIRS      STATIC     ATOMS    <user>   **** ""
11 49 50 51 52 53 54 55 56 57 58 59
DONOR_HYDROGENS      STATIC     ATOMS    <user>   **** ""
4 37 42 43 44
ATOM$BLUE        STATIC     ATOMS    COLORGROUP SYSTEM
11 49 50 51 52 53 54 55 56 57 58 59
ATOM$RED        STATIC     ATOMS    COLORGROUP SYSTEM
4 37 42 43 44
