#       Name:                AV-unprocessed.smi:3268
#       Creating user name   scv26
#       Creation time:       Fri Mar 27 18:41:46 2020


#       File generated by GOLD software.
#

@<TRIPOS>MOLECULE
AV-unprocessed.smi:3268
    44    45     1
SMALL
NO_CHARGES


@<TRIPOS>ATOM
      1 ****        -3.8191  -2.5198   1.6501 C.3            1 S1                 0.0000
      2 ****        -3.3463  -1.6605   0.4596 C.3            1 S1                 0.0000
      3 ****        -1.8257  -1.4226   0.4556 C.2            1 S1                 0.0000
      4 ****        -1.0878  -2.0374   1.2268 O.2            1 S1                 0.0000
      5 ****        -1.3648  -0.5145  -0.4202 N.am           1 S1                 0.0000
      6 ****         0.0407  -0.1741  -0.6056 C.3            1 S1                 0.0000
      7 ****         0.5292   0.8221   0.4638 C.3            1 S1                 0.0000
      8 ****         1.9775   1.1263   0.3397 N.4            1 S1                 1.0000
      9 ****         2.5476   1.6583   1.6057 C.3            1 S1                 0.0000
     10 ****         4.0724   1.8312   1.5027 C.3            1 S1                 0.0000
     11 ****         4.4455   2.7311   0.3179 C.3            1 S1                 0.0000
     12 ****         3.8205   2.1831  -0.9711 C.3            1 S1                 0.0000
     13 ****         2.3004   2.0069  -0.8156 C.3            1 S1                 0.0000
     14 ****        -3.7835  -2.2198  -0.8142 N.pl3          1 S1                 0.0000
     15 ****        -4.4226  -1.6404  -1.8327 C.2            1 S1                 0.0000
     16 ****        -4.6352  -2.4460  -2.8636 N.2            1 S1                 0.0000
     17 ****        -4.0595  -3.5879  -2.3834 C.2            1 S1                 0.0000
     18 ****        -3.5266  -3.5049  -1.1644 N.2            1 S1                 0.0000
     19 ****        -3.5566  -2.0558   2.6014 H              1 S1                 0.0000
     20 ****        -3.3770  -3.5169   1.6350 H              1 S1                 0.0000
     21 ****        -4.9027  -2.6404   1.6352 H              1 S1                 0.0000
     22 ****        -3.8185  -0.6818   0.5591 H              1 S1                 0.0000
     23 ****        -2.0327  -0.0492  -1.0179 H              1 S1                 0.0000
     24 ****         0.6489  -1.0802  -0.5912 H              1 S1                 0.0000
     25 ****         0.1374   0.2482  -1.6049 H              1 S1                 0.0000
     26 ****        -0.0484   1.7470   0.4252 H              1 S1                 0.0000
     27 ****         0.3459   0.3857   1.4468 H              1 S1                 0.0000
     28 ****         2.0755   2.6126   1.8453 H              1 S1                 0.0000
     29 ****         2.3224   0.9781   2.4282 H              1 S1                 0.0000
     30 ****         4.4635   2.2540   2.4288 H              1 S1                 0.0000
     31 ****         4.5444   0.8550   1.3845 H              1 S1                 0.0000
     32 ****         4.0896   3.7463   0.4984 H              1 S1                 0.0000
     33 ****         5.5294   2.7924   0.2159 H              1 S1                 0.0000
     34 ****         4.0354   2.8541  -1.8033 H              1 S1                 0.0000
     35 ****         4.2767   1.2243  -1.2213 H              1 S1                 0.0000
     36 ****         1.9026   1.5882  -1.7389 H              1 S1                 0.0000
     37 ****         1.8228   2.9783  -0.6786 H              1 S1                 0.0000
     38 ****        -4.7356  -0.6067  -1.8218 H              1 S1                 0.0000
     39 ****        -4.0270  -4.5057  -2.9517 H              1 S1                 0.0000
     40 ****         2.4399   0.2433   0.1752 H              1 S1                 0.0000
     41 ****        -1.4749  -2.7014   1.8666 LP             1 S1                 0.0000
     42 ****        -0.1015  -1.8727   1.2131 LP             1 S1                 0.0000
     43 ****        -5.0859  -2.2693  -3.7386 LP             1 S1                 0.0000
     44 ****        -3.0550  -4.2133  -0.6391 LP             1 S1                 0.0000
@<TRIPOS>BOND
    1    1    2 1     
    2    1   19 1     
    3    1   20 1     
    4    1   21 1     
    5    2    3 1     
    6    2   14 1     
    7    2   22 1     
    8    3    4 2     
    9    3    5 am    
   10    5    6 1     
   11    5   23 1     
   12    6    7 1     
   13    6   24 1     
   14    6   25 1     
   15    7    8 1     
   16    7   26 1     
   17    7   27 1     
   18    8   13 1     
   19    8    9 1     
   20    8   40 1     
   21    9   10 1     
   22    9   28 1     
   23    9   29 1     
   24   10   11 1     
   25   10   30 1     
   26   10   31 1     
   27   11   12 1     
   28   11   32 1     
   29   11   33 1     
   30   12   13 1     
   31   12   34 1     
   32   12   35 1     
   33   13   36 1     
   34   13   37 1     
   35   14   18 1     
   36   14   15 1     
   37   15   16 2     
   38   15   38 1     
   39   16   17 1     
   40   17   18 2     
   41   17   39 1     
   42    4   41 1     
   43    4   42 1     
   44   16   43 1     
   45   18   44 1     
@<TRIPOS>SUBSTRUCTURE
      1 S1             1
@<TRIPOS>SET
LONE_PAIRS      STATIC     ATOMS    <user>   **** ""
4 41 42 43 44
DONOR_HYDROGENS      STATIC     ATOMS    <user>   **** ""
2 23 40
ATOM$BLUE        STATIC     ATOMS    COLORGROUP SYSTEM
4 41 42 43 44
ATOM$RED        STATIC     ATOMS    COLORGROUP SYSTEM
2 23 40
