#       Name:                AV-unprocessed.smi:1730
#       Creating user name   scv26
#       Creation time:       Fri Mar 27 08:18:37 2020


#       File generated by GOLD software.
#

@<TRIPOS>MOLECULE
AV-unprocessed.smi:1730
    45    46     1
SMALL
NO_CHARGES


@<TRIPOS>ATOM
      1 ****        -3.1371  -3.9916  -0.9162 C.3            1 S1                 0.0000
      2 ****        -2.4993  -2.7195  -0.9502 O.3            1 S1                 0.0000
      3 ****        -3.2856  -1.5853  -0.8790 C.ar           1 S1                 0.0000
      4 ****        -4.6307  -1.7370  -0.7850 N.ar           1 S1                 0.0000
      5 ****        -5.3995  -0.6305  -0.7186 C.ar           1 S1                 0.0000
      6 ****        -4.8755   0.6749  -0.7486 C.ar           1 S1                 0.0000
      7 ****        -3.4809   0.8350  -0.8453 C.ar           1 S1                 0.0000
      8 ****        -2.6601  -0.3171  -0.9009 C.ar           1 S1                 0.0000
      9 ****        -1.2452  -0.2613  -1.0233 N.am           1 S1                 0.0000
     10 ****        -0.4137   0.6994  -0.5872 C.2            1 S1                 0.0000
     11 ****        -0.7596   1.7145   0.0172 O.2            1 S1                 0.0000
     12 ****         0.8618   0.3998  -0.8721 N.am           1 S1                 0.0000
     13 ****         2.0292   1.1922  -0.4914 C.3            1 S1                 0.0000
     14 ****         2.9700   1.2931  -1.7020 C.3            1 S1                 0.0000
     15 ****         2.7124   0.5523   0.7349 C.3            1 S1                 0.0000
     16 ****         3.9221   1.3234   1.2663 C.3            1 S1                 0.0000
     17 ****         3.9730   0.8630   2.7046 C.3            1 S1                 0.0000
     18 ****         2.4917   0.7904   3.0585 C.3            1 S1                 0.0000
     19 ****         1.8123   0.4960   1.8411 O.3            1 S1                 0.0000
     20 ****        -2.3817  -4.7752  -0.9733 H              1 S1                 0.0000
     21 ****        -3.8129  -4.1213  -1.7628 H              1 S1                 0.0000
     22 ****        -3.6928  -4.1356   0.0116 H              1 S1                 0.0000
     23 ****        -6.4651  -0.7906  -0.6464 H              1 S1                 0.0000
     24 ****        -5.5283   1.5339  -0.7039 H              1 S1                 0.0000
     25 ****        -3.0691   1.8316  -0.8907 H              1 S1                 0.0000
     26 ****        -0.8110  -1.0857  -1.4120 H              1 S1                 0.0000
     27 ****         1.0441  -0.4606  -1.3671 H              1 S1                 0.0000
     28 ****         1.7207   2.2059  -0.2289 H              1 S1                 0.0000
     29 ****         3.8352   1.9188  -1.4826 H              1 S1                 0.0000
     30 ****         2.4596   1.7364  -2.5578 H              1 S1                 0.0000
     31 ****         3.3366   0.3117  -2.0045 H              1 S1                 0.0000
     32 ****         3.0163  -0.4707   0.5063 H              1 S1                 0.0000
     33 ****         4.8401   1.1077   0.7187 H              1 S1                 0.0000
     34 ****         3.7429   2.3990   1.2262 H              1 S1                 0.0000
     35 ****         4.4242  -0.1285   2.7644 H              1 S1                 0.0000
     36 ****         4.5348   1.5356   3.3532 H              1 S1                 0.0000
     37 ****         2.2835   0.0409   3.8221 H              1 S1                 0.0000
     38 ****         2.1390   1.7552   3.4252 H              1 S1                 0.0000
     39 ****        -1.9860  -2.6695  -1.8070 LP             1 S1                 0.0000
     40 ****        -1.8640  -2.6871  -0.1786 LP             1 S1                 0.0000
     41 ****        -5.0426  -2.6480  -0.7654 LP             1 S1                 0.0000
     42 ****        -1.7266   1.8718   0.2180 LP             1 S1                 0.0000
     43 ****        -0.0737   2.3818   0.3074 LP             1 S1                 0.0000
     44 ****         1.4192  -0.4217   1.8981 LP             1 S1                 0.0000
     45 ****         1.0808   1.1639   1.7035 LP             1 S1                 0.0000
@<TRIPOS>BOND
    1    1    2 1     
    2    1   20 1     
    3    1   21 1     
    4    1   22 1     
    5    2    3 1     
    6    3    8 ar    
    7    3    4 ar    
    8    4    5 ar    
    9    5    6 ar    
   10    5   23 1     
   11    6    7 ar    
   12    6   24 1     
   13    7    8 ar    
   14    7   25 1     
   15    8    9 1     
   16    9   10 am    
   17    9   26 1     
   18   10   11 2     
   19   10   12 am    
   20   12   13 1     
   21   12   27 1     
   22   13   14 1     
   23   13   15 1     
   24   13   28 1     
   25   14   29 1     
   26   14   30 1     
   27   14   31 1     
   28   15   19 1     
   29   15   16 1     
   30   15   32 1     
   31   16   17 1     
   32   16   33 1     
   33   16   34 1     
   34   17   18 1     
   35   17   35 1     
   36   17   36 1     
   37   18   19 1     
   38   18   37 1     
   39   18   38 1     
   40    2   39 1     
   41    2   40 1     
   42    4   41 1     
   43   11   42 1     
   44   11   43 1     
   45   19   44 1     
   46   19   45 1     
@<TRIPOS>SUBSTRUCTURE
      1 S1             1
@<TRIPOS>SET
LONE_PAIRS      STATIC     ATOMS    <user>   **** ""
7 39 40 41 42 43 44 45
DONOR_HYDROGENS      STATIC     ATOMS    <user>   **** ""
2 26 27
ATOM$BLUE        STATIC     ATOMS    COLORGROUP SYSTEM
7 39 40 41 42 43 44 45
ATOM$RED        STATIC     ATOMS    COLORGROUP SYSTEM
2 26 27
