#       Name:                AV-unprocessed.smi:561
#       Creating user name   scv26
#       Creation time:       Thu Mar 26 23:43:50 2020


#       File generated by GOLD software.
#

@<TRIPOS>MOLECULE
AV-unprocessed.smi:561
    42    43     1
SMALL
NO_CHARGES


@<TRIPOS>ATOM
      1 ****        -2.3382  -1.3211   2.5850 C.3            1 S1                 0.0000
      2 ****        -2.1355  -0.4933   1.3086 C.3            1 S1                 0.0000
      3 ****        -2.8817  -1.1264   0.1059 C.3            1 S1                 0.0000
      4 ****        -2.8513  -0.3168  -1.1261 N.pl3          1 S1                 0.0000
      5 ****        -2.0005  -0.4646  -2.1940 C.2            1 S1                 0.0000
      6 ****        -2.3371   0.5049  -3.1025 C.2            1 S1                 0.0000
      7 ****        -3.3862   1.1972  -2.5600 N.pl3          1 S1                 1.0000
      8 ****        -3.7027   0.6927  -1.3632 C.2            1 S1                 0.0000
      9 ****        -0.6979  -0.4081   1.0280 N.pl3          1 S1                -1.0000
     10 ****        -0.0429   0.6960   0.5542 C.2            1 S1                 0.0000
     11 ****        -0.5667   1.7693   0.2312 O.2            1 S1                 0.0000
     12 ****         1.4380   0.6316   0.3746 C.2            1 S1                 0.0000
     13 ****         2.0579  -0.4918   0.5622 N.2            1 S1                 0.0000
     14 ****         3.4211  -0.6187   0.3927 N.am           1 S1                 0.0000
     15 ****         3.9120  -1.9952   0.3899 C.3            1 S1                 0.0000
     16 ****         4.2833   0.4209   0.2740 C.2            1 S1                 0.0000
     17 ****         5.4963   0.2892   0.1092 O.2            1 S1                 0.0000
     18 ****         3.6807   1.8233   0.3900 C.3            1 S1                 0.0000
     19 ****         2.2076   1.8662  -0.0615 C.3            1 S1                 0.0000
     20 ****        -3.3958  -1.3962   2.8383 H              1 S1                 0.0000
     21 ****        -1.8303  -0.8653   3.4357 H              1 S1                 0.0000
     22 ****        -1.9522  -2.3347   2.4696 H              1 S1                 0.0000
     23 ****        -2.5719   0.4897   1.4931 H              1 S1                 0.0000
     24 ****        -2.4670  -2.1079  -0.1299 H              1 S1                 0.0000
     25 ****        -3.9302  -1.2877   0.3601 H              1 S1                 0.0000
     26 ****        -1.2300  -1.2218  -2.2160 H              1 S1                 0.0000
     27 ****        -1.9186   0.7480  -4.0681 H              1 S1                 0.0000
     28 ****        -4.4817   1.0405  -0.7084 H              1 S1                 0.0000
     29 ****         4.5784  -2.1644   1.2367 H              1 S1                 0.0000
     30 ****         4.4627  -2.2076  -0.5276 H              1 S1                 0.0000
     31 ****         3.0989  -2.7195   0.4597 H              1 S1                 0.0000
     32 ****         3.7515   2.1230   1.4362 H              1 S1                 0.0000
     33 ****         4.2745   2.5368  -0.1823 H              1 S1                 0.0000
     34 ****         2.1521   1.9593  -1.1467 H              1 S1                 0.0000
     35 ****         1.7559   2.7697   0.3492 H              1 S1                 0.0000
     36 ****        -3.8542   1.9812  -2.9965 H              1 S1                 0.0000
     37 ****        -0.1497  -1.2271   1.1975 LP             1 S1                 0.0000
     38 ****        -1.5570   1.8852   0.3070 LP             1 S1                 0.0000
     39 ****         0.0003   2.5210  -0.1058 LP             1 S1                 0.0000
     40 ****         1.5294  -1.2941   0.8394 LP             1 S1                 0.0000
     41 ****         5.8973  -0.6253   0.0559 LP             1 S1                 0.0000
     42 ****         6.0806   1.0968   0.0286 LP             1 S1                 0.0000
@<TRIPOS>BOND
    1    1    2 1     
    2    1   20 1     
    3    1   21 1     
    4    1   22 1     
    5    2    3 1     
    6    2    9 1     
    7    2   23 1     
    8    3    4 1     
    9    3   24 1     
   10    3   25 1     
   11    4    8 1     
   12    4    5 1     
   13    5    6 2     
   14    5   26 1     
   15    6    7 1     
   16    6   27 1     
   17    7    8 2     
   18    7   36 1     
   19    8   28 1     
   20    9   10 1     
   21   10   11 2     
   22   10   12 1     
   23   12   19 1     
   24   12   13 2     
   25   13   14 1     
   26   14   15 1     
   27   14   16 am    
   28   15   29 1     
   29   15   30 1     
   30   15   31 1     
   31   16   17 2     
   32   16   18 1     
   33   18   19 1     
   34   18   32 1     
   35   18   33 1     
   36   19   34 1     
   37   19   35 1     
   38    9   37 1     
   39   11   38 1     
   40   11   39 1     
   41   13   40 1     
   42   17   41 1     
   43   17   42 1     
@<TRIPOS>SUBSTRUCTURE
      1 S1             1
@<TRIPOS>SET
LONE_PAIRS      STATIC     ATOMS    <user>   **** ""
6 37 38 39 40 41 42
DONOR_HYDROGENS      STATIC     ATOMS    <user>   **** ""
1 36
ATOM$BLUE        STATIC     ATOMS    COLORGROUP SYSTEM
6 37 38 39 40 41 42
ATOM$RED        STATIC     ATOMS    COLORGROUP SYSTEM
1 36
