AV-unprocessed.smi:1525|AV-procd|sdf|6143|dock10
  -GOLD-   22720 6293D 1   1.00000     0.00000
 Structure written by MMmdl.
 49 51  0  0  0  0  0  0  0  0  2 V2000
  145.5210  138.1055  154.5009 O   0  0  0  0  0  0  0  0  0  0  0  0
  146.0839  137.4729  153.6075 C   0  0  0  0  0  0  0  0  0  0  0  0
  147.3396  137.7139  153.2056 N   0  0  0  0  0  0  0  0  0  0  0  0
  148.2041  138.7550  153.7475 C   0  0  0  0  0  0  0  0  0  0  0  0
  148.5783  138.4580  155.2116 C   0  0  0  0  0  0  0  0  0  0  0  0
  149.9705  138.7333  155.5604 N   0  0  0  0  0  0  0  0  0  0  0  0
  150.8757  138.2062  154.5442 C   0  0  0  0  0  0  0  0  0  0  0  0
  152.3501  138.4848  154.8842 C   0  0  0  0  0  0  0  0  0  0  0  0
  152.5431  139.8854  155.0503 O   0  0  0  0  0  0  0  0  0  0  0  0
  151.7112  140.4362  156.0660 C   0  0  0  0  0  0  0  0  0  0  0  0
  150.2340  140.1605  155.7338 C   0  0  0  0  0  0  0  0  0  0  0  0
  145.5261  136.4791  152.8960 N   0  0  0  0  0  0  0  0  0  0  0  0
  144.2099  135.9486  153.0157 C   0  0  0  0  0  0  0  0  0  0  0  0
  143.2395  136.5352  153.8679 C   0  0  0  0  0  0  0  0  0  0  0  0
  141.9531  135.9695  153.9583 C   0  0  0  0  0  0  0  0  0  0  0  0
  141.6586  134.8204  153.2033 C   0  0  0  0  0  0  0  0  0  0  0  0
  142.6087  134.2766  152.4150 N   0  3  0  0  0  0  0  0  0  0  0  0
  143.8623  134.7779  152.2871 C   0  0  0  0  0  0  0  0  0  0  0  0
  144.7823  134.1090  151.4518 N   0  0  0  0  0  0  0  0  0  0  0  0
  145.9396  133.5643  152.1576 C   0  0  0  0  0  0  0  0  0  0  0  0
  146.2563  132.2172  151.5031 C   0  0  0  0  0  0  0  0  0  0  0  0
  144.9136  131.7848  150.9269 C   0  0  0  0  0  0  0  0  0  0  0  0
  144.2991  133.1143  150.4953 C   0  0  0  0  0  0  0  0  0  0  0  0
  147.7235  137.1467  152.4642 H   0  0  0  0  0  0  0  0  0  0  0  0
  149.0907  138.8539  153.1201 H   0  0  0  0  0  0  0  0  0  0  0  0
  147.6710  139.7039  153.6857 H   0  0  0  0  0  0  0  0  0  0  0  0
  147.9328  139.0667  155.8465 H   0  0  0  0  0  0  0  0  0  0  0  0
  148.3396  137.4204  155.4506 H   0  0  0  0  0  0  0  0  0  0  0  0
  150.7287  137.1307  154.4392 H   0  0  0  0  0  0  0  0  0  0  0  0
  150.6410  138.6490  153.5749 H   0  0  0  0  0  0  0  0  0  0  0  0
  152.6438  137.9587  155.7937 H   0  0  0  0  0  0  0  0  0  0  0  0
  152.9982  138.1281  154.0837 H   0  0  0  0  0  0  0  0  0  0  0  0
  151.9756  140.0068  157.0336 H   0  0  0  0  0  0  0  0  0  0  0  0
  151.8913  141.5091  156.1319 H   0  0  0  0  0  0  0  0  0  0  0  0
  149.9619  140.7001  154.8252 H   0  0  0  0  0  0  0  0  0  0  0  0
  149.6175  140.5661  156.5352 H   0  0  0  0  0  0  0  0  0  0  0  0
  146.0716  136.1246  152.1244 H   0  0  0  0  0  0  0  0  0  0  0  0
  143.4653  137.4054  154.4652 H   0  0  0  0  0  0  0  0  0  0  0  0
  141.2053  136.4090  154.6023 H   0  0  0  0  0  0  0  0  0  0  0  0
  140.7023  134.3177  153.2123 H   0  0  0  0  0  0  0  0  0  0  0  0
  146.7917  134.2416  152.0962 H   0  0  0  0  0  0  0  0  0  0  0  0
  145.7035  133.4182  153.2130 H   0  0  0  0  0  0  0  0  0  0  0  0
  146.9750  132.3578  150.6945 H   0  0  0  0  0  0  0  0  0  0  0  0
  146.6743  131.4935  152.2035 H   0  0  0  0  0  0  0  0  0  0  0  0
  145.0084  131.0735  150.1057 H   0  0  0  0  0  0  0  0  0  0  0  0
  144.3037  131.3263  151.7063 H   0  0  0  0  0  0  0  0  0  0  0  0
  143.2141  133.0512  150.4125 H   0  0  0  0  0  0  0  0  0  0  0  0
  144.6736  133.3932  149.5100 H   0  0  0  0  0  0  0  0  0  0  0  0
  142.3705  133.4360  151.8883 H   0  0  0  0  0  0  0  0  0  0  0  0
  1  2  2  0  0  0  0
  2  3  1  0  0  0  0
  2 12  1  0  0  0  0
  3  4  1  0  0  0  0
  3 24  1  0  0  0  0
  4  5  1  0  0  0  0
  4 25  1  0  0  0  0
  4 26  1  0  0  0  0
  5  6  1  0  0  0  0
  5 27  1  0  0  0  0
  5 28  1  0  0  0  0
  6 11  1  0  0  0  0
  6  7  1  0  0  0  0
  7  8  1  0  0  0  0
  7 29  1  0  0  0  0
  7 30  1  0  0  0  0
  8  9  1  0  0  0  0
  8 31  1  0  0  0  0
  8 32  1  0  0  0  0
  9 10  1  0  0  0  0
 10 11  1  0  0  0  0
 10 33  1  0  0  0  0
 10 34  1  0  0  0  0
 11 35  1  0  0  0  0
 11 36  1  0  0  0  0
 12 13  1  0  0  0  0
 12 37  1  0  0  0  0
 13 18  1  0  0  0  0
 13 14  2  0  0  0  0
 14 15  1  0  0  0  0
 14 38  1  0  0  0  0
 15 16  2  0  0  0  0
 15 39  1  0  0  0  0
 16 17  1  0  0  0  0
 16 40  1  0  0  0  0
 17 18  2  0  0  0  0
 17 49  1  0  0  0  0
 18 19  1  0  0  0  0
 19 23  1  0  0  0  0
 19 20  1  0  0  0  0
 20 21  1  0  0  0  0
 20 41  1  0  0  0  0
 20 42  1  0  0  0  0
 21 22  1  0  0  0  0
 21 43  1  0  0  0  0
 21 44  1  0  0  0  0
 22 23  1  0  0  0  0
 22 45  1  0  0  0  0
 22 46  1  0  0  0  0
 23 47  1  0  0  0  0
 23 48  1  0  0  0  0
M  CHG  1  17   1
M  END
> <s_m_source_file>
AV-unprocessed.smi

> <i_m_source_file_index>
1525

> <i_lp_mmshare_version>
43012

> <i_f3d_flags>
0

> <s_epik_input>
W0NIMl0xW0NIMl1PW0NIMl1bQ0gyXU4xW0NIMl1bQ0gyXVtOSF1DKD1PKVtOSF1jMltjSF1bY0hdW2NIXW5jMk4zW0NIMl1bQ0gyXVtDSDJdW0NIMl0z

> <s_epik_cmdline>
J2VwaWtfcHl0aG9uJywgJy1waCcsICc3LjAnLCAnLXRuJywgJzgnLCAnLW1hJywgJzIwMCcsICctbWV0YWxfYmluZGluZycsICctaW1hZScsICc8aW5maWxlLm1hZT4nLCAnLW9tYWUnLCAnPG91dGZpbGUubWFlPic=

> <r_epik_Ionization_Penalty>
1.38385

> <r_epik_Ionization_Penalty_Charging>
1.11784

> <r_epik_Ionization_Penalty_Neutral>
0.26601

> <r_epik_State_Penalty>
1.46794

> <r_epik_Charging_Adjusted_Penalty>
2.58578

> <i_epik_Tot_Q>
1

> <i_epik_Tot_abs_Q>
1

> <r_epik_Metal_State_Penalty>
1.54909

> <b_epik_Metal_Only>
0

> <s_lp_Force_Field>
OPLS_2005

> <r_lp_Energy>
56.1891

> <b_lp_Chiralities_Consistent>
1

> <s_lp_Variant>
AV-unprocessed.smi:1525-3

> <Gold.Version>
5.8.1

> <Gold.Id.Protein>
6NUR|6NUR_protein|mol2

> <Gold.PLP.Fitness>
42.5797

> <Gold.PLP.PLP>
-36.6963

> <Gold.PLP.part.hbond>
-3.3234

> <Gold.PLP.part.metal>
0.0000

> <Gold.PLP.part.buried>
-6.9768

> <Gold.PLP.part.nonpolar>
-27.4583

> <Gold.PLP.part.repulsive>
0.3168

> <Gold.PLP.ligand.clash>
0.0000

> <Gold.PLP.ligand.torsion>
0.6381

> <Gold.PLP.Chemscore.Hbond>
2.3325

> <Gold.PLP.Chemscore.CHOScore>
0.0000

> <Gold.PLP.Chemscore.Metal>
0.0000

> <Gold.Chemscore.Hbonds>
donor molecule, donor type, donor heavy atom, donor atom, acceptor molecule, acceptor atom, score
      L1  H     3    24       P1  7948  1.00
      P1  H  7989  7998       L1     9  0.47
      P1  H  7997  8009       L1     9  0.81

> <Gold.PLP.Chemscore.Internal.Correction>
0.1620

> <Gold.Rescore>
     Score         DG    S(hbond)    S(metal)    S(lipo)     H(rot)  DE(clash)    DE(int)     intcor
     13.44     -15.60       1.44        0.00      81.18       1.63       0.03       2.13       ----

> <Gold.Chemscore.Fitness>
13.4447

> <Gold.Chemscore.DG>
-15.6035

> <Gold.Chemscore.ZeroCoef>
-5.4800

> <Gold.Chemscore.Hbond>
1.4383

> <Gold.Chemscore.Metal>
0.0000

> <Gold.Chemscore.Lipo>
81.1826

> <Gold.Chemscore.Internal_Hbond>
0.0000

> <Gold.Chemscore.DEClash>
0.0324

> <Gold.Chemscore.DEInternal>
2.1264

> <Gold.Chemscore.Rot>
1.6323

> <Gold.Chemscore.Internal.Correction>
   9.000000E+99

> <Gold.Chemscore.Hbonds>
donor molecule, donor type, donor heavy atom, donor atom, acceptor molecule, acceptor atom, score
      L1  H     3    24       P1  7948  0.95
      P1  H  7989  7998       L1     9  0.04
      P1  H  7997  8009       L1     9  0.14

> <Gold.Chemscore.Hbond.Weighted>
-4.8038

> <Gold.Chemscore.Metal.Weighted>
-0.0000

> <Gold.Chemscore.Lipo.Weighted>
-9.4984

> <Gold.Chemscore.Internal_Hbond.Weighted>
0.0000

> <Gold.Chemscore.DEClash.Weighted>
0.0324

> <Gold.Chemscore.DEInternal.Weighted>
2.1264

> <Gold.Chemscore.Rot.Weighted>
4.1786

> <Gold.Chemscore.Internal.Correction.Weighted>
   9.000000E+99

> <Gold.Protein.RotatedTorsions>
[ 6907 6896 6895 6894 ] final   91.96 input  -60.11 | X-H torsion
[ 7974 7965 7964 7962 ] final   57.27 input  175.53 | X-H torsion
[ 8008 7997 7996 7995 ] final -136.10 input   59.86 | X-H torsion
[ 10167 10162 10161 10158 ] final   99.51 input  -65.29 | X-H torsion
[ 10718 10713 10712 10709 ] final  -99.37 input   66.30 | X-H torsion
[ 10763 10752 10751 10750 ] final   92.93 input  -60.55 | X-H torsion
[ 11005 11000 10999 10996 ] final    7.28 input  -57.11 | X-H torsion

> <Gold.Protein.ActiveResidues>
 VAL166  LYS551  ARG553  GLY616  TRP617  ASP618  TYR619  PRO620  LYS621  CYS622 
 ASP623  PHE694  ASN695  SER759  ASP760  ASP761  ALA762  ILE779  LEU786  VAL792 
 PHE793  MET794  SER795  GLU796  ALA797  LYS798  CYS799  TRP800  GLU811  SER814 

> <Gold.Protein.RotatedAtoms>
  152.5451  134.1575  159.8543 H   0  0  0  0  0  0  0  0  0  0  0  0  # atno 6907 bound_to 6896
  151.1597  133.4846  159.2602 H   0  0  0  0  0  0  0  0  0  0  0  0  # atno 6908 bound_to 6896
  151.1386  135.0179  159.8670 H   0  0  0  0  0  0  0  0  0  0  0  0  # atno 6909 bound_to 6896
  145.9309  139.3806  143.0422 H   0  0  0  0  0  0  0  0  0  0  0  0  # atno 7974 bound_to 7965
  155.3896  140.0499  157.3041 H   0  0  0  0  0  0  0  0  0  0  0  0  # atno 8008 bound_to 7997
  154.5042  140.2168  155.9245 H   0  0  0  0  0  0  0  0  0  0  0  0  # atno 8009 bound_to 7997
  156.1505  140.3137  155.8646 H   0  0  0  0  0  0  0  0  0  0  0  0  # atno 8010 bound_to 7997
  139.7611  144.6954  151.0291 H   0  0  0  0  0  0  0  0  0  0  0  0  # atno 10167 bound_to 10162
  156.0132  130.5279  150.6661 H   0  0  0  0  0  0  0  0  0  0  0  0  # atno 10718 bound_to 10713
  153.2246  135.4344  155.0527 H   0  0  0  0  0  0  0  0  0  0  0  0  # atno 10763 bound_to 10752
  154.8267  135.3364  154.6877 H   0  0  0  0  0  0  0  0  0  0  0  0  # atno 10764 bound_to 10752
  153.7307  135.7011  153.5046 H   0  0  0  0  0  0  0  0  0  0  0  0  # atno 10765 bound_to 10752
  140.5500  134.0292  155.7933 H   0  0  0  0  0  0  0  0  0  0  0  0  # atno 11005 bound_to 11000
  145.8427  140.9572  143.0790 LP  0  0  0  0  0  0  0  0  0  0  0  0  # atno 17320 bound_to 7965
  144.6765  140.0305  143.7482 LP  0  0  0  0  0  0  0  0  0  0  0  0  # atno 17321 bound_to 7965
  140.7807  143.4696  151.0165 LP  0  0  0  0  0  0  0  0  0  0  0  0  # atno 17342 bound_to 10162
  139.8382  143.7599  152.3180 LP  0  0  0  0  0  0  0  0  0  0  0  0  # atno 17343 bound_to 10162
  157.4393  131.0859  151.0960 LP  0  0  0  0  0  0  0  0  0  0  0  0  # atno 17370 bound_to 10713
  157.1509  130.6183  149.5582 LP  0  0  0  0  0  0  0  0  0  0  0  0  # atno 17371 bound_to 10713
  141.1177  133.9513  157.2790 LP  0  0  0  0  0  0  0  0  0  0  0  0  # atno 17394 bound_to 11000
  139.9460  135.0184  156.8853 LP  0  0  0  0  0  0  0  0  0  0  0  0  # atno 17395 bound_to 11000

$$$$
