AV-unprocessed.smi:2878|AV-procd|sdf|11045|dock5
  -GOLD-   2272015513D 1   1.00000     0.00000
 Structure written by MMmdl.
 42 43  0  0  0  0  0  0  0  0  1 V2000
  151.1555  145.2735  160.2257 C   0  0  0  0  0  0  0  0  0  0  0  0
  150.9528  144.3562  158.6743 S   0  0  0  0  0  0  0  0  0  0  0  0
  151.5039  142.6926  159.1718 C   0  0  2  0  0  0  0  0  0  0  0  0
  152.7927  142.8093  160.0074 C   0  0  0  0  0  0  0  0  0  0  0  0
  153.3293  141.4339  160.4288 C   0  0  0  0  0  0  0  0  0  0  0  0
  153.5698  140.5426  159.2034 C   0  0  0  0  0  0  0  0  0  0  0  0
  152.2888  140.3976  158.3696 C   0  0  0  0  0  0  0  0  0  0  0  0
  151.7177  141.7671  157.9479 C   0  0  1  0  0  0  0  0  0  0  0  0
  150.4564  141.5554  157.2409 N   0  0  0  0  0  0  0  0  0  0  0  0
  150.3318  141.2130  155.9514 C   0  0  0  0  0  0  0  0  0  0  0  0
  151.2793  141.0035  155.1941 O   0  0  0  0  0  0  0  0  0  0  0  0
  149.0456  141.1356  155.5820 N   0  0  0  0  0  0  0  0  0  0  0  0
  148.5828  140.8106  154.2378 C   0  0  0  0  0  0  0  0  0  0  0  0
  147.0829  140.4749  154.2220 C   0  0  0  0  0  0  0  0  0  0  0  0
  146.2668  141.4838  154.9581 C   0  0  0  0  0  0  0  0  0  0  0  0
  145.3479  142.3013  154.4491 N   0  0  0  0  0  0  0  0  0  0  0  0
  144.9935  143.0142  155.5534 C   0  0  0  0  0  0  0  0  0  0  0  0
  143.9625  144.0906  155.5241 C   0  0  0  0  0  0  0  0  0  0  0  0
  145.6338  142.7052  156.6744 N   0  0  0  0  0  0  0  0  0  0  0  0
  146.5037  141.6795  156.2775 O   0  0  0  0  0  0  0  0  0  0  0  0
  150.8799  146.3177  160.0789 H   0  0  0  0  0  0  0  0  0  0  0  0
  152.1927  145.2356  160.5582 H   0  0  0  0  0  0  0  0  0  0  0  0
  150.5222  144.8613  161.0104 H   0  0  0  0  0  0  0  0  0  0  0  0
  150.7337  142.2632  159.8141 H   0  0  0  0  0  0  0  0  0  0  0  0
  153.5573  143.3337  159.4321 H   0  0  0  0  0  0  0  0  0  0  0  0
  152.6066  143.4151  160.8949 H   0  0  0  0  0  0  0  0  0  0  0  0
  154.2564  141.5527  160.9900 H   0  0  0  0  0  0  0  0  0  0  0  0
  152.6187  140.9522  161.1018 H   0  0  0  0  0  0  0  0  0  0  0  0
  154.3614  140.9703  158.5871 H   0  0  0  0  0  0  0  0  0  0  0  0
  153.9204  139.5601  159.5206 H   0  0  0  0  0  0  0  0  0  0  0  0
  152.4957  139.7925  157.4859 H   0  0  0  0  0  0  0  0  0  0  0  0
  151.5449  139.8498  158.9503 H   0  0  0  0  0  0  0  0  0  0  0  0
  152.4411  142.2496  157.2878 H   0  0  0  0  0  0  0  0  0  0  0  0
  149.6118  141.7020  157.7738 H   0  0  0  0  0  0  0  0  0  0  0  0
  148.3372  141.3236  156.2761 H   0  0  0  0  0  0  0  0  0  0  0  0
  148.7969  141.6374  153.5583 H   0  0  0  0  0  0  0  0  0  0  0  0
  149.1572  139.9564  153.8780 H   0  0  0  0  0  0  0  0  0  0  0  0
  146.7217  140.4169  153.1944 H   0  0  0  0  0  0  0  0  0  0  0  0
  146.9063  139.4968  154.6707 H   0  0  0  0  0  0  0  0  0  0  0  0
  143.4865  144.1965  156.4996 H   0  0  0  0  0  0  0  0  0  0  0  0
  143.1905  143.8600  154.7896 H   0  0  0  0  0  0  0  0  0  0  0  0
  144.4223  145.0424  155.2574 H   0  0  0  0  0  0  0  0  0  0  0  0
  1  2  1  0  0  0  0
  1 21  1  0  0  0  0
  1 22  1  0  0  0  0
  1 23  1  0  0  0  0
  2  3  1  0  0  0  0
  3  8  1  0  0  0  0
  3  4  1  0  0  0  0
  3 24  1  0  0  0  0
  4  5  1  0  0  0  0
  4 25  1  0  0  0  0
  4 26  1  0  0  0  0
  5  6  1  0  0  0  0
  5 27  1  0  0  0  0
  5 28  1  0  0  0  0
  6  7  1  0  0  0  0
  6 29  1  0  0  0  0
  6 30  1  0  0  0  0
  7  8  1  0  0  0  0
  7 31  1  0  0  0  0
  7 32  1  0  0  0  0
  8  9  1  0  0  0  0
  8 33  1  0  0  0  0
  9 10  1  0  0  0  0
  9 34  1  0  0  0  0
 10 11  2  0  0  0  0
 10 12  1  0  0  0  0
 12 13  1  0  0  0  0
 12 35  1  0  0  0  0
 13 14  1  0  0  0  0
 13 36  1  0  0  0  0
 13 37  1  0  0  0  0
 14 15  1  0  0  0  0
 14 38  1  0  0  0  0
 14 39  1  0  0  0  0
 15 20  1  0  0  0  0
 15 16  2  0  0  0  0
 16 17  1  0  0  0  0
 17 18  1  0  0  0  0
 17 19  2  0  0  0  0
 18 40  1  0  0  0  0
 18 41  1  0  0  0  0
 18 42  1  0  0  0  0
 19 20  1  0  0  0  0
M  END
> <s_m_source_file>
AV-unprocessed.smi

> <i_m_source_file_index>
2878

> <i_lp_mmshare_version>
43012

> <i_f3d_flags>
0

> <s_epik_input>
W0NIM11TW0NAQEhdMVtDSDJdW0NIMl1bQ0gyXVtDSDJdW0NASF0xW05IXUMoPU8pW05IXVtDSDJdW0NIMl1jMm5jKFtDSDNdKW5vMg==

> <s_epik_cmdline>
J2VwaWtfcHl0aG9uJywgJy1waCcsICc3LjAnLCAnLXRuJywgJzgnLCAnLW1hJywgJzIwMCcsICctbWV0YWxfYmluZGluZycsICctaW1hZScsICc8aW5maWxlLm1hZT4nLCAnLW9tYWUnLCAnPG91dGZpbGUubWFlPic=

> <r_lp_tautomer_probability>
1

> <r_epik_Ionization_Penalty>
4.9299e-05

> <r_epik_Ionization_Penalty_Charging>
0

> <r_epik_Ionization_Penalty_Neutral>
4.9299e-05

> <r_epik_State_Penalty>
-0

> <r_epik_Charging_Adjusted_Penalty>
0

> <i_epik_Tot_Q>
0

> <i_epik_Tot_abs_Q>
0

> <r_epik_Metal_State_Penalty>
-0

> <b_epik_Metal_Only>
0

> <s_lp_Force_Field>
OPLS_2005

> <r_lp_Energy>
1.6378

> <b_lp_Chiralities_Consistent>
1

> <s_lp_Variant>
AV-unprocessed.smi:2878-1

> <Gold.Version>
5.8.1

> <Gold.Id.Protein>
6NUR|6NUR_protein|mol2

> <Gold.PLP.Fitness>
40.0604

> <Gold.PLP.PLP>
-38.6069

> <Gold.PLP.part.hbond>
-1.0000

> <Gold.PLP.part.metal>
0.0000

> <Gold.PLP.part.buried>
-6.2009

> <Gold.PLP.part.nonpolar>
-32.1919

> <Gold.PLP.part.repulsive>
0.6491

> <Gold.PLP.ligand.clash>
0.0000

> <Gold.PLP.ligand.torsion>
0.5413

> <Gold.PLP.Chemscore.Hbond>
0.8320

> <Gold.PLP.Chemscore.CHOScore>
0.0000

> <Gold.PLP.Chemscore.Metal>
0.0000

> <Gold.Chemscore.Hbonds>
donor molecule, donor type, donor heavy atom, donor atom, acceptor molecule, acceptor atom, score
      P1  H  7989  7998       L1    11  0.64

> <Gold.PLP.Chemscore.Internal.Correction>
0.0402

> <Gold.Rescore>
     Score         DG    S(hbond)    S(metal)    S(lipo)     H(rot)  DE(clash)    DE(int)     intcor
     12.44     -14.30       0.92        0.00      94.88       2.09       0.02       1.84       ----

> <Gold.Chemscore.Fitness>
12.4440

> <Gold.Chemscore.DG>
-14.3015

> <Gold.Chemscore.ZeroCoef>
-5.4800

> <Gold.Chemscore.Hbond>
0.9214

> <Gold.Chemscore.Metal>
0.0000

> <Gold.Chemscore.Lipo>
94.8755

> <Gold.Chemscore.Internal_Hbond>
0.0000

> <Gold.Chemscore.DEClash>
0.0209

> <Gold.Chemscore.DEInternal>
1.8367

> <Gold.Chemscore.Rot>
2.0923

> <Gold.Chemscore.Internal.Correction>
   9.000000E+99

> <Gold.Chemscore.Hbonds>
donor molecule, donor type, donor heavy atom, donor atom, acceptor molecule, acceptor atom, score
      P1  H  7989  7998       L1    11  0.64

> <Gold.Chemscore.Hbond.Weighted>
-3.0773

> <Gold.Chemscore.Metal.Weighted>
-0.0000

> <Gold.Chemscore.Lipo.Weighted>
-11.1004

> <Gold.Chemscore.Internal_Hbond.Weighted>
0.0000

> <Gold.Chemscore.DEClash.Weighted>
0.0209

> <Gold.Chemscore.DEInternal.Weighted>
1.8367

> <Gold.Chemscore.Rot.Weighted>
5.3562

> <Gold.Chemscore.Internal.Correction.Weighted>
   9.000000E+99

> <Gold.Protein.RotatedTorsions>
[ 6907 6896 6895 6894 ] final -137.46 input  -60.11 | X-H torsion
[ 7974 7965 7964 7962 ] final -122.28 input  175.53 | X-H torsion
[ 8008 7997 7996 7995 ] final  -57.09 input   59.86 | X-H torsion
[ 10167 10162 10161 10158 ] final -105.36 input  -65.29 | X-H torsion
[ 10718 10713 10712 10709 ] final -143.02 input   66.30 | X-H torsion
[ 10763 10752 10751 10750 ] final   42.80 input  -60.55 | X-H torsion
[ 11005 11000 10999 10996 ] final -167.05 input  -57.11 | X-H torsion

> <Gold.Protein.ActiveResidues>
 VAL166  LYS551  ARG553  GLY616  TRP617  ASP618  TYR619  PRO620  LYS621  CYS622 
 ASP623  PHE694  ASN695  SER759  ASP760  ASP761  ALA762  ILE779  LEU786  VAL792 
 PHE793  MET794  SER795  GLU796  ALA797  LYS798  CYS799  TRP800  GLU811  SER814 

> <Gold.Protein.RotatedAtoms>
  151.0227  133.5861  159.2669 H   0  0  0  0  0  0  0  0  0  0  0  0  # atno 6907 bound_to 6896
  151.2972  135.0758  159.9235 H   0  0  0  0  0  0  0  0  0  0  0  0  # atno 6908 bound_to 6896
  152.5327  133.9915  159.7907 H   0  0  0  0  0  0  0  0  0  0  0  0  # atno 6909 bound_to 6896
  145.0312  140.8069  143.4323 H   0  0  0  0  0  0  0  0  0  0  0  0  # atno 7974 bound_to 7965
  154.4254  140.1115  156.5742 H   0  0  0  0  0  0  0  0  0  0  0  0  # atno 8008 bound_to 7997
  155.6180  140.3495  155.4624 H   0  0  0  0  0  0  0  0  0  0  0  0  # atno 8009 bound_to 7997
  156.0046  140.1206  157.0503 H   0  0  0  0  0  0  0  0  0  0  0  0  # atno 8010 bound_to 7997
  140.1994  143.3830  152.1142 H   0  0  0  0  0  0  0  0  0  0  0  0  # atno 10167 bound_to 10162
  156.3529  130.7698  151.1853 H   0  0  0  0  0  0  0  0  0  0  0  0  # atno 10718 bound_to 10713
  152.9874  135.6120  154.3009 H   0  0  0  0  0  0  0  0  0  0  0  0  # atno 10763 bound_to 10752
  154.2729  135.2779  155.2732 H   0  0  0  0  0  0  0  0  0  0  0  0  # atno 10764 bound_to 10752
  154.5106  135.5842  153.6659 H   0  0  0  0  0  0  0  0  0  0  0  0  # atno 10765 bound_to 10752
  140.5576  134.5366  157.5136 H   0  0  0  0  0  0  0  0  0  0  0  0  # atno 11005 bound_to 11000
  145.1769  139.2373  143.5313 LP  0  0  0  0  0  0  0  0  0  0  0  0  # atno 17320 bound_to 7965
  146.3498  140.1533  142.8592 LP  0  0  0  0  0  0  0  0  0  0  0  0  # atno 17321 bound_to 7965
  139.5223  144.7058  151.5359 LP  0  0  0  0  0  0  0  0  0  0  0  0  # atno 17342 bound_to 10162
  140.6401  143.8906  150.6684 LP  0  0  0  0  0  0  0  0  0  0  0  0  # atno 17343 bound_to 10162
  157.7463  131.0422  150.4684 LP  0  0  0  0  0  0  0  0  0  0  0  0  # atno 17370 bound_to 10713
  156.4882  130.4089  149.6422 LP  0  0  0  0  0  0  0  0  0  0  0  0  # atno 17371 bound_to 10713
  139.9424  134.7763  156.0646 LP  0  0  0  0  0  0  0  0  0  0  0  0  # atno 17394 bound_to 11000
  141.1134  133.6635  156.3034 LP  0  0  0  0  0  0  0  0  0  0  0  0  # atno 17395 bound_to 11000

$$$$
