AV-unprocessed.smi:1642|AV-procd|sdf|6570|dock3
  -GOLD-   22720 7253D 1   1.00000     0.00000
 Structure written by MMmdl.
 35 36  0  0  0  0  0  0  0  0  2 V2000
  152.0503  140.6037  158.2205 C   0  0  0  0  0  0  0  0  0  0  0  0
  151.6124  140.1244  156.8788 C   0  0  0  0  0  0  0  0  0  0  0  0
  152.4501  140.0105  155.8409 N   0  0  0  0  0  0  0  0  0  0  0  0
  151.8135  139.5433  154.6998 N   0  0  0  0  0  0  0  0  0  0  0  0
  150.5099  139.3165  154.9119 C   0  0  0  0  0  0  0  0  0  0  0  0
  149.6205  138.8344  153.9148 N   0  0  0  0  0  0  0  0  0  0  0  0
  148.3942  139.2902  153.6030 C   0  0  0  0  0  0  0  0  0  0  0  0
  147.8223  140.2329  154.1509 O   0  0  0  0  0  0  0  0  0  0  0  0
  147.8495  138.5843  152.6027 N   0  0  0  0  0  0  0  0  0  0  0  0
  146.5271  138.8446  152.0502 C   0  0  0  0  0  0  0  0  0  0  0  0
  146.1876  137.8340  150.9443 C   0  0  0  0  0  0  0  0  0  0  0  0
  145.9814  136.4713  151.4880 N   0  3  0  0  0  0  0  0  0  0  0  0
  145.1549  136.3976  152.7177 C   0  0  0  0  0  0  0  0  0  0  0  0
  144.2222  135.1889  152.5572 C   0  0  0  0  0  0  0  0  0  0  0  0
  144.7946  134.4130  151.3752 C   0  0  0  0  0  0  0  0  0  0  0  0
  145.4178  135.5102  150.5193 C   0  0  0  0  0  0  0  0  0  0  0  0
  149.9499  139.6580  156.5402 S   0  0  0  0  0  0  0  0  0  0  0  0
  153.0053  141.1254  158.1489 H   0  0  0  0  0  0  0  0  0  0  0  0
  152.1627  139.7579  158.8988 H   0  0  0  0  0  0  0  0  0  0  0  0
  151.3098  141.2889  158.6335 H   0  0  0  0  0  0  0  0  0  0  0  0
  149.9591  138.0498  153.3778 H   0  0  0  0  0  0  0  0  0  0  0  0
  148.3805  137.8246  152.2022 H   0  0  0  0  0  0  0  0  0  0  0  0
  145.7853  138.7874  152.8486 H   0  0  0  0  0  0  0  0  0  0  0  0
  146.5024  139.8632  151.6600 H   0  0  0  0  0  0  0  0  0  0  0  0
  145.3015  138.1488  150.3905 H   0  0  0  0  0  0  0  0  0  0  0  0
  147.0106  137.8015  150.2285 H   0  0  0  0  0  0  0  0  0  0  0  0
  145.8142  136.2760  153.5779 H   0  0  0  0  0  0  0  0  0  0  0  0
  144.5715  137.3064  152.8747 H   0  0  0  0  0  0  0  0  0  0  0  0
  144.1562  134.5845  153.4624 H   0  0  0  0  0  0  0  0  0  0  0  0
  143.2158  135.5328  152.3148 H   0  0  0  0  0  0  0  0  0  0  0  0
  145.5686  133.7261  151.7207 H   0  0  0  0  0  0  0  0  0  0  0  0
  144.0411  133.8331  150.8415 H   0  0  0  0  0  0  0  0  0  0  0  0
  144.6420  135.9962  149.9246 H   0  0  0  0  0  0  0  0  0  0  0  0
  146.1796  135.1301  149.8380 H   0  0  0  0  0  0  0  0  0  0  0  0
  146.8904  136.1078  151.7371 H   0  0  0  0  0  0  0  0  0  0  0  0
  1  2  1  0  0  0  0
  1 18  1  0  0  0  0
  1 19  1  0  0  0  0
  1 20  1  0  0  0  0
  2 17  1  0  0  0  0
  2  3  2  0  0  0  0
  3  4  1  0  0  0  0
  4  5  2  0  0  0  0
  5  6  1  0  0  0  0
  5 17  1  0  0  0  0
  6  7  1  0  0  0  0
  6 21  1  0  0  0  0
  7  8  2  0  0  0  0
  7  9  1  0  0  0  0
  9 10  1  0  0  0  0
  9 22  1  0  0  0  0
 10 11  1  0  0  0  0
 10 23  1  0  0  0  0
 10 24  1  0  0  0  0
 11 12  1  0  0  0  0
 11 25  1  0  0  0  0
 11 26  1  0  0  0  0
 12 16  1  0  0  0  0
 12 13  1  0  0  0  0
 12 35  1  0  0  0  0
 13 14  1  0  0  0  0
 13 27  1  0  0  0  0
 13 28  1  0  0  0  0
 14 15  1  0  0  0  0
 14 29  1  0  0  0  0
 14 30  1  0  0  0  0
 15 16  1  0  0  0  0
 15 31  1  0  0  0  0
 15 32  1  0  0  0  0
 16 33  1  0  0  0  0
 16 34  1  0  0  0  0
M  CHG  1  12   1
M  END
> <s_m_source_file>
AV-unprocessed.smi

> <i_m_source_file_index>
1642

> <i_lp_mmshare_version>
43012

> <i_f3d_flags>
0

> <s_epik_input>
W0NIM11jMW5uYyhzMSlbTkhdQyg9TylbTkhdW0NIMl1bQ0gyXU4yW0NIMl1bQ0gyXVtDSDJdW0NIMl0y

> <s_epik_cmdline>
J2VwaWtfcHl0aG9uJywgJy1waCcsICc3LjAnLCAnLXRuJywgJzgnLCAnLW1hJywgJzIwMCcsICctbWV0YWxfYmluZGluZycsICctaW1hZScsICc8aW5maWxlLm1hZT4nLCAnLW9tYWUnLCAnPG91dGZpbGUubWFlPic=

> <r_lp_tautomer_probability>
1

> <r_epik_Ionization_Penalty>
0.00661496

> <r_epik_Ionization_Penalty_Charging>
0.0023443

> <r_epik_Ionization_Penalty_Neutral>
0.00427066

> <r_epik_State_Penalty>
0.00184107

> <r_epik_Charging_Adjusted_Penalty>
0.00418537

> <i_epik_Tot_Q>
1

> <i_epik_Tot_abs_Q>
1

> <r_epik_Metal_State_Penalty>
0.375387

> <b_epik_Metal_Only>
0

> <s_lp_Force_Field>
OPLS_2005

> <r_lp_Energy>
26.1101

> <b_lp_Chiralities_Consistent>
1

> <s_lp_Variant>
AV-unprocessed.smi:1642-1

> <Gold.Version>
5.8.1

> <Gold.Id.Protein>
6NUR|6NUR_protein|mol2

> <Gold.PLP.Fitness>
40.1836

> <Gold.PLP.PLP>
-26.1805

> <Gold.PLP.part.hbond>
-6.0000

> <Gold.PLP.part.metal>
0.0000

> <Gold.PLP.part.buried>
3.7432

> <Gold.PLP.part.nonpolar>
-24.0048

> <Gold.PLP.part.repulsive>
0.3869

> <Gold.PLP.ligand.clash>
0.0000

> <Gold.PLP.ligand.torsion>
0.5055

> <Gold.PLP.Chemscore.Hbond>
5.0000

> <Gold.PLP.Chemscore.CHOScore>
0.0000

> <Gold.PLP.Chemscore.Metal>
0.0000

> <Gold.Chemscore.Hbonds>
donor molecule, donor type, donor heavy atom, donor atom, acceptor molecule, acceptor atom, score
      L1  H     9    22       P1  7948  1.00
      L1  H    12    35       P1  7948  1.95
      P1  H  7989  7998       L1     4  0.95
      P1  H  7997  8008       L1     3  1.00

> <Gold.PLP.Chemscore.Internal.Correction>
0.0140

> <Gold.Rescore>
     Score         DG    S(hbond)    S(metal)    S(lipo)     H(rot)  DE(clash)    DE(int)     intcor
     16.01     -17.18       2.95        0.00      51.50       1.63       0.68       0.49       ----

> <Gold.Chemscore.Fitness>
16.0133

> <Gold.Chemscore.DG>
-17.1837

> <Gold.Chemscore.ZeroCoef>
-5.4800

> <Gold.Chemscore.Hbond>
2.9492

> <Gold.Chemscore.Metal>
0.0000

> <Gold.Chemscore.Lipo>
51.4989

> <Gold.Chemscore.Internal_Hbond>
0.0000

> <Gold.Chemscore.DEClash>
0.6849

> <Gold.Chemscore.DEInternal>
0.4855

> <Gold.Chemscore.Rot>
1.6297

> <Gold.Chemscore.Internal.Correction>
   9.000000E+99

> <Gold.Chemscore.Hbonds>
donor molecule, donor type, donor heavy atom, donor atom, acceptor molecule, acceptor atom, score
      L1  H     9    22       P1  7948  1.00
      L1  H    12    35       P1  7948  0.88
      P1  H  7989  7998       L1     4  0.15
      P1  H  7997  8008       L1     3  0.97

> <Gold.Chemscore.Hbond.Weighted>
-9.8503

> <Gold.Chemscore.Metal.Weighted>
-0.0000

> <Gold.Chemscore.Lipo.Weighted>
-6.0254

> <Gold.Chemscore.Internal_Hbond.Weighted>
0.0000

> <Gold.Chemscore.DEClash.Weighted>
0.6849

> <Gold.Chemscore.DEInternal.Weighted>
0.4855

> <Gold.Chemscore.Rot.Weighted>
4.1720

> <Gold.Chemscore.Internal.Correction.Weighted>
   9.000000E+99

> <Gold.Protein.RotatedTorsions>
[ 6907 6896 6895 6894 ] final -120.74 input  -60.11 | X-H torsion
[ 7974 7965 7964 7962 ] final -117.08 input  175.53 | X-H torsion
[ 8008 7997 7996 7995 ] final  -23.60 input   59.86 | X-H torsion
[ 10167 10162 10161 10158 ] final   98.68 input  -65.29 | X-H torsion
[ 10718 10713 10712 10709 ] final -107.16 input   66.30 | X-H torsion
[ 10763 10752 10751 10750 ] final  -47.68 input  -60.55 | X-H torsion
[ 11005 11000 10999 10996 ] final   67.28 input  -57.11 | X-H torsion

> <Gold.Protein.ActiveResidues>
 VAL166  LYS551  ARG553  GLY616  TRP617  ASP618  TYR619  PRO620  LYS621  CYS622 
 ASP623  PHE694  ASN695  SER759  ASP760  ASP761  ALA762  ILE779  LEU786  VAL792 
 PHE793  MET794  SER795  GLU796  ALA797  LYS798  CYS799  TRP800  GLU811  SER814 

> <Gold.Protein.RotatedAtoms>
  150.8420  133.7921  159.3057 H   0  0  0  0  0  0  0  0  0  0  0  0  # atno 6907 bound_to 6896
  151.5619  135.1063  159.9984 H   0  0  0  0  0  0  0  0  0  0  0  0  # atno 6908 bound_to 6896
  152.4482  133.7534  159.6763 H   0  0  0  0  0  0  0  0  0  0  0  0  # atno 6909 bound_to 6896
  145.0893  140.8479  143.3992 H   0  0  0  0  0  0  0  0  0  0  0  0  # atno 7974 bound_to 7965
  154.4576  140.1976  156.0335 H   0  0  0  0  0  0  0  0  0  0  0  0  # atno 8008 bound_to 7997
  156.0777  140.3276  155.7626 H   0  0  0  0  0  0  0  0  0  0  0  0  # atno 8009 bound_to 7997
  155.5162  140.0566  157.2905 H   0  0  0  0  0  0  0  0  0  0  0  0  # atno 8010 bound_to 7997
  139.7687  144.6930  151.0188 H   0  0  0  0  0  0  0  0  0  0  0  0  # atno 10167 bound_to 10162
  156.0423  130.5649  150.7782 H   0  0  0  0  0  0  0  0  0  0  0  0  # atno 10718 bound_to 10713
  154.0654  135.6612  153.4817 H   0  0  0  0  0  0  0  0  0  0  0  0  # atno 10763 bound_to 10752
  153.0411  135.5145  154.7618 H   0  0  0  0  0  0  0  0  0  0  0  0  # atno 10764 bound_to 10752
  154.6668  135.3023  154.9762 H   0  0  0  0  0  0  0  0  0  0  0  0  # atno 10765 bound_to 10752
  139.9780  134.6790  156.0316 H   0  0  0  0  0  0  0  0  0  0  0  0  # atno 11005 bound_to 11000
  145.1085  139.2773  143.5650 LP  0  0  0  0  0  0  0  0  0  0  0  0  # atno 17320 bound_to 7965
  146.3531  140.0673  142.8625 LP  0  0  0  0  0  0  0  0  0  0  0  0  # atno 17321 bound_to 7965
  140.7812  143.4614  151.0273 LP  0  0  0  0  0  0  0  0  0  0  0  0  # atno 17342 bound_to 10162
  139.8298  143.7707  152.3179 LP  0  0  0  0  0  0  0  0  0  0  0  0  # atno 17343 bound_to 10162
  157.5257  131.0934  151.0021 LP  0  0  0  0  0  0  0  0  0  0  0  0  # atno 17370 bound_to 10713
  157.0340  130.5722  149.5347 LP  0  0  0  0  0  0  0  0  0  0  0  0  # atno 17371 bound_to 10713
  141.1455  133.6557  156.3856 LP  0  0  0  0  0  0  0  0  0  0  0  0  # atno 17394 bound_to 11000
  140.5154  134.6355  157.5299 LP  0  0  0  0  0  0  0  0  0  0  0  0  # atno 17395 bound_to 11000

$$$$
