AV-unprocessed.smi:2477|AV-procd|sdf|9760|dock9
  -GOLD-   2272013403D 1   1.00000     0.00000
 Structure written by MMmdl.
 51 53  0  0  0  0  0  0  0  0  1 V2000
  144.1556  136.6827  162.7373 C   0  0  0  0  0  0  0  0  0  0  0  0
  145.4012  136.0608  162.2806 N   0  0  0  0  0  0  0  0  0  0  0  0
  145.6544  134.7392  162.6851 C   0  0  0  0  0  0  0  0  0  0  0  0
  146.7680  134.0919  162.3151 C   0  0  0  0  0  0  0  0  0  0  0  0
  147.7195  134.7851  161.4802 C   0  0  0  0  0  0  0  0  0  0  0  0
  147.4909  136.0586  161.0707 C   0  0  0  0  0  0  0  0  0  0  0  0
  148.3667  136.8080  160.2656 N   0  0  0  0  0  0  0  0  0  0  0  0
  149.0871  136.4186  159.1977 C   0  0  0  0  0  0  0  0  0  0  0  0
  149.0811  135.2956  158.6941 O   0  0  0  0  0  0  0  0  0  0  0  0
  149.8240  137.4325  158.7228 N   0  0  0  0  0  0  0  0  0  0  0  0
  150.7256  137.3576  157.5753 C   0  0  1  0  0  0  0  0  0  0  0  0
  149.9117  137.1985  156.2766 C   0  0  0  0  0  0  0  0  0  0  0  0
  150.8279  137.1328  155.0445 C   0  0  0  0  0  0  0  0  0  0  0  0
  151.7538  138.3566  154.9709 C   0  0  0  0  0  0  0  0  0  0  0  0
  152.5648  138.5202  156.2668 C   0  0  0  0  0  0  0  0  0  0  0  0
  151.6522  138.5941  157.5095 C   0  0  1  0  0  0  0  0  0  0  0  0
  150.8345  139.7610  157.4859 O   0  0  0  0  0  0  0  0  0  0  0  0
  151.5311  140.9998  157.5053 C   0  0  0  0  0  0  0  0  0  0  0  0
  152.4410  141.0792  158.7294 C   0  0  0  0  0  0  0  0  0  0  0  0
  152.6473  142.5794  158.9663 C   0  0  0  0  0  0  0  0  0  0  0  0
  151.4508  143.2860  158.3080 C   0  0  0  0  0  0  0  0  0  0  0  0
  150.5791  142.1797  157.7035 C   0  0  0  0  0  0  0  0  0  0  0  0
  146.2665  136.7667  161.4929 C   0  0  0  0  0  0  0  0  0  0  0  0
  146.0225  137.9292  161.1603 O   0  0  0  0  0  0  0  0  0  0  0  0
  143.5390  136.0055  163.3295 H   0  0  0  0  0  0  0  0  0  0  0  0
  143.5542  137.0072  161.8871 H   0  0  0  0  0  0  0  0  0  0  0  0
  144.3683  137.5553  163.3565 H   0  0  0  0  0  0  0  0  0  0  0  0
  144.8948  134.2894  163.3080 H   0  0  0  0  0  0  0  0  0  0  0  0
  146.9493  133.0757  162.6329 H   0  0  0  0  0  0  0  0  0  0  0  0
  148.6183  134.2533  161.2139 H   0  0  0  0  0  0  0  0  0  0  0  0
  148.4296  137.7848  160.5140 H   0  0  0  0  0  0  0  0  0  0  0  0
  149.7704  138.3219  159.1971 H   0  0  0  0  0  0  0  0  0  0  0  0
  151.3457  136.4658  157.6867 H   0  0  0  0  0  0  0  0  0  0  0  0
  149.3020  136.2956  156.3266 H   0  0  0  0  0  0  0  0  0  0  0  0
  149.2177  138.0330  156.1671 H   0  0  0  0  0  0  0  0  0  0  0  0
  151.4280  136.2228  155.0849 H   0  0  0  0  0  0  0  0  0  0  0  0
  150.2267  137.0665  154.1373 H   0  0  0  0  0  0  0  0  0  0  0  0
  152.4296  138.2593  154.1210 H   0  0  0  0  0  0  0  0  0  0  0  0
  151.1614  139.2549  154.7925 H   0  0  0  0  0  0  0  0  0  0  0  0
  153.2396  137.6701  156.3725 H   0  0  0  0  0  0  0  0  0  0  0  0
  153.2049  139.3994  156.2015 H   0  0  0  0  0  0  0  0  0  0  0  0
  152.2722  138.6113  158.4075 H   0  0  0  0  0  0  0  0  0  0  0  0
  152.1343  141.1579  156.6088 H   0  0  0  0  0  0  0  0  0  0  0  0
  151.9342  140.6441  159.5921 H   0  0  0  0  0  0  0  0  0  0  0  0
  153.3785  140.5397  158.5913 H   0  0  0  0  0  0  0  0  0  0  0  0
  152.7222  142.8068  160.0302 H   0  0  0  0  0  0  0  0  0  0  0  0
  153.5745  142.9097  158.4961 H   0  0  0  0  0  0  0  0  0  0  0  0
  150.8893  143.8900  159.0214 H   0  0  0  0  0  0  0  0  0  0  0  0
  151.8053  143.9546  157.5226 H   0  0  0  0  0  0  0  0  0  0  0  0
  150.0878  142.4904  156.7816 H   0  0  0  0  0  0  0  0  0  0  0  0
  149.7993  141.9042  158.4150 H   0  0  0  0  0  0  0  0  0  0  0  0
  1  2  1  0  0  0  0
  1 25  1  0  0  0  0
  1 26  1  0  0  0  0
  1 27  1  0  0  0  0
  2 23  1  0  0  0  0
  2  3  1  0  0  0  0
  3  4  2  0  0  0  0
  3 28  1  0  0  0  0
  4  5  1  0  0  0  0
  4 29  1  0  0  0  0
  5  6  2  0  0  0  0
  5 30  1  0  0  0  0
  6  7  1  0  0  0  0
  6 23  1  0  0  0  0
  7  8  1  0  0  0  0
  7 31  1  0  0  0  0
  8  9  2  0  0  0  0
  8 10  1  0  0  0  0
 10 11  1  0  0  0  0
 10 32  1  0  0  0  0
 11 16  1  0  0  0  0
 11 12  1  0  0  0  0
 11 33  1  0  0  0  0
 12 13  1  0  0  0  0
 12 34  1  0  0  0  0
 12 35  1  0  0  0  0
 13 14  1  0  0  0  0
 13 36  1  0  0  0  0
 13 37  1  0  0  0  0
 14 15  1  0  0  0  0
 14 38  1  0  0  0  0
 14 39  1  0  0  0  0
 15 16  1  0  0  0  0
 15 40  1  0  0  0  0
 15 41  1  0  0  0  0
 16 17  1  0  0  0  0
 16 42  1  0  0  0  0
 17 18  1  0  0  0  0
 18 22  1  0  0  0  0
 18 19  1  0  0  0  0
 18 43  1  0  0  0  0
 19 20  1  0  0  0  0
 19 44  1  0  0  0  0
 19 45  1  0  0  0  0
 20 21  1  0  0  0  0
 20 46  1  0  0  0  0
 20 47  1  0  0  0  0
 21 22  1  0  0  0  0
 21 48  1  0  0  0  0
 21 49  1  0  0  0  0
 22 50  1  0  0  0  0
 22 51  1  0  0  0  0
 23 24  2  0  0  0  0
M  END
> <s_m_source_file>
AV-unprocessed.smi

> <i_m_source_file_index>
2477

> <i_lp_mmshare_version>
43012

> <i_f3d_flags>
0

> <s_epik_input>
W0NIM11uMVtjSF1bY0hdW2NIXWMoYzE9TylbTkhdQyg9TylbTkhdW0NAQEhdMltDSDJdW0NIMl1bQ0gyXVtDSDJdW0NASF0yT1tDSF0zW0NIMl1bQ0gyXVtDSDJdW0NIMl0z

> <s_epik_cmdline>
J2VwaWtfcHl0aG9uJywgJy1waCcsICc3LjAnLCAnLXRuJywgJzgnLCAnLW1hJywgJzIwMCcsICctbWV0YWxfYmluZGluZycsICctaW1hZScsICc8aW5maWxlLm1hZT4nLCAnLW9tYWUnLCAnPG91dGZpbGUubWFlPic=

> <r_lp_tautomer_probability>
1

> <r_epik_Ionization_Penalty>
2.40753e-05

> <r_epik_Ionization_Penalty_Charging>
4.84018e-06

> <r_epik_Ionization_Penalty_Neutral>
1.92352e-05

> <r_epik_State_Penalty>
-0

> <r_epik_Charging_Adjusted_Penalty>
4.84018e-06

> <i_epik_Tot_Q>
0

> <i_epik_Tot_abs_Q>
0

> <r_epik_Metal_State_Penalty>
-0

> <b_epik_Metal_Only>
0

> <s_lp_Force_Field>
OPLS_2005

> <r_lp_Energy>
43.088

> <b_lp_Chiralities_Consistent>
1

> <s_lp_Variant>
AV-unprocessed.smi:2477-2

> <Gold.Version>
5.8.1

> <Gold.Id.Protein>
6NUR|6NUR_protein|mol2

> <Gold.PLP.Fitness>
45.6668

> <Gold.PLP.PLP>
-40.6782

> <Gold.PLP.part.hbond>
-1.8994

> <Gold.PLP.part.metal>
0.0000

> <Gold.PLP.part.buried>
-7.5315

> <Gold.PLP.part.nonpolar>
-33.4422

> <Gold.PLP.part.repulsive>
0.9093

> <Gold.PLP.ligand.clash>
0.0000

> <Gold.PLP.ligand.torsion>
0.4615

> <Gold.PLP.Chemscore.Hbond>
1.9600

> <Gold.PLP.Chemscore.CHOScore>
0.0000

> <Gold.PLP.Chemscore.Metal>
0.0000

> <Gold.Chemscore.Hbonds>
donor molecule, donor type, donor heavy atom, donor atom, acceptor molecule, acceptor atom, score
      P1  H  6896  6908       L1     9  1.00
      P1  H  6934  6947       L1    24  0.99

> <Gold.PLP.Chemscore.Internal.Correction>
0.0315

> <Gold.Rescore>
     Score         DG    S(hbond)    S(metal)    S(lipo)     H(rot)  DE(clash)    DE(int)     intcor
     20.66     -21.38       1.92        0.00     110.79       1.36       0.20       0.53       ----

> <Gold.Chemscore.Fitness>
20.6566

> <Gold.Chemscore.DG>
-21.3818

> <Gold.Chemscore.ZeroCoef>
-5.4800

> <Gold.Chemscore.Hbond>
1.9197

> <Gold.Chemscore.Metal>
0.0000

> <Gold.Chemscore.Lipo>
110.7883

> <Gold.Chemscore.Internal_Hbond>
0.0000

> <Gold.Chemscore.DEClash>
0.1993

> <Gold.Chemscore.DEInternal>
0.5259

> <Gold.Chemscore.Rot>
1.3564

> <Gold.Chemscore.Internal.Correction>
   9.000000E+99

> <Gold.Chemscore.Hbonds>
donor molecule, donor type, donor heavy atom, donor atom, acceptor molecule, acceptor atom, score
      P1  H  6896  6908       L1     9  0.62
      P1  H  6934  6947       L1    24  0.92

> <Gold.Chemscore.Hbond.Weighted>
-6.4119

> <Gold.Chemscore.Metal.Weighted>
-0.0000

> <Gold.Chemscore.Lipo.Weighted>
-12.9622

> <Gold.Chemscore.Internal_Hbond.Weighted>
0.0000

> <Gold.Chemscore.DEClash.Weighted>
0.1993

> <Gold.Chemscore.DEInternal.Weighted>
0.5259

> <Gold.Chemscore.Rot.Weighted>
3.4724

> <Gold.Chemscore.Internal.Correction.Weighted>
   9.000000E+99

> <Gold.Protein.RotatedTorsions>
[ 6907 6896 6895 6894 ] final  148.79 input  -60.11 | X-H torsion
[ 7974 7965 7964 7962 ] final -149.36 input  175.53 | X-H torsion
[ 8008 7997 7996 7995 ] final  117.73 input   59.86 | X-H torsion
[ 10167 10162 10161 10158 ] final  155.74 input  -65.29 | X-H torsion
[ 10718 10713 10712 10709 ] final -160.21 input   66.30 | X-H torsion
[ 10763 10752 10751 10750 ] final  178.65 input  -60.55 | X-H torsion
[ 11005 11000 10999 10996 ] final   57.37 input  -57.11 | X-H torsion

> <Gold.Protein.ActiveResidues>
 VAL166  LYS551  ARG553  GLY616  TRP617  ASP618  TYR619  PRO620  LYS621  CYS622 
 ASP623  PHE694  ASN695  SER759  ASP760  ASP761  ALA762  ILE779  LEU786  VAL792 
 PHE793  MET794  SER795  GLU796  ALA797  LYS798  CYS799  TRP800  GLU811  SER814 

> <Gold.Protein.RotatedAtoms>
  152.1367  133.4439  159.4746 H   0  0  0  0  0  0  0  0  0  0  0  0  # atno 6907 bound_to 6896
  150.6882  134.2355  159.4460 H   0  0  0  0  0  0  0  0  0  0  0  0  # atno 6908 bound_to 6896
  152.0242  134.9804  160.0622 H   0  0  0  0  0  0  0  0  0  0  0  0  # atno 6909 bound_to 6896
  144.7972  140.5075  143.5732 H   0  0  0  0  0  0  0  0  0  0  0  0  # atno 7974 bound_to 7965
  156.2509  140.2890  156.0724 H   0  0  0  0  0  0  0  0  0  0  0  0  # atno 8008 bound_to 7997
  155.1656  140.0400  157.2869 H   0  0  0  0  0  0  0  0  0  0  0  0  # atno 8009 bound_to 7997
  154.6362  140.2511  155.7382 H   0  0  0  0  0  0  0  0  0  0  0  0  # atno 8010 bound_to 7997
  139.4821  144.5071  151.8081 H   0  0  0  0  0  0  0  0  0  0  0  0  # atno 10167 bound_to 10162
  156.5790  130.8721  151.2859 H   0  0  0  0  0  0  0  0  0  0  0  0  # atno 10718 bound_to 10713
  154.5105  135.2788  155.1346 H   0  0  0  0  0  0  0  0  0  0  0  0  # atno 10763 bound_to 10752
  154.2944  135.6260  153.5402 H   0  0  0  0  0  0  0  0  0  0  0  0  # atno 10764 bound_to 10752
  152.9918  135.5682  154.5569 H   0  0  0  0  0  0  0  0  0  0  0  0  # atno 10765 bound_to 10752
  140.0458  134.5808  155.9325 H   0  0  0  0  0  0  0  0  0  0  0  0  # atno 11005 bound_to 11000
  145.5642  139.1480  143.3324 LP  0  0  0  0  0  0  0  0  0  0  0  0  # atno 17320 bound_to 7965
  146.2244  140.5778  142.9003 LP  0  0  0  0  0  0  0  0  0  0  0  0  # atno 17321 bound_to 7965
  140.4570  144.1775  150.5902 LP  0  0  0  0  0  0  0  0  0  0  0  0  # atno 17342 bound_to 10162
  140.4524  143.2481  151.9329 LP  0  0  0  0  0  0  0  0  0  0  0  0  # atno 17343 bound_to 10162
  157.7331  130.9725  150.1961 LP  0  0  0  0  0  0  0  0  0  0  0  0  # atno 17370 bound_to 10713
  156.2648  130.3715  149.8092 LP  0  0  0  0  0  0  0  0  0  0  0  0  # atno 17371 bound_to 10713
  141.1906  133.6569  156.5419 LP  0  0  0  0  0  0  0  0  0  0  0  0  # atno 17394 bound_to 11000
  140.3996  134.7368  157.4772 LP  0  0  0  0  0  0  0  0  0  0  0  0  # atno 17395 bound_to 11000

$$$$
