AV-unprocessed.smi:3341|AV-procd|sdf|12883|dock3
  -GOLD-   2272019283D 1   1.00000     0.00000
 Structure written by MMmdl.
 46 47  0  0  0  0  0  0  0  0  2 V2000
  152.0450  142.5108  158.4516 C   0  0  0  0  0  0  0  0  0  0  0  0
  151.0500  142.7842  157.3174 C   0  0  0  0  0  0  0  0  0  0  0  0
  150.8435  141.6122  156.4891 N   0  0  0  0  0  0  0  0  0  0  0  0
  149.9369  141.4416  155.4615 C   0  0  0  0  0  0  0  0  0  0  0  0
  150.1370  140.1712  154.9998 C   0  0  0  0  0  0  0  0  0  0  0  0
  149.4742  139.4781  153.9554 N   0  0  0  0  0  0  0  0  0  0  0  0
  148.1679  139.5240  153.6473 C   0  0  0  0  0  0  0  0  0  0  0  0
  147.3258  140.2108  154.2263 O   0  0  0  0  0  0  0  0  0  0  0  0
  147.8809  138.7220  152.6123 N   0  0  0  0  0  0  0  0  0  0  0  0
  146.5498  138.5355  152.0460 C   0  0  0  0  0  0  0  0  0  0  0  0
  145.7483  137.4724  152.8220 C   0  0  0  0  0  0  0  0  0  0  0  0
  146.0461  136.0910  152.3660 N   0  3  1  0  0  0  0  0  0  0  0  0
  146.2580  135.1605  153.5053 C   0  0  0  0  0  0  0  0  0  0  0  0
  146.6999  133.7727  153.0144 C   0  0  0  0  0  0  0  0  0  0  0  0
  145.6852  133.1935  152.0211 C   0  0  0  0  0  0  0  0  0  0  0  0
  145.4553  134.1767  150.8613 C   0  0  1  0  0  0  0  0  0  0  0  0
  144.4241  133.6336  149.8618 C   0  0  0  0  0  0  0  0  0  0  0  0
  145.0410  135.5587  151.4062 C   0  0  0  0  0  0  0  0  0  0  0  0
  151.1803  139.6301  155.7953 C   0  0  0  0  0  0  0  0  0  0  0  0
  151.6027  140.5072  156.6929 N   0  0  0  0  0  0  0  0  0  0  0  0
  152.1934  143.4030  159.0600 H   0  0  0  0  0  0  0  0  0  0  0  0
  153.0167  142.2099  158.0587 H   0  0  0  0  0  0  0  0  0  0  0  0
  151.6883  141.7163  159.1081 H   0  0  0  0  0  0  0  0  0  0  0  0
  150.0885  143.1015  157.7235 H   0  0  0  0  0  0  0  0  0  0  0  0
  151.4117  143.5978  156.6874 H   0  0  0  0  0  0  0  0  0  0  0  0
  149.2524  142.2228  155.1653 H   0  0  0  0  0  0  0  0  0  0  0  0
  150.0559  138.8769  153.3902 H   0  0  0  0  0  0  0  0  0  0  0  0
  148.6338  138.1927  152.1965 H   0  0  0  0  0  0  0  0  0  0  0  0
  146.0496  139.5025  152.0789 H   0  0  0  0  0  0  0  0  0  0  0  0
  146.6285  138.2618  150.9924 H   0  0  0  0  0  0  0  0  0  0  0  0
  146.0037  137.5569  153.8792 H   0  0  0  0  0  0  0  0  0  0  0  0
  144.6766  137.6640  152.7497 H   0  0  0  0  0  0  0  0  0  0  0  0
  147.0221  135.5602  154.1733 H   0  0  0  0  0  0  0  0  0  0  0  0
  145.3380  135.0800  154.0868 H   0  0  0  0  0  0  0  0  0  0  0  0
  147.6789  133.8458  152.5388 H   0  0  0  0  0  0  0  0  0  0  0  0
  146.8178  133.0977  153.8626 H   0  0  0  0  0  0  0  0  0  0  0  0
  146.0427  132.2355  151.6418 H   0  0  0  0  0  0  0  0  0  0  0  0
  144.7429  132.9941  152.5336 H   0  0  0  0  0  0  0  0  0  0  0  0
  146.3992  134.2948  150.3266 H   0  0  0  0  0  0  0  0  0  0  0  0
  143.4505  133.4919  150.3321 H   0  0  0  0  0  0  0  0  0  0  0  0
  144.7402  132.6724  149.4555 H   0  0  0  0  0  0  0  0  0  0  0  0
  144.2918  134.3170  149.0226 H   0  0  0  0  0  0  0  0  0  0  0  0
  144.0685  135.4950  151.8975 H   0  0  0  0  0  0  0  0  0  0  0  0
  144.9244  136.2449  150.5681 H   0  0  0  0  0  0  0  0  0  0  0  0
  151.6355  138.6516  155.7532 H   0  0  0  0  0  0  0  0  0  0  0  0
  146.9278  136.1368  151.8752 H   0  0  0  0  0  0  0  0  0  0  0  0
  1  2  1  0  0  0  0
  1 21  1  0  0  0  0
  1 22  1  0  0  0  0
  1 23  1  0  0  0  0
  2  3  1  0  0  0  0
  2 24  1  0  0  0  0
  2 25  1  0  0  0  0
  3 20  1  0  0  0  0
  3  4  1  0  0  0  0
  4  5  2  0  0  0  0
  4 26  1  0  0  0  0
  5  6  1  0  0  0  0
  5 19  1  0  0  0  0
  6  7  1  0  0  0  0
  6 27  1  0  0  0  0
  7  8  2  0  0  0  0
  7  9  1  0  0  0  0
  9 10  1  0  0  0  0
  9 28  1  0  0  0  0
 10 11  1  0  0  0  0
 10 29  1  0  0  0  0
 10 30  1  0  0  0  0
 11 12  1  0  0  0  0
 11 31  1  0  0  0  0
 11 32  1  0  0  0  0
 12 18  1  0  0  0  0
 12 13  1  0  0  0  0
 12 46  1  0  0  0  0
 13 14  1  0  0  0  0
 13 33  1  0  0  0  0
 13 34  1  0  0  0  0
 14 15  1  0  0  0  0
 14 35  1  0  0  0  0
 14 36  1  0  0  0  0
 15 16  1  0  0  0  0
 15 37  1  0  0  0  0
 15 38  1  0  0  0  0
 16 17  1  0  0  0  0
 16 18  1  0  0  0  0
 16 39  1  0  0  0  0
 17 40  1  0  0  0  0
 17 41  1  0  0  0  0
 17 42  1  0  0  0  0
 18 43  1  0  0  0  0
 18 44  1  0  0  0  0
 19 20  2  0  0  0  0
 19 45  1  0  0  0  0
M  CHG  1  12   1
M  END
> <s_m_source_file>
AV-unprocessed.smi

> <i_m_source_file_index>
3341

> <i_lp_mmshare_version>
43012

> <i_f3d_flags>
0

> <s_epik_input>
W0NIM11bQ0gyXW4xW2NIXWMoW2NIXW4xKVtOSF1DKD1PKVtOSF1bQ0gyXVtDSDJdTjJbQ0gyXVtDSDJdW0NIMl1bQ0BASF0oW0NIM10pW0NIMl0y

> <s_epik_cmdline>
J2VwaWtfcHl0aG9uJywgJy1waCcsICc3LjAnLCAnLXRuJywgJzgnLCAnLW1hJywgJzIwMCcsICctbWV0YWxfYmluZGluZycsICctaW1hZScsICc8aW5maWxlLm1hZT4nLCAnLW9tYWUnLCAnPG91dGZpbGUubWFlPic=

> <r_lp_tautomer_probability>
1

> <r_epik_Ionization_Penalty>
0.00203389

> <r_epik_Ionization_Penalty_Charging>
0.00188267

> <r_epik_Ionization_Penalty_Neutral>
0.000151224

> <r_epik_State_Penalty>
0.0012808

> <r_epik_Charging_Adjusted_Penalty>
0.00316346

> <i_epik_Tot_Q>
1

> <i_epik_Tot_abs_Q>
1

> <r_epik_Metal_State_Penalty>
-0

> <b_epik_Metal_Only>
0

> <s_lp_Force_Field>
OPLS_2005

> <r_lp_Energy>
20.2182

> <b_lp_Chiralities_Consistent>
1

> <s_lp_Variant>
AV-unprocessed.smi:3341-1

> <Gold.Version>
5.8.1

> <Gold.Id.Protein>
6NUR|6NUR_protein|mol2

> <Gold.PLP.Fitness>
45.6586

> <Gold.PLP.PLP>
-36.9709

> <Gold.PLP.part.hbond>
-4.0000

> <Gold.PLP.part.metal>
0.0000

> <Gold.PLP.part.buried>
-2.2064

> <Gold.PLP.part.nonpolar>
-32.0325

> <Gold.PLP.part.repulsive>
0.3131

> <Gold.PLP.ligand.clash>
0.0000

> <Gold.PLP.ligand.torsion>
1.2259

> <Gold.PLP.Chemscore.Hbond>
2.7040

> <Gold.PLP.Chemscore.CHOScore>
1.0000

> <Gold.PLP.Chemscore.Metal>
0.0000

> <Gold.Chemscore.Hbonds>
donor molecule, donor type, donor heavy atom, donor atom, acceptor molecule, acceptor atom, score
      L1  H     9    28       P1  7948  0.72
      L1  H    12    46       P1  7948  2.00
      L1  C     4    26       P1  8028  0.91

> <Gold.PLP.Chemscore.Internal.Correction>
0.0274

> <Gold.Rescore>
     Score         DG    S(hbond)    S(metal)    S(lipo)     H(rot)  DE(clash)    DE(int)     intcor
     15.74     -17.06       1.78        0.00      83.04       1.59       0.08       1.24       ----

> <Gold.Chemscore.Fitness>
15.7417

> <Gold.Chemscore.DG>
-17.0621

> <Gold.Chemscore.ZeroCoef>
-5.4800

> <Gold.Chemscore.Hbond>
1.7784

> <Gold.Chemscore.Metal>
0.0000

> <Gold.Chemscore.Lipo>
83.0361

> <Gold.Chemscore.Internal_Hbond>
0.0000

> <Gold.Chemscore.DEClash>
0.0778

> <Gold.Chemscore.DEInternal>
1.2427

> <Gold.Chemscore.Rot>
1.5909

> <Gold.Chemscore.Internal.Correction>
   9.000000E+99

> <Gold.Chemscore.Hbonds>
donor molecule, donor type, donor heavy atom, donor atom, acceptor molecule, acceptor atom, score
      L1  H     9    28       P1  7948  0.70
      L1  H    12    46       P1  7948  0.93

> <Gold.Chemscore.Hbond.Weighted>
-5.9397

> <Gold.Chemscore.Metal.Weighted>
-0.0000

> <Gold.Chemscore.Lipo.Weighted>
-9.7152

> <Gold.Chemscore.Internal_Hbond.Weighted>
0.0000

> <Gold.Chemscore.DEClash.Weighted>
0.0778

> <Gold.Chemscore.DEInternal.Weighted>
1.2427

> <Gold.Chemscore.Rot.Weighted>
4.0728

> <Gold.Chemscore.Internal.Correction.Weighted>
   9.000000E+99

> <Gold.Protein.RotatedTorsions>
[ 6907 6896 6895 6894 ] final   22.71 input  -60.11 | X-H torsion
[ 7974 7965 7964 7962 ] final -104.47 input  175.53 | X-H torsion
[ 8008 7997 7996 7995 ] final  -35.19 input   59.86 | X-H torsion
[ 10167 10162 10161 10158 ] final  -74.36 input  -65.29 | X-H torsion
[ 10718 10713 10712 10709 ] final  -50.43 input   66.30 | X-H torsion
[ 10763 10752 10751 10750 ] final  167.32 input  -60.55 | X-H torsion
[ 11005 11000 10999 10996 ] final  103.64 input  -57.11 | X-H torsion

> <Gold.Protein.ActiveResidues>
 VAL166  LYS551  ARG553  GLY616  TRP617  ASP618  TYR619  PRO620  LYS621  CYS622 
 ASP623  PHE694  ASN695  SER759  ASP760  ASP761  ALA762  ILE779  LEU786  VAL792 
 PHE793  MET794  SER795  GLU796  ALA797  LYS798  CYS799  TRP800  GLU811  SER814 

> <Gold.Protein.RotatedAtoms>
  151.9312  135.0255  160.0529 H   0  0  0  0  0  0  0  0  0  0  0  0  # atno 6907 bound_to 6896
  152.2117  133.4911  159.5122 H   0  0  0  0  0  0  0  0  0  0  0  0  # atno 6908 bound_to 6896
  150.6978  134.1376  159.4135 H   0  0  0  0  0  0  0  0  0  0  0  0  # atno 6909 bound_to 6896
  145.2428  140.9211  143.3140 H   0  0  0  0  0  0  0  0  0  0  0  0  # atno 7974 bound_to 7965
  154.4101  140.1664  156.2172 H   0  0  0  0  0  0  0  0  0  0  0  0  # atno 8008 bound_to 7997
  155.9394  140.3409  155.6292 H   0  0  0  0  0  0  0  0  0  0  0  0  # atno 8009 bound_to 7997
  155.7007  140.0745  157.2402 H   0  0  0  0  0  0  0  0  0  0  0  0  # atno 8010 bound_to 7997
  140.5033  143.2357  151.7715 H   0  0  0  0  0  0  0  0  0  0  0  0  # atno 10167 bound_to 10162
  156.1802  130.4150  149.9519 H   0  0  0  0  0  0  0  0  0  0  0  0  # atno 10718 bound_to 10713
  154.3521  135.2753  155.2366 H   0  0  0  0  0  0  0  0  0  0  0  0  # atno 10763 bound_to 10752
  154.4591  135.5911  153.6247 H   0  0  0  0  0  0  0  0  0  0  0  0  # atno 10764 bound_to 10752
  152.9849  135.6060  154.3732 H   0  0  0  0  0  0  0  0  0  0  0  0  # atno 10765 bound_to 10752
  139.8785  134.9270  156.5240 H   0  0  0  0  0  0  0  0  0  0  0  0  # atno 11005 bound_to 11000
  144.9573  139.4017  143.6373 LP  0  0  0  0  0  0  0  0  0  0  0  0  # atno 17320 bound_to 7965
  146.3324  139.8610  142.8856 LP  0  0  0  0  0  0  0  0  0  0  0  0  # atno 17321 bound_to 7965
  139.4877  144.4492  151.9674 LP  0  0  0  0  0  0  0  0  0  0  0  0  # atno 17342 bound_to 10162
  140.3581  144.3006  150.5938 LP  0  0  0  0  0  0  0  0  0  0  0  0  # atno 17343 bound_to 10162
  156.7292  130.9036  151.3624 LP  0  0  0  0  0  0  0  0  0  0  0  0  # atno 17370 bound_to 10713
  157.6863  130.9188  150.0394 LP  0  0  0  0  0  0  0  0  0  0  0  0  # atno 17371 bound_to 10713
  140.8430  133.8190  155.9093 LP  0  0  0  0  0  0  0  0  0  0  0  0  # atno 17394 bound_to 11000
  140.9219  134.2131  157.4921 LP  0  0  0  0  0  0  0  0  0  0  0  0  # atno 17395 bound_to 11000

$$$$
