AV-unprocessed.smi:1543|AV-procd|sdf|6208|dock9
  -GOLD-   22720 6383D 1   1.00000     0.00000
 Structure written by MMmdl.
 49 50  0  0  0  0  0  0  0  0  2 V2000
  151.7084  137.9800  154.3970 C   0  0  0  0  0  0  0  0  0  0  0  0
  150.6012  138.8479  155.0057 C   0  0  2  0  0  0  0  0  0  0  0  0
  149.2157  138.4986  154.4333 C   0  0  0  0  0  0  0  0  0  0  0  0
  148.1769  139.4101  154.9873 N   0  3  2  0  0  0  0  0  0  0  0  0
  146.7463  139.0344  154.6954 C   0  0  0  0  0  0  0  0  0  0  0  0
  146.4130  137.6739  155.3579 C   0  0  0  0  0  0  0  0  0  0  0  0
  145.7994  140.0715  155.3508 C   0  0  0  0  0  0  0  0  0  0  0  0
  146.4872  138.9480  153.1611 C   0  0  0  0  0  0  0  0  0  0  0  0
  146.7712  137.6303  152.5933 N   0  0  0  0  0  0  0  0  0  0  0  0
  145.8529  136.7186  152.2420 C   0  0  0  0  0  0  0  0  0  0  0  0
  144.6413  136.8926  152.3692 O   0  0  0  0  0  0  0  0  0  0  0  0
  146.4321  135.6186  151.7313 N   0  0  0  0  0  0  0  0  0  0  0  0
  145.8140  134.4257  151.2681 C   0  0  0  0  0  0  0  0  0  0  0  0
  144.4146  134.2094  151.2428 C   0  0  0  0  0  0  0  0  0  0  0  0
  143.9266  132.9730  150.7779 C   0  0  0  0  0  0  0  0  0  0  0  0
  144.8529  131.9968  150.3630 C   0  0  0  0  0  0  0  0  0  0  0  0
  146.1891  132.1844  150.3941 N   0  0  0  0  0  0  0  0  0  0  0  0
  146.6497  133.3718  150.8413 C   0  0  0  0  0  0  0  0  0  0  0  0
  148.5517  140.8211  154.6867 C   0  0  0  0  0  0  0  0  0  0  0  0
  149.9596  141.1496  155.2197 C   0  0  1  0  0  0  0  0  0  0  0  0
  150.0211  141.2863  156.7516 C   0  0  0  0  0  0  0  0  0  0  0  0
  150.9073  140.2086  154.7197 O   0  0  0  0  0  0  0  0  0  0  0  0
  151.5332  136.9224  154.5960 H   0  0  0  0  0  0  0  0  0  0  0  0
  152.6810  138.2390  154.8162 H   0  0  0  0  0  0  0  0  0  0  0  0
  151.7659  138.1125  153.3162 H   0  0  0  0  0  0  0  0  0  0  0  0
  150.6031  138.6874  156.0840 H   0  0  0  0  0  0  0  0  0  0  0  0
  149.2376  138.5729  153.3455 H   0  0  0  0  0  0  0  0  0  0  0  0
  149.0098  137.4589  154.6797 H   0  0  0  0  0  0  0  0  0  0  0  0
  145.3412  137.4722  155.3491 H   0  0  0  0  0  0  0  0  0  0  0  0
  146.7330  137.6502  156.4002 H   0  0  0  0  0  0  0  0  0  0  0  0
  146.8792  136.8348  154.8422 H   0  0  0  0  0  0  0  0  0  0  0  0
  144.7643  139.7290  155.3560 H   0  0  0  0  0  0  0  0  0  0  0  0
  145.7978  141.0249  154.8231 H   0  0  0  0  0  0  0  0  0  0  0  0
  146.0754  140.2617  156.3888 H   0  0  0  0  0  0  0  0  0  0  0  0
  145.4641  139.2366  152.9190 H   0  0  0  0  0  0  0  0  0  0  0  0
  147.1262  139.6521  152.6293 H   0  0  0  0  0  0  0  0  0  0  0  0
  147.7437  137.4005  152.4480 H   0  0  0  0  0  0  0  0  0  0  0  0
  147.4341  135.6576  151.6139 H   0  0  0  0  0  0  0  0  0  0  0  0
  143.7107  134.9539  151.5804 H   0  0  0  0  0  0  0  0  0  0  0  0
  142.8654  132.7759  150.7444 H   0  0  0  0  0  0  0  0  0  0  0  0
  144.5118  131.0380  150.0017 H   0  0  0  0  0  0  0  0  0  0  0  0
  147.7241  133.4850  150.8551 H   0  0  0  0  0  0  0  0  0  0  0  0
  148.5391  140.9820  153.6086 H   0  0  0  0  0  0  0  0  0  0  0  0
  147.8516  141.5332  155.1188 H   0  0  0  0  0  0  0  0  0  0  0  0
  150.2515  142.1159  154.8070 H   0  0  0  0  0  0  0  0  0  0  0  0
  149.3870  142.1055  157.0917 H   0  0  0  0  0  0  0  0  0  0  0  0
  151.0380  141.4990  157.0826 H   0  0  0  0  0  0  0  0  0  0  0  0
  149.6846  140.3846  157.2625 H   0  0  0  0  0  0  0  0  0  0  0  0
  148.2602  139.3241  155.9903 H   0  0  0  0  0  0  0  0  0  0  0  0
  1  2  1  0  0  0  0
  1 23  1  0  0  0  0
  1 24  1  0  0  0  0
  1 25  1  0  0  0  0
  2 22  1  0  0  0  0
  2  3  1  0  0  0  0
  2 26  1  0  0  0  0
  3  4  1  0  0  0  0
  3 27  1  0  0  0  0
  3 28  1  0  0  0  0
  4  5  1  0  0  0  0
  4 19  1  0  0  0  0
  4 49  1  0  0  0  0
  5  6  1  0  0  0  0
  5  7  1  0  0  0  0
  5  8  1  0  0  0  0
  6 29  1  0  0  0  0
  6 30  1  0  0  0  0
  6 31  1  0  0  0  0
  7 32  1  0  0  0  0
  7 33  1  0  0  0  0
  7 34  1  0  0  0  0
  8  9  1  0  0  0  0
  8 35  1  0  0  0  0
  8 36  1  0  0  0  0
  9 10  1  0  0  0  0
  9 37  1  0  0  0  0
 10 11  2  0  0  0  0
 10 12  1  0  0  0  0
 12 13  1  0  0  0  0
 12 38  1  0  0  0  0
 13 18  1  0  0  0  0
 13 14  2  0  0  0  0
 14 15  1  0  0  0  0
 14 39  1  0  0  0  0
 15 16  2  0  0  0  0
 15 40  1  0  0  0  0
 16 17  1  0  0  0  0
 16 41  1  0  0  0  0
 17 18  2  0  0  0  0
 18 42  1  0  0  0  0
 19 20  1  0  0  0  0
 19 43  1  0  0  0  0
 19 44  1  0  0  0  0
 20 21  1  0  0  0  0
 20 22  1  0  0  0  0
 20 45  1  0  0  0  0
 21 46  1  0  0  0  0
 21 47  1  0  0  0  0
 21 48  1  0  0  0  0
M  CHG  1   4   1
M  END
> <s_m_source_file>
AV-unprocessed.smi

> <i_m_source_file_index>
1543

> <i_lp_mmshare_version>
43012

> <i_f3d_flags>
0

> <s_epik_input>
W0NIM11bQ0BASF0xW0NIMl1OKFtDSDJdW0NASF0oTzEpW0NIM10pQyhbQ0gzXSkoW0NIM10pW0NIMl1bTkhdQyg9TylbTkhdYzJbY0hdW2NIXVtjSF1uW2NIXTI=

> <s_epik_cmdline>
J2VwaWtfcHl0aG9uJywgJy1waCcsICc3LjAnLCAnLXRuJywgJzgnLCAnLW1hJywgJzIwMCcsICctbWV0YWxfYmluZGluZycsICctaW1hZScsICc8aW5maWxlLm1hZT4nLCAnLW9tYWUnLCAnPG91dGZpbGUubWFlPic=

> <r_epik_Ionization_Penalty>
0.60676

> <r_epik_Ionization_Penalty_Charging>
0.602531

> <r_epik_Ionization_Penalty_Neutral>
0.00422967

> <r_epik_State_Penalty>
0.607492

> <r_epik_Charging_Adjusted_Penalty>
1.21002

> <i_epik_Tot_Q>
1

> <i_epik_Tot_abs_Q>
1

> <r_epik_Metal_State_Penalty>
0.604589

> <b_epik_Metal_Only>
0

> <s_lp_Force_Field>
OPLS_2005

> <r_lp_Energy>
30.3839

> <b_lp_Chiralities_Consistent>
1

> <s_lp_Variant>
AV-unprocessed.smi:1543-4

> <Gold.Version>
5.8.1

> <Gold.Id.Protein>
6NUR|6NUR_protein|mol2

> <Gold.PLP.Fitness>
43.5187

> <Gold.PLP.PLP>
-35.8370

> <Gold.PLP.part.hbond>
-2.9787

> <Gold.PLP.part.metal>
0.0000

> <Gold.PLP.part.buried>
-6.2455

> <Gold.PLP.part.nonpolar>
-28.3029

> <Gold.PLP.part.repulsive>
0.9498

> <Gold.PLP.ligand.clash>
0.0000

> <Gold.PLP.ligand.torsion>
0.7156

> <Gold.PLP.Chemscore.Hbond>
3.0000

> <Gold.PLP.Chemscore.CHOScore>
0.0000

> <Gold.PLP.Chemscore.Metal>
0.0000

> <Gold.Chemscore.Hbonds>
donor molecule, donor type, donor heavy atom, donor atom, acceptor molecule, acceptor atom, score
      L1  H     9    37       P1  7948  0.98
      L1  H    12    38       P1  7948  1.00
      P1  H  7989  7998       L1    22  1.00

> <Gold.PLP.Chemscore.Internal.Correction>
0.1130

> <Gold.Rescore>
     Score         DG    S(hbond)    S(metal)    S(lipo)     H(rot)  DE(clash)    DE(int)     intcor
     19.23     -21.25       2.86        0.00      85.27       1.46       0.01       2.01       ----

> <Gold.Chemscore.Fitness>
19.2311

> <Gold.Chemscore.DG>
-21.2545

> <Gold.Chemscore.ZeroCoef>
-5.4800

> <Gold.Chemscore.Hbond>
2.8573

> <Gold.Chemscore.Metal>
0.0000

> <Gold.Chemscore.Lipo>
85.2736

> <Gold.Chemscore.Internal_Hbond>
0.0000

> <Gold.Chemscore.DEClash>
0.0115

> <Gold.Chemscore.DEInternal>
2.0119

> <Gold.Chemscore.Rot>
1.4632

> <Gold.Chemscore.Internal.Correction>
   9.000000E+99

> <Gold.Chemscore.Hbonds>
donor molecule, donor type, donor heavy atom, donor atom, acceptor molecule, acceptor atom, score
      L1  H     9    37       P1  7948  0.93
      L1  H    12    38       P1  7948  0.97
      P1  H  7989  7998       L1    22  0.58

> <Gold.Chemscore.Hbond.Weighted>
-9.5434

> <Gold.Chemscore.Metal.Weighted>
-0.0000

> <Gold.Chemscore.Lipo.Weighted>
-9.9770

> <Gold.Chemscore.Internal_Hbond.Weighted>
0.0000

> <Gold.Chemscore.DEClash.Weighted>
0.0115

> <Gold.Chemscore.DEInternal.Weighted>
2.0119

> <Gold.Chemscore.Rot.Weighted>
3.7459

> <Gold.Chemscore.Internal.Correction.Weighted>
   9.000000E+99

> <Gold.Protein.RotatedTorsions>
[ 6907 6896 6895 6894 ] final   60.52 input  -60.11 | X-H torsion
[ 7974 7965 7964 7962 ] final  -54.68 input  175.53 | X-H torsion
[ 8008 7997 7996 7995 ] final  -59.42 input   59.86 | X-H torsion
[ 10167 10162 10161 10158 ] final  159.71 input  -65.29 | X-H torsion
[ 10718 10713 10712 10709 ] final   84.64 input   66.30 | X-H torsion
[ 10763 10752 10751 10750 ] final   31.42 input  -60.55 | X-H torsion
[ 11005 11000 10999 10996 ] final  174.84 input  -57.11 | X-H torsion

> <Gold.Protein.ActiveResidues>
 VAL166  LYS551  ARG553  GLY616  TRP617  ASP618  TYR619  PRO620  LYS621  CYS622 
 ASP623  PHE694  ASN695  SER759  ASP760  ASP761  ALA762  ILE779  LEU786  VAL792 
 PHE793  MET794  SER795  GLU796  ALA797  LYS798  CYS799  TRP800  GLU811  SER814 

> <Gold.Protein.RotatedAtoms>
  152.4010  134.6286  160.0069 H   0  0  0  0  0  0  0  0  0  0  0  0  # atno 6907 bound_to 6896
  151.6492  133.3316  159.3156 H   0  0  0  0  0  0  0  0  0  0  0  0  # atno 6908 bound_to 6896
  150.7910  134.6976  159.6577 H   0  0  0  0  0  0  0  0  0  0  0  0  # atno 6909 bound_to 6896
  145.8828  140.8131  142.9831 H   0  0  0  0  0  0  0  0  0  0  0  0  # atno 7974 bound_to 7965
  154.4352  140.1062  156.6113 H   0  0  0  0  0  0  0  0  0  0  0  0  # atno 8008 bound_to 7997
  155.5806  140.3490  155.4520 H   0  0  0  0  0  0  0  0  0  0  0  0  # atno 8009 bound_to 7997
  156.0321  140.1263  157.0236 H   0  0  0  0  0  0  0  0  0  0  0  0  # atno 8010 bound_to 7997
  139.4834  144.4703  151.8585 H   0  0  0  0  0  0  0  0  0  0  0  0  # atno 10167 bound_to 10162
  157.6901  131.0142  150.2703 H   0  0  0  0  0  0  0  0  0  0  0  0  # atno 10718 bound_to 10713
  153.0317  135.6439  154.1197 H   0  0  0  0  0  0  0  0  0  0  0  0  # atno 10763 bound_to 10752
  154.0918  135.2866  155.3271 H   0  0  0  0  0  0  0  0  0  0  0  0  # atno 10764 bound_to 10752
  154.6459  135.5443  153.7908 H   0  0  0  0  0  0  0  0  0  0  0  0  # atno 10765 bound_to 10752
  140.3557  134.7156  157.4298 H   0  0  0  0  0  0  0  0  0  0  0  0  # atno 11005 bound_to 11000
  144.6727  140.1410  143.7437 LP  0  0  0  0  0  0  0  0  0  0  0  0  # atno 17320 bound_to 7965
  145.9003  139.2426  143.1497 LP  0  0  0  0  0  0  0  0  0  0  0  0  # atno 17321 bound_to 7965
  140.4172  144.2291  150.5887 LP  0  0  0  0  0  0  0  0  0  0  0  0  # atno 17342 bound_to 10162
  140.4909  143.2348  151.8819 LP  0  0  0  0  0  0  0  0  0  0  0  0  # atno 17343 bound_to 10162
  156.3267  130.3794  149.7527 LP  0  0  0  0  0  0  0  0  0  0  0  0  # atno 17370 bound_to 10713
  156.5080  130.8159  151.3158 LP  0  0  0  0  0  0  0  0  0  0  0  0  # atno 17371 bound_to 10713
  140.0667  134.5919  155.8687 LP  0  0  0  0  0  0  0  0  0  0  0  0  # atno 17394 bound_to 11000
  141.1999  133.6609  156.5868 LP  0  0  0  0  0  0  0  0  0  0  0  0  # atno 17395 bound_to 11000

$$$$
