AV-unprocessed.smi:3325|AV-procd|sdf|12784|dock8
  -GOLD-   2272019133D 1   1.00000     0.00000
 Structure written by MMmdl.
 44 45  0  0  0  0  0  0  0  0  2 V2000
  150.7998  135.3977  154.3250 C   0  0  0  0  0  0  0  0  0  0  0  0
  151.3953  136.4443  155.2785 C   0  0  0  0  0  0  0  0  0  0  0  0
  151.0810  136.1582  156.7542 C   0  0  0  0  0  0  0  0  0  0  0  0
  151.0042  137.8375  154.8905 C   0  0  0  0  0  0  0  0  0  0  0  0
  151.9095  138.7190  154.4817 N   0  0  0  0  0  0  0  0  0  0  0  0
  151.1548  139.8764  154.2444 O   0  0  0  0  0  0  0  0  0  0  0  0
  149.8726  139.5445  154.5255 C   0  0  0  0  0  0  0  0  0  0  0  0
  148.8168  140.5962  154.4306 C   0  0  0  0  0  0  0  0  0  0  0  0
  148.6519  141.3995  155.7294 C   0  0  0  0  0  0  0  0  0  0  0  0
  149.9012  142.0940  156.1033 N   0  3  0  0  0  0  0  0  0  0  0  0
  150.3570  141.8181  157.4800 C   0  0  0  0  0  0  0  0  0  0  0  0
  151.1707  142.9926  158.0539 C   0  0  0  0  0  0  0  0  0  0  0  0
  152.2486  142.5179  159.0536 C   0  0  0  0  0  0  0  0  0  0  0  0
  153.0449  143.6977  159.6345 C   0  0  0  0  0  0  0  0  0  0  0  0
  152.1151  144.7274  160.2934 C   0  0  0  0  0  0  0  0  0  0  0  0
  151.0385  145.2080  159.3094 C   0  0  0  0  0  0  0  0  0  0  0  0
  150.2454  144.0248  158.7304 C   0  0  0  0  0  0  0  0  0  0  0  0
  149.7218  138.2951  154.9568 N   0  0  0  0  0  0  0  0  0  0  0  0
  151.1005  135.5891  153.2944 H   0  0  0  0  0  0  0  0  0  0  0  0
  149.7101  135.4011  154.3607 H   0  0  0  0  0  0  0  0  0  0  0  0
  151.1363  134.3940  154.5856 H   0  0  0  0  0  0  0  0  0  0  0  0
  152.4794  136.3710  155.1747 H   0  0  0  0  0  0  0  0  0  0  0  0
  151.5821  136.8735  157.4072 H   0  0  0  0  0  0  0  0  0  0  0  0
  151.4153  135.1606  157.0404 H   0  0  0  0  0  0  0  0  0  0  0  0
  150.0104  136.2187  156.9521 H   0  0  0  0  0  0  0  0  0  0  0  0
  149.0741  141.2693  153.6121 H   0  0  0  0  0  0  0  0  0  0  0  0
  147.8728  140.1237  154.1563 H   0  0  0  0  0  0  0  0  0  0  0  0
  147.8489  142.1293  155.6160 H   0  0  0  0  0  0  0  0  0  0  0  0
  148.3642  140.7293  156.5402 H   0  0  0  0  0  0  0  0  0  0  0  0
  150.6299  141.8127  155.4625 H   0  0  0  0  0  0  0  0  0  0  0  0
  149.4782  141.6387  158.1013 H   0  0  0  0  0  0  0  0  0  0  0  0
  150.9500  140.9026  157.4952 H   0  0  0  0  0  0  0  0  0  0  0  0
  151.6711  143.4942  157.2236 H   0  0  0  0  0  0  0  0  0  0  0  0
  151.7788  141.9634  159.8675 H   0  0  0  0  0  0  0  0  0  0  0  0
  152.9387  141.8265  158.5693 H   0  0  0  0  0  0  0  0  0  0  0  0
  153.7699  143.3336  160.3631 H   0  0  0  0  0  0  0  0  0  0  0  0
  153.6191  144.1779  158.8411 H   0  0  0  0  0  0  0  0  0  0  0  0
  151.6386  144.2835  161.1686 H   0  0  0  0  0  0  0  0  0  0  0  0
  152.6958  145.5768  160.6543 H   0  0  0  0  0  0  0  0  0  0  0  0
  150.3613  145.9010  159.8098 H   0  0  0  0  0  0  0  0  0  0  0  0
  151.5074  145.7666  158.4985 H   0  0  0  0  0  0  0  0  0  0  0  0
  149.5132  144.3976  158.0135 H   0  0  0  0  0  0  0  0  0  0  0  0
  149.6773  143.5444  159.5283 H   0  0  0  0  0  0  0  0  0  0  0  0
  149.7568  143.0896  156.0079 H   0  0  0  0  0  0  0  0  0  0  0  0
  1  2  1  0  0  0  0
  1 19  1  0  0  0  0
  1 20  1  0  0  0  0
  1 21  1  0  0  0  0
  2  3  1  0  0  0  0
  2  4  1  0  0  0  0
  2 22  1  0  0  0  0
  3 23  1  0  0  0  0
  3 24  1  0  0  0  0
  3 25  1  0  0  0  0
  4 18  1  0  0  0  0
  4  5  2  0  0  0  0
  5  6  1  0  0  0  0
  6  7  1  0  0  0  0
  7  8  1  0  0  0  0
  7 18  2  0  0  0  0
  8  9  1  0  0  0  0
  8 26  1  0  0  0  0
  8 27  1  0  0  0  0
  9 10  1  0  0  0  0
  9 28  1  0  0  0  0
  9 29  1  0  0  0  0
 10 11  1  0  0  0  0
 10 30  1  0  0  0  0
 10 44  1  0  0  0  0
 11 12  1  0  0  0  0
 11 31  1  0  0  0  0
 11 32  1  0  0  0  0
 12 17  1  0  0  0  0
 12 13  1  0  0  0  0
 12 33  1  0  0  0  0
 13 14  1  0  0  0  0
 13 34  1  0  0  0  0
 13 35  1  0  0  0  0
 14 15  1  0  0  0  0
 14 36  1  0  0  0  0
 14 37  1  0  0  0  0
 15 16  1  0  0  0  0
 15 38  1  0  0  0  0
 15 39  1  0  0  0  0
 16 17  1  0  0  0  0
 16 40  1  0  0  0  0
 16 41  1  0  0  0  0
 17 42  1  0  0  0  0
 17 43  1  0  0  0  0
M  CHG  1  10   1
M  END
> <s_m_source_file>
AV-unprocessed.smi

> <i_m_source_file_index>
3325

> <i_lp_mmshare_version>
43012

> <i_f3d_flags>
0

> <s_epik_input>
W0NIM11bQ0hdKFtDSDNdKWMxbm9jKG4xKVtDSDJdW0NIMl1bTkhdW0NIMl1bQ0hdMltDSDJdW0NIMl1bQ0gyXVtDSDJdW0NIMl0y

> <s_epik_cmdline>
J2VwaWtfcHl0aG9uJywgJy1waCcsICc3LjAnLCAnLXRuJywgJzgnLCAnLW1hJywgJzIwMCcsICctbWV0YWxfYmluZGluZycsICctaW1hZScsICc8aW5maWxlLm1hZT4nLCAnLW9tYWUnLCAnPG91dGZpbGUubWFlPic=

> <r_lp_tautomer_probability>
1

> <r_epik_Ionization_Penalty>
0.00142412

> <r_epik_Ionization_Penalty_Charging>
0.00142412

> <r_epik_Ionization_Penalty_Neutral>
2.66011e-13

> <r_epik_State_Penalty>
0.000950746

> <r_epik_Charging_Adjusted_Penalty>
0.00237487

> <i_epik_Tot_Q>
1

> <i_epik_Tot_abs_Q>
1

> <r_epik_Metal_State_Penalty>
-0

> <b_epik_Metal_Only>
0

> <s_lp_Force_Field>
OPLS_2005

> <r_lp_Energy>
7.21373

> <b_lp_Chiralities_Consistent>
1

> <s_lp_Variant>
AV-unprocessed.smi:3325-1

> <Gold.Version>
5.8.1

> <Gold.Id.Protein>
6NUR|6NUR_protein|mol2

> <Gold.PLP.Fitness>
42.7623

> <Gold.PLP.PLP>
-36.2146

> <Gold.PLP.part.hbond>
-2.0000

> <Gold.PLP.part.metal>
0.0000

> <Gold.PLP.part.buried>
-5.4486

> <Gold.PLP.part.nonpolar>
-29.2706

> <Gold.PLP.part.repulsive>
0.4393

> <Gold.PLP.ligand.clash>
0.0000

> <Gold.PLP.ligand.torsion>
1.3016

> <Gold.PLP.Chemscore.Hbond>
3.0000

> <Gold.PLP.Chemscore.CHOScore>
0.0000

> <Gold.PLP.Chemscore.Metal>
0.0000

> <Gold.Chemscore.Hbonds>
donor molecule, donor type, donor heavy atom, donor atom, acceptor molecule, acceptor atom, score
      L1  H    10    44       P1  8028  2.00
      P1  H  7989  7998       L1     6  0.49

> <Gold.PLP.Chemscore.Internal.Correction>
0.1509

> <Gold.Rescore>
     Score         DG    S(hbond)    S(metal)    S(lipo)     H(rot)  DE(clash)    DE(int)     intcor
     17.11     -18.62       1.97        0.00      96.85       1.86       0.05       1.46       ----

> <Gold.Chemscore.Fitness>
17.1079

> <Gold.Chemscore.DG>
-18.6193

> <Gold.Chemscore.ZeroCoef>
-5.4800

> <Gold.Chemscore.Hbond>
1.9668

> <Gold.Chemscore.Metal>
0.0000

> <Gold.Chemscore.Lipo>
96.8471

> <Gold.Chemscore.Internal_Hbond>
0.0000

> <Gold.Chemscore.DEClash>
0.0517

> <Gold.Chemscore.DEInternal>
1.4597

> <Gold.Chemscore.Rot>
1.8597

> <Gold.Chemscore.Internal.Correction>
   9.000000E+99

> <Gold.Chemscore.Hbonds>
donor molecule, donor type, donor heavy atom, donor atom, acceptor molecule, acceptor atom, score
      L1  H    10    44       P1  8028  0.99
      P1  H  7989  7998       L1     6  0.49

> <Gold.Chemscore.Hbond.Weighted>
-6.5692

> <Gold.Chemscore.Metal.Weighted>
-0.0000

> <Gold.Chemscore.Lipo.Weighted>
-11.3311

> <Gold.Chemscore.Internal_Hbond.Weighted>
0.0000

> <Gold.Chemscore.DEClash.Weighted>
0.0517

> <Gold.Chemscore.DEInternal.Weighted>
1.4597

> <Gold.Chemscore.Rot.Weighted>
4.7610

> <Gold.Chemscore.Internal.Correction.Weighted>
   9.000000E+99

> <Gold.Protein.RotatedTorsions>
[ 6907 6896 6895 6894 ] final   41.04 input  -60.11 | X-H torsion
[ 7974 7965 7964 7962 ] final  135.02 input  175.53 | X-H torsion
[ 8008 7997 7996 7995 ] final  -40.23 input   59.86 | X-H torsion
[ 10167 10162 10161 10158 ] final  -20.06 input  -65.29 | X-H torsion
[ 10718 10713 10712 10709 ] final  -51.26 input   66.30 | X-H torsion
[ 10763 10752 10751 10750 ] final   -6.04 input  -60.55 | X-H torsion
[ 11005 11000 10999 10996 ] final -101.66 input  -57.11 | X-H torsion

> <Gold.Protein.ActiveResidues>
 VAL166  LYS551  ARG553  GLY616  TRP617  ASP618  TYR619  PRO620  LYS621  CYS622 
 ASP623  PHE694  ASN695  SER759  ASP760  ASP761  ALA762  ILE779  LEU786  VAL792 
 PHE793  MET794  SER795  GLU796  ALA797  LYS798  CYS799  TRP800  GLU811  SER814 

> <Gold.Protein.RotatedAtoms>
  152.1903  134.8678  160.0517 H   0  0  0  0  0  0  0  0  0  0  0  0  # atno 6907 bound_to 6896
  151.9570  133.3678  159.4029 H   0  0  0  0  0  0  0  0  0  0  0  0  # atno 6908 bound_to 6896
  150.6934  134.4204  159.5246 H   0  0  0  0  0  0  0  0  0  0  0  0  # atno 6909 bound_to 6896
  144.9705  139.4611  143.5435 H   0  0  0  0  0  0  0  0  0  0  0  0  # atno 7974 bound_to 7965
  154.4014  140.1531  156.2993 H   0  0  0  0  0  0  0  0  0  0  0  0  # atno 8008 bound_to 7997
  155.8715  140.3448  155.5802 H   0  0  0  0  0  0  0  0  0  0  0  0  # atno 8009 bound_to 7997
  155.7769  140.0838  157.2070 H   0  0  0  0  0  0  0  0  0  0  0  0  # atno 8010 bound_to 7997
  140.7273  143.4758  151.0184 H   0  0  0  0  0  0  0  0  0  0  0  0  # atno 10167 bound_to 10162
  156.1726  130.4149  149.9625 H   0  0  0  0  0  0  0  0  0  0  0  0  # atno 10718 bound_to 10713
  153.4069  135.7006  153.6387 H   0  0  0  0  0  0  0  0  0  0  0  0  # atno 10763 bound_to 10752
  153.4897  135.3675  155.2486 H   0  0  0  0  0  0  0  0  0  0  0  0  # atno 10764 bound_to 10752
  154.8714  135.4086  154.3413 H   0  0  0  0  0  0  0  0  0  0  0  0  # atno 10765 bound_to 10752
  141.1222  133.8496  157.1260 H   0  0  0  0  0  0  0  0  0  0  0  0  # atno 11005 bound_to 11000
  146.3380  139.8914  142.8808 LP  0  0  0  0  0  0  0  0  0  0  0  0  # atno 17320 bound_to 7965
  145.2566  141.0062  143.3850 LP  0  0  0  0  0  0  0  0  0  0  0  0  # atno 17321 bound_to 7965
  139.8453  143.7509  152.3179 LP  0  0  0  0  0  0  0  0  0  0  0  0  # atno 17342 bound_to 10162
  139.7672  144.7488  151.0277 LP  0  0  0  0  0  0  0  0  0  0  0  0  # atno 17343 bound_to 10162
  156.7420  130.9083  151.3632 LP  0  0  0  0  0  0  0  0  0  0  0  0  # atno 17370 bound_to 10713
  157.6813  130.9143  150.0275 LP  0  0  0  0  0  0  0  0  0  0  0  0  # atno 17371 bound_to 10713
  140.0188  134.9955  157.0549 LP  0  0  0  0  0  0  0  0  0  0  0  0  # atno 17394 bound_to 11000
  140.4474  134.1617  155.7178 LP  0  0  0  0  0  0  0  0  0  0  0  0  # atno 17395 bound_to 11000

$$$$
