AV-unprocessed.smi:1434|AV-procd|sdf|5856|dock1
  -GOLD-   22720 5523D 1   1.00000     0.00000
 Structure written by MMmdl.
 44 45  0  0  0  0  0  0  0  0  3 V2000
  154.3251  137.5070  160.3134 C   0  0  0  0  0  0  0  0  0  0  0  0
  154.7365  138.9592  159.2552 S   0  0  0  0  0  0  0  0  0  0  0  0
  156.0288  138.6526  158.6187 O   0  0  0  0  0  0  0  0  0  0  0  0
  153.5795  139.1172  158.3612 O   0  0  0  0  0  0  0  0  0  0  0  0
  154.8033  140.1666  160.3438 N   0  5  0  0  0  0  0  0  0  0  0  0
  153.6298  140.9691  160.6670 C   0  0  1  0  0  0  0  0  0  0  0  0
  153.8445  141.7383  161.9967 C   0  0  0  0  0  0  0  0  0  0  0  0
  152.7539  142.8070  162.2734 C   0  0  0  0  0  0  0  0  0  0  0  0
  152.5301  143.7526  161.0708 C   0  0  0  0  0  0  0  0  0  0  0  0
  152.2421  142.9085  159.8878 N   0  0  0  0  0  0  0  0  0  0  0  0
  151.0694  142.8827  159.1986 C   0  0  0  0  0  0  0  0  0  0  0  0
  150.0480  143.4583  159.5760 O   0  0  0  0  0  0  0  0  0  0  0  0
  151.0956  142.1654  158.0634 N   0  0  0  0  0  0  0  0  0  0  0  0
  149.9630  141.9933  157.1646 C   0  0  0  0  0  0  0  0  0  0  0  0
  150.4280  141.4453  155.8085 C   0  0  0  0  0  0  0  0  0  0  0  0
  149.2643  141.0975  154.9003 C   0  0  0  0  0  0  0  0  0  0  0  0
  149.0509  139.7863  154.4221 C   0  0  0  0  0  0  0  0  0  0  0  0
  147.9424  139.5290  153.5885 C   0  0  0  0  0  0  0  0  0  0  0  0
  147.0724  140.5862  153.2504 C   0  0  0  0  0  0  0  0  0  0  0  0
  147.3316  141.8755  153.7579 C   0  0  0  0  0  0  0  0  0  0  0  0
  148.4027  142.0821  154.5556 N   0  3  0  0  0  0  0  0  0  0  0  0
  153.3685  142.0088  159.5429 C   0  0  0  0  0  0  0  0  0  0  0  0
  154.1657  136.6361  159.6787 H   0  0  0  0  0  0  0  0  0  0  0  0
  153.4157  137.7145  160.8767 H   0  0  0  0  0  0  0  0  0  0  0  0
  155.1433  137.3020  161.0028 H   0  0  0  0  0  0  0  0  0  0  0  0
  152.7340  140.3543  160.7627 H   0  0  0  0  0  0  0  0  0  0  0  0
  153.8927  141.0401  162.8329 H   0  0  0  0  0  0  0  0  0  0  0  0
  154.8127  142.2410  161.9673 H   0  0  0  0  0  0  0  0  0  0  0  0
  151.8113  142.3182  162.5279 H   0  0  0  0  0  0  0  0  0  0  0  0
  153.0333  143.3907  163.1510 H   0  0  0  0  0  0  0  0  0  0  0  0
  151.7573  144.4802  161.3167 H   0  0  0  0  0  0  0  0  0  0  0  0
  153.4332  144.3339  160.8792 H   0  0  0  0  0  0  0  0  0  0  0  0
  151.9622  141.7145  157.8089 H   0  0  0  0  0  0  0  0  0  0  0  0
  149.2398  141.3094  157.6126 H   0  0  0  0  0  0  0  0  0  0  0  0
  149.4632  142.9544  157.0352 H   0  0  0  0  0  0  0  0  0  0  0  0
  151.0622  142.1774  155.3060 H   0  0  0  0  0  0  0  0  0  0  0  0
  151.0423  140.5559  155.9560 H   0  0  0  0  0  0  0  0  0  0  0  0
  149.7245  138.9858  154.6919 H   0  0  0  0  0  0  0  0  0  0  0  0
  147.7611  138.5320  153.2138 H   0  0  0  0  0  0  0  0  0  0  0  0
  146.2182  140.4099  152.6128 H   0  0  0  0  0  0  0  0  0  0  0  0
  146.7187  142.7411  153.5522 H   0  0  0  0  0  0  0  0  0  0  0  0
  154.2582  142.6216  159.3879 H   0  0  0  0  0  0  0  0  0  0  0  0
  153.2087  141.4895  158.5966 H   0  0  0  0  0  0  0  0  0  0  0  0
  148.5692  143.0232  154.9127 H   0  0  0  0  0  0  0  0  0  0  0  0
  1  2  1  0  0  0  0
  1 23  1  0  0  0  0
  1 24  1  0  0  0  0
  1 25  1  0  0  0  0
  2  3  2  0  0  0  0
  2  4  2  0  0  0  0
  2  5  1  0  0  0  0
  5  6  1  0  0  0  0
  6 22  1  0  0  0  0
  6  7  1  0  0  0  0
  6 26  1  0  0  0  0
  7  8  1  0  0  0  0
  7 27  1  0  0  0  0
  7 28  1  0  0  0  0
  8  9  1  0  0  0  0
  8 29  1  0  0  0  0
  8 30  1  0  0  0  0
  9 10  1  0  0  0  0
  9 31  1  0  0  0  0
  9 32  1  0  0  0  0
 10 11  1  0  0  0  0
 10 22  1  0  0  0  0
 11 12  2  0  0  0  0
 11 13  1  0  0  0  0
 13 14  1  0  0  0  0
 13 33  1  0  0  0  0
 14 15  1  0  0  0  0
 14 34  1  0  0  0  0
 14 35  1  0  0  0  0
 15 16  1  0  0  0  0
 15 36  1  0  0  0  0
 15 37  1  0  0  0  0
 16 21  1  0  0  0  0
 16 17  2  0  0  0  0
 17 18  1  0  0  0  0
 17 38  1  0  0  0  0
 18 19  2  0  0  0  0
 18 39  1  0  0  0  0
 19 20  1  0  0  0  0
 19 40  1  0  0  0  0
 20 21  2  0  0  0  0
 20 41  1  0  0  0  0
 21 44  1  0  0  0  0
 22 42  1  0  0  0  0
 22 43  1  0  0  0  0
M  CHG  1   5  -1
M  CHG  1  21   1
M  END
> <s_m_source_file>
AV-unprocessed.smi

> <i_m_source_file_index>
1434

> <i_lp_mmshare_version>
43012

> <i_f3d_flags>
0

> <s_epik_input>
W0NIM11TKD1PKSg9TylbTkhdW0NAQEhdMVtDSDJdW0NIMl1bQ0gyXU4oW0NIMl0xKUMoPU8pW05IXVtDSDJdW0NIMl1jMltjSF1bY0hdW2NIXVtjSF1uMg==

> <s_epik_cmdline>
J2VwaWtfcHl0aG9uJywgJy1waCcsICc3LjAnLCAnLXRuJywgJzgnLCAnLW1hJywgJzIwMCcsICctbWV0YWxfYmluZGluZycsICctaW1hZScsICc8aW5maWxlLm1hZT4nLCAnLW9tYWUnLCAnPG91dGZpbGUubWFlPic=

> <r_epik_Ionization_Penalty>
8.07847

> <r_epik_Ionization_Penalty_Charging>
8.0784

> <r_epik_Ionization_Penalty_Neutral>
6.25603e-05

> <r_epik_State_Penalty>
8.17261

> <r_epik_Charging_Adjusted_Penalty>
16.251

> <i_epik_Tot_Q>
0

> <i_epik_Tot_abs_Q>
2

> <r_epik_Metal_State_Penalty>
4.14042

> <b_epik_Metal_Only>
1

> <s_lp_Force_Field>
OPLS_2005

> <r_lp_Energy>
28.6508

> <b_lp_Chiralities_Consistent>
1

> <s_lp_Variant>
AV-unprocessed.smi:1434-8

> <Gold.Version>
5.8.1

> <Gold.Id.Protein>
6NUR|6NUR_protein|mol2

> <Gold.PLP.Fitness>
55.1023

> <Gold.PLP.PLP>
-46.7089

> <Gold.PLP.part.hbond>
-4.0000

> <Gold.PLP.part.metal>
0.0000

> <Gold.PLP.part.buried>
-2.9946

> <Gold.PLP.part.nonpolar>
-38.7280

> <Gold.PLP.part.repulsive>
0.4011

> <Gold.PLP.ligand.clash>
1.2093

> <Gold.PLP.ligand.torsion>
0.8689

> <Gold.PLP.Chemscore.Hbond>
3.4240

> <Gold.PLP.Chemscore.CHOScore>
0.0000

> <Gold.PLP.Chemscore.Metal>
0.0000

> <Gold.Chemscore.Hbonds>
donor molecule, donor type, donor heavy atom, donor atom, acceptor molecule, acceptor atom, score
      L1  H    21    44       P1  8028  2.00
      P1  H  7997  8008       L1     4  0.70
      P1  H  7997  8010       L1     3  0.45

> <Gold.PLP.Chemscore.Internal.Correction>
1.0685

> <Gold.Rescore>
     Score         DG    S(hbond)    S(metal)    S(lipo)     H(rot)  DE(clash)    DE(int)     intcor
     18.42     -19.42       1.68        0.00     109.79       1.77       0.14       0.86       ----

> <Gold.Chemscore.Fitness>
18.4188

> <Gold.Chemscore.DG>
-19.4245

> <Gold.Chemscore.ZeroCoef>
-5.4800

> <Gold.Chemscore.Hbond>
1.6826

> <Gold.Chemscore.Metal>
0.0000

> <Gold.Chemscore.Lipo>
109.7938

> <Gold.Chemscore.Internal_Hbond>
0.0000

> <Gold.Chemscore.DEClash>
0.1417

> <Gold.Chemscore.DEInternal>
0.8640

> <Gold.Chemscore.Rot>
1.7661

> <Gold.Chemscore.Internal.Correction>
   9.000000E+99

> <Gold.Chemscore.Hbonds>
donor molecule, donor type, donor heavy atom, donor atom, acceptor molecule, acceptor atom, score
      L1  H    21    44       P1  8028  1.00
      P1  H  7997  8008       L1     4  0.23
      P1  H  7997  8010       L1     3  0.15

> <Gold.Chemscore.Hbond.Weighted>
-5.6197

> <Gold.Chemscore.Metal.Weighted>
-0.0000

> <Gold.Chemscore.Lipo.Weighted>
-12.8459

> <Gold.Chemscore.Internal_Hbond.Weighted>
0.0000

> <Gold.Chemscore.DEClash.Weighted>
0.1417

> <Gold.Chemscore.DEInternal.Weighted>
0.8640

> <Gold.Chemscore.Rot.Weighted>
4.5211

> <Gold.Chemscore.Internal.Correction.Weighted>
   9.000000E+99

> <Gold.Protein.RotatedTorsions>
[ 6907 6896 6895 6894 ] final  -58.13 input  -60.11 | X-H torsion
[ 7974 7965 7964 7962 ] final  -87.29 input  175.53 | X-H torsion
[ 8008 7997 7996 7995 ] final  -63.42 input   59.86 | X-H torsion
[ 10167 10162 10161 10158 ] final   19.11 input  -65.29 | X-H torsion
[ 10718 10713 10712 10709 ] final  107.55 input   66.30 | X-H torsion
[ 10763 10752 10751 10750 ] final   -7.55 input  -60.55 | X-H torsion
[ 11005 11000 10999 10996 ] final -110.64 input  -57.11 | X-H torsion

> <Gold.Protein.ActiveResidues>
 VAL166  LYS551  ARG553  GLY616  TRP617  ASP618  TYR619  PRO620  LYS621  CYS622 
 ASP623  PHE694  ASN695  SER759  ASP760  ASP761  ALA762  ILE779  LEU786  VAL792 
 PHE793  MET794  SER795  GLU796  ALA797  LYS798  CYS799  TRP800  GLU811  SER814 

> <Gold.Protein.RotatedAtoms>
  150.8031  134.7138  159.6618 H   0  0  0  0  0  0  0  0  0  0  0  0  # atno 6907 bound_to 6896
  152.4149  134.6056  160.0021 H   0  0  0  0  0  0  0  0  0  0  0  0  # atno 6908 bound_to 6896
  151.6288  133.3296  159.3140 H   0  0  0  0  0  0  0  0  0  0  0  0  # atno 6909 bound_to 6896
  145.4686  140.9560  143.1930 H   0  0  0  0  0  0  0  0  0  0  0  0  # atno 7974 bound_to 7965
  154.4553  140.0975  156.6740 H   0  0  0  0  0  0  0  0  0  0  0  0  # atno 8008 bound_to 7997
  155.5157  140.3477  155.4378 H   0  0  0  0  0  0  0  0  0  0  0  0  # atno 8009 bound_to 7997
  156.0765  140.1362  156.9753 H   0  0  0  0  0  0  0  0  0  0  0  0  # atno 8010 bound_to 7997
  140.5604  143.9348  150.6638 H   0  0  0  0  0  0  0  0  0  0  0  0  # atno 10167 bound_to 10162
  157.6623  131.0875  150.6173 H   0  0  0  0  0  0  0  0  0  0  0  0  # atno 10718 bound_to 10713
  153.4279  135.7011  153.6250 H   0  0  0  0  0  0  0  0  0  0  0  0  # atno 10763 bound_to 10752
  153.4677  135.3722  155.2374 H   0  0  0  0  0  0  0  0  0  0  0  0  # atno 10764 bound_to 10752
  154.8724  135.4035  154.3658 H   0  0  0  0  0  0  0  0  0  0  0  0  # atno 10765 bound_to 10752
  141.0780  133.9268  157.2349 H   0  0  0  0  0  0  0  0  0  0  0  0  # atno 11005 bound_to 11000
  144.7959  139.6235  143.7093 LP  0  0  0  0  0  0  0  0  0  0  0  0  # atno 17320 bound_to 7965
  146.2410  139.6001  142.9491 LP  0  0  0  0  0  0  0  0  0  0  0  0  # atno 17321 bound_to 7965
  140.2797  143.3398  152.1162 LP  0  0  0  0  0  0  0  0  0  0  0  0  # atno 17342 bound_to 10162
  139.5067  144.6819  151.5987 LP  0  0  0  0  0  0  0  0  0  0  0  0  # atno 17343 bound_to 10162
  156.6475  130.4476  149.5731 LP  0  0  0  0  0  0  0  0  0  0  0  0  # atno 17370 bound_to 10713
  156.2162  130.6709  151.1321 LP  0  0  0  0  0  0  0  0  0  0  0  0  # atno 17371 bound_to 10713
  139.9593  135.0158  156.9215 LP  0  0  0  0  0  0  0  0  0  0  0  0  # atno 17394 bound_to 11000
  140.5531  134.0608  155.7375 LP  0  0  0  0  0  0  0  0  0  0  0  0  # atno 17395 bound_to 11000

$$$$
