AV-unprocessed.smi:696|AV-procd|sdf|3387|dock10
  -GOLD-   22720 0363D 1   1.00000     0.00000
 Structure written by MMmdl.
 37 38  0  0  0  0  0  0  0  0  2 V2000
  149.1909  141.3152  157.8363 O   0  0  0  0  0  0  0  0  0  0  0  0
  150.1035  141.9382  157.2925 C   0  0  0  0  0  0  0  0  0  0  0  0
  150.1439  142.1801  155.9729 N   0  0  0  0  0  0  0  0  0  0  0  0
  149.1326  141.7576  155.0108 C   0  0  0  0  0  0  0  0  0  0  0  0
  149.2609  140.2560  154.6805 C   0  0  0  0  0  0  0  0  0  0  0  0
  150.6607  139.6763  154.8329 C   0  0  0  0  0  0  0  0  0  0  0  0
  151.6942  140.2356  155.3466 N   0  0  0  0  0  0  0  0  0  0  0  0
  152.7364  139.2577  155.2425 N   0  5  0  0  0  0  0  0  0  0  0  0
  152.1963  138.1642  154.6518 C   0  0  0  0  0  0  0  0  0  0  0  0
  152.7353  137.0955  154.3728 O   0  0  0  0  0  0  0  0  0  0  0  0
  150.9159  138.4072  154.3929 N   0  0  0  0  0  0  0  0  0  0  0  0
  151.2729  142.4807  158.1281 C   0  0  0  0  0  0  0  0  0  0  0  0
  151.6563  141.4647  159.2296 C   0  0  0  0  0  0  0  0  0  0  0  0
  153.0550  141.7155  159.8188 C   0  0  0  0  0  0  0  0  0  0  0  0
  153.1107  142.7084  160.9938 C   0  0  0  0  0  0  0  0  0  0  0  0
  152.1832  143.9338  160.9075 C   0  0  0  0  0  0  0  0  0  0  0  0
  152.0303  144.5496  159.5073 C   0  0  0  0  0  0  0  0  0  0  0  0
  150.9211  143.8799  158.6766 C   0  0  0  0  0  0  0  0  0  0  0  0
  150.2525  137.7836  153.9582 H   0  0  0  0  0  0  0  0  0  0  0  0
  150.9300  142.6992  155.6094 H   0  0  0  0  0  0  0  0  0  0  0  0
  148.1550  141.9638  155.4480 H   0  0  0  0  0  0  0  0  0  0  0  0
  149.2064  142.3642  154.1062 H   0  0  0  0  0  0  0  0  0  0  0  0
  148.5856  139.6786  155.3128 H   0  0  0  0  0  0  0  0  0  0  0  0
  148.9371  140.0864  153.6529 H   0  0  0  0  0  0  0  0  0  0  0  0
  152.1262  142.5899  157.4562 H   0  0  0  0  0  0  0  0  0  0  0  0
  150.9054  141.4374  160.0205 H   0  0  0  0  0  0  0  0  0  0  0  0
  151.6617  140.4637  158.7945 H   0  0  0  0  0  0  0  0  0  0  0  0
  153.4671  140.7672  160.1656 H   0  0  0  0  0  0  0  0  0  0  0  0
  153.7302  142.0455  159.0285 H   0  0  0  0  0  0  0  0  0  0  0  0
  152.8834  142.1784  161.9192 H   0  0  0  0  0  0  0  0  0  0  0  0
  154.1414  143.0483  161.1000 H   0  0  0  0  0  0  0  0  0  0  0  0
  151.1985  143.6751  161.2984 H   0  0  0  0  0  0  0  0  0  0  0  0
  152.5692  144.6933  161.5882 H   0  0  0  0  0  0  0  0  0  0  0  0
  151.7589  145.5985  159.6322 H   0  0  0  0  0  0  0  0  0  0  0  0
  152.9804  144.5505  158.9718 H   0  0  0  0  0  0  0  0  0  0  0  0
  150.6931  144.5331  157.8327 H   0  0  0  0  0  0  0  0  0  0  0  0
  150.0045  143.8367  159.2671 H   0  0  0  0  0  0  0  0  0  0  0  0
  1  2  2  0  0  0  0
  2  3  1  0  0  0  0
  2 12  1  0  0  0  0
  3  4  1  0  0  0  0
  3 20  1  0  0  0  0
  4  5  1  0  0  0  0
  4 21  1  0  0  0  0
  4 22  1  0  0  0  0
  5  6  1  0  0  0  0
  5 23  1  0  0  0  0
  5 24  1  0  0  0  0
  6 11  1  0  0  0  0
  6  7  2  0  0  0  0
  7  8  1  0  0  0  0
  8  9  1  0  0  0  0
  9 10  2  0  0  0  0
  9 11  1  0  0  0  0
 11 19  1  0  0  0  0
 12 18  1  0  0  0  0
 12 13  1  0  0  0  0
 12 25  1  0  0  0  0
 13 14  1  0  0  0  0
 13 26  1  0  0  0  0
 13 27  1  0  0  0  0
 14 15  1  0  0  0  0
 14 28  1  0  0  0  0
 14 29  1  0  0  0  0
 15 16  1  0  0  0  0
 15 30  1  0  0  0  0
 15 31  1  0  0  0  0
 16 17  1  0  0  0  0
 16 32  1  0  0  0  0
 16 33  1  0  0  0  0
 17 18  1  0  0  0  0
 17 34  1  0  0  0  0
 17 35  1  0  0  0  0
 18 36  1  0  0  0  0
 18 37  1  0  0  0  0
M  CHG  1   8  -1
M  END
> <s_m_source_file>
AV-unprocessed.smi

> <i_m_source_file_index>
696

> <i_lp_mmshare_version>
43012

> <i_f3d_flags>
0

> <s_epik_input>
W0NIMl0xW0NIMl1bQ0gyXVtDSDJdW0NIMl1bQ0gyXVtDSF0xQyg9TylbTkhdW0NIMl1bQ0gyXWMybltuSF1jKD1PKVtuSF0y

> <s_epik_cmdline>
J2VwaWtfcHl0aG9uJywgJy1waCcsICc3LjAnLCAnLXRuJywgJzgnLCAnLW1hJywgJzIwMCcsICctbWV0YWxfYmluZGluZycsICctaW1hZScsICc8aW5maWxlLm1hZT4nLCAnLW9tYWUnLCAnPG91dGZpbGUubWFlPic=

> <r_lp_tautomer_probability>
1

> <r_epik_Ionization_Penalty>
14.1589

> <r_epik_Ionization_Penalty_Charging>
13.7723

> <r_epik_Ionization_Penalty_Neutral>
0.386566

> <r_epik_State_Penalty>
4.88838

> <r_epik_Charging_Adjusted_Penalty>
18.6607

> <i_epik_Tot_Q>
-1

> <i_epik_Tot_abs_Q>
1

> <r_epik_Metal_State_Penalty>
1.30742

> <b_epik_Metal_Only>
1

> <s_lp_Force_Field>
OPLS_2005

> <r_lp_Energy>
24.8818

> <b_lp_Chiralities_Consistent>
1

> <s_lp_Variant>
AV-unprocessed.smi:696-2

> <Gold.Version>
5.8.1

> <Gold.Id.Protein>
6NUR|6NUR_protein|mol2

> <Gold.PLP.Fitness>
44.6515

> <Gold.PLP.PLP>
-39.2414

> <Gold.PLP.part.hbond>
-3.4617

> <Gold.PLP.part.metal>
0.0000

> <Gold.PLP.part.buried>
-4.1683

> <Gold.PLP.part.nonpolar>
-33.1929

> <Gold.PLP.part.repulsive>
0.4132

> <Gold.PLP.ligand.clash>
0.0000

> <Gold.PLP.ligand.torsion>
1.0753

> <Gold.PLP.Chemscore.Hbond>
2.5075

> <Gold.PLP.Chemscore.CHOScore>
0.0000

> <Gold.PLP.Chemscore.Metal>
0.0000

> <Gold.Chemscore.Hbonds>
donor molecule, donor type, donor heavy atom, donor atom, acceptor molecule, acceptor atom, score
      P1  H  7997  8008       L1     8  1.85
      P1  H 10752 10763       L1    10  0.39

> <Gold.PLP.Chemscore.Internal.Correction>
0.0381

> <Gold.Rescore>
     Score         DG    S(hbond)    S(metal)    S(lipo)     H(rot)  DE(clash)    DE(int)     intcor
     10.21     -13.27       1.06        0.00      85.59       2.25       0.17       2.89       ----

> <Gold.Chemscore.Fitness>
10.2104

> <Gold.Chemscore.DG>
-13.2711

> <Gold.Chemscore.ZeroCoef>
-5.4800

> <Gold.Chemscore.Hbond>
1.0591

> <Gold.Chemscore.Metal>
0.0000

> <Gold.Chemscore.Lipo>
85.5887

> <Gold.Chemscore.Internal_Hbond>
0.0000

> <Gold.Chemscore.DEClash>
0.1662

> <Gold.Chemscore.DEInternal>
2.8945

> <Gold.Chemscore.Rot>
2.2501

> <Gold.Chemscore.Internal.Correction>
   9.000000E+99

> <Gold.Chemscore.Hbonds>
donor molecule, donor type, donor heavy atom, donor atom, acceptor molecule, acceptor atom, score
      P1  H  7997  8008       L1     8  0.49
      P1  H 10752 10763       L1    10  0.39

> <Gold.Chemscore.Hbond.Weighted>
-3.5375

> <Gold.Chemscore.Metal.Weighted>
-0.0000

> <Gold.Chemscore.Lipo.Weighted>
-10.0139

> <Gold.Chemscore.Internal_Hbond.Weighted>
0.0000

> <Gold.Chemscore.DEClash.Weighted>
0.1662

> <Gold.Chemscore.DEInternal.Weighted>
2.8945

> <Gold.Chemscore.Rot.Weighted>
5.7603

> <Gold.Chemscore.Internal.Correction.Weighted>
   9.000000E+99

> <Gold.Protein.RotatedTorsions>
[ 6907 6896 6895 6894 ] final  -86.23 input  -60.11 | X-H torsion
[ 7974 7965 7964 7962 ] final  -96.56 input  175.53 | X-H torsion
[ 8008 7997 7996 7995 ] final  -16.07 input   59.86 | X-H torsion
[ 10167 10162 10161 10158 ] final   39.75 input  -65.29 | X-H torsion
[ 10718 10713 10712 10709 ] final -106.54 input   66.30 | X-H torsion
[ 10763 10752 10751 10750 ] final   34.63 input  -60.55 | X-H torsion
[ 11005 11000 10999 10996 ] final   41.25 input  -57.11 | X-H torsion

> <Gold.Protein.ActiveResidues>
 VAL166  LYS551  ARG553  GLY616  TRP617  ASP618  TYR619  PRO620  LYS621  CYS622 
 ASP623  PHE694  ASN695  SER759  ASP760  ASP761  ALA762  ILE779  LEU786  VAL792 
 PHE793  MET794  SER795  GLU796  ALA797  LYS798  CYS799  TRP800  GLU811  SER814 

> <Gold.Protein.RotatedAtoms>
  150.6867  134.3082  159.4734 H   0  0  0  0  0  0  0  0  0  0  0  0  # atno 6907 bound_to 6896
  152.0970  134.9365  160.0580 H   0  0  0  0  0  0  0  0  0  0  0  0  # atno 6908 bound_to 6896
  152.0659  133.4049  159.4475 H   0  0  0  0  0  0  0  0  0  0  0  0  # atno 6909 bound_to 6896
  145.3453  140.9467  143.2585 H   0  0  0  0  0  0  0  0  0  0  0  0  # atno 7974 bound_to 7965
  154.5081  140.2179  155.9210 H   0  0  0  0  0  0  0  0  0  0  0  0  # atno 8008 bound_to 7997
  156.1519  140.3160  155.8628 H   0  0  0  0  0  0  0  0  0  0  0  0  # atno 8009 bound_to 7997
  155.3923  140.0479  157.3031 H   0  0  0  0  0  0  0  0  0  0  0  0  # atno 8010 bound_to 7997
  140.3809  144.1981  150.6131 H   0  0  0  0  0  0  0  0  0  0  0  0  # atno 10167 bound_to 10162
  156.0395  130.5618  150.7695 H   0  0  0  0  0  0  0  0  0  0  0  0  # atno 10718 bound_to 10713
  153.0155  135.6355  154.1699 H   0  0  0  0  0  0  0  0  0  0  0  0  # atno 10763 bound_to 10752
  154.1439  135.2833  155.3155 H   0  0  0  0  0  0  0  0  0  0  0  0  # atno 10764 bound_to 10752
  154.6104  135.5558  153.7528 H   0  0  0  0  0  0  0  0  0  0  0  0  # atno 10765 bound_to 10752
  140.1852  134.4055  155.8177 H   0  0  0  0  0  0  0  0  0  0  0  0  # atno 11005 bound_to 11000
  144.8759  139.4972  143.6746 LP  0  0  0  0  0  0  0  0  0  0  0  0  # atno 17320 bound_to 7965
  146.2991  139.7369  142.9105 LP  0  0  0  0  0  0  0  0  0  0  0  0  # atno 17321 bound_to 7965
  140.4938  143.2339  151.8779 LP  0  0  0  0  0  0  0  0  0  0  0  0  # atno 17342 bound_to 10162
  139.4795  144.5136  151.8899 LP  0  0  0  0  0  0  0  0  0  0  0  0  # atno 17343 bound_to 10162
  157.5193  131.0930  151.0099 LP  0  0  0  0  0  0  0  0  0  0  0  0  # atno 17370 bound_to 10713
  157.0434  130.5758  149.5359 LP  0  0  0  0  0  0  0  0  0  0  0  0  # atno 17371 bound_to 10713
  141.2224  133.7019  156.8000 LP  0  0  0  0  0  0  0  0  0  0  0  0  # atno 17394 bound_to 11000
  140.2222  134.8748  157.3389 LP  0  0  0  0  0  0  0  0  0  0  0  0  # atno 17395 bound_to 11000

$$$$
