AV-unprocessed.smi:1891|AV-procd|sdf|7668|dock5
  -GOLD-   22720 9403D 1   1.00000     0.00000
 Structure written by MMmdl.
 37 39  0  0  0  0  0  0  0  0  2 V2000
  151.2823  136.4789  154.1585 O   0  0  0  0  0  0  0  0  0  0  0  0
  151.5316  137.7403  154.7368 C   0  0  0  0  0  0  0  0  0  0  0  0
  150.4259  138.7109  154.4799 C   0  0  0  0  0  0  0  0  0  0  0  0
  149.3425  138.4851  153.6840 N   0  3  0  0  0  0  0  0  0  0  0  0
  148.5129  139.6070  153.6838 C   0  0  0  0  0  0  0  0  0  0  0  0
  147.3087  139.8509  153.0304 C   0  0  0  0  0  0  0  0  0  0  0  0
  146.7152  141.1120  153.2474 C   0  0  0  0  0  0  0  0  0  0  0  0
  147.3173  142.0726  154.0860 C   0  0  0  0  0  0  0  0  0  0  0  0
  148.5379  141.8135  154.7436 C   0  0  0  0  0  0  0  0  0  0  0  0
  149.1179  140.5643  154.5230 C   0  0  0  0  0  0  0  0  0  0  0  0
  150.2930  139.9688  154.9944 N   0  0  0  0  0  0  0  0  0  0  0  0
  151.1563  140.7288  155.9125 C   0  0  0  0  0  0  0  0  0  0  0  0
  150.4684  141.0614  157.2516 C   0  0  1  0  0  0  0  0  0  0  0  0
  149.4088  140.1525  157.4830 O   0  0  0  0  0  0  0  0  0  0  0  0
  151.4760  141.0869  158.3928 C   0  0  0  0  0  0  0  0  0  0  0  0
  152.1639  139.9106  158.7675 C   0  0  0  0  0  0  0  0  0  0  0  0
  153.1028  139.9385  159.8166 C   0  0  0  0  0  0  0  0  0  0  0  0
  153.3635  141.1429  160.4968 C   0  0  0  0  0  0  0  0  0  0  0  0
  154.2662  141.1698  161.5057 F   0  0  0  0  0  0  0  0  0  0  0  0
  152.6874  142.3202  160.1244 C   0  0  0  0  0  0  0  0  0  0  0  0
  151.7489  142.2950  159.0742 C   0  0  0  0  0  0  0  0  0  0  0  0
  151.1155  143.4397  158.7209 F   0  0  0  0  0  0  0  0  0  0  0  0
  151.2016  136.5896  153.2225 H   0  0  0  0  0  0  0  0  0  0  0  0
  151.6835  137.6236  155.8096 H   0  0  0  0  0  0  0  0  0  0  0  0
  152.4608  138.1363  154.3265 H   0  0  0  0  0  0  0  0  0  0  0  0
  146.8455  139.1166  152.3877 H   0  0  0  0  0  0  0  0  0  0  0  0
  145.7794  141.3472  152.7612 H   0  0  0  0  0  0  0  0  0  0  0  0
  146.8333  143.0280  154.2282 H   0  0  0  0  0  0  0  0  0  0  0  0
  148.9903  142.5556  155.3848 H   0  0  0  0  0  0  0  0  0  0  0  0
  152.0617  140.1472  156.0859 H   0  0  0  0  0  0  0  0  0  0  0  0
  151.4748  141.6399  155.4042 H   0  0  0  0  0  0  0  0  0  0  0  0
  150.0066  142.0461  157.1794 H   0  0  0  0  0  0  0  0  0  0  0  0
  149.7584  139.3904  157.9193 H   0  0  0  0  0  0  0  0  0  0  0  0
  151.9775  138.9811  158.2496 H   0  0  0  0  0  0  0  0  0  0  0  0
  153.6240  139.0353  160.0981 H   0  0  0  0  0  0  0  0  0  0  0  0
  152.8909  143.2452  160.6434 H   0  0  0  0  0  0  0  0  0  0  0  0
  149.1846  137.6214  153.1811 H   0  0  0  0  0  0  0  0  0  0  0  0
  1  2  1  0  0  0  0
  1 23  1  0  0  0  0
  2  3  1  0  0  0  0
  2 24  1  0  0  0  0
  2 25  1  0  0  0  0
  3 11  1  0  0  0  0
  3  4  2  0  0  0  0
  4  5  1  0  0  0  0
  4 37  1  0  0  0  0
  5 10  2  0  0  0  0
  5  6  1  0  0  0  0
  6  7  2  0  0  0  0
  6 26  1  0  0  0  0
  7  8  1  0  0  0  0
  7 27  1  0  0  0  0
  8  9  2  0  0  0  0
  8 28  1  0  0  0  0
  9 10  1  0  0  0  0
  9 29  1  0  0  0  0
 10 11  1  0  0  0  0
 11 12  1  0  0  0  0
 12 13  1  0  0  0  0
 12 30  1  0  0  0  0
 12 31  1  0  0  0  0
 13 14  1  0  0  0  0
 13 15  1  0  0  0  0
 13 32  1  0  0  0  0
 14 33  1  0  0  0  0
 15 21  1  0  0  0  0
 15 16  2  0  0  0  0
 16 17  1  0  0  0  0
 16 34  1  0  0  0  0
 17 18  2  0  0  0  0
 17 35  1  0  0  0  0
 18 19  1  0  0  0  0
 18 20  1  0  0  0  0
 20 21  2  0  0  0  0
 20 36  1  0  0  0  0
 21 22  1  0  0  0  0
M  CHG  1   4   1
M  END
> <s_m_source_file>
AV-unprocessed.smi

> <i_m_source_file_index>
1891

> <i_lp_mmshare_version>
43012

> <i_f3d_flags>
0

> <s_epik_input>
W2NIXTFbY0hdW2NIXVtjSF1jKGMxMiluKGMobjIpW0NIMl1bT0hdKVtDSDJdW0NASF0oW09IXSljM1tjSF1bY0hdYyhGKVtjSF1jM0Y=

> <s_epik_cmdline>
J2VwaWtfcHl0aG9uJywgJy1waCcsICc3LjAnLCAnLXRuJywgJzgnLCAnLW1hJywgJzIwMCcsICctbWV0YWxfYmluZGluZycsICctaW1hZScsICc8aW5maWxlLm1hZT4nLCAnLW9tYWUnLCAnPG91dGZpbGUubWFlPic=

> <r_epik_Ionization_Penalty>
1.35643

> <r_epik_Ionization_Penalty_Charging>
1.35557

> <r_epik_Ionization_Penalty_Neutral>
0.00085758

> <r_epik_State_Penalty>
1.43401

> <r_epik_Charging_Adjusted_Penalty>
2.78958

> <i_epik_Tot_Q>
1

> <i_epik_Tot_abs_Q>
1

> <r_epik_Metal_State_Penalty>
5.47166

> <b_epik_Metal_Only>
0

> <s_lp_Force_Field>
OPLS_2005

> <r_lp_Energy>
14.1785

> <b_lp_Chiralities_Consistent>
1

> <s_lp_Variant>
AV-unprocessed.smi:1891-4

> <Gold.Version>
5.8.1

> <Gold.Id.Protein>
6NUR|6NUR_protein|mol2

> <Gold.PLP.Fitness>
60.5589

> <Gold.PLP.PLP>
-49.6296

> <Gold.PLP.part.hbond>
-4.3639

> <Gold.PLP.part.metal>
0.0000

> <Gold.PLP.part.buried>
2.4098

> <Gold.PLP.part.nonpolar>
-47.3049

> <Gold.PLP.part.repulsive>
0.0638

> <Gold.PLP.ligand.clash>
0.0000

> <Gold.PLP.ligand.torsion>
0.5472

> <Gold.PLP.Chemscore.Hbond>
4.0000

> <Gold.PLP.Chemscore.CHOScore>
0.0000

> <Gold.PLP.Chemscore.Metal>
0.0000

> <Gold.Chemscore.Hbonds>
donor molecule, donor type, donor heavy atom, donor atom, acceptor molecule, acceptor atom, score
      L1  H     1    23       P1  7949  1.00
      L1  H     4    37       P1  7948  2.00
      P1  H 10752 10764       L1     1  1.00

> <Gold.PLP.Chemscore.Internal.Correction>
0.0237

> <Gold.Rescore>
     Score         DG    S(hbond)    S(metal)    S(lipo)     H(rot)  DE(clash)    DE(int)     intcor
     16.20     -19.57       2.50        0.00     113.50       2.95       2.69       0.68       ----

> <Gold.Chemscore.Fitness>
16.2034

> <Gold.Chemscore.DG>
-19.5674

> <Gold.Chemscore.ZeroCoef>
-5.4800

> <Gold.Chemscore.Hbond>
2.5009

> <Gold.Chemscore.Metal>
0.0000

> <Gold.Chemscore.Lipo>
113.5047

> <Gold.Chemscore.Internal_Hbond>
0.0000

> <Gold.Chemscore.DEClash>
2.6881

> <Gold.Chemscore.DEInternal>
0.6759

> <Gold.Chemscore.Rot>
2.9475

> <Gold.Chemscore.Internal.Correction>
   9.000000E+99

> <Gold.Chemscore.Hbonds>
donor molecule, donor type, donor heavy atom, donor atom, acceptor molecule, acceptor atom, score
      L1  H     1    23       P1  7949  0.54
      L1  H     4    37       P1  7948  0.99
      P1  H 10752 10764       L1     1  0.16

> <Gold.Chemscore.Hbond.Weighted>
-8.3530

> <Gold.Chemscore.Metal.Weighted>
-0.0000

> <Gold.Chemscore.Lipo.Weighted>
-13.2801

> <Gold.Chemscore.Internal_Hbond.Weighted>
0.0000

> <Gold.Chemscore.DEClash.Weighted>
2.6881

> <Gold.Chemscore.DEInternal.Weighted>
0.6759

> <Gold.Chemscore.Rot.Weighted>
7.5457

> <Gold.Chemscore.Internal.Correction.Weighted>
   9.000000E+99

> <Gold.Protein.RotatedTorsions>
[ 6907 6896 6895 6894 ] final  -85.41 input  -60.11 | X-H torsion
[ 7974 7965 7964 7962 ] final  -35.76 input  175.53 | X-H torsion
[ 8008 7997 7996 7995 ] final   72.50 input   59.86 | X-H torsion
[ 10167 10162 10161 10158 ] final   80.58 input  -65.29 | X-H torsion
[ 10718 10713 10712 10709 ] final -119.76 input   66.30 | X-H torsion
[ 10763 10752 10751 10750 ] final  -72.46 input  -60.55 | X-H torsion
[ 11005 11000 10999 10996 ] final  126.90 input  -57.11 | X-H torsion

> <Gold.Protein.ActiveResidues>
 VAL166  LYS551  ARG553  GLY616  TRP617  ASP618  TYR619  PRO620  LYS621  CYS622 
 ASP623  PHE694  ASN695  SER759  ASP760  ASP761  ALA762  ILE779  LEU786  VAL792 
 PHE793  MET794  SER795  GLU796  ALA797  LYS798  CYS799  TRP800  GLU811  SER814 

> <Gold.Protein.RotatedAtoms>
  150.6870  134.3209  159.4785 H   0  0  0  0  0  0  0  0  0  0  0  0  # atno 6907 bound_to 6896
  152.1085  134.9289  160.0576 H   0  0  0  0  0  0  0  0  0  0  0  0  # atno 6908 bound_to 6896
  152.0541  133.3997  159.4426 H   0  0  0  0  0  0  0  0  0  0  0  0  # atno 6909 bound_to 6896
  146.0719  140.6198  142.8948 H   0  0  0  0  0  0  0  0  0  0  0  0  # atno 7974 bound_to 7965
  155.7698  140.3484  155.5241 H   0  0  0  0  0  0  0  0  0  0  0  0  # atno 8008 bound_to 7997
  155.8833  140.1005  157.1491 H   0  0  0  0  0  0  0  0  0  0  0  0  # atno 8009 bound_to 7997
  154.4026  140.1318  156.4211 H   0  0  0  0  0  0  0  0  0  0  0  0  # atno 8010 bound_to 7997
  139.9482  144.6044  150.8186 H   0  0  0  0  0  0  0  0  0  0  0  0  # atno 10167 bound_to 10162
  156.1206  130.6320  150.9456 H   0  0  0  0  0  0  0  0  0  0  0  0  # atno 10718 bound_to 10713
  154.4460  135.5929  153.6160 H   0  0  0  0  0  0  0  0  0  0  0  0  # atno 10763 bound_to 10752
  152.9809  135.6009  154.3663 H   0  0  0  0  0  0  0  0  0  0  0  0  # atno 10764 bound_to 10752
  154.3519  135.2841  155.2346 H   0  0  0  0  0  0  0  0  0  0  0  0  # atno 10765 bound_to 10752
  139.9479  134.9627  156.8775 H   0  0  0  0  0  0  0  0  0  0  0  0  # atno 11005 bound_to 11000
  144.7237  140.4456  143.6989 LP  0  0  0  0  0  0  0  0  0  0  0  0  # atno 17320 bound_to 7965
  145.6376  139.1545  143.2933 LP  0  0  0  0  0  0  0  0  0  0  0  0  # atno 17321 bound_to 7965
  140.7591  143.3121  151.2821 LP  0  0  0  0  0  0  0  0  0  0  0  0  # atno 17342 bound_to 10162
  139.6649  144.0122  152.2717 LP  0  0  0  0  0  0  0  0  0  0  0  0  # atno 17343 bound_to 10162
  157.6389  131.0912  150.8292 LP  0  0  0  0  0  0  0  0  0  0  0  0  # atno 17370 bound_to 10713
  156.8389  130.5041  149.5323 LP  0  0  0  0  0  0  0  0  0  0  0  0  # atno 17371 bound_to 10713
  140.5789  134.0372  155.7457 LP  0  0  0  0  0  0  0  0  0  0  0  0  # atno 17394 bound_to 11000
  141.1135  133.9578  157.2866 LP  0  0  0  0  0  0  0  0  0  0  0  0  # atno 17395 bound_to 11000

$$$$
