AV-unprocessed.smi:2822|AV-procd|sdf|10869|dock4
  -GOLD-   2272015313D 1   1.00000     0.00000
 Structure written by MMmdl.
 40 42  0  0  0  0  0  0  0  0  2 V2000
  147.1116  130.7630  152.7739 Cl  0  0  0  0  0  0  0  0  0  0  0  0
  145.9239  131.5792  151.8179 C   0  0  0  0  0  0  0  0  0  0  0  0
  145.0900  130.8378  150.9559 C   0  0  0  0  0  0  0  0  0  0  0  0
  144.1372  131.3969  150.1805 N   0  0  0  0  0  0  0  0  0  0  0  0
  143.9849  132.7362  150.2396 C   0  0  0  0  0  0  0  0  0  0  0  0
  144.7647  133.5704  151.0657 C   0  0  0  0  0  0  0  0  0  0  0  0
  145.7612  132.9823  151.8798 C   0  0  0  0  0  0  0  0  0  0  0  0
  146.5804  133.7364  152.7334 N   0  0  0  0  0  0  0  0  0  0  0  0
  146.3172  135.1461  152.9757 C   0  0  0  0  0  0  0  0  0  0  0  0
  146.4304  135.4891  154.4744 C   0  0  1  0  0  0  0  0  0  0  0  0
  147.8658  135.3634  155.0184 C   0  0  0  0  0  0  0  0  0  0  0  0
  148.7323  136.4558  154.5166 N   0  3  2  0  0  0  0  0  0  0  0  0
  150.1299  136.3283  155.0026 C   0  0  0  0  0  0  0  0  0  0  0  0
  151.0298  137.4200  154.4030 C   0  0  0  0  0  0  0  0  0  0  0  0
  150.4688  138.8147  154.7050 C   0  0  0  0  0  0  0  0  0  0  0  0
  149.0185  138.9135  154.2143 C   0  0  0  0  0  0  0  0  0  0  0  0
  148.1444  137.7910  154.8102 C   0  0  1  0  0  0  0  0  0  0  0  0
  146.7047  137.8646  154.2670 C   0  0  0  0  0  0  0  0  0  0  0  0
  145.9238  136.7893  154.7776 O   0  0  0  0  0  0  0  0  0  0  0  0
  145.1896  129.7645  150.8881 H   0  0  0  0  0  0  0  0  0  0  0  0
  143.2171  133.1581  149.6080 H   0  0  0  0  0  0  0  0  0  0  0  0
  144.5880  134.6353  151.0570 H   0  0  0  0  0  0  0  0  0  0  0  0
  147.2344  133.2557  153.3357 H   0  0  0  0  0  0  0  0  0  0  0  0
  147.0493  135.7298  152.4161 H   0  0  0  0  0  0  0  0  0  0  0  0
  145.3371  135.4164  152.5838 H   0  0  0  0  0  0  0  0  0  0  0  0
  145.8097  134.7771  155.0199 H   0  0  0  0  0  0  0  0  0  0  0  0
  147.8450  135.3986  156.1090 H   0  0  0  0  0  0  0  0  0  0  0  0
  148.2883  134.3963  154.7428 H   0  0  0  0  0  0  0  0  0  0  0  0
  150.1450  136.3889  156.0922 H   0  0  0  0  0  0  0  0  0  0  0  0
  150.5210  135.3461  154.7346 H   0  0  0  0  0  0  0  0  0  0  0  0
  152.0404  137.3307  154.8025 H   0  0  0  0  0  0  0  0  0  0  0  0
  151.1094  137.2805  153.3241 H   0  0  0  0  0  0  0  0  0  0  0  0
  150.5099  139.0060  155.7781 H   0  0  0  0  0  0  0  0  0  0  0  0
  151.0819  139.5794  154.2269 H   0  0  0  0  0  0  0  0  0  0  0  0
  148.6074  139.8888  154.4781 H   0  0  0  0  0  0  0  0  0  0  0  0
  149.0022  138.8569  153.1248 H   0  0  0  0  0  0  0  0  0  0  0  0
  148.1097  137.9133  155.8946 H   0  0  0  0  0  0  0  0  0  0  0  0
  146.2386  138.8005  154.5763 H   0  0  0  0  0  0  0  0  0  0  0  0
  146.6929  137.8645  153.1768 H   0  0  0  0  0  0  0  0  0  0  0  0
  148.7636  136.3662  153.5110 H   0  0  0  0  0  0  0  0  0  0  0  0
  1  2  1  0  0  0  0
  2  7  1  0  0  0  0
  2  3  2  0  0  0  0
  3  4  1  0  0  0  0
  3 20  1  0  0  0  0
  4  5  2  0  0  0  0
  5  6  1  0  0  0  0
  5 21  1  0  0  0  0
  6  7  2  0  0  0  0
  6 22  1  0  0  0  0
  7  8  1  0  0  0  0
  8  9  1  0  0  0  0
  8 23  1  0  0  0  0
  9 10  1  0  0  0  0
  9 24  1  0  0  0  0
  9 25  1  0  0  0  0
 10 19  1  0  0  0  0
 10 11  1  0  0  0  0
 10 26  1  0  0  0  0
 11 12  1  0  0  0  0
 11 27  1  0  0  0  0
 11 28  1  0  0  0  0
 12 17  1  0  0  0  0
 12 13  1  0  0  0  0
 12 40  1  0  0  0  0
 13 14  1  0  0  0  0
 13 29  1  0  0  0  0
 13 30  1  0  0  0  0
 14 15  1  0  0  0  0
 14 31  1  0  0  0  0
 14 32  1  0  0  0  0
 15 16  1  0  0  0  0
 15 33  1  0  0  0  0
 15 34  1  0  0  0  0
 16 17  1  0  0  0  0
 16 35  1  0  0  0  0
 16 36  1  0  0  0  0
 17 18  1  0  0  0  0
 17 37  1  0  0  0  0
 18 19  1  0  0  0  0
 18 38  1  0  0  0  0
 18 39  1  0  0  0  0
M  CHG  1  12   1
M  END
> <s_m_source_file>
AV-unprocessed.smi

> <i_m_source_file_index>
2822

> <i_lp_mmshare_version>
43012

> <i_f3d_flags>
0

> <s_epik_input>
Q2xjMVtjSF1uW2NIXVtjSF1jMVtOSF1bQ0gyXVtDQEhdKFtDSDJdMilPW0NIMl1bQ0BASF0oTjIzKVtDSDJdW0NIMl1bQ0gyXVtDSDJdMw==

> <s_epik_cmdline>
J2VwaWtfcHl0aG9uJywgJy1waCcsICc3LjAnLCAnLXRuJywgJzgnLCAnLW1hJywgJzIwMCcsICctbWV0YWxfYmluZGluZycsICctaW1hZScsICc8aW5maWxlLm1hZT4nLCAnLW9tYWUnLCAnPG91dGZpbGUubWFlPic=

> <r_lp_tautomer_probability>
0.999999

> <r_epik_Ionization_Penalty>
0.88937

> <r_epik_Ionization_Penalty_Charging>
0.0803403

> <r_epik_Ionization_Penalty_Neutral>
0.80903

> <r_epik_State_Penalty>
0.931884

> <r_epik_Charging_Adjusted_Penalty>
1.01222

> <i_epik_Tot_Q>
1

> <i_epik_Tot_abs_Q>
1

> <r_epik_Metal_State_Penalty>
0.0782275

> <b_epik_Metal_Only>
0

> <s_lp_Force_Field>
OPLS_2005

> <r_lp_Energy>
31.9591

> <b_lp_Chiralities_Consistent>
1

> <s_lp_Variant>
AV-unprocessed.smi:2822-10

> <Gold.Version>
5.8.1

> <Gold.Id.Protein>
6NUR|6NUR_protein|mol2

> <Gold.PLP.Fitness>
37.2470

> <Gold.PLP.PLP>
-26.9507

> <Gold.PLP.part.hbond>
-2.0000

> <Gold.PLP.part.metal>
0.0000

> <Gold.PLP.part.buried>
-2.7040

> <Gold.PLP.part.nonpolar>
-22.3716

> <Gold.PLP.part.repulsive>
0.2064

> <Gold.PLP.ligand.clash>
0.0000

> <Gold.PLP.ligand.torsion>
0.1627

> <Gold.PLP.Chemscore.Hbond>
2.5382

> <Gold.PLP.Chemscore.CHOScore>
1.0000

> <Gold.PLP.Chemscore.Metal>
0.0000

> <Gold.Chemscore.Hbonds>
donor molecule, donor type, donor heavy atom, donor atom, acceptor molecule, acceptor atom, score
      L1  H    12    40       P1  7948  2.00
      P1  H 10785 10796       L1     4  0.48
      L1  C     5    21       P1 10186  0.96

> <Gold.PLP.Chemscore.Internal.Correction>
0.0071

> <Gold.Rescore>
     Score         DG    S(hbond)    S(metal)    S(lipo)     H(rot)  DE(clash)    DE(int)     intcor
     16.70     -17.12       1.49        0.00      82.59       1.17       0.25       0.18       ----

> <Gold.Chemscore.Fitness>
16.6986

> <Gold.Chemscore.DG>
-17.1201

> <Gold.Chemscore.ZeroCoef>
-5.4800

> <Gold.Chemscore.Hbond>
1.4881

> <Gold.Chemscore.Metal>
0.0000

> <Gold.Chemscore.Lipo>
82.5912

> <Gold.Chemscore.Internal_Hbond>
0.0000

> <Gold.Chemscore.DEClash>
0.2458

> <Gold.Chemscore.DEInternal>
0.1757

> <Gold.Chemscore.Rot>
1.1693

> <Gold.Chemscore.Internal.Correction>
   9.000000E+99

> <Gold.Chemscore.Hbonds>
donor molecule, donor type, donor heavy atom, donor atom, acceptor molecule, acceptor atom, score
      L1  H    12    40       P1  7948  1.00
      P1  H 10785 10796       L1     4  0.44

> <Gold.Chemscore.Hbond.Weighted>
-4.9703

> <Gold.Chemscore.Metal.Weighted>
-0.0000

> <Gold.Chemscore.Lipo.Weighted>
-9.6632

> <Gold.Chemscore.Internal_Hbond.Weighted>
0.0000

> <Gold.Chemscore.DEClash.Weighted>
0.2458

> <Gold.Chemscore.DEInternal.Weighted>
0.1757

> <Gold.Chemscore.Rot.Weighted>
2.9934

> <Gold.Chemscore.Internal.Correction.Weighted>
   9.000000E+99

> <Gold.Protein.RotatedTorsions>
[ 6907 6896 6895 6894 ] final -142.77 input  -60.11 | X-H torsion
[ 7974 7965 7964 7962 ] final  -25.80 input  175.53 | X-H torsion
[ 8008 7997 7996 7995 ] final  -15.47 input   59.86 | X-H torsion
[ 10167 10162 10161 10158 ] final   99.14 input  -65.29 | X-H torsion
[ 10718 10713 10712 10709 ] final   73.26 input   66.30 | X-H torsion
[ 10763 10752 10751 10750 ] final -142.27 input  -60.55 | X-H torsion
[ 11005 11000 10999 10996 ] final  -52.07 input  -57.11 | X-H torsion

> <Gold.Protein.ActiveResidues>
 VAL166  LYS551  ARG553  GLY616  TRP617  ASP618  TYR619  PRO620  LYS621  CYS622 
 ASP623  PHE694  ASN695  SER759  ASP760  ASP761  ALA762  ILE779  LEU786  VAL792 
 PHE793  MET794  SER795  GLU796  ALA797  LYS798  CYS799  TRP800  GLU811  SER814 

> <Gold.Protein.RotatedAtoms>
  151.0916  133.5312  159.2614 H   0  0  0  0  0  0  0  0  0  0  0  0  # atno 6907 bound_to 6896
  151.2177  135.0505  159.8947 H   0  0  0  0  0  0  0  0  0  0  0  0  # atno 6908 bound_to 6896
  152.5434  134.0722  159.8252 H   0  0  0  0  0  0  0  0  0  0  0  0  # atno 6909 bound_to 6896
  146.1467  140.4934  142.8628 H   0  0  0  0  0  0  0  0  0  0  0  0  # atno 7974 bound_to 7965
  154.5128  140.2195  155.9123 H   0  0  0  0  0  0  0  0  0  0  0  0  # atno 8008 bound_to 7997
  156.1572  140.3149  155.8712 H   0  0  0  0  0  0  0  0  0  0  0  0  # atno 8009 bound_to 7997
  155.3822  140.0473  157.3034 H   0  0  0  0  0  0  0  0  0  0  0  0  # atno 8010 bound_to 7997
  139.7645  144.6943  151.0245 H   0  0  0  0  0  0  0  0  0  0  0  0  # atno 10167 bound_to 10162
  157.6540  130.9620  150.1045 H   0  0  0  0  0  0  0  0  0  0  0  0  # atno 10718 bound_to 10713
  154.8515  135.3501  154.6001 H   0  0  0  0  0  0  0  0  0  0  0  0  # atno 10763 bound_to 10752
  153.6610  135.6989  153.5182 H   0  0  0  0  0  0  0  0  0  0  0  0  # atno 10764 bound_to 10752
  153.2818  135.4261  155.1043 H   0  0  0  0  0  0  0  0  0  0  0  0  # atno 10765 bound_to 10752
  141.0905  133.6634  156.3970 H   0  0  0  0  0  0  0  0  0  0  0  0  # atno 11005 bound_to 11000
  144.7855  140.5928  143.6576 LP  0  0  0  0  0  0  0  0  0  0  0  0  # atno 17320 bound_to 7965
  145.4920  139.1488  143.3704 LP  0  0  0  0  0  0  0  0  0  0  0  0  # atno 17321 bound_to 7965
  140.7810  143.4659  151.0213 LP  0  0  0  0  0  0  0  0  0  0  0  0  # atno 17342 bound_to 10162
  139.8344  143.7647  152.3180 LP  0  0  0  0  0  0  0  0  0  0  0  0  # atno 17343 bound_to 10162
  156.1958  130.3657  149.8851 LP  0  0  0  0  0  0  0  0  0  0  0  0  # atno 17370 bound_to 10713
  156.6767  130.8842  151.3570 LP  0  0  0  0  0  0  0  0  0  0  0  0  # atno 17371 bound_to 10713
  140.5264  134.6255  157.5335 LP  0  0  0  0  0  0  0  0  0  0  0  0  # atno 17394 bound_to 11000
  139.9730  134.7262  156.0005 LP  0  0  0  0  0  0  0  0  0  0  0  0  # atno 17395 bound_to 11000

$$$$
