#       Name:                AV-unprocessed.smi:2955
#       Creating user name   scv26
#       Creation time:       Fri Mar 27 16:20:00 2020


#       File generated by GOLD software.
#

@<TRIPOS>MOLECULE
AV-unprocessed.smi:2955
    50    52     1
SMALL
NO_CHARGES


@<TRIPOS>ATOM
      1 ****         9.0556   3.9648   7.9685 C.3            1 S1                 0.0000
      2 ****         7.9898   3.2001   7.2104 C.ar           1 S1                 0.0000
      3 ****         7.2520   2.1861   7.8529 C.ar           1 S1                 0.0000
      4 ****         6.2607   1.4828   7.1445 C.ar           1 S1                 0.0000
      5 ****         6.0054   1.7926   5.7955 C.ar           1 S1                 0.0000
      6 ****         6.7325   2.8054   5.1370 C.ar           1 S1                 0.0000
      7 ****         6.4162   3.0458   3.8169 O.3            1 S1                 0.0000
      8 ****         7.1679   4.0254   3.1129 C.3            1 S1                 0.0000
      9 ****         6.6771   4.1211   1.6618 C.3            1 S1                 0.0000
     10 ****         5.2865   4.5474   1.5726 N.pl3          1 S1                 0.0000
     11 ****         4.1541   3.7943   1.5415 C.2            1 S1                 0.0000
     12 ****         4.1638   2.2872   1.6056 C.3            1 S1                 0.0000
     13 ****         3.3205   1.7489   2.7705 C.3            1 S1                 0.0000
     14 ****         3.6654   1.7706   0.3354 N.am           1 S1                 0.0000
     15 ****         4.4206   1.6070  -0.7580 C.2            1 S1                 0.0000
     16 ****         5.6175   1.8805  -0.7958 O.2            1 S1                 0.0000
     17 ****         3.0139   4.4788   1.4139 N.2            1 S1                 0.0000
     18 ****         3.4403   5.7906   1.3949 C.ar           1 S1                 0.0000
     19 ****         2.7057   6.9937   1.2925 C.ar           1 S1                 0.0000
     20 ****         3.3699   8.2378   1.2953 C.ar           1 S1                 0.0000
     21 ****         4.7745   8.2960   1.4005 C.ar           1 S1                 0.0000
     22 ****         5.5247   7.1086   1.5013 C.ar           1 S1                 0.0000
     23 ****         4.8570   5.8690   1.4970 C.ar           1 S1                 0.0000
     24 ****         7.7307   3.5086   5.8588 C.ar           1 S1                 0.0000
     25 ****         9.3559   3.4335   8.8722 H              1 S1                 0.0000
     26 ****         8.6794   4.9466   8.2567 H              1 S1                 0.0000
     27 ****         9.9417   4.1049   7.3488 H              1 S1                 0.0000
     28 ****         7.4429   1.9452   8.8886 H              1 S1                 0.0000
     29 ****         5.6951   0.7052   7.6364 H              1 S1                 0.0000
     30 ****         5.2435   1.2448   5.2611 H              1 S1                 0.0000
     31 ****         7.0661   4.9987   3.5957 H              1 S1                 0.0000
     32 ****         8.2254   3.7569   3.1160 H              1 S1                 0.0000
     33 ****         7.2895   4.8428   1.1208 H              1 S1                 0.0000
     34 ****         6.8128   3.1763   1.1369 H              1 S1                 0.0000
     35 ****         5.1763   1.9179   1.7578 H              1 S1                 0.0000
     36 ****         3.6694   2.1514   3.7211 H              1 S1                 0.0000
     37 ****         3.3799   0.6618   2.8283 H              1 S1                 0.0000
     38 ****         2.2693   2.0195   2.6646 H              1 S1                 0.0000
     39 ****         2.6827   1.5450   0.2803 H              1 S1                 0.0000
     40 ****         3.8400   1.2042  -1.6029 H              1 S1                 0.0000
     41 ****         1.6291   6.9594   1.2125 H              1 S1                 0.0000
     42 ****         2.7987   9.1511   1.2167 H              1 S1                 0.0000
     43 ****         5.2759   9.2527   1.4030 H              1 S1                 0.0000
     44 ****         6.6007   7.1509   1.5822 H              1 S1                 0.0000
     45 ****         8.3111   4.2923   5.3960 H              1 S1                 0.0000
     46 ****         5.4581   3.3310   3.7889 LP             1 S1                 0.0000
     47 ****         6.5212   2.1816   3.3249 LP             1 S1                 0.0000
     48 ****         6.0731   2.2444   0.0165 LP             1 S1                 0.0000
     49 ****         6.1363   1.7392  -1.6390 LP             1 S1                 0.0000
     50 ****         2.0803   4.1266   1.3483 LP             1 S1                 0.0000
@<TRIPOS>BOND
    1    1    2 1     
    2    1   25 1     
    3    1   26 1     
    4    1   27 1     
    5    2   24 ar    
    6    2    3 ar    
    7    3    4 ar    
    8    3   28 1     
    9    4    5 ar    
   10    4   29 1     
   11    5    6 ar    
   12    5   30 1     
   13    6    7 1     
   14    6   24 ar    
   15    7    8 1     
   16    8    9 1     
   17    8   31 1     
   18    8   32 1     
   19    9   10 1     
   20    9   33 1     
   21    9   34 1     
   22   10   23 1     
   23   10   11 1     
   24   11   12 1     
   25   11   17 2     
   26   12   13 1     
   27   12   14 1     
   28   12   35 1     
   29   13   36 1     
   30   13   37 1     
   31   13   38 1     
   32   14   15 am    
   33   14   39 1     
   34   15   16 2     
   35   15   40 1     
   36   17   18 1     
   37   18   23 ar    
   38   18   19 ar    
   39   19   20 ar    
   40   19   41 1     
   41   20   21 ar    
   42   20   42 1     
   43   21   22 ar    
   44   21   43 1     
   45   22   23 ar    
   46   22   44 1     
   47   24   45 1     
   48    7   46 1     
   49    7   47 1     
   50   16   48 1     
   51   16   49 1     
   52   17   50 1     
@<TRIPOS>SUBSTRUCTURE
      1 S1             1
@<TRIPOS>SET
LONE_PAIRS      STATIC     ATOMS    <user>   **** ""
5 46 47 48 49 50
DONOR_HYDROGENS      STATIC     ATOMS    <user>   **** ""
1 39
ATOM$BLUE        STATIC     ATOMS    COLORGROUP SYSTEM
5 46 47 48 49 50
ATOM$RED        STATIC     ATOMS    COLORGROUP SYSTEM
1 39
