AV-unprocessed.smi:1285|AV-procd|sdf|5369|dock7
  -GOLD-   22720 4513D 1   1.00000     0.00000
 Structure written by MMmdl.
 46 47  0  0  0  0  0  0  0  0  1 V2000
  149.4080  136.6726  158.1791 C   0  0  0  0  0  0  0  0  0  0  0  0
  148.2011  136.4562  157.2480 C   0  0  0  0  0  0  0  0  0  0  0  0
  148.5427  136.1715  155.7505 C   0  0  1  0  0  0  0  0  0  0  0  0
  149.4619  134.9199  155.7432 C   0  0  0  0  0  0  0  0  0  0  0  0
  147.2230  135.8105  154.9937 C   0  0  0  0  0  0  0  0  0  0  0  0
  147.4348  135.0252  153.7775 N   0  0  0  0  0  0  0  0  0  0  0  0
  146.7759  133.9044  153.4404 C   0  0  0  0  0  0  0  0  0  0  0  0
  145.8908  133.4069  154.1371 O   0  0  0  0  0  0  0  0  0  0  0  0
  147.1926  133.2435  152.1178 C   0  0  1  0  0  0  0  0  0  0  0  0
  147.9000  131.8904  152.3353 C   0  0  0  0  0  0  0  0  0  0  0  0
  146.0441  133.1343  151.2267 N   0  0  0  0  0  0  0  0  0  0  0  0
  145.9634  132.6355  149.9910 C   0  0  0  0  0  0  0  0  0  0  0  0
  144.7597  132.7378  149.4454 N   0  0  0  0  0  0  0  0  0  0  0  0
  144.1008  133.3661  150.4638 C   0  0  0  0  0  0  0  0  0  0  0  0
  144.8258  133.6368  151.5490 N   0  0  0  0  0  0  0  0  0  0  0  0
  149.2397  137.3360  155.1342 N   0  0  0  0  0  0  0  0  0  0  0  0
  148.5914  138.6369  155.3376 C   0  0  0  0  0  0  0  0  0  0  0  0
  149.2889  139.7571  154.5468 C   0  0  0  0  0  0  0  0  0  0  0  0
  150.6625  139.8192  154.9118 O   0  0  0  0  0  0  0  0  0  0  0  0
  151.3424  138.5915  154.6790 C   0  0  0  0  0  0  0  0  0  0  0  0
  150.6619  137.4652  155.4749 C   0  0  0  0  0  0  0  0  0  0  0  0
  149.0710  136.8761  159.1957 H   0  0  0  0  0  0  0  0  0  0  0  0
  150.0184  137.5191  157.8654 H   0  0  0  0  0  0  0  0  0  0  0  0
  150.0494  135.7928  158.2215 H   0  0  0  0  0  0  0  0  0  0  0  0
  147.6229  135.6300  157.6617 H   0  0  0  0  0  0  0  0  0  0  0  0
  147.5374  137.3171  157.3264 H   0  0  0  0  0  0  0  0  0  0  0  0
  149.0785  134.1258  156.3849 H   0  0  0  0  0  0  0  0  0  0  0  0
  150.4672  135.1565  156.0927 H   0  0  0  0  0  0  0  0  0  0  0  0
  149.5576  134.4888  154.7465 H   0  0  0  0  0  0  0  0  0  0  0  0
  146.5264  135.2894  155.6508 H   0  0  0  0  0  0  0  0  0  0  0  0
  146.7059  136.7155  154.6773 H   0  0  0  0  0  0  0  0  0  0  0  0
  148.1499  135.3576  153.1473 H   0  0  0  0  0  0  0  0  0  0  0  0
  147.9115  133.9048  151.6307 H   0  0  0  0  0  0  0  0  0  0  0  0
  148.7847  132.0077  152.9620 H   0  0  0  0  0  0  0  0  0  0  0  0
  148.2271  131.4656  151.3859 H   0  0  0  0  0  0  0  0  0  0  0  0
  147.2506  131.1588  152.8179 H   0  0  0  0  0  0  0  0  0  0  0  0
  146.8037  132.1908  149.4782 H   0  0  0  0  0  0  0  0  0  0  0  0
  143.0573  133.6370  150.4015 H   0  0  0  0  0  0  0  0  0  0  0  0
  147.5500  138.6080  155.0220 H   0  0  0  0  0  0  0  0  0  0  0  0
  148.5962  138.9015  156.3948 H   0  0  0  0  0  0  0  0  0  0  0  0
  149.1976  139.5858  153.4729 H   0  0  0  0  0  0  0  0  0  0  0  0
  148.8208  140.7185  154.7585 H   0  0  0  0  0  0  0  0  0  0  0  0
  151.3444  138.3632  153.6120 H   0  0  0  0  0  0  0  0  0  0  0  0
  152.3831  138.6969  154.9860 H   0  0  0  0  0  0  0  0  0  0  0  0
  150.7789  137.6721  156.5385 H   0  0  0  0  0  0  0  0  0  0  0  0
  151.2000  136.5414  155.2715 H   0  0  0  0  0  0  0  0  0  0  0  0
  1  2  1  0  0  0  0
  1 22  1  0  0  0  0
  1 23  1  0  0  0  0
  1 24  1  0  0  0  0
  2  3  1  0  0  0  0
  2 25  1  0  0  0  0
  2 26  1  0  0  0  0
  3  4  1  0  0  0  0
  3  5  1  0  0  0  0
  3 16  1  0  0  0  0
  4 27  1  0  0  0  0
  4 28  1  0  0  0  0
  4 29  1  0  0  0  0
  5  6  1  0  0  0  0
  5 30  1  0  0  0  0
  5 31  1  0  0  0  0
  6  7  1  0  0  0  0
  6 32  1  0  0  0  0
  7  8  2  0  0  0  0
  7  9  1  0  0  0  0
  9 10  1  0  0  0  0
  9 11  1  0  0  0  0
  9 33  1  0  0  0  0
 10 34  1  0  0  0  0
 10 35  1  0  0  0  0
 10 36  1  0  0  0  0
 11 15  1  0  0  0  0
 11 12  1  0  0  0  0
 12 13  2  0  0  0  0
 12 37  1  0  0  0  0
 13 14  1  0  0  0  0
 14 15  2  0  0  0  0
 14 38  1  0  0  0  0
 16 21  1  0  0  0  0
 16 17  1  0  0  0  0
 17 18  1  0  0  0  0
 17 39  1  0  0  0  0
 17 40  1  0  0  0  0
 18 19  1  0  0  0  0
 18 41  1  0  0  0  0
 18 42  1  0  0  0  0
 19 20  1  0  0  0  0
 20 21  1  0  0  0  0
 20 43  1  0  0  0  0
 20 44  1  0  0  0  0
 21 45  1  0  0  0  0
 21 46  1  0  0  0  0
M  END
> <s_m_source_file>
AV-unprocessed.smi

> <i_m_source_file_index>
1285

> <i_lp_mmshare_version>
43012

> <i_f3d_flags>
0

> <s_epik_input>
W0NIMl0xW0NIMl1PW0NIMl1bQ0gyXU4xW0NAQF0oW0NIM10pKFtDSDJdW0NIM10pW0NIMl1bTkhdQyg9TylbQ0BIXShbQ0gzXSluMltjSF1uW2NIXW4y

> <s_epik_cmdline>
J2VwaWtfcHl0aG9uJywgJy1waCcsICc3LjAnLCAnLXRuJywgJzgnLCAnLW1hJywgJzIwMCcsICctbWV0YWxfYmluZGluZycsICctaW1hZScsICc8aW5maWxlLm1hZT4nLCAnLW9tYWUnLCAnPG91dGZpbGUubWFlPic=

> <r_lp_tautomer_probability>
1

> <r_epik_Ionization_Penalty>
0.285697

> <r_epik_Ionization_Penalty_Charging>
0

> <r_epik_Ionization_Penalty_Neutral>
0.285697

> <r_epik_State_Penalty>
0.278478

> <r_epik_Charging_Adjusted_Penalty>
0.278478

> <i_epik_Tot_Q>
0

> <i_epik_Tot_abs_Q>
0

> <r_epik_Metal_State_Penalty>
0.278477

> <b_epik_Metal_Only>
0

> <s_lp_Force_Field>
OPLS_2005

> <r_lp_Energy>
48.702

> <b_lp_Chiralities_Consistent>
1

> <s_lp_Variant>
AV-unprocessed.smi:1285-3

> <Gold.Version>
5.8.1

> <Gold.Id.Protein>
6NUR|6NUR_protein|mol2

> <Gold.PLP.Fitness>
35.7435

> <Gold.PLP.PLP>
-25.2969

> <Gold.PLP.part.hbond>
-2.0000

> <Gold.PLP.part.metal>
0.0000

> <Gold.PLP.part.buried>
-2.7871

> <Gold.PLP.part.nonpolar>
-21.0943

> <Gold.PLP.part.repulsive>
0.6134

> <Gold.PLP.ligand.clash>
0.0000

> <Gold.PLP.ligand.torsion>
0.8650

> <Gold.PLP.Chemscore.Hbond>
1.9760

> <Gold.PLP.Chemscore.CHOScore>
2.0000

> <Gold.PLP.Chemscore.Metal>
0.0000

> <Gold.Chemscore.Hbonds>
donor molecule, donor type, donor heavy atom, donor atom, acceptor molecule, acceptor atom, score
      L1  H     6    32       P1  7948  1.00
      P1  H  7989  7998       L1    19  0.80
      L1  C    12    37       P1 10747  0.70
      L1  C    14    38       P1 10186  1.00

> <Gold.PLP.Chemscore.Internal.Correction>
0.2486

> <Gold.Rescore>
     Score         DG    S(hbond)    S(metal)    S(lipo)     H(rot)  DE(clash)    DE(int)     intcor
      6.80     -10.34       1.77        0.00      49.65       2.68       1.69       1.85       ----

> <Gold.Chemscore.Fitness>
6.8021

> <Gold.Chemscore.DG>
-10.3442

> <Gold.Chemscore.ZeroCoef>
-5.4800

> <Gold.Chemscore.Hbond>
1.7728

> <Gold.Chemscore.Metal>
0.0000

> <Gold.Chemscore.Lipo>
49.6514

> <Gold.Chemscore.Internal_Hbond>
0.0000

> <Gold.Chemscore.DEClash>
1.6905

> <Gold.Chemscore.DEInternal>
1.8516

> <Gold.Chemscore.Rot>
2.6821

> <Gold.Chemscore.Internal.Correction>
   9.000000E+99

> <Gold.Chemscore.Hbonds>
donor molecule, donor type, donor heavy atom, donor atom, acceptor molecule, acceptor atom, score
      L1  H     6    32       P1  7948  1.00
      P1  H  7989  7998       L1    19  0.07

> <Gold.Chemscore.Hbond.Weighted>
-5.9211

> <Gold.Chemscore.Metal.Weighted>
-0.0000

> <Gold.Chemscore.Lipo.Weighted>
-5.8092

> <Gold.Chemscore.Internal_Hbond.Weighted>
0.0000

> <Gold.Chemscore.DEClash.Weighted>
1.6905

> <Gold.Chemscore.DEInternal.Weighted>
1.8516

> <Gold.Chemscore.Rot.Weighted>
6.8661

> <Gold.Chemscore.Internal.Correction.Weighted>
   9.000000E+99

> <Gold.Protein.RotatedTorsions>
[ 6907 6896 6895 6894 ] final -107.38 input  -60.11 | X-H torsion
[ 7974 7965 7964 7962 ] final   64.86 input  175.53 | X-H torsion
[ 8008 7997 7996 7995 ] final -134.00 input   59.86 | X-H torsion
[ 10167 10162 10161 10158 ] final   97.69 input  -65.29 | X-H torsion
[ 10718 10713 10712 10709 ] final  -77.05 input   66.30 | X-H torsion
[ 10763 10752 10751 10750 ] final   56.95 input  -60.55 | X-H torsion
[ 11005 11000 10999 10996 ] final -120.39 input  -57.11 | X-H torsion

> <Gold.Protein.ActiveResidues>
 VAL166  LYS551  ARG553  GLY616  TRP617  ASP618  TYR619  PRO620  LYS621  CYS622 
 ASP623  PHE694  ASN695  SER759  ASP760  ASP761  ALA762  ILE779  LEU786  VAL792 
 PHE793  MET794  SER795  GLU796  ALA797  LYS798  CYS799  TRP800  GLU811  SER814 

> <Gold.Protein.RotatedAtoms>
  150.7441  133.9836  159.3583 H   0  0  0  0  0  0  0  0  0  0  0  0  # atno 6907 bound_to 6896
  151.7778  135.0767  160.0379 H   0  0  0  0  0  0  0  0  0  0  0  0  # atno 6908 bound_to 6896
  152.3294  133.5905  159.5835 H   0  0  0  0  0  0  0  0  0  0  0  0  # atno 6909 bound_to 6896
  145.8453  139.3220  143.0907 H   0  0  0  0  0  0  0  0  0  0  0  0  # atno 7974 bound_to 7965
  155.3548  140.0479  157.3046 H   0  0  0  0  0  0  0  0  0  0  0  0  # atno 8008 bound_to 7997
  154.5208  140.2224  155.8943 H   0  0  0  0  0  0  0  0  0  0  0  0  # atno 8009 bound_to 7997
  156.1687  140.3100  155.8941 H   0  0  0  0  0  0  0  0  0  0  0  0  # atno 8010 bound_to 7997
  139.7778  144.6899  151.0065 H   0  0  0  0  0  0  0  0  0  0  0  0  # atno 10167 bound_to 10162
  156.0156  130.4481  150.3286 H   0  0  0  0  0  0  0  0  0  0  0  0  # atno 10718 bound_to 10713
  152.9841  135.5658  154.5312 H   0  0  0  0  0  0  0  0  0  0  0  0  # atno 10763 bound_to 10752
  154.4784  135.2787  155.1592 H   0  0  0  0  0  0  0  0  0  0  0  0  # atno 10764 bound_to 10752
  154.3111  135.6288  153.5519 H   0  0  0  0  0  0  0  0  0  0  0  0  # atno 10765 bound_to 10752
  141.0147  134.0213  157.3366 H   0  0  0  0  0  0  0  0  0  0  0  0  # atno 11005 bound_to 11000
  145.9419  140.8973  143.0303 LP  0  0  0  0  0  0  0  0  0  0  0  0  # atno 17320 bound_to 7965
  144.6731  140.1561  143.7426 LP  0  0  0  0  0  0  0  0  0  0  0  0  # atno 17321 bound_to 7965
  140.7817  143.4517  151.0404 LP  0  0  0  0  0  0  0  0  0  0  0  0  # atno 17342 bound_to 10162
  139.8198  143.7835  152.3176 LP  0  0  0  0  0  0  0  0  0  0  0  0  # atno 17343 bound_to 10162
  157.1385  131.0290  151.2938 LP  0  0  0  0  0  0  0  0  0  0  0  0  # atno 17370 bound_to 10713
  157.4491  130.7588  149.7136 LP  0  0  0  0  0  0  0  0  0  0  0  0  # atno 17371 bound_to 10713
  139.9110  135.0190  156.7690 LP  0  0  0  0  0  0  0  0  0  0  0  0  # atno 17394 bound_to 11000
  140.6675  133.9589  155.7838 LP  0  0  0  0  0  0  0  0  0  0  0  0  # atno 17395 bound_to 11000

$$$$
