AV-unprocessed.smi:1962|AV-procd|sdf|7923|dock9
  -GOLD-   2272010 93D 1   1.00000     0.00000
 Structure written by MMmdl.
 36 37  0  0  0  0  0  0  0  0  1 V2000
  151.2565  140.0483  155.9043 C   0  0  0  0  0  0  0  0  0  0  0  0
  150.7967  141.4076  156.4481 C   0  0  1  0  0  0  0  0  0  0  0  0
  149.2643  141.4544  156.6234 C   0  0  0  0  0  0  0  0  0  0  0  0
  148.5542  141.3532  155.3602 N   0  0  0  0  0  0  0  0  0  0  0  0
  147.4706  142.0874  154.9264 C   0  0  0  0  0  0  0  0  0  0  0  0
  147.1399  141.6282  153.6837 C   0  0  0  0  0  0  0  0  0  0  0  0
  148.0931  140.6005  153.4386 C   0  0  0  0  0  0  0  0  0  0  0  0
  148.9402  140.4401  154.4423 N   0  0  0  0  0  0  0  0  0  0  0  0
  151.4717  141.6638  157.7195 N   0  0  0  0  0  0  0  0  0  0  0  0
  151.5080  142.8419  158.3704 C   0  0  0  0  0  0  0  0  0  0  0  0
  150.9844  143.8675  157.9344 O   0  0  0  0  0  0  0  0  0  0  0  0
  152.2153  142.8390  159.6786 C   0  0  0  0  0  0  0  0  0  0  0  0
  152.8822  141.7927  160.0539 N   0  0  0  0  0  0  0  0  0  0  0  0
  153.5614  141.7482  161.2543 N   0  0  0  0  0  0  0  0  0  0  0  0
  154.4690  140.6125  161.4040 C   0  0  0  0  0  0  0  0  0  0  0  0
  153.4065  142.6431  162.2618 C   0  0  0  0  0  0  0  0  0  0  0  0
  154.0303  142.5947  163.3219 O   0  0  0  0  0  0  0  0  0  0  0  0
  152.3637  143.7429  162.0435 C   0  0  0  0  0  0  0  0  0  0  0  0
  152.1713  144.0780  160.5511 C   0  0  0  0  0  0  0  0  0  0  0  0
  150.7954  139.8364  154.9393 H   0  0  0  0  0  0  0  0  0  0  0  0
  150.9928  139.2377  156.5844 H   0  0  0  0  0  0  0  0  0  0  0  0
  152.3377  140.0270  155.7631 H   0  0  0  0  0  0  0  0  0  0  0  0
  151.0863  142.1617  155.7141 H   0  0  0  0  0  0  0  0  0  0  0  0
  148.9356  140.6279  157.2545 H   0  0  0  0  0  0  0  0  0  0  0  0
  148.9641  142.3717  157.1329 H   0  0  0  0  0  0  0  0  0  0  0  0
  147.0269  142.8620  155.5344 H   0  0  0  0  0  0  0  0  0  0  0  0
  146.3382  141.9724  153.0476 H   0  0  0  0  0  0  0  0  0  0  0  0
  148.1946  139.9709  152.5671 H   0  0  0  0  0  0  0  0  0  0  0  0
  151.9279  140.8757  158.1564 H   0  0  0  0  0  0  0  0  0  0  0  0
  154.1560  139.9787  162.2352 H   0  0  0  0  0  0  0  0  0  0  0  0
  155.4858  140.9558  161.6004 H   0  0  0  0  0  0  0  0  0  0  0  0
  154.4989  139.9905  160.5078 H   0  0  0  0  0  0  0  0  0  0  0  0
  151.4218  143.3885  162.4640 H   0  0  0  0  0  0  0  0  0  0  0  0
  152.6397  144.6385  162.6008 H   0  0  0  0  0  0  0  0  0  0  0  0
  152.9431  144.7755  160.2238 H   0  0  0  0  0  0  0  0  0  0  0  0
  151.2190  144.5972  160.4355 H   0  0  0  0  0  0  0  0  0  0  0  0
  1  2  1  0  0  0  0
  1 20  1  0  0  0  0
  1 21  1  0  0  0  0
  1 22  1  0  0  0  0
  2  3  1  0  0  0  0
  2  9  1  0  0  0  0
  2 23  1  0  0  0  0
  3  4  1  0  0  0  0
  3 24  1  0  0  0  0
  3 25  1  0  0  0  0
  4  8  1  0  0  0  0
  4  5  1  0  0  0  0
  5  6  2  0  0  0  0
  5 26  1  0  0  0  0
  6  7  1  0  0  0  0
  6 27  1  0  0  0  0
  7  8  2  0  0  0  0
  7 28  1  0  0  0  0
  9 10  1  0  0  0  0
  9 29  1  0  0  0  0
 10 11  2  0  0  0  0
 10 12  1  0  0  0  0
 12 19  1  0  0  0  0
 12 13  2  0  0  0  0
 13 14  1  0  0  0  0
 14 15  1  0  0  0  0
 14 16  1  0  0  0  0
 15 30  1  0  0  0  0
 15 31  1  0  0  0  0
 15 32  1  0  0  0  0
 16 17  2  0  0  0  0
 16 18  1  0  0  0  0
 18 19  1  0  0  0  0
 18 33  1  0  0  0  0
 18 34  1  0  0  0  0
 19 35  1  0  0  0  0
 19 36  1  0  0  0  0
M  END
> <s_m_source_file>
AV-unprocessed.smi

> <i_m_source_file_index>
1962

> <i_lp_mmshare_version>
43012

> <i_f3d_flags>
0

> <s_epik_input>
bjFbY0hdW2NIXVtjSF1uMVtDSDJdW0NAQEhdKFtDSDNdKVtOSF1DKD1PKUMyPU5OKFtDSDNdKUMoPU8pW0NIMl1bQ0gyXTI=

> <s_epik_cmdline>
J2VwaWtfcHl0aG9uJywgJy1waCcsICc3LjAnLCAnLXRuJywgJzgnLCAnLW1hJywgJzIwMCcsICctbWV0YWxfYmluZGluZycsICctaW1hZScsICc8aW5maWxlLm1hZT4nLCAnLW9tYWUnLCAnPG91dGZpbGUubWFlPic=

> <r_lp_tautomer_probability>
1

> <r_epik_Ionization_Penalty>
9.43868e-05

> <r_epik_Ionization_Penalty_Charging>
0

> <r_epik_Ionization_Penalty_Neutral>
9.43868e-05

> <r_epik_State_Penalty>
-0

> <r_epik_Charging_Adjusted_Penalty>
0

> <i_epik_Tot_Q>
0

> <i_epik_Tot_abs_Q>
0

> <r_epik_Metal_State_Penalty>
0.0732556

> <b_epik_Metal_Only>
0

> <s_epik_Chemistry_Notes>
This compound has an imine and may undergo hydrolysis.

> <s_lp_Force_Field>
OPLS_2005

> <r_lp_Energy>
16.0721

> <b_lp_Chiralities_Consistent>
1

> <s_lp_Variant>
AV-unprocessed.smi:1962-2

> <Gold.Version>
5.8.1

> <Gold.Id.Protein>
6NUR|6NUR_protein|mol2

> <Gold.PLP.Fitness>
43.6375

> <Gold.PLP.PLP>
-40.4177

> <Gold.PLP.part.hbond>
-0.8888

> <Gold.PLP.part.metal>
0.0000

> <Gold.PLP.part.buried>
-2.6273

> <Gold.PLP.part.nonpolar>
-37.1506

> <Gold.PLP.part.repulsive>
0.3783

> <Gold.PLP.ligand.clash>
0.0000

> <Gold.PLP.ligand.torsion>
0.3615

> <Gold.PLP.Chemscore.Hbond>
0.0000

> <Gold.PLP.Chemscore.CHOScore>
1.3074

> <Gold.PLP.Chemscore.Metal>
0.0000

> <Gold.Chemscore.Hbonds>
donor molecule, donor type, donor heavy atom, donor atom, acceptor molecule, acceptor atom, score
      L1  C     5    26       P1  8028  0.30
      L1  C     7    28       P1  7957  0.86

> <Gold.PLP.Chemscore.Internal.Correction>
0.0208

> <Gold.Rescore>
     Score         DG    S(hbond)    S(metal)    S(lipo)     H(rot)  DE(clash)    DE(int)     intcor
      8.96     -10.93       0.00        0.00      79.96       1.53       0.23       1.75       ----

> <Gold.Chemscore.Fitness>
8.9577

> <Gold.Chemscore.DG>
-10.9306

> <Gold.Chemscore.ZeroCoef>
-5.4800

> <Gold.Chemscore.Hbond>
0.0000

> <Gold.Chemscore.Metal>
0.0000

> <Gold.Chemscore.Lipo>
79.9630

> <Gold.Chemscore.Internal_Hbond>
0.0000

> <Gold.Chemscore.DEClash>
0.2269

> <Gold.Chemscore.DEInternal>
1.7460

> <Gold.Chemscore.Rot>
1.5254

> <Gold.Chemscore.Internal.Correction>
   9.000000E+99

> <Gold.Chemscore.Hbond.Weighted>
-0.0000

> <Gold.Chemscore.Metal.Weighted>
-0.0000

> <Gold.Chemscore.Lipo.Weighted>
-9.3557

> <Gold.Chemscore.Internal_Hbond.Weighted>
0.0000

> <Gold.Chemscore.DEClash.Weighted>
0.2269

> <Gold.Chemscore.DEInternal.Weighted>
1.7460

> <Gold.Chemscore.Rot.Weighted>
3.9051

> <Gold.Chemscore.Internal.Correction.Weighted>
   9.000000E+99

> <Gold.Protein.RotatedTorsions>
[ 6907 6896 6895 6894 ] final    1.81 input  -60.11 | X-H torsion
[ 7974 7965 7964 7962 ] final   32.87 input  175.53 | X-H torsion
[ 8008 7997 7996 7995 ] final -103.44 input   59.86 | X-H torsion
[ 10167 10162 10161 10158 ] final -116.89 input  -65.29 | X-H torsion
[ 10718 10713 10712 10709 ] final  153.63 input   66.30 | X-H torsion
[ 10763 10752 10751 10750 ] final  -93.00 input  -60.55 | X-H torsion
[ 11005 11000 10999 10996 ] final -117.31 input  -57.11 | X-H torsion

> <Gold.Protein.ActiveResidues>
 VAL166  LYS551  ARG553  GLY616  TRP617  ASP618  TYR619  PRO620  LYS621  CYS622 
 ASP623  PHE694  ASN695  SER759  ASP760  ASP761  ALA762  ILE779  LEU786  VAL792 
 PHE793  MET794  SER795  GLU796  ALA797  LYS798  CYS799  TRP800  GLU811  SER814 

> <Gold.Protein.RotatedAtoms>
  151.5986  135.1049  160.0054 H   0  0  0  0  0  0  0  0  0  0  0  0  # atno 6907 bound_to 6896
  152.4269  133.7206  159.6542 H   0  0  0  0  0  0  0  0  0  0  0  0  # atno 6908 bound_to 6896
  150.8159  133.8267  159.3183 H   0  0  0  0  0  0  0  0  0  0  0  0  # atno 6909 bound_to 6896
  146.1458  139.6470  142.9132 H   0  0  0  0  0  0  0  0  0  0  0  0  # atno 7974 bound_to 7965
  154.8710  140.0423  157.1724 H   0  0  0  0  0  0  0  0  0  0  0  0  # atno 8008 bound_to 7997
  154.8739  140.2962  155.5444 H   0  0  0  0  0  0  0  0  0  0  0  0  # atno 8009 bound_to 7997
  156.2999  140.2424  156.3732 H   0  0  0  0  0  0  0  0  0  0  0  0  # atno 8010 bound_to 7997
  140.0743  143.4848  152.1962 H   0  0  0  0  0  0  0  0  0  0  0  0  # atno 10167 bound_to 10162
  157.2423  131.0761  151.1784 H   0  0  0  0  0  0  0  0  0  0  0  0  # atno 10718 bound_to 10713
  154.6917  135.5210  153.8401 H   0  0  0  0  0  0  0  0  0  0  0  0  # atno 10763 bound_to 10752
  153.0637  135.6577  154.0413 H   0  0  0  0  0  0  0  0  0  0  0  0  # atno 10764 bound_to 10752
  154.0286  135.2987  155.3351 H   0  0  0  0  0  0  0  0  0  0  0  0  # atno 10765 bound_to 10752
  141.0363  133.9904  157.3065 H   0  0  0  0  0  0  0  0  0  0  0  0  # atno 11005 bound_to 11000
  145.4941  141.0438  143.2577 LP  0  0  0  0  0  0  0  0  0  0  0  0  # atno 17320 bound_to 7965
  144.7844  139.6457  143.7140 LP  0  0  0  0  0  0  0  0  0  0  0  0  # atno 17321 bound_to 7965
  139.5817  144.7513  151.3622 LP  0  0  0  0  0  0  0  0  0  0  0  0  # atno 17342 bound_to 10162
  140.7110  143.7391  150.7567 LP  0  0  0  0  0  0  0  0  0  0  0  0  # atno 17343 bound_to 10162
  157.3366  130.7012  149.6356 LP  0  0  0  0  0  0  0  0  0  0  0  0  # atno 17370 bound_to 10713
  155.9669  130.4292  150.4822 LP  0  0  0  0  0  0  0  0  0  0  0  0  # atno 17371 bound_to 10713
  139.9243  135.0201  156.8178 LP  0  0  0  0  0  0  0  0  0  0  0  0  # atno 17394 bound_to 11000
  140.6316  133.9900  155.7664 LP  0  0  0  0  0  0  0  0  0  0  0  0  # atno 17395 bound_to 11000

$$$$
