AV-unprocessed.smi:111|AV-procd|sdf|1081|dock6
  -GOLD-   2262018173D 1   1.00000     0.00000
 Structure written by MMmdl.
 46 48  0  0  0  0  0  0  0  0  1 V2000
  149.3973  135.1886  157.0461 O   0  0  0  0  0  0  0  0  0  0  0  0
  148.9435  135.0866  158.1870 C   0  0  0  0  0  0  0  0  0  0  0  0
  148.5715  133.8091  158.7854 C   0  0  0  0  0  0  0  0  0  0  0  0
  148.7505  132.6728  158.0904 F   0  0  0  0  0  0  0  0  0  0  0  0
  148.0434  133.7463  160.0265 C   0  0  0  0  0  0  0  0  0  0  0  0
  147.8230  134.8661  160.8111 N   0  0  0  0  0  0  0  0  0  0  0  0
  147.2172  134.7579  162.1938 C   0  0  2  0  0  0  0  0  0  0  0  0
  146.8768  133.2987  162.5118 C   0  0  0  0  0  0  0  0  0  0  0  0
  145.4452  133.2057  162.0310 C   0  0  0  0  0  0  0  0  0  0  0  0
  144.9131  134.5927  162.3761 C   0  0  0  0  0  0  0  0  0  0  0  0
  146.0201  135.4805  162.2298 O   0  0  0  0  0  0  0  0  0  0  0  0
  148.1785  136.1421  160.3240 C   0  0  0  0  0  0  0  0  0  0  0  0
  148.0145  137.1497  161.0160 O   0  0  0  0  0  0  0  0  0  0  0  0
  148.7237  136.2131  159.0199 N   0  0  0  0  0  0  0  0  0  0  0  0
  149.0211  137.5383  158.4935 C   0  0  0  0  0  0  0  0  0  0  0  0
  150.4128  138.0755  158.8998 C   0  0  1  0  0  0  0  0  0  0  0  0
  151.3852  137.4277  158.1060 O   0  0  0  0  0  0  0  0  0  0  0  0
  150.5753  139.6039  158.7451 C   0  0  0  0  0  0  0  0  0  0  0  0
  152.0080  140.1098  158.9947 C   0  0  0  0  0  0  0  0  0  0  0  0
  152.0802  141.6204  159.1496 C   0  0  0  0  0  0  0  0  0  0  0  0
  152.6759  142.1865  160.2971 C   0  0  0  0  0  0  0  0  0  0  0  0
  152.7720  143.5852  160.4292 C   0  0  0  0  0  0  0  0  0  0  0  0
  152.2679  144.4243  159.4171 C   0  0  0  0  0  0  0  0  0  0  0  0
  151.6680  143.8641  158.2729 C   0  0  0  0  0  0  0  0  0  0  0  0
  151.5744  142.4651  158.1387 C   0  0  0  0  0  0  0  0  0  0  0  0
  147.7906  132.7699  160.4115 H   0  0  0  0  0  0  0  0  0  0  0  0
  147.9409  135.2072  162.8761 H   0  0  0  0  0  0  0  0  0  0  0  0
  147.5568  132.5953  162.0296 H   0  0  0  0  0  0  0  0  0  0  0  0
  146.9281  133.1567  163.5918 H   0  0  0  0  0  0  0  0  0  0  0  0
  145.4197  133.0460  160.9525 H   0  0  0  0  0  0  0  0  0  0  0  0
  144.8835  132.4026  162.5084 H   0  0  0  0  0  0  0  0  0  0  0  0
  144.0769  134.8894  161.7430 H   0  0  0  0  0  0  0  0  0  0  0  0
  144.5802  134.6223  163.4142 H   0  0  0  0  0  0  0  0  0  0  0  0
  148.9316  137.4577  157.4082 H   0  0  0  0  0  0  0  0  0  0  0  0
  148.2274  138.2256  158.7872 H   0  0  0  0  0  0  0  0  0  0  0  0
  150.6078  137.7873  159.9318 H   0  0  0  0  0  0  0  0  0  0  0  0
  152.0879  138.0361  157.9360 H   0  0  0  0  0  0  0  0  0  0  0  0
  150.2407  139.9104  157.7535 H   0  0  0  0  0  0  0  0  0  0  0  0
  149.9220  140.1208  159.4459 H   0  0  0  0  0  0  0  0  0  0  0  0
  152.4267  139.6254  159.8776 H   0  0  0  0  0  0  0  0  0  0  0  0
  152.6467  139.8218  158.1591 H   0  0  0  0  0  0  0  0  0  0  0  0
  153.0683  141.5489  161.0755 H   0  0  0  0  0  0  0  0  0  0  0  0
  153.2337  144.0141  161.3062 H   0  0  0  0  0  0  0  0  0  0  0  0
  152.3415  145.4971  159.5179 H   0  0  0  0  0  0  0  0  0  0  0  0
  151.2825  144.5078  157.4960 H   0  0  0  0  0  0  0  0  0  0  0  0
  151.1214  142.0435  157.2534 H   0  0  0  0  0  0  0  0  0  0  0  0
  1  2  2  0  0  0  0
  2 14  1  0  0  0  0
  2  3  1  0  0  0  0
  3  4  1  0  0  0  0
  3  5  2  0  0  0  0
  5  6  1  0  0  0  0
  5 26  1  0  0  0  0
  6  7  1  0  0  0  0
  6 12  1  0  0  0  0
  7 11  1  0  0  0  0
  7  8  1  0  0  0  0
  7 27  1  0  0  0  0
  8  9  1  0  0  0  0
  8 28  1  0  0  0  0
  8 29  1  0  0  0  0
  9 10  1  0  0  0  0
  9 30  1  0  0  0  0
  9 31  1  0  0  0  0
 10 11  1  0  0  0  0
 10 32  1  0  0  0  0
 10 33  1  0  0  0  0
 12 13  2  0  0  0  0
 12 14  1  0  0  0  0
 14 15  1  0  0  0  0
 15 16  1  0  0  0  0
 15 34  1  0  0  0  0
 15 35  1  0  0  0  0
 16 17  1  0  0  0  0
 16 18  1  0  0  0  0
 16 36  1  0  0  0  0
 17 37  1  0  0  0  0
 18 19  1  0  0  0  0
 18 38  1  0  0  0  0
 18 39  1  0  0  0  0
 19 20  1  0  0  0  0
 19 40  1  0  0  0  0
 19 41  1  0  0  0  0
 20 25  1  0  0  0  0
 20 21  2  0  0  0  0
 21 22  1  0  0  0  0
 21 42  1  0  0  0  0
 22 23  2  0  0  0  0
 22 43  1  0  0  0  0
 23 24  1  0  0  0  0
 23 44  1  0  0  0  0
 24 25  2  0  0  0  0
 24 45  1  0  0  0  0
 25 46  1  0  0  0  0
M  END
> <s_m_source_file>
AV-unprocessed.smi

> <i_m_source_file_index>
111

> <i_lp_mmshare_version>
43012

> <i_f3d_flags>
0

> <s_epik_input>
TzFbQ0gyXVtDSDJdW0NIMl1bQ0BIXTFuKFtjSF1jKEYpYzI9TyljKD1PKW4yW0NIMl1bQ0BIXShbT0hdKVtDSDJdW0NIMl1jM1tjSF1bY0hdW2NIXVtjSF1bY0hdMw==

> <s_epik_cmdline>
J2VwaWtfcHl0aG9uJywgJy1waCcsICc3LjAnLCAnLXRuJywgJzgnLCAnLW1hJywgJzIwMCcsICctbWV0YWxfYmluZGluZycsICctaW1hZScsICc8aW5maWxlLm1hZT4nLCAnLW9tYWUnLCAnPG91dGZpbGUubWFlPic=

> <r_lp_tautomer_probability>
1

> <r_epik_Ionization_Penalty>
1.88248e-07

> <r_epik_Ionization_Penalty_Charging>
4.03974e-08

> <r_epik_Ionization_Penalty_Neutral>
1.47851e-07

> <r_epik_State_Penalty>
-0

> <r_epik_Charging_Adjusted_Penalty>
4.03974e-08

> <i_epik_Tot_Q>
0

> <i_epik_Tot_abs_Q>
0

> <r_epik_Metal_State_Penalty>
-0

> <b_epik_Metal_Only>
0

> <s_epik_Chemistry_Notes>
This compound contains an acetal/aminal-like group ( X-CH(R)-Y where X, Y are N, S, or O) that may be acid/base labile, releasing an aldehyde.

> <s_lp_Force_Field>
OPLS_2005

> <r_lp_Energy>
35.2037

> <b_lp_Chiralities_Consistent>
1

> <s_lp_Variant>
AV-unprocessed.smi:111-3

> <Gold.Version>
5.8.1

> <Gold.Id.Protein>
6NUR|6NUR_protein|mol2

> <Gold.PLP.Fitness>
51.5724

> <Gold.PLP.PLP>
-47.7002

> <Gold.PLP.part.hbond>
-2.0000

> <Gold.PLP.part.metal>
0.0000

> <Gold.PLP.part.buried>
-5.5745

> <Gold.PLP.part.nonpolar>
-40.4481

> <Gold.PLP.part.repulsive>
0.0000

> <Gold.PLP.ligand.clash>
0.0000

> <Gold.PLP.ligand.torsion>
0.5820

> <Gold.PLP.Chemscore.Hbond>
1.6480

> <Gold.PLP.Chemscore.CHOScore>
0.0000

> <Gold.PLP.Chemscore.Metal>
0.0000

> <Gold.Chemscore.Hbonds>
donor molecule, donor type, donor heavy atom, donor atom, acceptor molecule, acceptor atom, score
      P1  H  6931  6943       L1    13  0.98
      P1  H  6934  6947       L1    13  0.71

> <Gold.PLP.Chemscore.Internal.Correction>
0.0923

> <Gold.Rescore>
     Score         DG    S(hbond)    S(metal)    S(lipo)     H(rot)  DE(clash)    DE(int)     intcor
     15.03     -17.02       1.56        0.00     112.67       2.67       0.08       1.90       ----

> <Gold.Chemscore.Fitness>
15.0289

> <Gold.Chemscore.DG>
-17.0168

> <Gold.Chemscore.ZeroCoef>
-5.4800

> <Gold.Chemscore.Hbond>
1.5569

> <Gold.Chemscore.Metal>
0.0000

> <Gold.Chemscore.Lipo>
112.6749

> <Gold.Chemscore.Internal_Hbond>
0.0000

> <Gold.Chemscore.DEClash>
0.0843

> <Gold.Chemscore.DEInternal>
1.9037

> <Gold.Chemscore.Rot>
2.6743

> <Gold.Chemscore.Internal.Correction>
   9.000000E+99

> <Gold.Chemscore.Hbonds>
donor molecule, donor type, donor heavy atom, donor atom, acceptor molecule, acceptor atom, score
      P1  H  6931  6943       L1    13  0.93
      P1  H  6934  6947       L1    13  0.67

> <Gold.Chemscore.Hbond.Weighted>
-5.2001

> <Gold.Chemscore.Metal.Weighted>
-0.0000

> <Gold.Chemscore.Lipo.Weighted>
-13.1830

> <Gold.Chemscore.Internal_Hbond.Weighted>
0.0000

> <Gold.Chemscore.DEClash.Weighted>
0.0843

> <Gold.Chemscore.DEInternal.Weighted>
1.9037

> <Gold.Chemscore.Rot.Weighted>
6.8463

> <Gold.Chemscore.Internal.Correction.Weighted>
   9.000000E+99

> <Gold.Protein.RotatedTorsions>
[ 6907 6896 6895 6894 ] final  103.72 input  -60.11 | X-H torsion
[ 7974 7965 7964 7962 ] final  -12.80 input  175.53 | X-H torsion
[ 8008 7997 7996 7995 ] final  -87.75 input   59.86 | X-H torsion
[ 10167 10162 10161 10158 ] final  101.47 input  -65.29 | X-H torsion
[ 10718 10713 10712 10709 ] final  111.32 input   66.30 | X-H torsion
[ 10763 10752 10751 10750 ] final  116.54 input  -60.55 | X-H torsion
[ 11005 11000 10999 10996 ] final  110.87 input  -57.11 | X-H torsion

> <Gold.Protein.ActiveResidues>
 VAL166  LYS551  ARG553  GLY616  TRP617  ASP618  TYR619  PRO620  LYS621  CYS622 
 ASP623  PHE694  ASN695  SER759  ASP760  ASP761  ALA762  ILE779  LEU786  VAL792 
 PHE793  MET794  SER795  GLU796  ALA797  LYS798  CYS799  TRP800  GLU811  SER814 

> <Gold.Protein.RotatedAtoms>
  152.5286  133.9783  159.7794 H   0  0  0  0  0  0  0  0  0  0  0  0  # atno 6907 bound_to 6896
  151.0041  133.6019  159.2698 H   0  0  0  0  0  0  0  0  0  0  0  0  # atno 6908 bound_to 6896
  151.3117  135.0802  159.9328 H   0  0  0  0  0  0  0  0  0  0  0  0  # atno 6909 bound_to 6896
  146.2138  140.3110  142.8382 H   0  0  0  0  0  0  0  0  0  0  0  0  # atno 7974 bound_to 7965
  154.6668  140.0562  157.0122 H   0  0  0  0  0  0  0  0  0  0  0  0  # atno 8008 bound_to 7997
  155.1147  140.3241  155.4494 H   0  0  0  0  0  0  0  0  0  0  0  0  # atno 8009 bound_to 7997
  156.2641  140.2008  156.6271 H   0  0  0  0  0  0  0  0  0  0  0  0  # atno 8010 bound_to 7997
  139.7435  144.7004  151.0539 H   0  0  0  0  0  0  0  0  0  0  0  0  # atno 10167 bound_to 10162
  157.6450  131.0948  150.6732 H   0  0  0  0  0  0  0  0  0  0  0  0  # atno 10718 bound_to 10713
  153.5387  135.3563  155.2708 H   0  0  0  0  0  0  0  0  0  0  0  0  # atno 10763 bound_to 10752
  154.8719  135.4086  154.3068 H   0  0  0  0  0  0  0  0  0  0  0  0  # atno 10764 bound_to 10752
  153.3771  135.7066  153.6661 H   0  0  0  0  0  0  0  0  0  0  0  0  # atno 10765 bound_to 10752
  139.8891  134.9494  156.6345 H   0  0  0  0  0  0  0  0  0  0  0  0  # atno 11005 bound_to 11000
  144.8988  140.7616  143.5880 LP  0  0  0  0  0  0  0  0  0  0  0  0  # atno 17320 bound_to 7965
  145.3035  139.1842  143.4676 LP  0  0  0  0  0  0  0  0  0  0  0  0  # atno 17321 bound_to 7965
  140.7789  143.4895  150.9911 LP  0  0  0  0  0  0  0  0  0  0  0  0  # atno 17342 bound_to 10162
  139.8584  143.7347  152.3175 LP  0  0  0  0  0  0  0  0  0  0  0  0  # atno 17343 bound_to 10162
  156.7050  130.4634  149.5562 LP  0  0  0  0  0  0  0  0  0  0  0  0  # atno 17370 bound_to 10713
  156.1769  130.6473  151.0905 LP  0  0  0  0  0  0  0  0  0  0  0  0  # atno 17371 bound_to 10713
  140.7641  133.8793  155.8441 LP  0  0  0  0  0  0  0  0  0  0  0  0  # atno 17394 bound_to 11000
  140.9897  134.1295  157.4419 LP  0  0  0  0  0  0  0  0  0  0  0  0  # atno 17395 bound_to 11000

$$$$
