#       Name:                AV-unprocessed.smi:1840
#       Creating user name   scv26
#       Creation time:       Fri Mar 27 09:19:40 2020


#       File generated by GOLD software.
#

@<TRIPOS>MOLECULE
AV-unprocessed.smi:1840
    46    47     1
SMALL
NO_CHARGES


@<TRIPOS>ATOM
      1 ****        -3.9168  -1.7920  -1.5462 C.3            1 S1                 0.0000
      2 ****        -3.1685  -1.0838  -0.4089 C.3            1 S1                 0.0000
      3 ****        -3.3571  -1.8211   0.9345 C.3            1 S1                 0.0000
      4 ****        -2.7631  -1.1085   2.0529 N.pl3          1 S1                 0.0000
      5 ****        -3.2376   0.0104   2.7044 C.2            1 S1                 0.0000
      6 ****        -2.3296   0.3328   3.6718 C.2            1 S1                 0.0000
      7 ****        -1.3215  -0.6621   3.5345 C.2            1 S1                 0.0000
      8 ****        -1.5861  -1.5266   2.5685 N.2            1 S1                 0.0000
      9 ****        -1.7506  -0.9892  -0.7557 N.am           1 S1                 0.0000
     10 ****        -0.9667   0.0768  -0.5359 C.2            1 S1                 0.0000
     11 ****        -1.3643   1.1421  -0.0632 O.2            1 S1                 0.0000
     12 ****         0.3092  -0.1685  -0.8635 N.am           1 S1                 0.0000
     13 ****         1.4180   0.7650  -0.6775 C.3            1 S1                 0.0000
     14 ****         1.9211   0.6911   0.7806 C.3            1 S1                 0.0000
     15 ****         3.1256   1.6144   1.0116 C.3            1 S1                 0.0000
     16 ****         4.2585   1.2962   0.0268 C.3            1 S1                 0.0000
     17 ****         3.7668   1.3842  -1.4258 C.3            1 S1                 0.0000
     18 ****         2.5579   0.4608  -1.6815 C.3            1 S1                 0.0000
     19 ****         2.0967   0.5684  -3.1463 C.3            1 S1                 0.0000
     20 ****        -4.9847  -1.8515  -1.3343 H              1 S1                 0.0000
     21 ****        -3.5499  -2.8087  -1.6922 H              1 S1                 0.0000
     22 ****        -3.7983  -1.2559  -2.4885 H              1 S1                 0.0000
     23 ****        -3.5949  -0.0830  -0.3186 H              1 S1                 0.0000
     24 ****        -4.4201  -1.9434   1.1464 H              1 S1                 0.0000
     25 ****        -2.9337  -2.8259   0.8834 H              1 S1                 0.0000
     26 ****        -4.1668   0.4831   2.4222 H              1 S1                 0.0000
     27 ****        -2.3762   1.1561   4.3690 H              1 S1                 0.0000
     28 ****        -0.4119  -0.7813   4.1045 H              1 S1                 0.0000
     29 ****        -1.3241  -1.8170  -1.1456 H              1 S1                 0.0000
     30 ****         0.5381  -1.0765  -1.2403 H              1 S1                 0.0000
     31 ****         1.0617   1.7792  -0.8701 H              1 S1                 0.0000
     32 ****         1.1209   0.9617   1.4707 H              1 S1                 0.0000
     33 ****         2.2005  -0.3352   1.0232 H              1 S1                 0.0000
     34 ****         2.8179   2.6541   0.8934 H              1 S1                 0.0000
     35 ****         3.4826   1.5112   2.0367 H              1 S1                 0.0000
     36 ****         5.0891   1.9856   0.1804 H              1 S1                 0.0000
     37 ****         4.6458   0.2957   0.2235 H              1 S1                 0.0000
     38 ****         3.4963   2.4161  -1.6543 H              1 S1                 0.0000
     39 ****         4.5837   1.1247  -2.1000 H              1 S1                 0.0000
     40 ****         2.8887  -0.5662  -1.5174 H              1 S1                 0.0000
     41 ****         1.7135   1.5651  -3.3669 H              1 S1                 0.0000
     42 ****         1.3086  -0.1490  -3.3752 H              1 S1                 0.0000
     43 ****         2.9211   0.3711  -3.8319 H              1 S1                 0.0000
     44 ****        -1.0380  -2.3131   2.2838 LP             1 S1                 0.0000
     45 ****        -2.3274   1.2514   0.1829 LP             1 S1                 0.0000
     46 ****        -0.7241   1.8979   0.0746 LP             1 S1                 0.0000
@<TRIPOS>BOND
    1    1    2 1     
    2    1   20 1     
    3    1   21 1     
    4    1   22 1     
    5    2    3 1     
    6    2    9 1     
    7    2   23 1     
    8    3    4 1     
    9    3   24 1     
   10    3   25 1     
   11    4    8 1     
   12    4    5 1     
   13    5    6 2     
   14    5   26 1     
   15    6    7 1     
   16    6   27 1     
   17    7    8 2     
   18    7   28 1     
   19    9   10 am    
   20    9   29 1     
   21   10   11 2     
   22   10   12 am    
   23   12   13 1     
   24   12   30 1     
   25   13   18 1     
   26   13   14 1     
   27   13   31 1     
   28   14   15 1     
   29   14   32 1     
   30   14   33 1     
   31   15   16 1     
   32   15   34 1     
   33   15   35 1     
   34   16   17 1     
   35   16   36 1     
   36   16   37 1     
   37   17   18 1     
   38   17   38 1     
   39   17   39 1     
   40   18   19 1     
   41   18   40 1     
   42   19   41 1     
   43   19   42 1     
   44   19   43 1     
   45    8   44 1     
   46   11   45 1     
   47   11   46 1     
@<TRIPOS>SUBSTRUCTURE
      1 S1             1
@<TRIPOS>SET
LONE_PAIRS      STATIC     ATOMS    <user>   **** ""
3 44 45 46
DONOR_HYDROGENS      STATIC     ATOMS    <user>   **** ""
2 29 30
ATOM$BLUE        STATIC     ATOMS    COLORGROUP SYSTEM
3 44 45 46
ATOM$RED        STATIC     ATOMS    COLORGROUP SYSTEM
2 29 30
