#       Name:                AV-unprocessed.smi:1171
#       Creating user name   scv26
#       Creation time:       Fri Mar 27 03:52:48 2020


#       File generated by GOLD software.
#

@<TRIPOS>MOLECULE
AV-unprocessed.smi:1171
    36    37     1
SMALL
NO_CHARGES


@<TRIPOS>ATOM
      1 ****        -3.5218   3.4365   0.0429 C.3            1 S1                 0.0000
      2 ****        -2.3700   2.4779   0.1101 C.2            1 S1                 0.0000
      3 ****        -2.4144   1.0602   0.2516 C.2            1 S1                 0.0000
      4 ****        -1.0903   0.7169   0.2532 C.2            1 S1                 0.0000
      5 ****        -0.5274  -0.5171   0.3411 N.am           1 S1                 0.0000
      6 ****        -1.1242  -1.7079   0.5463 C.2            1 S1                 0.0000
      7 ****        -2.3237  -1.8605   0.7688 O.2            1 S1                 0.0000
      8 ****        -0.2820  -2.7573   0.5369 N.am           1 S1                 0.0000
      9 ****        -0.5948  -4.1435   0.7227 C.3            1 S1                 0.0000
     10 ****         0.5258  -5.0470   1.1905 C.3            1 S1                 0.0000
     11 ****         0.0293  -5.1445  -0.2257 C.3            1 S1                 0.0000
     12 ****        -0.3333   1.8599   0.1210 N.pl3          1 S1                 0.0000
     13 ****         1.1079   2.0127   0.0538 C.3            1 S1                 0.0000
     14 ****         1.6190   1.8298  -1.3788 C.3            1 S1                 0.0000
     15 ****         3.0811   1.9471  -1.4744 C.1            1 S1                 0.0000
     16 ****         4.2319   2.0387  -1.5490 N.1            1 S1                 0.0000
     17 ****        -1.1297   2.9466   0.0296 N.2            1 S1                 0.0000
     18 ****        -4.4756   2.9089   0.0637 H              1 S1                 0.0000
     19 ****        -3.4893   4.0263  -0.8735 H              1 S1                 0.0000
     20 ****        -3.5064   4.1272   0.8864 H              1 S1                 0.0000
     21 ****        -3.2820   0.4224   0.3305 H              1 S1                 0.0000
     22 ****         0.4752  -0.5419   0.2281 H              1 S1                 0.0000
     23 ****         0.7009  -2.5399   0.4558 H              1 S1                 0.0000
     24 ****        -1.5782  -4.3958   1.1171 H              1 S1                 0.0000
     25 ****         1.5076  -4.6042   1.3485 H              1 S1                 0.0000
     26 ****         0.2666  -5.8573   1.8692 H              1 S1                 0.0000
     27 ****        -0.5620  -6.0184  -0.4920 H              1 S1                 0.0000
     28 ****         0.6782  -4.7647  -1.0128 H              1 S1                 0.0000
     29 ****         1.3799   2.9998   0.4307 H              1 S1                 0.0000
     30 ****         1.5695   1.2832   0.7203 H              1 S1                 0.0000
     31 ****         1.3379   0.8489  -1.7631 H              1 S1                 0.0000
     32 ****         1.1776   2.5763  -2.0395 H              1 S1                 0.0000
     33 ****        -2.9301  -1.0663   0.8075 LP             1 S1                 0.0000
     34 ****        -2.6930  -2.7789   0.9112 LP             1 S1                 0.0000
     35 ****         5.2267   2.1179  -1.6134 LP             1 S1                 0.0000
     36 ****        -0.8465   3.8998  -0.0760 LP             1 S1                 0.0000
@<TRIPOS>BOND
    1    1    2 1     
    2    1   18 1     
    3    1   19 1     
    4    1   20 1     
    5    2   17 2     
    6    2    3 1     
    7    3    4 2     
    8    3   21 1     
    9    4    5 1     
   10    4   12 1     
   11    5    6 am    
   12    5   22 1     
   13    6    7 2     
   14    6    8 am    
   15    8    9 1     
   16    8   23 1     
   17    9   11 1     
   18    9   10 1     
   19    9   24 1     
   20   10   11 1     
   21   10   25 1     
   22   10   26 1     
   23   11   27 1     
   24   11   28 1     
   25   12   13 1     
   26   12   17 1     
   27   13   14 1     
   28   13   29 1     
   29   13   30 1     
   30   14   15 1     
   31   14   31 1     
   32   14   32 1     
   33   15   16 3     
   34    7   33 1     
   35    7   34 1     
   36   16   35 1     
   37   17   36 1     
@<TRIPOS>SUBSTRUCTURE
      1 S1             1
@<TRIPOS>SET
LONE_PAIRS      STATIC     ATOMS    <user>   **** ""
4 33 34 35 36
DONOR_HYDROGENS      STATIC     ATOMS    <user>   **** ""
2 22 23
ATOM$BLUE        STATIC     ATOMS    COLORGROUP SYSTEM
4 33 34 35 36
ATOM$RED        STATIC     ATOMS    COLORGROUP SYSTEM
2 22 23
