#       Name:                AV-unprocessed.smi:438
#       Creating user name   scv26
#       Creation time:       Thu Mar 26 22:55:19 2020


#       File generated by GOLD software.
#

@<TRIPOS>MOLECULE
AV-unprocessed.smi:438
    55    56     1
SMALL
NO_CHARGES


@<TRIPOS>ATOM
      1 ****        -4.4598   1.1045   1.4844 C.3            1 S1                 0.0000
      2 ****        -3.7044  -0.2121   1.4487 C.2            1 S1                 0.0000
      3 ****        -2.3032  -0.1139   1.4649 N.2            1 S1                 0.0000
      4 ****        -1.5957  -1.1783   1.4320 C.2            1 S1                 0.0000
      5 ****         0.2013  -1.0543   1.4456 S.3            1 S1                 0.0000
      6 ****         0.5115   0.7368   1.5056 C.3            1 S1                 0.0000
      7 ****         1.9925   1.0817   1.3775 C.2            1 S1                 0.0000
      8 ****         2.5699   1.6818   2.2838 O.2            1 S1                 0.0000
      9 ****         2.5899   0.7094   0.2352 N.am           1 S1                 0.0000
     10 ****         3.9934   0.9304  -0.1116 C.3            1 S1                 0.0000
     11 ****         4.1937   2.3366  -0.7170 C.3            1 S1                 0.0000
     12 ****         3.5638   2.4617  -2.1150 C.3            1 S1                 0.0000
     13 ****         4.0880   1.3712  -3.0612 C.3            1 S1                 0.0000
     14 ****         3.8697  -0.0322  -2.4737 C.3            1 S1                 0.0000
     15 ****         4.5066  -0.1688  -1.0749 C.3            1 S1                 0.0000
     16 ****         4.3268  -1.5885  -0.5093 C.3            1 S1                 0.0000
     17 ****        -2.1225  -2.4481   1.3823 N.pl3          1 S1                -1.0000
     18 ****        -3.4743  -2.6277   1.3623 C.2            1 S1                 0.0000
     19 ****        -3.9857  -3.7457   1.3131 O.2            1 S1                 0.0000
     20 ****        -4.3252  -1.4250   1.3964 C.2            1 S1                 0.0000
     21 ****        -5.8426  -1.5947   1.3903 C.3            1 S1                 0.0000
     22 ****        -6.3990  -1.7765  -0.0293 C.3            1 S1                 0.0000
     23 ****        -7.8042  -1.8988   0.0183 O.3            1 S1                 0.0000
     24 ****        -5.1811   1.1564   0.6685 H              1 S1                 0.0000
     25 ****        -3.7807   1.9522   1.3845 H              1 S1                 0.0000
     26 ****        -4.9928   1.2108   2.4292 H              1 S1                 0.0000
     27 ****         0.1177   1.1373   2.4406 H              1 S1                 0.0000
     28 ****        -0.0265   1.2249   0.6922 H              1 S1                 0.0000
     29 ****         2.0282   0.2217  -0.4478 H              1 S1                 0.0000
     30 ****         4.5837   0.8686   0.8046 H              1 S1                 0.0000
     31 ****         3.7842   3.0995  -0.0539 H              1 S1                 0.0000
     32 ****         5.2620   2.5443  -0.7892 H              1 S1                 0.0000
     33 ****         2.4780   2.3896  -2.0385 H              1 S1                 0.0000
     34 ****         3.7773   3.4468  -2.5307 H              1 S1                 0.0000
     35 ****         3.5920   1.4498  -4.0290 H              1 S1                 0.0000
     36 ****         5.1515   1.5281  -3.2456 H              1 S1                 0.0000
     37 ****         2.8007  -0.2419  -2.4191 H              1 S1                 0.0000
     38 ****         4.2926  -0.7770  -3.1488 H              1 S1                 0.0000
     39 ****         5.5799  -0.0131  -1.1943 H              1 S1                 0.0000
     40 ****         3.2741  -1.8544  -0.4086 H              1 S1                 0.0000
     41 ****         4.7888  -1.6799   0.4741 H              1 S1                 0.0000
     42 ****         4.7909  -2.3297  -1.1605 H              1 S1                 0.0000
     43 ****        -6.3155  -0.7325   1.8595 H              1 S1                 0.0000
     44 ****        -6.1180  -2.4452   2.0158 H              1 S1                 0.0000
     45 ****        -6.1381  -0.9238  -0.6570 H              1 S1                 0.0000
     46 ****        -5.9817  -2.6675  -0.4991 H              1 S1                 0.0000
     47 ****        -8.1596  -1.1137   0.4056 H              1 S1                 0.0000
     48 ****        -1.8619   0.7827   1.5019 LP             1 S1                 0.0000
     49 ****         2.0685   1.9452   3.1079 LP             1 S1                 0.0000
     50 ****         3.5405   1.9060   2.1960 LP             1 S1                 0.0000
     51 ****        -1.5132  -3.2408   1.3608 LP             1 S1                 0.0000
     52 ****        -3.4058  -4.5600   1.2863 LP             1 S1                 0.0000
     53 ****        -4.9811  -3.8401   1.2999 LP             1 S1                 0.0000
     54 ****        -8.0554  -2.6923   0.5727 LP             1 S1                 0.0000
     55 ****        -8.1647  -2.0115  -0.9076 LP             1 S1                 0.0000
@<TRIPOS>BOND
    1    1   24 1     
    2    1   25 1     
    3    1   26 1     
    4    1    2 1     
    5    2   20 2     
    6    2    3 1     
    7    3    4 2     
    8    4    5 1     
    9    4   17 1     
   10    5    6 1     
   11    6    7 1     
   12    6   27 1     
   13    6   28 1     
   14    7    8 2     
   15    7    9 am    
   16    9   10 1     
   17    9   29 1     
   18   10   15 1     
   19   10   11 1     
   20   10   30 1     
   21   11   12 1     
   22   11   31 1     
   23   11   32 1     
   24   12   13 1     
   25   12   33 1     
   26   12   34 1     
   27   13   14 1     
   28   13   35 1     
   29   13   36 1     
   30   14   15 1     
   31   14   37 1     
   32   14   38 1     
   33   15   16 1     
   34   15   39 1     
   35   16   40 1     
   36   16   41 1     
   37   16   42 1     
   38   17   18 1     
   39   18   19 2     
   40   18   20 1     
   41   20   21 1     
   42   21   22 1     
   43   21   43 1     
   44   21   44 1     
   45   22   23 1     
   46   22   45 1     
   47   22   46 1     
   48   23   47 1     
   49    3   48 1     
   50    8   49 1     
   51    8   50 1     
   52   17   51 1     
   53   19   52 1     
   54   19   53 1     
   55   23   54 1     
   56   23   55 1     
@<TRIPOS>SUBSTRUCTURE
      1 S1             1
@<TRIPOS>SET
LONE_PAIRS      STATIC     ATOMS    <user>   **** ""
8 48 49 50 51 52 53 54 55
DONOR_HYDROGENS      STATIC     ATOMS    <user>   **** ""
2 29 47
ATOM$BLUE        STATIC     ATOMS    COLORGROUP SYSTEM
8 48 49 50 51 52 53 54 55
ATOM$RED        STATIC     ATOMS    COLORGROUP SYSTEM
2 29 47
