AV-unprocessed.smi:1786|AV-procd|sdf|7205|dock8
  -GOLD-   22720 8443D 1   1.00000     0.00000
 Structure written by MMmdl.
 44 45  0  0  0  0  0  0  0  0  2 V2000
  145.7512  137.0680  152.5904 C   0  0  0  0  0  0  0  0  0  0  0  0
  145.6095  135.5349  152.5167 C   0  0  1  0  0  0  0  0  0  0  0  0
  145.3445  135.1232  151.0518 C   0  0  0  0  0  0  0  0  0  0  0  0
  145.2063  133.6057  150.8971 C   0  0  0  0  0  0  0  0  0  0  0  0
  146.4530  132.9206  151.4601 C   0  0  0  0  0  0  0  0  0  0  0  0
  146.6810  133.3367  152.9201 C   0  0  0  0  0  0  0  0  0  0  0  0
  146.8022  134.8134  153.0663 N   0  3  2  0  0  0  0  0  0  0  0  0
  147.1511  135.1886  154.4641 C   0  0  0  0  0  0  0  0  0  0  0  0
  148.5659  134.7129  154.8474 C   0  0  0  0  0  0  0  0  0  0  0  0
  149.5855  135.6424  154.3763 N   0  0  0  0  0  0  0  0  0  0  0  0
  150.3861  136.3660  155.1738 C   0  0  0  0  0  0  0  0  0  0  0  0
  150.3091  136.3438  156.4028 O   0  0  0  0  0  0  0  0  0  0  0  0
  151.4218  137.2565  154.4748 C   0  0  0  0  0  0  0  0  0  0  0  0
  151.0229  138.6734  154.4528 N   0  0  0  0  0  0  0  0  0  0  0  0
  149.8693  139.0080  153.7158 C   0  0  0  0  0  0  0  0  0  0  0  0
  149.4177  140.2698  153.6389 C   0  0  0  0  0  0  0  0  0  0  0  0
  150.1496  141.3011  154.3356 C   0  0  0  0  0  0  0  0  0  0  0  0
  151.2525  140.9914  155.0459 C   0  0  0  0  0  0  0  0  0  0  0  0
  151.7459  139.6128  155.1383 C   0  0  0  0  0  0  0  0  0  0  0  0
  152.7464  139.3190  155.7941 O   0  0  0  0  0  0  0  0  0  0  0  0
  144.8908  137.5591  152.1347 H   0  0  0  0  0  0  0  0  0  0  0  0
  146.6400  137.4110  152.0597 H   0  0  0  0  0  0  0  0  0  0  0  0
  145.8075  137.4316  153.6161 H   0  0  0  0  0  0  0  0  0  0  0  0
  144.7423  135.2467  153.1134 H   0  0  0  0  0  0  0  0  0  0  0  0
  144.4373  135.6064  150.6866 H   0  0  0  0  0  0  0  0  0  0  0  0
  146.1572  135.4776  150.4161 H   0  0  0  0  0  0  0  0  0  0  0  0
  144.3179  133.2568  151.4251 H   0  0  0  0  0  0  0  0  0  0  0  0
  145.0715  133.3435  149.8473 H   0  0  0  0  0  0  0  0  0  0  0  0
  146.3451  131.8375  151.3933 H   0  0  0  0  0  0  0  0  0  0  0  0
  147.3251  133.1837  150.8597 H   0  0  0  0  0  0  0  0  0  0  0  0
  145.8612  132.9760  153.5439 H   0  0  0  0  0  0  0  0  0  0  0  0
  147.5913  132.8573  153.2833 H   0  0  0  0  0  0  0  0  0  0  0  0
  147.0367  136.2641  154.6060 H   0  0  0  0  0  0  0  0  0  0  0  0
  146.4488  134.7367  155.1665 H   0  0  0  0  0  0  0  0  0  0  0  0
  148.6495  134.6401  155.9322 H   0  0  0  0  0  0  0  0  0  0  0  0
  148.7760  133.7173  154.4567 H   0  0  0  0  0  0  0  0  0  0  0  0
  149.7048  135.7275  153.3769 H   0  0  0  0  0  0  0  0  0  0  0  0
  152.3944  137.1509  154.9599 H   0  0  0  0  0  0  0  0  0  0  0  0
  151.5648  136.8786  153.4615 H   0  0  0  0  0  0  0  0  0  0  0  0
  149.3757  138.1790  153.2295 H   0  0  0  0  0  0  0  0  0  0  0  0
  148.5284  140.5067  153.0735 H   0  0  0  0  0  0  0  0  0  0  0  0
  149.8115  142.3259  154.2873 H   0  0  0  0  0  0  0  0  0  0  0  0
  151.7875  141.7763  155.5603 H   0  0  0  0  0  0  0  0  0  0  0  0
  147.5911  135.0828  152.4963 H   0  0  0  0  0  0  0  0  0  0  0  0
  1  2  1  0  0  0  0
  1 21  1  0  0  0  0
  1 22  1  0  0  0  0
  1 23  1  0  0  0  0
  2  7  1  0  0  0  0
  2  3  1  0  0  0  0
  2 24  1  0  0  0  0
  3  4  1  0  0  0  0
  3 25  1  0  0  0  0
  3 26  1  0  0  0  0
  4  5  1  0  0  0  0
  4 27  1  0  0  0  0
  4 28  1  0  0  0  0
  5  6  1  0  0  0  0
  5 29  1  0  0  0  0
  5 30  1  0  0  0  0
  6  7  1  0  0  0  0
  6 31  1  0  0  0  0
  6 32  1  0  0  0  0
  7  8  1  0  0  0  0
  7 44  1  0  0  0  0
  8  9  1  0  0  0  0
  8 33  1  0  0  0  0
  8 34  1  0  0  0  0
  9 10  1  0  0  0  0
  9 35  1  0  0  0  0
  9 36  1  0  0  0  0
 10 11  1  0  0  0  0
 10 37  1  0  0  0  0
 11 12  2  0  0  0  0
 11 13  1  0  0  0  0
 13 14  1  0  0  0  0
 13 38  1  0  0  0  0
 13 39  1  0  0  0  0
 14 19  1  0  0  0  0
 14 15  1  0  0  0  0
 15 16  2  0  0  0  0
 15 40  1  0  0  0  0
 16 17  1  0  0  0  0
 16 41  1  0  0  0  0
 17 18  2  0  0  0  0
 17 42  1  0  0  0  0
 18 19  1  0  0  0  0
 18 43  1  0  0  0  0
 19 20  2  0  0  0  0
M  CHG  1   7   1
M  END
> <s_m_source_file>
AV-unprocessed.smi

> <i_m_source_file_index>
1786

> <i_lp_mmshare_version>
43012

> <i_f3d_flags>
0

> <s_epik_input>
W0NIM11bQ0BASF0xW0NIMl1bQ0gyXVtDSDJdW0NIMl1OMVtDSDJdW0NIMl1bTkhdQyg9TylbQ0gyXW4yW2NIXVtjSF1bY0hdW2NIXWMyPU8=

> <s_epik_cmdline>
J2VwaWtfcHl0aG9uJywgJy1waCcsICc3LjAnLCAnLXRuJywgJzgnLCAnLW1hJywgJzIwMCcsICctbWV0YWxfYmluZGluZycsICctaW1hZScsICc8aW5maWxlLm1hZT4nLCAnLW9tYWUnLCAnPG91dGZpbGUubWFlPic=

> <r_lp_tautomer_probability>
1

> <r_epik_Ionization_Penalty>
0.00237247

> <r_epik_Ionization_Penalty_Charging>
0.00237238

> <r_epik_Ionization_Penalty_Neutral>
8.2065e-08

> <r_epik_State_Penalty>
0.00163922

> <r_epik_Charging_Adjusted_Penalty>
0.0040116

> <i_epik_Tot_Q>
1

> <i_epik_Tot_abs_Q>
1

> <r_epik_Metal_State_Penalty>
-0

> <b_epik_Metal_Only>
0

> <s_lp_Force_Field>
OPLS_2005

> <r_lp_Energy>
27.3139

> <b_lp_Chiralities_Consistent>
1

> <s_lp_Variant>
AV-unprocessed.smi:1786-4

> <Gold.Version>
5.8.1

> <Gold.Id.Protein>
6NUR|6NUR_protein|mol2

> <Gold.PLP.Fitness>
48.8163

> <Gold.PLP.PLP>
-37.6918

> <Gold.PLP.part.hbond>
-3.4980

> <Gold.PLP.part.metal>
0.0000

> <Gold.PLP.part.buried>
-1.6353

> <Gold.PLP.part.nonpolar>
-32.6365

> <Gold.PLP.part.repulsive>
0.0517

> <Gold.PLP.ligand.clash>
0.0000

> <Gold.PLP.ligand.torsion>
0.4535

> <Gold.PLP.Chemscore.Hbond>
3.7320

> <Gold.PLP.Chemscore.CHOScore>
0.2607

> <Gold.PLP.Chemscore.Metal>
0.0000

> <Gold.Chemscore.Hbonds>
donor molecule, donor type, donor heavy atom, donor atom, acceptor molecule, acceptor atom, score
      L1  H     7    44       P1  7948  2.00
      L1  H    10    37       P1  7948  0.61
      P1  H  7997  8008       L1    20  1.00
      L1  C    15    40       P1  7948  1.00

> <Gold.PLP.Chemscore.Internal.Correction>
0.0536

> <Gold.Rescore>
     Score         DG    S(hbond)    S(metal)    S(lipo)     H(rot)  DE(clash)    DE(int)     intcor
     16.62     -17.24       2.41        0.00      72.46       1.86       0.11       0.51       ----

> <Gold.Chemscore.Fitness>
16.6218

> <Gold.Chemscore.DG>
-17.2444

> <Gold.Chemscore.ZeroCoef>
-5.4800

> <Gold.Chemscore.Hbond>
2.4086

> <Gold.Chemscore.Metal>
0.0000

> <Gold.Chemscore.Lipo>
72.4599

> <Gold.Chemscore.Internal_Hbond>
0.0000

> <Gold.Chemscore.DEClash>
0.1107

> <Gold.Chemscore.DEInternal>
0.5119

> <Gold.Chemscore.Rot>
1.8586

> <Gold.Chemscore.Internal.Correction>
   9.000000E+99

> <Gold.Chemscore.Hbonds>
donor molecule, donor type, donor heavy atom, donor atom, acceptor molecule, acceptor atom, score
      L1  H     7    44       P1  7948  0.98
      L1  H    10    37       P1  7948  0.05
      P1  H  7997  8008       L1    20  0.99

> <Gold.Chemscore.Hbond.Weighted>
-8.0447

> <Gold.Chemscore.Metal.Weighted>
-0.0000

> <Gold.Chemscore.Lipo.Weighted>
-8.4778

> <Gold.Chemscore.Internal_Hbond.Weighted>
0.0000

> <Gold.Chemscore.DEClash.Weighted>
0.1107

> <Gold.Chemscore.DEInternal.Weighted>
0.5119

> <Gold.Chemscore.Rot.Weighted>
4.7581

> <Gold.Chemscore.Internal.Correction.Weighted>
   9.000000E+99

> <Gold.Protein.RotatedTorsions>
[ 6907 6896 6895 6894 ] final  119.36 input  -60.11 | X-H torsion
[ 7974 7965 7964 7962 ] final  -60.02 input  175.53 | X-H torsion
[ 8008 7997 7996 7995 ] final  -49.87 input   59.86 | X-H torsion
[ 10167 10162 10161 10158 ] final  -30.00 input  -65.29 | X-H torsion
[ 10718 10713 10712 10709 ] final  173.27 input   66.30 | X-H torsion
[ 10763 10752 10751 10750 ] final  -29.98 input  -60.55 | X-H torsion
[ 11005 11000 10999 10996 ] final  -90.35 input  -57.11 | X-H torsion

> <Gold.Protein.ActiveResidues>
 VAL166  LYS551  ARG553  GLY616  TRP617  ASP618  TYR619  PRO620  LYS621  CYS622 
 ASP623  PHE694  ASN695  SER759  ASP760  ASP761  ALA762  ILE779  LEU786  VAL792 
 PHE793  MET794  SER795  GLU796  ALA797  LYS798  CYS799  TRP800  GLU811  SER814 

> <Gold.Protein.RotatedAtoms>
  152.4478  133.7569  159.6724 H   0  0  0  0  0  0  0  0  0  0  0  0  # atno 6907 bound_to 6896
  150.8381  133.7969  159.3077 H   0  0  0  0  0  0  0  0  0  0  0  0  # atno 6908 bound_to 6896
  151.5603  135.1068  160.0022 H   0  0  0  0  0  0  0  0  0  0  0  0  # atno 6909 bound_to 6896
  145.8205  140.8543  143.0135 H   0  0  0  0  0  0  0  0  0  0  0  0  # atno 7974 bound_to 7965
  154.4051  140.1286  156.4572 H   0  0  0  0  0  0  0  0  0  0  0  0  # atno 8008 bound_to 7997
  155.7308  140.3491  155.5039 H   0  0  0  0  0  0  0  0  0  0  0  0  # atno 8009 bound_to 7997
  155.9129  140.1039  157.1256 H   0  0  0  0  0  0  0  0  0  0  0  0  # atno 8010 bound_to 7997
  140.7254  143.3884  151.1474 H   0  0  0  0  0  0  0  0  0  0  0  0  # atno 10167 bound_to 10162
  156.9667  131.0077  151.2915 H   0  0  0  0  0  0  0  0  0  0  0  0  # atno 10718 bound_to 10713
  153.7734  135.6910  153.4902 H   0  0  0  0  0  0  0  0  0  0  0  0  # atno 10763 bound_to 10752
  153.1859  135.4489  155.0086 H   0  0  0  0  0  0  0  0  0  0  0  0  # atno 10764 bound_to 10752
  154.8109  135.3377  154.7242 H   0  0  0  0  0  0  0  0  0  0  0  0  # atno 10765 bound_to 10752
  141.1567  133.7686  156.9725 H   0  0  0  0  0  0  0  0  0  0  0  0  # atno 11005 bound_to 11000
  144.6748  140.0527  143.7478 LP  0  0  0  0  0  0  0  0  0  0  0  0  # atno 17320 bound_to 7965
  145.9680  139.2848  143.1116 LP  0  0  0  0  0  0  0  0  0  0  0  0  # atno 17321 bound_to 7965
  139.7484  143.8816  152.3070 LP  0  0  0  0  0  0  0  0  0  0  0  0  # atno 17342 bound_to 10162
  139.8661  144.7092  150.9042 LP  0  0  0  0  0  0  0  0  0  0  0  0  # atno 17343 bound_to 10162
  157.5621  130.8252  149.8279 LP  0  0  0  0  0  0  0  0  0  0  0  0  # atno 17370 bound_to 10713
  156.0299  130.3767  150.1716 LP  0  0  0  0  0  0  0  0  0  0  0  0  # atno 17371 bound_to 10713
  140.1120  134.9471  157.2079 LP  0  0  0  0  0  0  0  0  0  0  0  0  # atno 17394 bound_to 11000
  140.3182  134.2947  155.7252 LP  0  0  0  0  0  0  0  0  0  0  0  0  # atno 17395 bound_to 11000

$$$$
