AV-unprocessed.smi:35|AV-procd|sdf|248|dock6
  -GOLD-   2262016 03D 1   1.00000     0.00000
 Structure written by MMmdl.
 29 30  0  0  0  0  0  0  0  0  1 V2000
  151.3983  137.6284  159.1227 O   0  0  0  0  0  0  0  0  0  0  0  0
  150.9996  138.1857  158.1024 C   0  0  0  0  0  0  0  0  0  0  0  0
  151.9106  138.7455  157.2016 N   0  0  0  0  0  0  0  0  0  0  0  0
  151.5786  139.4018  156.0143 C   0  0  0  0  0  0  0  0  0  0  0  0
  152.4657  139.8760  155.3061 O   0  0  0  0  0  0  0  0  0  0  0  0
  150.2058  139.4973  155.6925 N   0  0  0  0  0  0  0  0  0  0  0  0
  149.7809  140.1983  154.4199 C   0  0  1  0  0  0  0  0  0  0  0  0
  149.0117  139.3126  153.6636 O   0  0  0  0  0  0  0  0  0  0  0  0
  147.9218  140.0166  153.0823 C   0  0  1  0  0  0  0  0  0  0  0  0
  146.8085  139.0502  152.6403 C   0  0  0  0  0  0  0  0  0  0  0  0
  147.2944  138.1611  151.6575 O   0  0  0  0  0  0  0  0  0  0  0  0
  147.5581  141.0701  154.1389 C   0  0  1  0  0  0  0  0  0  0  0  0
  146.7127  140.5243  155.1379 O   0  0  0  0  0  0  0  0  0  0  0  0
  148.9308  141.4624  154.6811 C   0  0  1  0  0  0  0  0  0  0  0  0
  148.8982  141.9180  156.0239 O   0  0  0  0  0  0  0  0  0  0  0  0
  149.2641  138.9641  156.5623 C   0  0  0  0  0  0  0  0  0  0  0  0
  149.6020  138.3359  157.7124 C   0  0  0  0  0  0  0  0  0  0  0  0
  148.1082  137.6499  158.8176 Br  0  0  0  0  0  0  0  0  0  0  0  0
  152.8911  138.6729  157.4320 H   0  0  0  0  0  0  0  0  0  0  0  0
  150.6887  140.4136  153.8537 H   0  0  0  0  0  0  0  0  0  0  0  0
  148.3161  140.5286  152.2021 H   0  0  0  0  0  0  0  0  0  0  0  0
  146.4703  138.4614  153.4933 H   0  0  0  0  0  0  0  0  0  0  0  0
  145.9366  139.5828  152.2604 H   0  0  0  0  0  0  0  0  0  0  0  0
  147.6467  137.3984  152.0903 H   0  0  0  0  0  0  0  0  0  0  0  0
  147.0434  141.9221  153.6935 H   0  0  0  0  0  0  0  0  0  0  0  0
  145.8622  140.3688  154.7571 H   0  0  0  0  0  0  0  0  0  0  0  0
  149.3431  142.2583  154.0595 H   0  0  0  0  0  0  0  0  0  0  0  0
  148.8957  142.8630  156.0192 H   0  0  0  0  0  0  0  0  0  0  0  0
  148.2148  139.0509  156.3231 H   0  0  0  0  0  0  0  0  0  0  0  0
  1  2  2  0  0  0  0
  2 17  1  0  0  0  0
  2  3  1  0  0  0  0
  3 19  1  0  0  0  0
  3  4  1  0  0  0  0
  4  5  2  0  0  0  0
  4  6  1  0  0  0  0
  6  7  1  0  0  0  0
  6 16  1  0  0  0  0
  7 14  1  0  0  0  0
  7  8  1  0  0  0  0
  7 20  1  0  0  0  0
  8  9  1  0  0  0  0
  9 10  1  0  0  0  0
  9 12  1  0  0  0  0
  9 21  1  0  0  0  0
 10 11  1  0  0  0  0
 10 22  1  0  0  0  0
 10 23  1  0  0  0  0
 11 24  1  0  0  0  0
 12 13  1  0  0  0  0
 12 14  1  0  0  0  0
 12 25  1  0  0  0  0
 13 26  1  0  0  0  0
 14 15  1  0  0  0  0
 14 27  1  0  0  0  0
 15 28  1  0  0  0  0
 16 17  2  0  0  0  0
 16 29  1  0  0  0  0
 17 18  1  0  0  0  0
M  END
> <s_m_source_file>
AV-unprocessed.smi

> <i_m_source_file_index>
35

> <i_lp_mmshare_version>
43012

> <i_f3d_flags>
0

> <s_epik_input>
Tz1jMVtuSF1jKD1PKW4oW2NIXWMxQnIpW0NAQEhdMk9bQ0BASF0oW0NIMl1bT0hdKVtDQEBIXShbT0hdKVtDQEhdMltPSF0=

> <s_epik_cmdline>
J2VwaWtfcHl0aG9uJywgJy1waCcsICc3LjAnLCAnLXRuJywgJzgnLCAnLW1hJywgJzIwMCcsICctbWV0YWxfYmluZGluZycsICctaW1hZScsICc8aW5maWxlLm1hZT4nLCAnLW9tYWUnLCAnPG91dGZpbGUubWFlPic=

> <r_lp_tautomer_probability>
0.999537

> <r_epik_Ionization_Penalty>
0.10812

> <r_epik_Ionization_Penalty_Charging>
0.108119

> <r_epik_Ionization_Penalty_Neutral>
4.93006e-07

> <r_epik_State_Penalty>
0.0979238

> <r_epik_Charging_Adjusted_Penalty>
0.206043

> <i_epik_Tot_Q>
0

> <i_epik_Tot_abs_Q>
0

> <r_epik_Metal_State_Penalty>
3.07911

> <b_epik_Metal_Only>
0

> <s_epik_Chemistry_Notes>
This compound contains an acetal/aminal-like group ( X-CH(R)-Y where X, Y are N, S, or O) that may be acid/base labile, releasing an aldehyde.

> <s_lp_Force_Field>
OPLS_2005

> <r_lp_Energy>
38.9756

> <b_lp_Chiralities_Consistent>
1

> <s_lp_Variant>
AV-unprocessed.smi:35-2

> <Gold.Version>
5.8.1

> <Gold.Id.Protein>
6NUR|6NUR_protein|mol2

> <Gold.PLP.Fitness>
33.7084

> <Gold.PLP.PLP>
-21.3697

> <Gold.PLP.part.hbond>
-5.7628

> <Gold.PLP.part.metal>
0.0000

> <Gold.PLP.part.buried>
1.0202

> <Gold.PLP.part.nonpolar>
-19.9150

> <Gold.PLP.part.repulsive>
3.1840

> <Gold.PLP.ligand.clash>
0.0000

> <Gold.PLP.ligand.torsion>
0.0215

> <Gold.PLP.Chemscore.Hbond>
4.1207

> <Gold.PLP.Chemscore.CHOScore>
0.0000

> <Gold.PLP.Chemscore.Metal>
0.0000

> <Gold.Chemscore.Hbonds>
donor molecule, donor type, donor heavy atom, donor atom, acceptor molecule, acceptor atom, score
      L1  H    11    24       P1  7948  0.74
      L1  H    15    28       P1  8028  1.00
      P1  H  7954  7966       L1    11  0.85
      P1  H  7989  7998       L1     5  0.36
      P1  H  7997  8009       L1     5  0.88

> <Gold.PLP.Chemscore.Internal.Correction>
0.0194

> <Gold.Rescore>
     Score         DG    S(hbond)    S(metal)    S(lipo)     H(rot)  DE(clash)    DE(int)     intcor
      8.73     -12.11       3.48        0.00      37.56       3.67       3.24       0.13       ----

> <Gold.Chemscore.Fitness>
8.7332

> <Gold.Chemscore.DG>
-12.1067

> <Gold.Chemscore.ZeroCoef>
-5.4800

> <Gold.Chemscore.Hbond>
3.4812

> <Gold.Chemscore.Metal>
0.0000

> <Gold.Chemscore.Lipo>
37.5640

> <Gold.Chemscore.Internal_Hbond>
0.0000

> <Gold.Chemscore.DEClash>
3.2410

> <Gold.Chemscore.DEInternal>
0.1326

> <Gold.Chemscore.Rot>
3.6701

> <Gold.Chemscore.Internal.Correction>
   9.000000E+99

> <Gold.Chemscore.Hbonds>
donor molecule, donor type, donor heavy atom, donor atom, acceptor molecule, acceptor atom, score
      L1  H    11    24       P1  7948  0.74
      L1  H    15    28       P1  8028  1.00
      P1  H  7954  7966       L1    11  0.14
      P1  H  7989  7998       L1     5  0.32
      P1  H  7997  8009       L1     5  0.85

> <Gold.Chemscore.Hbond.Weighted>
-11.6272

> <Gold.Chemscore.Metal.Weighted>
-0.0000

> <Gold.Chemscore.Lipo.Weighted>
-4.3950

> <Gold.Chemscore.Internal_Hbond.Weighted>
0.0000

> <Gold.Chemscore.DEClash.Weighted>
3.2410

> <Gold.Chemscore.DEInternal.Weighted>
0.1326

> <Gold.Chemscore.Rot.Weighted>
9.3955

> <Gold.Chemscore.Internal.Correction.Weighted>
   9.000000E+99

> <Gold.Protein.RotatedTorsions>
[ 6907 6896 6895 6894 ] final -115.44 input  -60.11 | X-H torsion
[ 7974 7965 7964 7962 ] final -107.52 input  175.53 | X-H torsion
[ 8008 7997 7996 7995 ] final -139.29 input   59.86 | X-H torsion
[ 10167 10162 10161 10158 ] final   28.16 input  -65.29 | X-H torsion
[ 10718 10713 10712 10709 ] final   90.89 input   66.30 | X-H torsion
[ 10763 10752 10751 10750 ] final  -58.51 input  -60.55 | X-H torsion
[ 11005 11000 10999 10996 ] final  162.03 input  -57.11 | X-H torsion

> <Gold.Protein.ActiveResidues>
 VAL166  LYS551  ARG553  GLY616  TRP617  ASP618  TYR619  PRO620  LYS621  CYS622 
 ASP623  PHE694  ASN695  SER759  ASP760  ASP761  ALA762  ILE779  LEU786  VAL792 
 PHE793  MET794  SER795  GLU796  ALA797  LYS798  CYS799  TRP800  GLU811  SER814 

> <Gold.Protein.RotatedAtoms>
  150.7978  133.8658  159.3244 H   0  0  0  0  0  0  0  0  0  0  0  0  # atno 6907 bound_to 6896
  151.6478  135.1003  160.0164 H   0  0  0  0  0  0  0  0  0  0  0  0  # atno 6908 bound_to 6896
  152.4062  133.6853  159.6393 H   0  0  0  0  0  0  0  0  0  0  0  0  # atno 6909 bound_to 6896
  145.2044  140.9070  143.3351 H   0  0  0  0  0  0  0  0  0  0  0  0  # atno 7974 bound_to 7965
  155.4424  140.0533  157.3009 H   0  0  0  0  0  0  0  0  0  0  0  0  # atno 8008 bound_to 7997
  154.4812  140.2082  155.9716 H   0  0  0  0  0  0  0  0  0  0  0  0  # atno 8009 bound_to 7997
  156.1209  140.3188  155.8211 H   0  0  0  0  0  0  0  0  0  0  0  0  # atno 8010 bound_to 7997
  140.4876  144.0517  150.6286 H   0  0  0  0  0  0  0  0  0  0  0  0  # atno 10167 bound_to 10162
  157.6960  131.0387  150.3646 H   0  0  0  0  0  0  0  0  0  0  0  0  # atno 10718 bound_to 10713
  154.2392  135.6346  153.5201 H   0  0  0  0  0  0  0  0  0  0  0  0  # atno 10763 bound_to 10752
  152.9933  135.5538  154.5929 H   0  0  0  0  0  0  0  0  0  0  0  0  # atno 10764 bound_to 10752
  154.5430  135.2896  155.1053 H   0  0  0  0  0  0  0  0  0  0  0  0  # atno 10765 bound_to 10752
  140.2217  134.8191  157.3227 H   0  0  0  0  0  0  0  0  0  0  0  0  # atno 11005 bound_to 11000
  144.9917  139.3683  143.6211 LP  0  0  0  0  0  0  0  0  0  0  0  0  # atno 17320 bound_to 7965
  146.3411  139.9102  142.8781 LP  0  0  0  0  0  0  0  0  0  0  0  0  # atno 17321 bound_to 7965
  140.3777  143.2819  152.0206 LP  0  0  0  0  0  0  0  0  0  0  0  0  # atno 17342 bound_to 10162
  139.4845  144.6179  151.7310 LP  0  0  0  0  0  0  0  0  0  0  0  0  # atno 17343 bound_to 10162
  156.4078  130.3928  149.6913 LP  0  0  0  0  0  0  0  0  0  0  0  0  # atno 17370 bound_to 10713
  156.4207  130.7767  151.2784 LP  0  0  0  0  0  0  0  0  0  0  0  0  # atno 17371 bound_to 10713
  140.1842  134.4451  155.7753 LP  0  0  0  0  0  0  0  0  0  0  0  0  # atno 17394 bound_to 11000
  141.2222  133.6997  156.7920 LP  0  0  0  0  0  0  0  0  0  0  0  0  # atno 17395 bound_to 11000

$$$$
