AV-unprocessed.smi:1487|AV-procd|sdf|6018|dock4
  -GOLD-   22720 6123D 1   1.00000     0.00000
 Structure written by MMmdl.
 49 51  0  0  0  0  0  0  0  0  3 V2000
  152.2376  143.8224  160.2085 C   0  0  0  0  0  0  0  0  0  0  0  0
  151.9598  142.7791  159.1395 C   0  0  0  0  0  0  0  0  0  0  0  0
  151.1161  143.1278  158.0609 C   0  0  0  0  0  0  0  0  0  0  0  0
  150.8834  142.1537  157.0975 C   0  0  0  0  0  0  0  0  0  0  0  0
  150.1149  142.1849  155.9319 N   0  3  0  0  0  0  0  0  0  0  0  0
  150.1941  140.9798  155.3033 C   0  0  0  0  0  0  0  0  0  0  0  0
  151.0003  140.1786  156.0519 N   0  0  0  0  0  0  0  0  0  0  0  0
  151.4122  138.7858  155.8309 C   0  0  0  0  0  0  0  0  0  0  0  0
  150.6983  138.1314  154.6310 C   0  0  1  0  0  0  0  0  0  0  0  0
  151.5667  137.1791  154.0451 O   0  0  0  0  0  0  0  0  0  0  0  0
  149.3977  137.4257  155.0654 C   0  0  0  0  0  0  0  0  0  0  0  0
  148.3480  137.4545  154.0144 N   0  3  2  0  0  0  0  0  0  0  0  0
  147.9869  138.8289  153.5774 C   0  0  0  0  0  0  0  0  0  0  0  0
  147.0331  138.7878  152.3731 C   0  0  0  0  0  0  0  0  0  0  0  0
  145.7703  137.9767  152.6977 C   0  0  0  0  0  0  0  0  0  0  0  0
  146.1328  136.5817  153.2340 C   0  0  1  0  0  0  0  0  0  0  0  0
  146.6598  135.7749  152.1991 O   0  0  0  0  0  0  0  0  0  0  0  0
  147.1470  136.6631  154.3915 C   0  0  0  0  0  0  0  0  0  0  0  0
  151.4546  140.8689  157.1806 C   0  0  0  0  0  0  0  0  0  0  0  0
  152.2859  140.5074  158.2379 C   0  0  0  0  0  0  0  0  0  0  0  0
  152.5374  141.4856  159.2268 C   0  0  0  0  0  0  0  0  0  0  0  0
  153.4457  141.1239  160.3898 C   0  0  0  0  0  0  0  0  0  0  0  0
  151.7392  144.7659  159.9839 H   0  0  0  0  0  0  0  0  0  0  0  0
  153.3071  144.0204  160.2825 H   0  0  0  0  0  0  0  0  0  0  0  0
  151.8802  143.4799  161.1798 H   0  0  0  0  0  0  0  0  0  0  0  0
  150.6731  144.1105  157.9881 H   0  0  0  0  0  0  0  0  0  0  0  0
  149.7022  140.7068  154.3805 H   0  0  0  0  0  0  0  0  0  0  0  0
  152.4918  138.7888  155.6729 H   0  0  0  0  0  0  0  0  0  0  0  0
  151.2370  138.2217  156.7478 H   0  0  0  0  0  0  0  0  0  0  0  0
  150.4880  138.9013  153.8892 H   0  0  0  0  0  0  0  0  0  0  0  0
  151.1798  136.8598  153.2444 H   0  0  0  0  0  0  0  0  0  0  0  0
  149.6384  136.3926  155.3214 H   0  0  0  0  0  0  0  0  0  0  0  0
  149.0028  137.8771  155.9768 H   0  0  0  0  0  0  0  0  0  0  0  0
  147.5232  139.3666  154.4059 H   0  0  0  0  0  0  0  0  0  0  0  0
  148.8798  139.3884  153.3011 H   0  0  0  0  0  0  0  0  0  0  0  0
  146.7576  139.8016  152.0810 H   0  0  0  0  0  0  0  0  0  0  0  0
  147.5449  138.3490  151.5155 H   0  0  0  0  0  0  0  0  0  0  0  0
  145.1895  138.5091  153.4520 H   0  0  0  0  0  0  0  0  0  0  0  0
  145.1304  137.8974  151.8180 H   0  0  0  0  0  0  0  0  0  0  0  0
  145.2270  136.0886  153.5886 H   0  0  0  0  0  0  0  0  0  0  0  0
  147.5257  136.0879  151.9838 H   0  0  0  0  0  0  0  0  0  0  0  0
  147.4392  135.6551  154.6899 H   0  0  0  0  0  0  0  0  0  0  0  0
  146.6781  137.1239  155.2627 H   0  0  0  0  0  0  0  0  0  0  0  0
  152.7260  139.5236  158.3036 H   0  0  0  0  0  0  0  0  0  0  0  0
  153.7819  140.0886  160.3279 H   0  0  0  0  0  0  0  0  0  0  0  0
  152.9232  141.2470  161.3387 H   0  0  0  0  0  0  0  0  0  0  0  0
  154.3303  141.7613  160.3958 H   0  0  0  0  0  0  0  0  0  0  0  0
  148.7381  136.9833  153.2108 H   0  0  0  0  0  0  0  0  0  0  0  0
  149.5753  142.9693  155.5882 H   0  0  0  0  0  0  0  0  0  0  0  0
  1  2  1  0  0  0  0
  1 23  1  0  0  0  0
  1 24  1  0  0  0  0
  1 25  1  0  0  0  0
  2 21  1  0  0  0  0
  2  3  2  0  0  0  0
  3  4  1  0  0  0  0
  3 26  1  0  0  0  0
  4 19  2  0  0  0  0
  4  5  1  0  0  0  0
  5  6  2  0  0  0  0
  5 49  1  0  0  0  0
  6  7  1  0  0  0  0
  6 27  1  0  0  0  0
  7  8  1  0  0  0  0
  7 19  1  0  0  0  0
  8  9  1  0  0  0  0
  8 28  1  0  0  0  0
  8 29  1  0  0  0  0
  9 10  1  0  0  0  0
  9 11  1  0  0  0  0
  9 30  1  0  0  0  0
 10 31  1  0  0  0  0
 11 12  1  0  0  0  0
 11 32  1  0  0  0  0
 11 33  1  0  0  0  0
 12 18  1  0  0  0  0
 12 13  1  0  0  0  0
 12 48  1  0  0  0  0
 13 14  1  0  0  0  0
 13 34  1  0  0  0  0
 13 35  1  0  0  0  0
 14 15  1  0  0  0  0
 14 36  1  0  0  0  0
 14 37  1  0  0  0  0
 15 16  1  0  0  0  0
 15 38  1  0  0  0  0
 15 39  1  0  0  0  0
 16 17  1  0  0  0  0
 16 18  1  0  0  0  0
 16 40  1  0  0  0  0
 17 41  1  0  0  0  0
 18 42  1  0  0  0  0
 18 43  1  0  0  0  0
 19 20  1  0  0  0  0
 20 21  2  0  0  0  0
 20 44  1  0  0  0  0
 21 22  1  0  0  0  0
 22 45  1  0  0  0  0
 22 46  1  0  0  0  0
 22 47  1  0  0  0  0
M  CHG  1   5   1
M  CHG  1  12   1
M  END
> <s_m_source_file>
AV-unprocessed.smi

> <i_m_source_file_index>
1487

> <i_lp_mmshare_version>
43012

> <i_f3d_flags>
0

> <s_epik_input>
W0NIM11jKFtjSF0xKWMoW0NIM10pW2NIXWMoYzEyKW4oW2NIXW4yKVtDSDJdW0NASF0oW09IXSlbQ0gyXU4zW0NIMl1bQ0gyXVtDSDJdW0NAQEhdKFtPSF0pW0NIMl0z

> <s_epik_cmdline>
J2VwaWtfcHl0aG9uJywgJy1waCcsICc3LjAnLCAnLXRuJywgJzgnLCAnLW1hJywgJzIwMCcsICctbWV0YWxfYmluZGluZycsICctaW1hZScsICc8aW5maWxlLm1hZT4nLCAnLW9tYWUnLCAnPG91dGZpbGUubWFlPic=

> <r_epik_Ionization_Penalty>
1.1857

> <r_epik_Ionization_Penalty_Charging>
1.1857

> <r_epik_Ionization_Penalty_Neutral>
1.75578e-06

> <r_epik_State_Penalty>
1.26953

> <r_epik_Charging_Adjusted_Penalty>
2.45524

> <i_epik_Tot_Q>
2

> <i_epik_Tot_abs_Q>
2

> <r_epik_Metal_State_Penalty>
5.28243

> <b_epik_Metal_Only>
0

> <s_lp_Force_Field>
OPLS_2005

> <r_lp_Energy>
32.3445

> <b_lp_Chiralities_Consistent>
1

> <s_lp_Variant>
AV-unprocessed.smi:1487-12

> <Gold.Version>
5.8.1

> <Gold.Id.Protein>
6NUR|6NUR_protein|mol2

> <Gold.PLP.Fitness>
62.0415

> <Gold.PLP.PLP>
-43.1293

> <Gold.PLP.part.hbond>
-4.8793

> <Gold.PLP.part.metal>
0.0000

> <Gold.PLP.part.buried>
-4.3438

> <Gold.PLP.part.nonpolar>
-34.4389

> <Gold.PLP.part.repulsive>
0.1335

> <Gold.PLP.ligand.clash>
0.0000

> <Gold.PLP.ligand.torsion>
0.8531

> <Gold.PLP.Chemscore.Hbond>
6.8613

> <Gold.PLP.Chemscore.CHOScore>
0.0000

> <Gold.PLP.Chemscore.Metal>
0.0000

> <Gold.Chemscore.Hbonds>
donor molecule, donor type, donor heavy atom, donor atom, acceptor molecule, acceptor atom, score
      L1  H     5    49       P1  8028  2.00
      L1  H    10    31       P1  7949  1.00
      L1  H    12    48       P1  7948  2.00
      L1  H    17    41       P1  7948  0.71
      P1  H 10752 10765       L1    10  0.79

> <Gold.PLP.Chemscore.Internal.Correction>
0.0348

> <Gold.Rescore>
     Score         DG    S(hbond)    S(metal)    S(lipo)     H(rot)  DE(clash)    DE(int)     intcor
     23.63     -24.72       3.86        0.00     114.19       2.74       0.29       0.79       ----

> <Gold.Chemscore.Fitness>
23.6344

> <Gold.Chemscore.DG>
-24.7152

> <Gold.Chemscore.ZeroCoef>
-5.4800

> <Gold.Chemscore.Hbond>
3.8580

> <Gold.Chemscore.Metal>
0.0000

> <Gold.Chemscore.Lipo>
114.1859

> <Gold.Chemscore.Internal_Hbond>
0.0000

> <Gold.Chemscore.DEClash>
0.2899

> <Gold.Chemscore.DEInternal>
0.7909

> <Gold.Chemscore.Rot>
2.7384

> <Gold.Chemscore.Internal.Correction>
   9.000000E+99

> <Gold.Chemscore.Hbonds>
donor molecule, donor type, donor heavy atom, donor atom, acceptor molecule, acceptor atom, score
      L1  H     5    49       P1  8028  0.98
      L1  H    10    31       P1  7949  0.49
      L1  H    12    48       P1  7948  0.95
      L1  H    17    41       P1  7948  0.71
      P1  H 10752 10765       L1    10  0.13

> <Gold.Chemscore.Hbond.Weighted>
-12.8858

> <Gold.Chemscore.Metal.Weighted>
-0.0000

> <Gold.Chemscore.Lipo.Weighted>
-13.3598

> <Gold.Chemscore.Internal_Hbond.Weighted>
0.0000

> <Gold.Chemscore.DEClash.Weighted>
0.2899

> <Gold.Chemscore.DEInternal.Weighted>
0.7909

> <Gold.Chemscore.Rot.Weighted>
7.0103

> <Gold.Chemscore.Internal.Correction.Weighted>
   9.000000E+99

> <Gold.Protein.RotatedTorsions>
[ 6907 6896 6895 6894 ] final   57.30 input  -60.11 | X-H torsion
[ 7974 7965 7964 7962 ] final  126.48 input  175.53 | X-H torsion
[ 8008 7997 7996 7995 ] final   29.58 input   59.86 | X-H torsion
[ 10167 10162 10161 10158 ] final   11.96 input  -65.29 | X-H torsion
[ 10718 10713 10712 10709 ] final  -60.20 input   66.30 | X-H torsion
[ 10763 10752 10751 10750 ] final  163.21 input  -60.55 | X-H torsion
[ 11005 11000 10999 10996 ] final   64.16 input  -57.11 | X-H torsion

> <Gold.Protein.ActiveResidues>
 VAL166  LYS551  ARG553  GLY616  TRP617  ASP618  TYR619  PRO620  LYS621  CYS622 
 ASP623  PHE694  ASN695  SER759  ASP760  ASP761  ALA762  ILE779  LEU786  VAL792 
 PHE793  MET794  SER795  GLU796  ALA797  LYS798  CYS799  TRP800  GLU811  SER814 

> <Gold.Protein.RotatedAtoms>
  152.3718  134.6722  160.0173 H   0  0  0  0  0  0  0  0  0  0  0  0  # atno 6907 bound_to 6896
  151.7012  133.3306  159.3275 H   0  0  0  0  0  0  0  0  0  0  0  0  # atno 6908 bound_to 6896
  150.7680  134.6549  159.6352 H   0  0  0  0  0  0  0  0  0  0  0  0  # atno 6909 bound_to 6896
  145.0613  139.3803  143.5004 H   0  0  0  0  0  0  0  0  0  0  0  0  # atno 7974 bound_to 7965
  155.0767  140.3206  155.4614 H   0  0  0  0  0  0  0  0  0  0  0  0  # atno 8008 bound_to 7997
  156.2777  140.2102  156.5840 H   0  0  0  0  0  0  0  0  0  0  0  0  # atno 8009 bound_to 7997
  154.7011  140.0507  157.0446 H   0  0  0  0  0  0  0  0  0  0  0  0  # atno 8010 bound_to 7997
  140.6099  143.8430  150.7053 H   0  0  0  0  0  0  0  0  0  0  0  0  # atno 10167 bound_to 10162
  156.1007  130.4186  150.0821 H   0  0  0  0  0  0  0  0  0  0  0  0  # atno 10718 bound_to 10713
  154.2902  135.2761  155.2658 H   0  0  0  0  0  0  0  0  0  0  0  0  # atno 10763 bound_to 10752
  154.5141  135.5774  153.6631 H   0  0  0  0  0  0  0  0  0  0  0  0  # atno 10764 bound_to 10752
  152.9915  135.6188  154.3066 H   0  0  0  0  0  0  0  0  0  0  0  0  # atno 10765 bound_to 10752
  139.9977  134.6491  155.9983 H   0  0  0  0  0  0  0  0  0  0  0  0  # atno 11005 bound_to 11000
  146.3524  140.0312  142.8650 LP  0  0  0  0  0  0  0  0  0  0  0  0  # atno 17320 bound_to 7965
  145.1405  140.9569  143.4491 LP  0  0  0  0  0  0  0  0  0  0  0  0  # atno 17321 bound_to 7965
  140.1996  143.3970  152.1801 LP  0  0  0  0  0  0  0  0  0  0  0  0  # atno 17342 bound_to 10162
  139.5353  144.7203  151.4915 LP  0  0  0  0  0  0  0  0  0  0  0  0  # atno 17343 bound_to 10162
  156.8809  130.9556  151.3599 LP  0  0  0  0  0  0  0  0  0  0  0  0  # atno 17370 bound_to 10713
  157.6177  130.8631  149.9056 LP  0  0  0  0  0  0  0  0  0  0  0  0  # atno 17371 bound_to 10713
  141.1617  133.6538  156.4342 LP  0  0  0  0  0  0  0  0  0  0  0  0  # atno 17394 bound_to 11000
  140.4787  134.6685  157.5161 LP  0  0  0  0  0  0  0  0  0  0  0  0  # atno 17395 bound_to 11000

$$$$
