AV-unprocessed.smi:1686|AV-procd|sdf|6760|dock5
  -GOLD-   22720 7523D 1   1.00000     0.00000
 Structure written by MMmdl.
 41 43  0  0  0  0  0  0  0  0  1 V2000
  150.8646  142.0783  156.3398 C   0  0  0  0  0  0  0  0  0  0  0  0
  150.8143  140.6216  155.9780 C   0  0  0  0  0  0  0  0  0  0  0  0
  150.7732  140.2707  154.6996 N   0  0  0  0  0  0  0  0  0  0  0  0
  150.7412  138.8717  154.6754 O   0  0  0  0  0  0  0  0  0  0  0  0
  150.7636  138.4527  155.9613 C   0  0  0  0  0  0  0  0  0  0  0  0
  150.7561  136.7872  156.3858 Cl  0  0  0  0  0  0  0  0  0  0  0  0
  150.8096  139.4910  156.8469 C   0  0  0  0  0  0  0  0  0  0  0  0
  150.8670  139.4633  158.3551 C   0  0  0  0  0  0  0  0  0  0  0  0
  152.2296  139.9746  158.8250 C   0  0  0  0  0  0  0  0  0  0  0  0
  153.2614  139.5247  158.3284 O   0  0  0  0  0  0  0  0  0  0  0  0
  152.2097  140.9334  159.7640 N   0  0  0  0  0  0  0  0  0  0  0  0
  153.3588  141.6947  160.2442 C   0  0  2  0  0  0  0  0  0  0  0  0
  153.5785  141.3703  161.7307 C   0  0  0  0  0  0  0  0  0  0  0  0
  153.1112  143.2023  159.9933 C   0  0  1  0  0  0  0  0  0  0  0  0
  152.8758  143.5568  158.5051 C   0  0  0  0  0  0  0  0  0  0  0  0
  151.5469  144.3324  158.5318 C   0  0  2  0  0  0  0  0  0  0  0  0
  151.7560  145.6943  159.2193 C   0  0  0  0  0  0  0  0  0  0  0  0
  151.9191  145.3043  160.7000 C   0  0  0  0  0  0  0  0  0  0  0  0
  151.8266  143.7676  160.6572 C   0  0  1  0  0  0  0  0  0  0  0  0
  150.7640  143.5586  159.5838 C   0  0  0  0  0  0  0  0  0  0  0  0
  151.4427  142.2394  157.2495 H   0  0  0  0  0  0  0  0  0  0  0  0
  149.8621  142.4718  156.5090 H   0  0  0  0  0  0  0  0  0  0  0  0
  151.3268  142.6715  155.5500 H   0  0  0  0  0  0  0  0  0  0  0  0
  150.0869  140.0821  158.7993 H   0  0  0  0  0  0  0  0  0  0  0  0
  150.7092  138.4541  158.7378 H   0  0  0  0  0  0  0  0  0  0  0  0
  151.3073  141.2218  160.1127 H   0  0  0  0  0  0  0  0  0  0  0  0
  154.2546  141.3967  159.6969 H   0  0  0  0  0  0  0  0  0  0  0  0
  154.4453  141.8945  162.1329 H   0  0  0  0  0  0  0  0  0  0  0  0
  153.7495  140.3031  161.8756 H   0  0  0  0  0  0  0  0  0  0  0  0
  152.7129  141.6524  162.3309 H   0  0  0  0  0  0  0  0  0  0  0  0
  153.9777  143.7504  160.3672 H   0  0  0  0  0  0  0  0  0  0  0  0
  153.6921  144.1448  158.0841 H   0  0  0  0  0  0  0  0  0  0  0  0
  152.7654  142.6609  157.8930 H   0  0  0  0  0  0  0  0  0  0  0  0
  151.0632  144.4035  157.5571 H   0  0  0  0  0  0  0  0  0  0  0  0
  152.6261  146.2240  158.8298 H   0  0  0  0  0  0  0  0  0  0  0  0
  150.8845  146.3364  159.0863 H   0  0  0  0  0  0  0  0  0  0  0  0
  152.8593  145.6561  161.1262 H   0  0  0  0  0  0  0  0  0  0  0  0
  151.1074  145.7223  161.2968 H   0  0  0  0  0  0  0  0  0  0  0  0
  151.5804  143.3364  161.6273 H   0  0  0  0  0  0  0  0  0  0  0  0
  149.8035  144.0142  159.8310 H   0  0  0  0  0  0  0  0  0  0  0  0
  150.6054  142.5104  159.3251 H   0  0  0  0  0  0  0  0  0  0  0  0
  1  2  1  0  0  0  0
  1 21  1  0  0  0  0
  1 22  1  0  0  0  0
  1 23  1  0  0  0  0
  2  7  1  0  0  0  0
  2  3  2  0  0  0  0
  3  4  1  0  0  0  0
  4  5  1  0  0  0  0
  5  6  1  0  0  0  0
  5  7  2  0  0  0  0
  7  8  1  0  0  0  0
  8  9  1  0  0  0  0
  8 24  1  0  0  0  0
  8 25  1  0  0  0  0
  9 10  2  0  0  0  0
  9 11  1  0  0  0  0
 11 12  1  0  0  0  0
 11 26  1  0  0  0  0
 12 13  1  0  0  0  0
 12 14  1  0  0  0  0
 12 27  1  0  0  0  0
 13 28  1  0  0  0  0
 13 29  1  0  0  0  0
 13 30  1  0  0  0  0
 14 19  1  0  0  0  0
 14 15  1  0  0  0  0
 14 31  1  0  0  0  0
 15 16  1  0  0  0  0
 15 32  1  0  0  0  0
 15 33  1  0  0  0  0
 16 20  1  0  0  0  0
 16 17  1  0  0  0  0
 16 34  1  0  0  0  0
 17 18  1  0  0  0  0
 17 35  1  0  0  0  0
 17 36  1  0  0  0  0
 18 19  1  0  0  0  0
 18 37  1  0  0  0  0
 18 38  1  0  0  0  0
 19 20  1  0  0  0  0
 19 39  1  0  0  0  0
 20 40  1  0  0  0  0
 20 41  1  0  0  0  0
M  END
> <s_m_source_file>
AV-unprocessed.smi

> <i_m_source_file_index>
1686

> <i_lp_mmshare_version>
43012

> <i_f3d_flags>
0

> <s_epik_input>
W0NIM11jMW5vYyhDbCljMVtDSDJdQyg9TylbTkhdW0NASF0oW0NIM10pW0NASF0oW0NIMl1bQ0BIXTIzKVtDQEhdKFtDSDJdMylbQ0gyXVtDSDJdMg==

> <s_epik_cmdline>
J2VwaWtfcHl0aG9uJywgJy1waCcsICc3LjAnLCAnLXRuJywgJzgnLCAnLW1hJywgJzIwMCcsICctbWV0YWxfYmluZGluZycsICctaW1hZScsICc8aW5maWxlLm1hZT4nLCAnLW9tYWUnLCAnPG91dGZpbGUubWFlPic=

> <r_lp_tautomer_probability>
1

> <r_epik_Ionization_Penalty>
2.01576e-08

> <r_epik_Ionization_Penalty_Charging>
0

> <r_epik_Ionization_Penalty_Neutral>
2.01576e-08

> <r_epik_State_Penalty>
-0

> <r_epik_Charging_Adjusted_Penalty>
0

> <i_epik_Tot_Q>
0

> <i_epik_Tot_abs_Q>
0

> <r_epik_Metal_State_Penalty>
-0

> <b_epik_Metal_Only>
0

> <s_lp_Force_Field>
OPLS_2005

> <r_lp_Energy>
45.33

> <b_lp_Chiralities_Consistent>
1

> <s_lp_Variant>
AV-unprocessed.smi:1686-3

> <Gold.Version>
5.8.1

> <Gold.Id.Protein>
6NUR|6NUR_protein|mol2

> <Gold.PLP.Fitness>
47.8311

> <Gold.PLP.PLP>
-42.1423

> <Gold.PLP.part.hbond>
-1.9001

> <Gold.PLP.part.metal>
0.0000

> <Gold.PLP.part.buried>
-4.5438

> <Gold.PLP.part.nonpolar>
-36.2921

> <Gold.PLP.part.repulsive>
0.4008

> <Gold.PLP.ligand.clash>
0.0000

> <Gold.PLP.ligand.torsion>
0.1649

> <Gold.PLP.Chemscore.Hbond>
2.0000

> <Gold.PLP.Chemscore.CHOScore>
0.0000

> <Gold.PLP.Chemscore.Metal>
0.0000

> <Gold.Chemscore.Hbonds>
donor molecule, donor type, donor heavy atom, donor atom, acceptor molecule, acceptor atom, score
      P1  H  7989  7998       L1     3  1.00
      P1  H  7997  8010       L1    10  1.00

> <Gold.PLP.Chemscore.Internal.Correction>
0.0186

> <Gold.Rescore>
     Score         DG    S(hbond)    S(metal)    S(lipo)     H(rot)  DE(clash)    DE(int)     intcor
     21.81     -23.25       1.79        0.00     132.89       1.46       0.45       0.99       ----

> <Gold.Chemscore.Fitness>
21.8137

> <Gold.Chemscore.DG>
-23.2522

> <Gold.Chemscore.ZeroCoef>
-5.4800

> <Gold.Chemscore.Hbond>
1.7886

> <Gold.Chemscore.Metal>
0.0000

> <Gold.Chemscore.Lipo>
132.8905

> <Gold.Chemscore.Internal_Hbond>
0.0000

> <Gold.Chemscore.DEClash>
0.4463

> <Gold.Chemscore.DEInternal>
0.9923

> <Gold.Chemscore.Rot>
1.4648

> <Gold.Chemscore.Internal.Correction>
   9.000000E+99

> <Gold.Chemscore.Hbonds>
donor molecule, donor type, donor heavy atom, donor atom, acceptor molecule, acceptor atom, score
      P1  H  7989  7998       L1     3  0.80
      P1  H  7997  8010       L1    10  0.92

> <Gold.Chemscore.Hbond.Weighted>
-5.9740

> <Gold.Chemscore.Metal.Weighted>
-0.0000

> <Gold.Chemscore.Lipo.Weighted>
-15.5482

> <Gold.Chemscore.Internal_Hbond.Weighted>
0.0000

> <Gold.Chemscore.DEClash.Weighted>
0.4463

> <Gold.Chemscore.DEInternal.Weighted>
0.9923

> <Gold.Chemscore.Rot.Weighted>
3.7500

> <Gold.Chemscore.Internal.Correction.Weighted>
   9.000000E+99

> <Gold.Protein.RotatedTorsions>
[ 6907 6896 6895 6894 ] final  103.44 input  -60.11 | X-H torsion
[ 7974 7965 7964 7962 ] final -111.77 input  175.53 | X-H torsion
[ 8008 7997 7996 7995 ] final   50.88 input   59.86 | X-H torsion
[ 10167 10162 10161 10158 ] final   75.40 input  -65.29 | X-H torsion
[ 10718 10713 10712 10709 ] final   41.95 input   66.30 | X-H torsion
[ 10763 10752 10751 10750 ] final   56.16 input  -60.55 | X-H torsion
[ 11005 11000 10999 10996 ] final   42.67 input  -57.11 | X-H torsion

> <Gold.Protein.ActiveResidues>
 VAL166  LYS551  ARG553  GLY616  TRP617  ASP618  TYR619  PRO620  LYS621  CYS622 
 ASP623  PHE694  ASN695  SER759  ASP760  ASP761  ALA762  ILE779  LEU786  VAL792 
 PHE793  MET794  SER795  GLU796  ALA797  LYS798  CYS799  TRP800  GLU811  SER814 

> <Gold.Protein.RotatedAtoms>
  152.5295  133.9826  159.7813 H   0  0  0  0  0  0  0  0  0  0  0  0  # atno 6907 bound_to 6896
  151.0077  133.5987  159.2694 H   0  0  0  0  0  0  0  0  0  0  0  0  # atno 6908 bound_to 6896
  151.3073  135.0791  159.9313 H   0  0  0  0  0  0  0  0  0  0  0  0  # atno 6909 bound_to 6896
  145.1520  140.8834  143.3641 H   0  0  0  0  0  0  0  0  0  0  0  0  # atno 7974 bound_to 7965
  155.4261  140.3448  155.4276 H   0  0  0  0  0  0  0  0  0  0  0  0  # atno 8008 bound_to 7997
  156.1364  140.1529  156.9018 H   0  0  0  0  0  0  0  0  0  0  0  0  # atno 8009 bound_to 7997
  154.4935  140.0834  156.7627 H   0  0  0  0  0  0  0  0  0  0  0  0  # atno 8010 bound_to 7997
  140.0034  144.5669  150.7718 H   0  0  0  0  0  0  0  0  0  0  0  0  # atno 10167 bound_to 10162
  157.3994  130.7851  149.7335 H   0  0  0  0  0  0  0  0  0  0  0  0  # atno 10718 bound_to 10713
  152.9827  135.5686  154.5184 H   0  0  0  0  0  0  0  0  0  0  0  0  # atno 10763 bound_to 10752
  154.4676  135.2783  155.1668 H   0  0  0  0  0  0  0  0  0  0  0  0  # atno 10764 bound_to 10752
  154.3230  135.6265  153.5570 H   0  0  0  0  0  0  0  0  0  0  0  0  # atno 10765 bound_to 10752
  140.1717  134.4214  155.8253 H   0  0  0  0  0  0  0  0  0  0  0  0  # atno 11005 bound_to 11000
  145.0421  139.3252  143.5971 LP  0  0  0  0  0  0  0  0  0  0  0  0  # atno 17320 bound_to 7965
  146.3493  139.9798  142.8697 LP  0  0  0  0  0  0  0  0  0  0  0  0  # atno 17321 bound_to 7965
  140.7410  143.2812  151.3593 LP  0  0  0  0  0  0  0  0  0  0  0  0  # atno 17342 bound_to 10162
  139.6256  144.0821  152.2431 LP  0  0  0  0  0  0  0  0  0  0  0  0  # atno 17343 bound_to 10162
  155.9819  130.4015  150.3446 LP  0  0  0  0  0  0  0  0  0  0  0  0  # atno 17370 bound_to 10713
  157.1572  131.0336  151.2858 LP  0  0  0  0  0  0  0  0  0  0  0  0  # atno 17371 bound_to 10713
  141.2218  133.6959  156.7775 LP  0  0  0  0  0  0  0  0  0  0  0  0  # atno 17394 bound_to 11000
  140.2370  134.8643  157.3535 LP  0  0  0  0  0  0  0  0  0  0  0  0  # atno 17395 bound_to 11000

$$$$
