#       Name:                AV-unprocessed.smi:1983
#       Creating user name   scv26
#       Creation time:       Fri Mar 27 10:23:34 2020


#       File generated by GOLD software.
#

@<TRIPOS>MOLECULE
AV-unprocessed.smi:1983
    57    58     1
SMALL
NO_CHARGES


@<TRIPOS>ATOM
      1 ****        -5.3041   1.0746  -4.6487 C.3            1 S1                 0.0000
      2 ****        -4.2646   1.3755  -3.5583 C.3            1 S1                 0.0000
      3 ****        -4.8184   1.1334  -2.1404 C.3            1 S1                 0.0000
      4 ****        -5.7863   2.1082  -1.8145 O.3            1 S1                 0.0000
      5 ****        -3.0813   0.5502  -3.7861 N.am           1 S1                 0.0000
      6 ****        -1.8346   0.8592  -3.4027 C.2            1 S1                 0.0000
      7 ****        -1.5309   1.8871  -2.7972 O.2            1 S1                 0.0000
      8 ****        -0.9564  -0.0924  -3.7489 N.am           1 S1                 0.0000
      9 ****         0.4795  -0.0351  -3.4898 C.3            1 S1                 0.0000
     10 ****         0.8731  -0.2153  -2.0292 C.ar           1 S1                 0.0000
     11 ****         0.1174  -1.0164  -1.1444 C.ar           1 S1                 0.0000
     12 ****         0.5250  -1.1477   0.1990 C.ar           1 S1                 0.0000
     13 ****         1.6937  -0.4837   0.6507 C.ar           1 S1                 0.0000
     14 ****         2.1723  -0.5457   1.9775 N.3            1 S1                 0.0000
     15 ****         1.3637  -1.2398   2.9733 C.3            1 S1                 0.0000
     16 ****         1.8326  -0.8806   4.3943 C.3            1 S1                 0.0000
     17 ****         1.1016  -1.7018   5.4614 C.3            1 S1                 0.0000
     18 ****         3.2300  -1.1384   4.5167 O.3            1 S1                 0.0000
     19 ****         4.0521  -0.4286   3.5882 C.3            1 S1                 0.0000
     20 ****         4.1217   1.0771   3.9005 C.3            1 S1                 0.0000
     21 ****         3.6118  -0.7371   2.1441 C.3            1 S1                 0.0000
     22 ****         2.3879   0.2641  -0.2415 N.pl3          1 S1                 1.0000
     23 ****         2.0306   0.4185  -1.5345 C.ar           1 S1                 0.0000
     24 ****        -6.1881   1.7026  -4.5351 H              1 S1                 0.0000
     25 ****        -5.6295   0.0344  -4.6126 H              1 S1                 0.0000
     26 ****        -4.8965   1.2624  -5.6426 H              1 S1                 0.0000
     27 ****        -3.9745   2.4242  -3.6506 H              1 S1                 0.0000
     28 ****        -5.2561   0.1383  -2.0543 H              1 S1                 0.0000
     29 ****        -4.0218   1.1995  -1.3984 H              1 S1                 0.0000
     30 ****        -6.0952   1.9440  -0.9366 H              1 S1                 0.0000
     31 ****        -3.2257  -0.3195  -4.2776 H              1 S1                 0.0000
     32 ****        -1.3000  -0.9007  -4.2469 H              1 S1                 0.0000
     33 ****         0.9609  -0.8205  -4.0727 H              1 S1                 0.0000
     34 ****         0.8741   0.9117  -3.8627 H              1 S1                 0.0000
     35 ****        -0.7705  -1.5288  -1.4843 H              1 S1                 0.0000
     36 ****        -0.0663  -1.7668   0.8566 H              1 S1                 0.0000
     37 ****         0.3145  -0.9614   2.8714 H              1 S1                 0.0000
     38 ****         1.4381  -2.3156   2.8079 H              1 S1                 0.0000
     39 ****         1.6348   0.1735   4.5891 H              1 S1                 0.0000
     40 ****         0.0260  -1.5282   5.4223 H              1 S1                 0.0000
     41 ****         1.4446  -1.4347   6.4614 H              1 S1                 0.0000
     42 ****         1.2737  -2.7699   5.3252 H              1 S1                 0.0000
     43 ****         5.0611  -0.8212   3.7164 H              1 S1                 0.0000
     44 ****         4.8635   1.5675   3.2697 H              1 S1                 0.0000
     45 ****         4.4101   1.2455   4.9382 H              1 S1                 0.0000
     46 ****         3.1709   1.5815   3.7305 H              1 S1                 0.0000
     47 ****         3.8446  -1.7757   1.9050 H              1 S1                 0.0000
     48 ****         4.1889  -0.1204   1.4551 H              1 S1                 0.0000
     49 ****         2.6771   1.0482  -2.1288 H              1 S1                 0.0000
     50 ****         3.2268   0.7450   0.0837 H              1 S1                 0.0000
     51 ****        -6.5508   2.0520  -2.4567 LP             1 S1                 0.0000
     52 ****        -5.3767   3.0192  -1.8627 LP             1 S1                 0.0000
     53 ****        -2.2365   2.5552  -2.5610 LP             1 S1                 0.0000
     54 ****        -0.5787   2.0540  -2.5415 LP             1 S1                 0.0000
     55 ****         2.0168   0.4117   2.2208 LP             1 S1                 0.0000
     56 ****         3.3792  -2.1176   4.3795 LP             1 S1                 0.0000
     57 ****         3.5137  -0.8844   5.4414 LP             1 S1                 0.0000
@<TRIPOS>BOND
    1    1    2 1     
    2    1   24 1     
    3    1   25 1     
    4    1   26 1     
    5    2    3 1     
    6    2    5 1     
    7    2   27 1     
    8    3    4 1     
    9    3   28 1     
   10    3   29 1     
   11    4   30 1     
   12    5    6 am    
   13    5   31 1     
   14    6    7 2     
   15    6    8 am    
   16    8    9 1     
   17    8   32 1     
   18    9   10 1     
   19    9   33 1     
   20    9   34 1     
   21   10   23 ar    
   22   10   11 ar    
   23   11   12 ar    
   24   11   35 1     
   25   12   13 ar    
   26   12   36 1     
   27   13   14 1     
   28   13   22 ar    
   29   14   21 1     
   30   14   15 1     
   31   15   16 1     
   32   15   37 1     
   33   15   38 1     
   34   16   17 1     
   35   16   18 1     
   36   16   39 1     
   37   17   40 1     
   38   17   41 1     
   39   17   42 1     
   40   18   19 1     
   41   19   20 1     
   42   19   21 1     
   43   19   43 1     
   44   20   44 1     
   45   20   45 1     
   46   20   46 1     
   47   21   47 1     
   48   21   48 1     
   49   22   23 ar    
   50   22   50 1     
   51   23   49 1     
   52    4   51 1     
   53    4   52 1     
   54    7   53 1     
   55    7   54 1     
   56   14   55 1     
   57   18   56 1     
   58   18   57 1     
@<TRIPOS>SUBSTRUCTURE
      1 S1             1
@<TRIPOS>SET
LONE_PAIRS      STATIC     ATOMS    <user>   **** ""
7 51 52 53 54 55 56 57
DONOR_HYDROGENS      STATIC     ATOMS    <user>   **** ""
4 30 31 32 50
ATOM$BLUE        STATIC     ATOMS    COLORGROUP SYSTEM
7 51 52 53 54 55 56 57
ATOM$RED        STATIC     ATOMS    COLORGROUP SYSTEM
4 30 31 32 50
