#       Name:                AV-unprocessed.smi:2171
#       Creating user name   scv26
#       Creation time:       Fri Mar 27 12:02:28 2020


#       File generated by GOLD software.
#

@<TRIPOS>MOLECULE
AV-unprocessed.smi:2171
    42    44     1
SMALL
NO_CHARGES


@<TRIPOS>ATOM
      1 ****        -0.1097   2.9200  -0.4645 O.2            1 S1                 0.0000
      2 ****         0.6846   2.1353   0.0524 C.2            1 S1                 0.0000
      3 ****         2.1481   2.5440   0.2431 C.3            1 S1                 0.0000
      4 ****         2.5698   2.4238   1.6288 N.pl3          1 S1                 0.0000
      5 ****         3.3084   1.4171   2.2158 C.2            1 S1                 0.0000
      6 ****         3.4502   1.7336   3.5364 C.2            1 S1                 0.0000
      7 ****         2.7579   2.9702   3.6642 C.2            1 S1                 0.0000
      8 ****         2.2328   3.3810   2.5213 N.2            1 S1                 0.0000
      9 ****         0.3420   0.9011   0.4566 N.am           1 S1                 0.0000
     10 ****        -1.0057   0.3380   0.4076 C.3            1 S1                 0.0000
     11 ****        -1.2591  -0.7008   1.5171 C.3            1 S1                 0.0000
     12 ****        -2.0557  -1.8153   0.8312 C.3            1 S1                 0.0000
     13 ****        -1.5246  -1.8051  -0.5368 N.4            1 S1                 1.0000
     14 ****        -2.2285  -2.5874  -1.5728 C.3            1 S1                 0.0000
     15 ****        -1.3794  -2.5650  -2.8620 C.3            1 S1                 0.0000
     16 ****        -1.0029  -1.1284  -3.2911 C.3            1 S1                 0.0000
     17 ****        -0.3918  -0.3206  -2.1253 C.3            1 S1                 0.0000
     18 ****        -1.3400  -0.3931  -0.9146 C.3            1 S1                 0.0000
     19 ****         2.7854   1.9137  -0.3782 H              1 S1                 0.0000
     20 ****         2.2977   3.5742  -0.0845 H              1 S1                 0.0000
     21 ****         3.6665   0.5683   1.6518 H              1 S1                 0.0000
     22 ****         3.9710   1.1691   4.2957 H              1 S1                 0.0000
     23 ****         2.6225   3.5772   4.5472 H              1 S1                 0.0000
     24 ****         1.0634   0.3247   0.8655 H              1 S1                 0.0000
     25 ****        -1.7274   1.1465   0.5416 H              1 S1                 0.0000
     26 ****        -0.3129  -1.1065   1.8796 H              1 S1                 0.0000
     27 ****        -1.7854  -0.2804   2.3748 H              1 S1                 0.0000
     28 ****        -1.9261  -2.7845   1.3137 H              1 S1                 0.0000
     29 ****        -3.1198  -1.5738   0.8164 H              1 S1                 0.0000
     30 ****        -2.3657  -3.6136  -1.2304 H              1 S1                 0.0000
     31 ****        -3.2204  -2.1695  -1.7509 H              1 S1                 0.0000
     32 ****        -0.4652  -3.1368  -2.6965 H              1 S1                 0.0000
     33 ****        -1.9127  -3.0683  -3.6690 H              1 S1                 0.0000
     34 ****        -0.3079  -1.1582  -4.1306 H              1 S1                 0.0000
     35 ****        -1.8968  -0.6177  -3.6519 H              1 S1                 0.0000
     36 ****         0.5894  -0.7207  -1.8662 H              1 S1                 0.0000
     37 ****        -0.2433   0.7144  -2.4347 H              1 S1                 0.0000
     38 ****        -2.3126  -0.0114  -1.2333 H              1 S1                 0.0000
     39 ****        -0.5964  -2.1968  -0.4659 H              1 S1                 0.0000
     40 ****         0.2006   3.8237  -0.7597 LP             1 S1                 0.0000
     41 ****        -1.0656   2.6541  -0.5895 LP             1 S1                 0.0000
     42 ****         1.7046   4.2137   2.3550 LP             1 S1                 0.0000
@<TRIPOS>BOND
    1    1    2 2     
    2    2    3 1     
    3    2    9 am    
    4    3    4 1     
    5    3   19 1     
    6    3   20 1     
    7    4    8 1     
    8    4    5 1     
    9    5    6 2     
   10    5   21 1     
   11    6    7 1     
   12    6   22 1     
   13    7    8 2     
   14    7   23 1     
   15    9   10 1     
   16    9   24 1     
   17   10   18 1     
   18   10   11 1     
   19   10   25 1     
   20   11   12 1     
   21   11   26 1     
   22   11   27 1     
   23   12   13 1     
   24   12   28 1     
   25   12   29 1     
   26   13   18 1     
   27   13   14 1     
   28   13   39 1     
   29   14   15 1     
   30   14   30 1     
   31   14   31 1     
   32   15   16 1     
   33   15   32 1     
   34   15   33 1     
   35   16   17 1     
   36   16   34 1     
   37   16   35 1     
   38   17   18 1     
   39   17   36 1     
   40   17   37 1     
   41   18   38 1     
   42    1   40 1     
   43    1   41 1     
   44    8   42 1     
@<TRIPOS>SUBSTRUCTURE
      1 S1             1
@<TRIPOS>SET
LONE_PAIRS      STATIC     ATOMS    <user>   **** ""
3 40 41 42
DONOR_HYDROGENS      STATIC     ATOMS    <user>   **** ""
2 24 39
ATOM$BLUE        STATIC     ATOMS    COLORGROUP SYSTEM
3 40 41 42
ATOM$RED        STATIC     ATOMS    COLORGROUP SYSTEM
2 24 39
