AV-unprocessed.smi:103|AV-procd|sdf|982|dock6
  -GOLD-   2262017543D 1   1.00000     0.00000
 Structure written by MMmdl.
 53 55  0  0  0  0  0  0  0  0  1 V2000
  146.9864  141.5399  153.8390 C   0  0  0  0  0  0  0  0  0  0  0  0
  146.8375  140.4101  154.8493 C   0  0  0  0  0  0  0  0  0  0  0  0
  145.9878  140.4542  155.7391 O   0  0  0  0  0  0  0  0  0  0  0  0
  147.7159  139.4162  154.6386 O   0  0  0  0  0  0  0  0  0  0  0  0
  147.7617  138.3066  155.5228 C   0  0  0  0  0  0  0  0  0  0  0  0
  148.3706  138.7490  156.8644 C   0  0  1  0  0  0  0  0  0  0  0  0
  147.8713  137.8596  157.8645 O   0  0  0  0  0  0  0  0  0  0  0  0
  148.9241  137.2581  158.5434 C   0  0  1  0  0  0  0  0  0  0  0  0
  148.5480  135.8517  158.8846 N   0  0  0  0  0  0  0  0  0  0  0  0
  147.9801  135.3432  160.0360 C   0  0  0  0  0  0  0  0  0  0  0  0
  147.4728  136.2758  161.4759 S   0  0  0  0  0  0  0  0  0  0  0  0
  146.8287  134.9496  162.5743 C   0  0  0  0  0  0  0  0  0  0  0  0
  148.6912  136.8496  162.0682 O   0  0  0  0  0  0  0  0  0  0  0  0
  146.3620  137.1471  161.0637 O   0  0  0  0  0  0  0  0  0  0  0  0
  147.6888  134.0705  160.0322 N   0  0  0  0  0  0  0  0  0  0  0  0
  148.1522  133.6449  158.7955 C   0  0  0  0  0  0  0  0  0  0  0  0
  148.1838  132.3924  158.1320 C   0  0  0  0  0  0  0  0  0  0  0  0
  147.7038  131.2649  158.6748 N   0  0  0  0  0  0  0  0  0  0  0  0
  148.7215  132.3308  156.8914 N   0  0  0  0  0  0  0  0  0  0  0  0
  149.2054  133.4421  156.3273 C   0  0  0  0  0  0  0  0  0  0  0  0
  149.2434  134.6809  156.8237 N   0  0  0  0  0  0  0  0  0  0  0  0
  148.7001  134.7441  158.0741 C   0  0  0  0  0  0  0  0  0  0  0  0
  150.1255  137.2927  157.6117 C   0  0  2  0  0  0  0  0  0  0  0  0
  151.3243  137.2735  158.3721 O   0  0  0  0  0  0  0  0  0  0  0  0
  152.4968  136.9985  157.7800 C   0  0  0  0  0  0  0  0  0  0  0  0
  153.6732  137.1335  158.7371 C   0  0  0  0  0  0  0  0  0  0  0  0
  152.6575  136.6741  156.6035 O   0  0  0  0  0  0  0  0  0  0  0  0
  149.9080  138.6329  156.9355 C   0  0  1  0  0  0  0  0  0  0  0  0
  150.5444  138.6372  155.6631 O   0  0  0  0  0  0  0  0  0  0  0  0
  151.7882  139.1260  155.5295 C   0  0  0  0  0  0  0  0  0  0  0  0
  152.3829  138.8287  154.1597 C   0  0  0  0  0  0  0  0  0  0  0  0
  152.4156  139.7547  156.3816 O   0  0  0  0  0  0  0  0  0  0  0  0
  148.0379  141.7110  153.6075 H   0  0  0  0  0  0  0  0  0  0  0  0
  146.5666  142.4643  154.2362 H   0  0  0  0  0  0  0  0  0  0  0  0
  146.4633  141.2908  152.9156 H   0  0  0  0  0  0  0  0  0  0  0  0
  146.7739  137.8767  155.6890 H   0  0  0  0  0  0  0  0  0  0  0  0
  148.3742  137.5322  155.0607 H   0  0  0  0  0  0  0  0  0  0  0  0
  148.0667  139.7717  157.0898 H   0  0  0  0  0  0  0  0  0  0  0  0
  149.0781  137.7824  159.4851 H   0  0  0  0  0  0  0  0  0  0  0  0
  146.4857  135.3894  163.5103 H   0  0  0  0  0  0  0  0  0  0  0  0
  147.6232  134.2323  162.7798 H   0  0  0  0  0  0  0  0  0  0  0  0
  145.9989  134.4397  162.0860 H   0  0  0  0  0  0  0  0  0  0  0  0
  147.2961  131.2854  159.5987 H   0  0  0  0  0  0  0  0  0  0  0  0
  147.7520  130.3974  158.1605 H   0  0  0  0  0  0  0  0  0  0  0  0
  149.6181  133.3236  155.3361 H   0  0  0  0  0  0  0  0  0  0  0  0
  150.0468  136.4692  156.8995 H   0  0  0  0  0  0  0  0  0  0  0  0
  153.4551  136.6323  159.6804 H   0  0  0  0  0  0  0  0  0  0  0  0
  153.8750  138.1851  158.9413 H   0  0  0  0  0  0  0  0  0  0  0  0
  154.5696  136.6859  158.3077 H   0  0  0  0  0  0  0  0  0  0  0  0
  150.3011  139.4174  157.5852 H   0  0  0  0  0  0  0  0  0  0  0  0
  152.1958  137.7918  153.8801 H   0  0  0  0  0  0  0  0  0  0  0  0
  153.4601  138.9955  154.1656 H   0  0  0  0  0  0  0  0  0  0  0  0
  151.9359  139.4771  153.4061 H   0  0  0  0  0  0  0  0  0  0  0  0
  1  2  1  0  0  0  0
  1 33  1  0  0  0  0
  1 34  1  0  0  0  0
  1 35  1  0  0  0  0
  2  3  2  0  0  0  0
  2  4  1  0  0  0  0
  4  5  1  0  0  0  0
  5  6  1  0  0  0  0
  5 36  1  0  0  0  0
  5 37  1  0  0  0  0
  6 28  1  0  0  0  0
  6  7  1  0  0  0  0
  6 38  1  0  0  0  0
  7  8  1  0  0  0  0
  8  9  1  0  0  0  0
  8 23  1  0  0  0  0
  8 39  1  0  0  0  0
  9 22  1  0  0  0  0
  9 10  1  0  0  0  0
 10 11  1  0  0  0  0
 10 15  2  0  0  0  0
 11 12  1  0  0  0  0
 11 13  2  0  0  0  0
 11 14  2  0  0  0  0
 12 40  1  0  0  0  0
 12 41  1  0  0  0  0
 12 42  1  0  0  0  0
 15 16  1  0  0  0  0
 16 22  2  0  0  0  0
 16 17  1  0  0  0  0
 17 18  1  0  0  0  0
 17 19  2  0  0  0  0
 18 43  1  0  0  0  0
 18 44  1  0  0  0  0
 19 20  1  0  0  0  0
 20 21  2  0  0  0  0
 20 45  1  0  0  0  0
 21 22  1  0  0  0  0
 23 24  1  0  0  0  0
 23 28  1  0  0  0  0
 23 46  1  0  0  0  0
 24 25  1  0  0  0  0
 25 26  1  0  0  0  0
 25 27  2  0  0  0  0
 26 47  1  0  0  0  0
 26 48  1  0  0  0  0
 26 49  1  0  0  0  0
 28 29  1  0  0  0  0
 28 50  1  0  0  0  0
 29 30  1  0  0  0  0
 30 31  1  0  0  0  0
 30 32  2  0  0  0  0
 31 51  1  0  0  0  0
 31 52  1  0  0  0  0
 31 53  1  0  0  0  0
M  END
> <s_m_source_file>
AV-unprocessed.smi

> <i_m_source_file_index>
103

> <i_lp_mmshare_version>
43012

> <i_f3d_flags>
0

> <s_epik_input>
W0NIM11DKD1PKU9bQ0gyXVtDQEBIXTFPW0NASF0oW0NAQEhdKE9DKD1PKVtDSDNdKVtDQEhdMU9DKD1PKVtDSDNdKW4oYyhuMilTKD1PKSg9TylbQ0gzXSljKGMyMyluW2NIXW5jM1tOSDJd

> <s_epik_cmdline>
J2VwaWtfcHl0aG9uJywgJy1waCcsICc3LjAnLCAnLXRuJywgJzgnLCAnLW1hJywgJzIwMCcsICctbWV0YWxfYmluZGluZycsICctaW1hZScsICc8aW5maWxlLm1hZT4nLCAnLW9tYWUnLCAnPG91dGZpbGUubWFlPic=

> <r_lp_tautomer_probability>
1

> <r_epik_Ionization_Penalty>
1.51338e-05

> <r_epik_Ionization_Penalty_Charging>
0

> <r_epik_Ionization_Penalty_Neutral>
1.51338e-05

> <r_epik_State_Penalty>
-0

> <r_epik_Charging_Adjusted_Penalty>
0

> <i_epik_Tot_Q>
0

> <i_epik_Tot_abs_Q>
0

> <r_epik_Metal_State_Penalty>
-0

> <b_epik_Metal_Only>
0

> <s_epik_Chemistry_Notes>
This compound has an ester and may undergo hydrolysis at high or low pH. This compound contains an acetal/aminal-like group ( X-CH(R)-Y where X, Y are N, S, or O) that may be acid/base labile, releasing an aldehyde.

> <s_lp_Force_Field>
OPLS_2005

> <r_lp_Energy>
15.9567

> <b_lp_Chiralities_Consistent>
1

> <s_lp_Variant>
AV-unprocessed.smi:103-6

> <Gold.Version>
5.8.1

> <Gold.Id.Protein>
6NUR|6NUR_protein|mol2

> <Gold.PLP.Fitness>
39.3611

> <Gold.PLP.PLP>
-31.4322

> <Gold.PLP.part.hbond>
-4.1170

> <Gold.PLP.part.metal>
0.0000

> <Gold.PLP.part.buried>
-5.8564

> <Gold.PLP.part.nonpolar>
-22.0164

> <Gold.PLP.part.repulsive>
0.1449

> <Gold.PLP.ligand.clash>
0.0000

> <Gold.PLP.ligand.torsion>
3.0514

> <Gold.PLP.Chemscore.Hbond>
3.9500

> <Gold.PLP.Chemscore.CHOScore>
0.0000

> <Gold.PLP.Chemscore.Metal>
0.0000

> <Gold.Chemscore.Hbonds>
donor molecule, donor type, donor heavy atom, donor atom, acceptor molecule, acceptor atom, score
      P1  H  6931  6943       L1    13  0.76
      P1  H  6934  6947       L1    14  0.96
      P1  H  7997  8008       L1    32  1.00
      P1  H 10752 10764       L1    27  0.99

> <Gold.PLP.Chemscore.Internal.Correction>
2.1817

> <Gold.Rescore>
     Score         DG    S(hbond)    S(metal)    S(lipo)     H(rot)  DE(clash)    DE(int)     intcor
      6.58     -11.39       3.63        0.00      39.68       4.25       0.10       4.70       ----

> <Gold.Chemscore.Fitness>
6.5850

> <Gold.Chemscore.DG>
-11.3893

> <Gold.Chemscore.ZeroCoef>
-5.4800

> <Gold.Chemscore.Hbond>
3.6333

> <Gold.Chemscore.Metal>
0.0000

> <Gold.Chemscore.Lipo>
39.6808

> <Gold.Chemscore.Internal_Hbond>
0.0000

> <Gold.Chemscore.DEClash>
0.1024

> <Gold.Chemscore.DEInternal>
4.7019

> <Gold.Chemscore.Rot>
4.2456

> <Gold.Chemscore.Internal.Correction>
   9.000000E+99

> <Gold.Chemscore.Hbonds>
donor molecule, donor type, donor heavy atom, donor atom, acceptor molecule, acceptor atom, score
      P1  H  6931  6943       L1    13  0.76
      P1  H  6934  6947       L1    14  0.50
      P1  H  7997  8008       L1    32  0.99
      P1  H 10752 10764       L1    27  0.91

> <Gold.Chemscore.Hbond.Weighted>
-12.1353

> <Gold.Chemscore.Metal.Weighted>
-0.0000

> <Gold.Chemscore.Lipo.Weighted>
-4.6427

> <Gold.Chemscore.Internal_Hbond.Weighted>
0.0000

> <Gold.Chemscore.DEClash.Weighted>
0.1024

> <Gold.Chemscore.DEInternal.Weighted>
4.7019

> <Gold.Chemscore.Rot.Weighted>
10.8687

> <Gold.Chemscore.Internal.Correction.Weighted>
   9.000000E+99

> <Gold.Protein.RotatedTorsions>
[ 6907 6896 6895 6894 ] final  -52.71 input  -60.11 | X-H torsion
[ 7974 7965 7964 7962 ] final  100.11 input  175.53 | X-H torsion
[ 8008 7997 7996 7995 ] final  -46.35 input   59.86 | X-H torsion
[ 10167 10162 10161 10158 ] final -148.13 input  -65.29 | X-H torsion
[ 10718 10713 10712 10709 ] final  139.04 input   66.30 | X-H torsion
[ 10763 10752 10751 10750 ] final   -3.40 input  -60.55 | X-H torsion
[ 11005 11000 10999 10996 ] final   15.63 input  -57.11 | X-H torsion

> <Gold.Protein.ActiveResidues>
 VAL166  LYS551  ARG553  GLY616  TRP617  ASP618  TYR619  PRO620  LYS621  CYS622 
 ASP623  PHE694  ASN695  SER759  ASP760  ASP761  ALA762  ILE779  LEU786  VAL792 
 PHE793  MET794  SER795  GLU796  ALA797  LYS798  CYS799  TRP800  GLU811  SER814 

> <Gold.Protein.RotatedAtoms>
  150.8492  134.7812  159.6995 H   0  0  0  0  0  0  0  0  0  0  0  0  # atno 6907 bound_to 6896
  152.4561  134.5284  159.9813 H   0  0  0  0  0  0  0  0  0  0  0  0  # atno 6908 bound_to 6896
  151.5408  133.3395  159.2971 H   0  0  0  0  0  0  0  0  0  0  0  0  # atno 6909 bound_to 6896
  145.3899  139.2365  143.3357 H   0  0  0  0  0  0  0  0  0  0  0  0  # atno 7974 bound_to 7965
  154.4007  140.1374  156.3997 H   0  0  0  0  0  0  0  0  0  0  0  0  # atno 8008 bound_to 7997
  155.7836  140.3481  155.5290 H   0  0  0  0  0  0  0  0  0  0  0  0  # atno 8009 bound_to 7997
  155.8649  140.0962  157.1579 H   0  0  0  0  0  0  0  0  0  0  0  0  # atno 8010 bound_to 7997
  139.7559  143.8448  152.2597 H   0  0  0  0  0  0  0  0  0  0  0  0  # atno 10167 bound_to 10162
  157.4187  131.1036  151.0376 H   0  0  0  0  0  0  0  0  0  0  0  0  # atno 10718 bound_to 10713
  153.3709  135.6994  153.6638 H   0  0  0  0  0  0  0  0  0  0  0  0  # atno 10763 bound_to 10752
  153.5289  135.3596  155.2667 H   0  0  0  0  0  0  0  0  0  0  0  0  # atno 10764 bound_to 10752
  154.8681  135.4176  154.2987 H   0  0  0  0  0  0  0  0  0  0  0  0  # atno 10765 bound_to 10752
  140.4561  134.1174  155.7709 H   0  0  0  0  0  0  0  0  0  0  0  0  # atno 11005 bound_to 11000
  146.2802  140.4580  142.8779 LP  0  0  0  0  0  0  0  0  0  0  0  0  # atno 17320 bound_to 7965
  144.8447  140.6911  143.6206 LP  0  0  0  0  0  0  0  0  0  0  0  0  # atno 17321 bound_to 7965
  139.8440  144.7196  150.9295 LP  0  0  0  0  0  0  0  0  0  0  0  0  # atno 17342 bound_to 10162
  140.7802  143.3958  151.1233 LP  0  0  0  0  0  0  0  0  0  0  0  0  # atno 17343 bound_to 10162
  157.1315  130.6104  149.5530 LP  0  0  0  0  0  0  0  0  0  0  0  0  # atno 17370 bound_to 10713
  155.9873  130.4912  150.7121 LP  0  0  0  0  0  0  0  0  0  0  0  0  # atno 17371 bound_to 10713
  141.1642  133.8735  157.1762 LP  0  0  0  0  0  0  0  0  0  0  0  0  # atno 17394 bound_to 11000
  139.9975  135.0041  157.0115 LP  0  0  0  0  0  0  0  0  0  0  0  0  # atno 17395 bound_to 11000

$$$$
