AV-unprocessed.smi:3335|AV-procd|sdf|12840|dock1
  -GOLD-   2272019223D 1   1.00000     0.00000
 Structure written by MMmdl.
 47 48  0  0  0  0  0  0  0  0  2 V2000
  142.0412  142.2584  157.0594 C   0  0  0  0  0  0  0  0  0  0  0  0
  143.5089  142.1161  156.7779 C   0  0  0  0  0  0  0  0  0  0  0  0
  144.5758  142.0274  157.7155 C   0  0  0  0  0  0  0  0  0  0  0  0
  145.7574  141.8957  157.1359 N   0  0  0  0  0  0  0  0  0  0  0  0
  145.4946  141.9099  155.8095 N   0  0  0  0  0  0  0  0  0  0  0  0
  146.5640  141.7412  154.8277 C   0  0  1  0  0  0  0  0  0  0  0  0
  146.7247  142.9825  153.9273 C   0  0  0  0  0  0  0  0  0  0  0  0
  147.9005  141.2865  155.4746 C   0  0  1  0  0  0  0  0  0  0  0  0
  149.0163  140.9845  154.4510 C   0  0  0  0  0  0  0  0  0  0  0  0
  148.3345  142.3137  156.4549 N   0  3  0  0  0  0  0  0  0  0  0  0
  149.4826  141.9992  157.3416 C   0  0  2  0  0  0  0  0  0  0  0  0
  149.3946  140.5629  157.8931 C   0  0  0  0  0  0  0  0  0  0  0  0
  149.5253  143.0048  158.5081 C   0  0  0  0  0  0  0  0  0  0  0  0
  148.5371  143.1112  159.2368 O   0  0  0  0  0  0  0  0  0  0  0  0
  150.6431  143.7345  158.7162 N   0  0  0  0  0  0  0  0  0  0  0  0
  150.8524  144.7249  159.7734 C   0  0  0  0  0  0  0  0  0  0  0  0
  152.1577  145.4381  159.4206 C   0  0  0  0  0  0  0  0  0  0  0  0
  152.9278  144.4150  158.5988 C   0  0  0  0  0  0  0  0  0  0  0  0
  151.8377  143.6205  157.8804 C   0  0  0  0  0  0  0  0  0  0  0  0
  144.1412  142.0362  155.5702 C   0  0  0  0  0  0  0  0  0  0  0  0
  141.8210  142.1648  158.1231 H   0  0  0  0  0  0  0  0  0  0  0  0
  141.4567  141.4965  156.5435 H   0  0  0  0  0  0  0  0  0  0  0  0
  141.6624  143.2283  156.7369 H   0  0  0  0  0  0  0  0  0  0  0  0
  144.5257  142.0468  158.7942 H   0  0  0  0  0  0  0  0  0  0  0  0
  146.2402  140.9403  154.1602 H   0  0  0  0  0  0  0  0  0  0  0  0
  147.4613  142.8035  153.1437 H   0  0  0  0  0  0  0  0  0  0  0  0
  147.0459  143.8624  154.4842 H   0  0  0  0  0  0  0  0  0  0  0  0
  145.7829  143.2309  153.4370 H   0  0  0  0  0  0  0  0  0  0  0  0
  147.6870  140.3704  156.0242 H   0  0  0  0  0  0  0  0  0  0  0  0
  148.6662  140.3170  153.6643 H   0  0  0  0  0  0  0  0  0  0  0  0
  149.8674  140.4891  154.9165 H   0  0  0  0  0  0  0  0  0  0  0  0
  149.3850  141.8932  153.9746 H   0  0  0  0  0  0  0  0  0  0  0  0
  148.5673  143.1484  155.9354 H   0  0  0  0  0  0  0  0  0  0  0  0
  150.3949  142.1088  156.7592 H   0  0  0  0  0  0  0  0  0  0  0  0
  150.1734  140.3687  158.6315 H   0  0  0  0  0  0  0  0  0  0  0  0
  149.5202  139.8207  157.1054 H   0  0  0  0  0  0  0  0  0  0  0  0
  148.4339  140.3793  158.3755 H   0  0  0  0  0  0  0  0  0  0  0  0
  150.0294  145.4358  159.8524 H   0  0  0  0  0  0  0  0  0  0  0  0
  150.9518  144.2088  160.7294 H   0  0  0  0  0  0  0  0  0  0  0  0
  151.9424  146.3120  158.8042 H   0  0  0  0  0  0  0  0  0  0  0  0
  152.7078  145.7760  160.2992 H   0  0  0  0  0  0  0  0  0  0  0  0
  153.6413  144.8719  157.9122 H   0  0  0  0  0  0  0  0  0  0  0  0
  153.4821  143.7541  159.2665 H   0  0  0  0  0  0  0  0  0  0  0  0
  152.1391  142.5823  157.7317 H   0  0  0  0  0  0  0  0  0  0  0  0
  151.6290  144.0564  156.9021 H   0  0  0  0  0  0  0  0  0  0  0  0
  143.7406  142.0530  154.5672 H   0  0  0  0  0  0  0  0  0  0  0  0
  147.5482  142.5301  157.0510 H   0  0  0  0  0  0  0  0  0  0  0  0
  1  2  1  0  0  0  0
  1 21  1  0  0  0  0
  1 22  1  0  0  0  0
  1 23  1  0  0  0  0
  2 20  2  0  0  0  0
  2  3  1  0  0  0  0
  3  4  2  0  0  0  0
  3 24  1  0  0  0  0
  4  5  1  0  0  0  0
  5  6  1  0  0  0  0
  5 20  1  0  0  0  0
  6  7  1  0  0  0  0
  6  8  1  0  0  0  0
  6 25  1  0  0  0  0
  7 26  1  0  0  0  0
  7 27  1  0  0  0  0
  7 28  1  0  0  0  0
  8  9  1  0  0  0  0
  8 10  1  0  0  0  0
  8 29  1  0  0  0  0
  9 30  1  0  0  0  0
  9 31  1  0  0  0  0
  9 32  1  0  0  0  0
 10 11  1  0  0  0  0
 10 33  1  0  0  0  0
 10 47  1  0  0  0  0
 11 12  1  0  0  0  0
 11 13  1  0  0  0  0
 11 34  1  0  0  0  0
 12 35  1  0  0  0  0
 12 36  1  0  0  0  0
 12 37  1  0  0  0  0
 13 14  2  0  0  0  0
 13 15  1  0  0  0  0
 15 19  1  0  0  0  0
 15 16  1  0  0  0  0
 16 17  1  0  0  0  0
 16 38  1  0  0  0  0
 16 39  1  0  0  0  0
 17 18  1  0  0  0  0
 17 40  1  0  0  0  0
 17 41  1  0  0  0  0
 18 19  1  0  0  0  0
 18 42  1  0  0  0  0
 18 43  1  0  0  0  0
 19 44  1  0  0  0  0
 19 45  1  0  0  0  0
 20 46  1  0  0  0  0
M  CHG  1  10   1
M  END
> <s_m_source_file>
AV-unprocessed.smi

> <i_m_source_file_index>
3335

> <i_lp_mmshare_version>
43012

> <i_f3d_flags>
0

> <s_epik_input>
W0NIM11jMVtjSF1ubihbY0hdMSlbQ0BIXShbQ0gzXSlbQ0BIXShbQ0gzXSlbTkhdW0NASF0oW0NIM10pQyg9TylOMltDSDJdW0NIMl1bQ0gyXVtDSDJdMg==

> <s_epik_cmdline>
J2VwaWtfcHl0aG9uJywgJy1waCcsICc3LjAnLCAnLXRuJywgJzgnLCAnLW1hJywgJzIwMCcsICctbWV0YWxfYmluZGluZycsICctaW1hZScsICc8aW5maWxlLm1hZT4nLCAnLW9tYWUnLCAnPG91dGZpbGUubWFlPic=

> <r_lp_tautomer_probability>
1

> <r_epik_Ionization_Penalty>
0.14175

> <r_epik_Ionization_Penalty_Charging>
0.141731

> <r_epik_Ionization_Penalty_Neutral>
1.91261e-05

> <r_epik_State_Penalty>
0.131043

> <r_epik_Charging_Adjusted_Penalty>
0.272773

> <i_epik_Tot_Q>
1

> <i_epik_Tot_abs_Q>
1

> <r_epik_Metal_State_Penalty>
0.131408

> <b_epik_Metal_Only>
0

> <s_lp_Force_Field>
OPLS_2005

> <r_lp_Energy>
37.3946

> <b_lp_Chiralities_Consistent>
1

> <s_lp_Variant>
AV-unprocessed.smi:3335-4

> <Gold.Version>
5.8.1

> <Gold.Id.Protein>
6NUR|6NUR_protein|mol2

> <Gold.PLP.Fitness>
44.4456

> <Gold.PLP.PLP>
-35.1682

> <Gold.PLP.part.hbond>
-2.0000

> <Gold.PLP.part.metal>
0.0000

> <Gold.PLP.part.buried>
-4.8163

> <Gold.PLP.part.nonpolar>
-29.1848

> <Gold.PLP.part.repulsive>
0.1544

> <Gold.PLP.ligand.clash>
0.0000

> <Gold.PLP.ligand.torsion>
0.3801

> <Gold.PLP.Chemscore.Hbond>
2.2527

> <Gold.PLP.Chemscore.CHOScore>
1.0023

> <Gold.PLP.Chemscore.Metal>
0.0000

> <Gold.Chemscore.Hbonds>
donor molecule, donor type, donor heavy atom, donor atom, acceptor molecule, acceptor atom, score
      L1  H    10    33       P1  8028  2.00
      P1  H  6933  6944       L1    14  0.14
      L1  C    20    46       P1 10174  0.17
      L1  C    20    46       P1 10175  0.51

> <Gold.PLP.Chemscore.Internal.Correction>
0.2726

> <Gold.Rescore>
     Score         DG    S(hbond)    S(metal)    S(lipo)     H(rot)  DE(clash)    DE(int)     intcor
     15.12     -15.36       1.30        0.00      84.09       1.68       0.02       0.21       ----

> <Gold.Chemscore.Fitness>
15.1211

> <Gold.Chemscore.DG>
-15.3564

> <Gold.Chemscore.ZeroCoef>
-5.4800

> <Gold.Chemscore.Hbond>
1.2974

> <Gold.Chemscore.Metal>
0.0000

> <Gold.Chemscore.Lipo>
84.0880

> <Gold.Chemscore.Internal_Hbond>
0.0000

> <Gold.Chemscore.DEClash>
0.0244

> <Gold.Chemscore.DEInternal>
0.2109

> <Gold.Chemscore.Rot>
1.6778

> <Gold.Chemscore.Internal.Correction>
   9.000000E+99

> <Gold.Chemscore.Hbonds>
donor molecule, donor type, donor heavy atom, donor atom, acceptor molecule, acceptor atom, score
      L1  H    10    33       P1  8028  0.97
      P1  H  6933  6944       L1    14  0.15

> <Gold.Chemscore.Hbond.Weighted>
-4.3332

> <Gold.Chemscore.Metal.Weighted>
-0.0000

> <Gold.Chemscore.Lipo.Weighted>
-9.8383

> <Gold.Chemscore.Internal_Hbond.Weighted>
0.0000

> <Gold.Chemscore.DEClash.Weighted>
0.0244

> <Gold.Chemscore.DEInternal.Weighted>
0.2109

> <Gold.Chemscore.Rot.Weighted>
4.2952

> <Gold.Chemscore.Internal.Correction.Weighted>
   9.000000E+99

> <Gold.Protein.RotatedTorsions>
[ 6907 6896 6895 6894 ] final  -96.26 input  -60.11 | X-H torsion
[ 7974 7965 7964 7962 ] final -131.58 input  175.53 | X-H torsion
[ 8008 7997 7996 7995 ] final  144.76 input   59.86 | X-H torsion
[ 10167 10162 10161 10158 ] final -143.93 input  -65.29 | X-H torsion
[ 10718 10713 10712 10709 ] final -166.07 input   66.30 | X-H torsion
[ 10763 10752 10751 10750 ] final  -73.11 input  -60.55 | X-H torsion
[ 11005 11000 10999 10996 ] final  -79.29 input  -57.11 | X-H torsion

> <Gold.Protein.ActiveResidues>
 VAL166  LYS551  ARG553  GLY616  TRP617  ASP618  TYR619  PRO620  LYS621  CYS622 
 ASP623  PHE694  ASN695  SER759  ASP760  ASP761  ALA762  ILE779  LEU786  VAL792 
 PHE793  MET794  SER795  GLU796  ALA797  LYS798  CYS799  TRP800  GLU811  SER814 

> <Gold.Protein.RotatedAtoms>
  150.6984  134.1530  159.4147 H   0  0  0  0  0  0  0  0  0  0  0  0  # atno 6907 bound_to 6896
  151.9512  135.0165  160.0551 H   0  0  0  0  0  0  0  0  0  0  0  0  # atno 6908 bound_to 6896
  152.2009  133.4805  159.5094 H   0  0  0  0  0  0  0  0  0  0  0  0  # atno 6909 bound_to 6896
  144.9366  140.7190  143.4873 H   0  0  0  0  0  0  0  0  0  0  0  0  # atno 7974 bound_to 7965
  156.2900  140.2227  156.5105 H   0  0  0  0  0  0  0  0  0  0  0  0  # atno 8008 bound_to 7997
  154.7613  140.0473  157.0997 H   0  0  0  0  0  0  0  0  0  0  0  0  # atno 8009 bound_to 7997
  154.9988  140.3099  155.4879 H   0  0  0  0  0  0  0  0  0  0  0  0  # atno 8010 bound_to 7997
  139.7946  143.7918  152.2653 H   0  0  0  0  0  0  0  0  0  0  0  0  # atno 10167 bound_to 10162
  156.6626  130.9052  151.3031 H   0  0  0  0  0  0  0  0  0  0  0  0  # atno 10718 bound_to 10713
  154.4549  135.5908  153.6216 H   0  0  0  0  0  0  0  0  0  0  0  0  # atno 10763 bound_to 10752
  152.9817  135.6030  154.3558 H   0  0  0  0  0  0  0  0  0  0  0  0  # atno 10764 bound_to 10752
  154.3424  135.2841  155.2394 H   0  0  0  0  0  0  0  0  0  0  0  0  # atno 10765 bound_to 10752
  141.1667  133.7099  156.8100 H   0  0  0  0  0  0  0  0  0  0  0  0  # atno 11005 bound_to 11000
  145.3057  139.1835  143.4665 LP  0  0  0  0  0  0  0  0  0  0  0  0  # atno 17320 bound_to 7965
  146.3269  140.3055  142.8623 LP  0  0  0  0  0  0  0  0  0  0  0  0  # atno 17321 bound_to 7965
  139.8019  144.7370  150.9813 LP  0  0  0  0  0  0  0  0  0  0  0  0  # atno 17342 bound_to 10162
  140.7820  143.4336  151.0657 LP  0  0  0  0  0  0  0  0  0  0  0  0  # atno 17343 bound_to 10162
  157.7104  130.9434  150.1072 LP  0  0  0  0  0  0  0  0  0  0  0  0  # atno 17370 bound_to 10713
  156.1999  130.3659  149.8801 LP  0  0  0  0  0  0  0  0  0  0  0  0  # atno 17371 bound_to 10713
  140.2194  134.8768  157.3361 LP  0  0  0  0  0  0  0  0  0  0  0  0  # atno 17394 bound_to 11000
  140.2003  134.4262  155.7666 LP  0  0  0  0  0  0  0  0  0  0  0  0  # atno 17395 bound_to 11000

$$$$
