AV-unprocessed.smi:3303|AV-procd|sdf|12696|dock2
  -GOLD-   2272019 33D 1   1.00000     0.00000
 Structure written by MMmdl.
 44 45  0  0  0  0  0  0  0  0  2 V2000
  151.2273  137.8737  155.1669 C   0  0  0  0  0  0  0  0  0  0  0  0
  150.4885  139.1024  154.6078 C   0  0  1  0  0  0  0  0  0  0  0  0
  149.0930  138.6909  154.0975 C   0  0  0  0  0  0  0  0  0  0  0  0
  148.3349  139.8397  153.5380 N   0  3  1  0  0  0  0  0  0  0  0  0
  147.0704  139.3857  152.9098 C   0  0  0  0  0  0  0  0  0  0  0  0
  148.1590  140.9296  154.5429 C   0  0  2  0  0  0  0  0  0  0  0  0
  147.3834  142.1386  153.9831 C   0  0  0  0  0  0  0  0  0  0  0  0
  149.5338  141.3938  155.0612 C   0  0  0  0  0  0  0  0  0  0  0  0
  150.3572  140.2361  155.6484 C   0  0  2  0  0  0  0  0  0  0  0  0
  151.6732  140.7674  155.9846 N   0  0  0  0  0  0  0  0  0  0  0  0
  151.7945  141.0112  157.4138 C   0  0  0  0  0  0  0  0  0  0  0  0
  151.3228  142.4357  157.7357 C   0  0  0  0  0  0  0  0  0  0  0  0
  151.8032  142.9044  159.0958 C   0  0  0  0  0  0  0  0  0  0  0  0
  152.6266  142.0808  159.8932 C   0  0  0  0  0  0  0  0  0  0  0  0
  153.0435  142.5640  161.1486 C   0  0  0  0  0  0  0  0  0  0  0  0
  152.6224  143.8443  161.5569 C   0  0  0  0  0  0  0  0  0  0  0  0
  151.7987  144.5876  160.6881 C   0  0  0  0  0  0  0  0  0  0  0  0
  151.3935  144.1338  159.4822 N   0  0  0  0  0  0  0  0  0  0  0  0
  150.7244  137.4744  156.0484 H   0  0  0  0  0  0  0  0  0  0  0  0
  152.2518  138.1167  155.4497 H   0  0  0  0  0  0  0  0  0  0  0  0
  151.2806  137.0765  154.4249 H   0  0  0  0  0  0  0  0  0  0  0  0
  151.0584  139.4756  153.7549 H   0  0  0  0  0  0  0  0  0  0  0  0
  149.2071  137.9278  153.3262 H   0  0  0  0  0  0  0  0  0  0  0  0
  148.5148  138.2366  154.9042 H   0  0  0  0  0  0  0  0  0  0  0  0
  146.3526  139.0617  153.6645 H   0  0  0  0  0  0  0  0  0  0  0  0
  147.2513  138.5494  152.2337 H   0  0  0  0  0  0  0  0  0  0  0  0
  146.6142  140.1742  152.3120 H   0  0  0  0  0  0  0  0  0  0  0  0
  147.5918  140.5262  155.3836 H   0  0  0  0  0  0  0  0  0  0  0  0
  147.3592  142.9532  154.7075 H   0  0  0  0  0  0  0  0  0  0  0  0
  146.3453  141.8930  153.7606 H   0  0  0  0  0  0  0  0  0  0  0  0
  147.8450  142.5226  153.0727 H   0  0  0  0  0  0  0  0  0  0  0  0
  150.0850  141.8631  154.2441 H   0  0  0  0  0  0  0  0  0  0  0  0
  149.3983  142.1640  155.8221 H   0  0  0  0  0  0  0  0  0  0  0  0
  149.8465  139.8589  156.5367 H   0  0  0  0  0  0  0  0  0  0  0  0
  151.8273  141.6342  155.4894 H   0  0  0  0  0  0  0  0  0  0  0  0
  151.1900  140.2848  157.9589 H   0  0  0  0  0  0  0  0  0  0  0  0
  152.8308  140.8792  157.7268 H   0  0  0  0  0  0  0  0  0  0  0  0
  151.6789  143.1286  156.9719 H   0  0  0  0  0  0  0  0  0  0  0  0
  150.2329  142.4858  157.7126 H   0  0  0  0  0  0  0  0  0  0  0  0
  152.9329  141.1024  159.5527 H   0  0  0  0  0  0  0  0  0  0  0  0
  153.6745  141.9635  161.7871 H   0  0  0  0  0  0  0  0  0  0  0  0
  152.9223  144.2469  162.5132 H   0  0  0  0  0  0  0  0  0  0  0  0
  151.4556  145.5722  160.9694 H   0  0  0  0  0  0  0  0  0  0  0  0
  148.9023  140.2199  152.7937 H   0  0  0  0  0  0  0  0  0  0  0  0
  1  2  1  0  0  0  0
  1 19  1  0  0  0  0
  1 20  1  0  0  0  0
  1 21  1  0  0  0  0
  2  9  1  0  0  0  0
  2  3  1  0  0  0  0
  2 22  1  0  0  0  0
  3  4  1  0  0  0  0
  3 23  1  0  0  0  0
  3 24  1  0  0  0  0
  4  5  1  0  0  0  0
  4  6  1  0  0  0  0
  4 44  1  0  0  0  0
  5 25  1  0  0  0  0
  5 26  1  0  0  0  0
  5 27  1  0  0  0  0
  6  7  1  0  0  0  0
  6  8  1  0  0  0  0
  6 28  1  0  0  0  0
  7 29  1  0  0  0  0
  7 30  1  0  0  0  0
  7 31  1  0  0  0  0
  8  9  1  0  0  0  0
  8 32  1  0  0  0  0
  8 33  1  0  0  0  0
  9 10  1  0  0  0  0
  9 34  1  0  0  0  0
 10 11  1  0  0  0  0
 10 35  1  0  0  0  0
 11 12  1  0  0  0  0
 11 36  1  0  0  0  0
 11 37  1  0  0  0  0
 12 13  1  0  0  0  0
 12 38  1  0  0  0  0
 12 39  1  0  0  0  0
 13 18  1  0  0  0  0
 13 14  2  0  0  0  0
 14 15  1  0  0  0  0
 14 40  1  0  0  0  0
 15 16  2  0  0  0  0
 15 41  1  0  0  0  0
 16 17  1  0  0  0  0
 16 42  1  0  0  0  0
 17 18  2  0  0  0  0
 17 43  1  0  0  0  0
M  CHG  1   4   1
M  END
> <s_m_source_file>
AV-unprocessed.smi

> <i_m_source_file_index>
3303

> <i_lp_mmshare_version>
43012

> <i_f3d_flags>
0

> <s_epik_input>
W0NIM11bQ0BASF0xW0NIMl1OKFtDSDNdKVtDQEBIXShbQ0gzXSlbQ0gyXVtDQEhdMVtOSF1bQ0gyXVtDSDJdYzJbY0hdW2NIXVtjSF1bY0hdbjI=

> <s_epik_cmdline>
J2VwaWtfcHl0aG9uJywgJy1waCcsICc3LjAnLCAnLXRuJywgJzgnLCAnLW1hJywgJzIwMCcsICctbWV0YWxfYmluZGluZycsICctaW1hZScsICc8aW5maWxlLm1hZT4nLCAnLW9tYWUnLCAnPG91dGZpbGUubWFlPic=

> <r_epik_Ionization_Penalty>
2.31085

> <r_epik_Ionization_Penalty_Charging>
0.000313057

> <r_epik_Ionization_Penalty_Neutral>
2.31054

> <r_epik_State_Penalty>
2.4087

> <r_epik_Charging_Adjusted_Penalty>
2.40902

> <i_epik_Tot_Q>
1

> <i_epik_Tot_abs_Q>
1

> <r_epik_Metal_State_Penalty>
2.30979

> <b_epik_Metal_Only>
0

> <s_lp_Force_Field>
OPLS_2005

> <r_lp_Energy>
23.6085

> <b_lp_Chiralities_Consistent>
1

> <s_lp_Variant>
AV-unprocessed.smi:3303-40

> <Gold.Version>
5.8.1

> <Gold.Id.Protein>
6NUR|6NUR_protein|mol2

> <Gold.PLP.Fitness>
44.6468

> <Gold.PLP.PLP>
-43.3880

> <Gold.PLP.part.hbond>
-1.2538

> <Gold.PLP.part.metal>
0.0000

> <Gold.PLP.part.buried>
-4.9594

> <Gold.PLP.part.nonpolar>
-36.9423

> <Gold.PLP.part.repulsive>
0.1676

> <Gold.PLP.ligand.clash>
0.0000

> <Gold.PLP.ligand.torsion>
0.8505

> <Gold.PLP.Chemscore.Hbond>
0.9760

> <Gold.PLP.Chemscore.CHOScore>
0.0000

> <Gold.PLP.Chemscore.Metal>
0.0000

> <Gold.Chemscore.Hbonds>
donor molecule, donor type, donor heavy atom, donor atom, acceptor molecule, acceptor atom, score
      L1  H     4    44       P1  7957  0.98

> <Gold.PLP.Chemscore.Internal.Correction>
0.0318

> <Gold.Rescore>
     Score         DG    S(hbond)    S(metal)    S(lipo)     H(rot)  DE(clash)    DE(int)     intcor
     19.65     -20.30       0.99        0.00     127.48       1.33       0.14       0.52       ----

> <Gold.Chemscore.Fitness>
19.6462

> <Gold.Chemscore.DG>
-20.2997

> <Gold.Chemscore.ZeroCoef>
-5.4800

> <Gold.Chemscore.Hbond>
0.9886

> <Gold.Chemscore.Metal>
0.0000

> <Gold.Chemscore.Lipo>
127.4824

> <Gold.Chemscore.Internal_Hbond>
0.0000

> <Gold.Chemscore.DEClash>
0.1375

> <Gold.Chemscore.DEInternal>
0.5159

> <Gold.Chemscore.Rot>
1.3272

> <Gold.Chemscore.Internal.Correction>
   9.000000E+99

> <Gold.Chemscore.Hbonds>
donor molecule, donor type, donor heavy atom, donor atom, acceptor molecule, acceptor atom, score
      L1  H     4    44       P1  7957  0.93

> <Gold.Chemscore.Hbond.Weighted>
-3.3019

> <Gold.Chemscore.Metal.Weighted>
-0.0000

> <Gold.Chemscore.Lipo.Weighted>
-14.9154

> <Gold.Chemscore.Internal_Hbond.Weighted>
0.0000

> <Gold.Chemscore.DEClash.Weighted>
0.1375

> <Gold.Chemscore.DEInternal.Weighted>
0.5159

> <Gold.Chemscore.Rot.Weighted>
3.3976

> <Gold.Chemscore.Internal.Correction.Weighted>
   9.000000E+99

> <Gold.Protein.RotatedTorsions>
[ 6907 6896 6895 6894 ] final  173.69 input  -60.11 | X-H torsion
[ 7974 7965 7964 7962 ] final   85.22 input  175.53 | X-H torsion
[ 8008 7997 7996 7995 ] final   80.69 input   59.86 | X-H torsion
[ 10167 10162 10161 10158 ] final  -24.11 input  -65.29 | X-H torsion
[ 10718 10713 10712 10709 ] final  152.28 input   66.30 | X-H torsion
[ 10763 10752 10751 10750 ] final -106.86 input  -60.55 | X-H torsion
[ 11005 11000 10999 10996 ] final  142.31 input  -57.11 | X-H torsion

> <Gold.Protein.ActiveResidues>
 VAL166  LYS551  ARG553  GLY616  TRP617  ASP618  TYR619  PRO620  LYS621  CYS622 
 ASP623  PHE694  ASN695  SER759  ASP760  ASP761  ALA762  ILE779  LEU786  VAL792 
 PHE793  MET794  SER795  GLU796  ALA797  LYS798  CYS799  TRP800  GLU811  SER814 

> <Gold.Protein.RotatedAtoms>
  151.7643  133.3336  159.3426 H   0  0  0  0  0  0  0  0  0  0  0  0  # atno 6907 bound_to 6896
  150.7486  134.6077  159.6079 H   0  0  0  0  0  0  0  0  0  0  0  0  # atno 6908 bound_to 6896
  152.3384  134.7169  160.0322 H   0  0  0  0  0  0  0  0  0  0  0  0  # atno 6909 bound_to 6896
  145.5884  139.2334  143.2313 H   0  0  0  0  0  0  0  0  0  0  0  0  # atno 7974 bound_to 7965
  155.8870  140.3441  155.5928 H   0  0  0  0  0  0  0  0  0  0  0  0  # atno 8008 bound_to 7997
  155.7655  140.0838  157.2153 H   0  0  0  0  0  0  0  0  0  0  0  0  # atno 8009 bound_to 7997
  154.4029  140.1528  156.2869 H   0  0  0  0  0  0  0  0  0  0  0  0  # atno 8010 bound_to 7997
  140.7288  143.4382  151.0697 H   0  0  0  0  0  0  0  0  0  0  0  0  # atno 10167 bound_to 10162
  157.2599  131.0796  151.1673 H   0  0  0  0  0  0  0  0  0  0  0  0  # atno 10718 bound_to 10713
  154.8039  135.4696  154.0344 H   0  0  0  0  0  0  0  0  0  0  0  0  # atno 10763 bound_to 10752
  153.1828  135.6843  153.8462 H   0  0  0  0  0  0  0  0  0  0  0  0  # atno 10764 bound_to 10752
  153.8007  135.3230  155.3367 H   0  0  0  0  0  0  0  0  0  0  0  0  # atno 10765 bound_to 10752
  140.0467  134.9277  157.0942 H   0  0  0  0  0  0  0  0  0  0  0  0  # atno 11005 bound_to 11000
  146.1665  140.6710  142.9253 LP  0  0  0  0  0  0  0  0  0  0  0  0  # atno 17320 bound_to 7965
  144.7362  140.4816  143.6902 LP  0  0  0  0  0  0  0  0  0  0  0  0  # atno 17321 bound_to 7965
  139.8046  143.8035  152.3166 LP  0  0  0  0  0  0  0  0  0  0  0  0  # atno 17342 bound_to 10162
  139.8064  144.7353  150.9756 LP  0  0  0  0  0  0  0  0  0  0  0  0  # atno 17343 bound_to 10162
  157.3187  130.6926  149.6256 LP  0  0  0  0  0  0  0  0  0  0  0  0  # atno 17370 bound_to 10713
  155.9664  130.4342  150.5038 LP  0  0  0  0  0  0  0  0  0  0  0  0  # atno 17371 bound_to 10713
  140.3982  134.2111  155.7164 LP  0  0  0  0  0  0  0  0  0  0  0  0  # atno 17394 bound_to 11000
  141.1910  133.8204  157.0895 LP  0  0  0  0  0  0  0  0  0  0  0  0  # atno 17395 bound_to 11000

$$$$
