#       Name:                AV-unprocessed.smi:35
#       Creating user name   scv26
#       Creation time:       Thu Mar 26 16:04:57 2020


#       File generated by GOLD software.
#

@<TRIPOS>MOLECULE
AV-unprocessed.smi:35
    41    42     1
SMALL
NO_CHARGES


@<TRIPOS>ATOM
      1 ****        -4.1922   2.5723   1.8969 O.2            1 S1                 0.0000
      2 ****        -3.2522   2.1243   1.2432 C.2            1 S1                 0.0000
      3 ****        -3.3323   1.8753  -0.0955 N.pl3          1 S1                -1.0000
      4 ****        -2.2896   1.3650  -0.8142 C.2            1 S1                 0.0000
      5 ****        -2.3502   1.1520  -2.0254 O.2            1 S1                 0.0000
      6 ****        -1.0713   1.0602  -0.1447 N.am           1 S1                 0.0000
      7 ****         0.0820   0.4932  -0.9552 C.3            1 S1                 0.0000
      8 ****         1.2278   0.4269  -0.1554 O.3            1 S1                 0.0000
      9 ****         1.3715  -0.8901   0.3682 C.3            1 S1                 0.0000
     10 ****         2.7961  -1.1284   0.8969 C.3            1 S1                 0.0000
     11 ****         2.9155  -0.6076   2.2033 O.3            1 S1                 0.0000
     12 ****         0.9500  -1.7504  -0.8268 C.3            1 S1                 0.0000
     13 ****         2.0237  -1.8866  -1.7443 O.3            1 S1                 0.0000
     14 ****        -0.2205  -0.9542  -1.4033 C.3            1 S1                 0.0000
     15 ****        -0.3366  -1.0956  -2.8067 O.3            1 S1                 0.0000
     16 ****        -0.9528   1.3327   1.2099 C.2            1 S1                 0.0000
     17 ****        -1.9853   1.8421   1.9115 C.2            1 S1                 0.0000
     18 ****        -1.6727   2.1735   3.8401 Br             1 S1                 0.0000
     19 ****         0.2400   1.2019  -1.7701 H              1 S1                 0.0000
     20 ****         0.6466  -1.0464   1.1694 H              1 S1                 0.0000
     21 ****         3.0029  -2.1976   0.9498 H              1 S1                 0.0000
     22 ****         3.5457  -0.6821   0.2426 H              1 S1                 0.0000
     23 ****         2.7471   0.3219   2.1687 H              1 S1                 0.0000
     24 ****         0.6406  -2.7491  -0.5171 H              1 S1                 0.0000
     25 ****         1.6835  -2.2660  -2.5406 H              1 S1                 0.0000
     26 ****        -1.1461  -1.2918  -0.9343 H              1 S1                 0.0000
     27 ****        -1.0432  -0.5388  -3.0989 H              1 S1                 0.0000
     28 ****        -0.0276   1.1447   1.7320 H              1 S1                 0.0000
     29 ****        -4.0848   2.7400   2.8769 LP             1 S1                 0.0000
     30 ****        -5.0642   2.7689   1.4486 LP             1 S1                 0.0000
     31 ****        -4.1897   2.0746  -0.5699 LP             1 S1                 0.0000
     32 ****        -3.1913   1.3541  -2.5272 LP             1 S1                 0.0000
     33 ****        -1.5584   0.7768  -2.5073 LP             1 S1                 0.0000
     34 ****         1.1446   1.0775   0.5994 LP             1 S1                 0.0000
     35 ****         2.0310   0.6555  -0.7055 LP             1 S1                 0.0000
     36 ****         3.8393  -0.7713   2.5495 LP             1 S1                 0.0000
     37 ****         2.2507  -1.0496   2.8056 LP             1 S1                 0.0000
     38 ****         2.7263  -2.4839  -1.3575 LP             1 S1                 0.0000
     39 ****         2.4193  -0.9890  -1.9386 LP             1 S1                 0.0000
     40 ****        -0.5377  -2.0479  -3.0364 LP             1 S1                 0.0000
     41 ****         0.5175  -0.8196  -3.2475 LP             1 S1                 0.0000
@<TRIPOS>BOND
    1    1    2 2     
    2    2   17 1     
    3    2    3 1     
    4    3    4 1     
    5    4    5 2     
    6    4    6 am    
    7    6    7 1     
    8    6   16 1     
    9    7   14 1     
   10    7    8 1     
   11    7   19 1     
   12    8    9 1     
   13    9   10 1     
   14    9   12 1     
   15    9   20 1     
   16   10   11 1     
   17   10   21 1     
   18   10   22 1     
   19   11   23 1     
   20   12   13 1     
   21   12   14 1     
   22   12   24 1     
   23   13   25 1     
   24   14   15 1     
   25   14   26 1     
   26   15   27 1     
   27   16   17 2     
   28   16   28 1     
   29   17   18 1     
   30    1   29 1     
   31    1   30 1     
   32    3   31 1     
   33    5   32 1     
   34    5   33 1     
   35    8   34 1     
   36    8   35 1     
   37   11   36 1     
   38   11   37 1     
   39   13   38 1     
   40   13   39 1     
   41   15   40 1     
   42   15   41 1     
@<TRIPOS>SUBSTRUCTURE
      1 S1             1
@<TRIPOS>SET
LONE_PAIRS      STATIC     ATOMS    <user>   **** ""
13 29 30 31 32 33 34 35 36 37 38 39 40 41
DONOR_HYDROGENS      STATIC     ATOMS    <user>   **** ""
3 23 25 27
ATOM$BLUE        STATIC     ATOMS    COLORGROUP SYSTEM
13 29 30 31 32 33 34 35 36 37 38 39 40 41
ATOM$RED        STATIC     ATOMS    COLORGROUP SYSTEM
3 23 25 27
