AV-unprocessed.smi:1736|AV-procd|sdf|6990|dock5
  -GOLD-   22720 8203D 1   1.00000     0.00000
 Structure written by MMmdl.
 45 46  0  0  0  0  0  0  0  0  2 V2000
  144.0458  133.0561  150.2724 C   0  0  0  0  0  0  0  0  0  0  0  0
  145.3119  133.8205  150.1903 N   0  3  0  0  0  0  0  0  0  0  0  0
  146.5253  132.9987  150.4006 C   0  0  0  0  0  0  0  0  0  0  0  0
  146.7309  132.6656  151.8918 C   0  0  0  0  0  0  0  0  0  0  0  0
  146.8487  133.9016  152.6838 N   0  0  0  0  0  0  0  0  0  0  0  0
  147.2950  133.6976  154.0890 C   0  0  0  0  0  0  0  0  0  0  0  0
  146.2816  132.7913  154.8334 C   0  0  0  0  0  0  0  0  0  0  0  0
  148.6910  133.0335  154.1580 C   0  0  0  0  0  0  0  0  0  0  0  0
  147.3547  135.0587  154.8443 C   0  0  0  0  0  0  0  0  0  0  0  0
  148.4039  135.9473  154.3435 N   0  0  0  0  0  0  0  0  0  0  0  0
  149.1742  136.7503  155.0913 C   0  0  0  0  0  0  0  0  0  0  0  0
  149.0930  136.8284  156.3169 O   0  0  0  0  0  0  0  0  0  0  0  0
  150.0252  137.4544  154.3280 N   0  0  0  0  0  0  0  0  0  0  0  0
  151.0032  138.3816  154.7659 C   0  0  0  0  0  0  0  0  0  0  0  0
  152.3955  138.4364  154.4622 C   0  0  0  0  0  0  0  0  0  0  0  0
  152.9765  139.4656  155.0626 N   0  0  0  0  0  0  0  0  0  0  0  0
  151.9737  140.0657  155.7425 N   0  0  0  0  0  0  0  0  0  0  0  0
  150.7566  139.4398  155.5885 C   0  0  0  0  0  0  0  0  0  0  0  0
  145.5827  134.6396  152.5365 C   0  0  0  0  0  0  0  0  0  0  0  0
  145.3485  135.0179  151.0600 C   0  0  0  0  0  0  0  0  0  0  0  0
  152.1340  140.8928  156.2995 H   0  0  0  0  0  0  0  0  0  0  0  0
  143.8821  132.6422  151.2674 H   0  0  0  0  0  0  0  0  0  0  0  0
  144.0511  132.2311  149.5593 H   0  0  0  0  0  0  0  0  0  0  0  0
  143.1979  133.6968  150.0283 H   0  0  0  0  0  0  0  0  0  0  0  0
  146.4627  132.0843  149.8095 H   0  0  0  0  0  0  0  0  0  0  0  0
  147.3901  133.5488  150.0265 H   0  0  0  0  0  0  0  0  0  0  0  0
  145.9122  132.0467  152.2589 H   0  0  0  0  0  0  0  0  0  0  0  0
  147.6343  132.0645  151.9627 H   0  0  0  0  0  0  0  0  0  0  0  0
  146.4599  132.8043  155.9093 H   0  0  0  0  0  0  0  0  0  0  0  0
  146.3544  131.7465  154.5323 H   0  0  0  0  0  0  0  0  0  0  0  0
  145.2524  133.1149  154.6738 H   0  0  0  0  0  0  0  0  0  0  0  0
  148.9869  132.8712  155.1951 H   0  0  0  0  0  0  0  0  0  0  0  0
  149.4670  133.6509  153.7062 H   0  0  0  0  0  0  0  0  0  0  0  0
  148.7127  132.0589  153.6711 H   0  0  0  0  0  0  0  0  0  0  0  0
  146.3821  135.5515  154.7884 H   0  0  0  0  0  0  0  0  0  0  0  0
  147.5147  134.9165  155.9123 H   0  0  0  0  0  0  0  0  0  0  0  0
  148.5423  135.9596  153.3441 H   0  0  0  0  0  0  0  0  0  0  0  0
  149.9718  137.3089  153.3307 H   0  0  0  0  0  0  0  0  0  0  0  0
  152.9965  137.7879  153.8422 H   0  0  0  0  0  0  0  0  0  0  0  0
  149.8527  139.7923  156.0630 H   0  0  0  0  0  0  0  0  0  0  0  0
  144.7457  134.0550  152.9182 H   0  0  0  0  0  0  0  0  0  0  0  0
  145.6001  135.5697  153.1002 H   0  0  0  0  0  0  0  0  0  0  0  0
  146.1516  135.6733  150.7193 H   0  0  0  0  0  0  0  0  0  0  0  0
  144.4229  135.5846  150.9523 H   0  0  0  0  0  0  0  0  0  0  0  0
  145.3584  134.1581  149.2394 H   0  0  0  0  0  0  0  0  0  0  0  0
  1  2  1  0  0  0  0
  1 22  1  0  0  0  0
  1 23  1  0  0  0  0
  1 24  1  0  0  0  0
  2 20  1  0  0  0  0
  2  3  1  0  0  0  0
  2 45  1  0  0  0  0
  3  4  1  0  0  0  0
  3 25  1  0  0  0  0
  3 26  1  0  0  0  0
  4  5  1  0  0  0  0
  4 27  1  0  0  0  0
  4 28  1  0  0  0  0
  5  6  1  0  0  0  0
  5 19  1  0  0  0  0
  6  7  1  0  0  0  0
  6  8  1  0  0  0  0
  6  9  1  0  0  0  0
  7 29  1  0  0  0  0
  7 30  1  0  0  0  0
  7 31  1  0  0  0  0
  8 32  1  0  0  0  0
  8 33  1  0  0  0  0
  8 34  1  0  0  0  0
  9 10  1  0  0  0  0
  9 35  1  0  0  0  0
  9 36  1  0  0  0  0
 10 11  1  0  0  0  0
 10 37  1  0  0  0  0
 11 12  2  0  0  0  0
 11 13  1  0  0  0  0
 13 14  1  0  0  0  0
 13 38  1  0  0  0  0
 14 18  2  0  0  0  0
 14 15  1  0  0  0  0
 15 16  2  0  0  0  0
 15 39  1  0  0  0  0
 16 17  1  0  0  0  0
 17 21  1  0  0  0  0
 17 18  1  0  0  0  0
 18 40  1  0  0  0  0
 19 20  1  0  0  0  0
 19 41  1  0  0  0  0
 19 42  1  0  0  0  0
 20 43  1  0  0  0  0
 20 44  1  0  0  0  0
M  CHG  1   2   1
M  END
> <s_m_source_file>
AV-unprocessed.smi

> <i_m_source_file_index>
1736

> <i_lp_mmshare_version>
43012

> <i_f3d_flags>
0

> <s_epik_input>
W0NIM11OMVtDSDJdW0NIMl1OKFtDSDJdW0NIMl0xKUMoW0NIM10pKFtDSDNdKVtDSDJdW05IXUMoPU8pW05IXWMyW2NIXW5bbkhdW2NIXTI=

> <s_epik_cmdline>
J2VwaWtfcHl0aG9uJywgJy1waCcsICc3LjAnLCAnLXRuJywgJzgnLCAnLW1hJywgJzIwMCcsICctbWV0YWxfYmluZGluZycsICctaW1hZScsICc8aW5maWxlLm1hZT4nLCAnLW9tYWUnLCAnPG91dGZpbGUubWFlPic=

> <r_lp_tautomer_probability>
0.5

> <r_epik_Ionization_Penalty>
0.0248316

> <r_epik_Ionization_Penalty_Charging>
0.0238192

> <r_epik_Ionization_Penalty_Neutral>
0.00101244

> <r_epik_State_Penalty>
0.139266

> <r_epik_Charging_Adjusted_Penalty>
0.163085

> <i_epik_Tot_Q>
1

> <i_epik_Tot_abs_Q>
1

> <r_epik_Metal_State_Penalty>
0.139266

> <b_epik_Metal_Only>
0

> <s_lp_Force_Field>
OPLS_2005

> <r_lp_Energy>
29.1357

> <b_lp_Chiralities_Consistent>
1

> <s_lp_Variant>
AV-unprocessed.smi:1736-1

> <Gold.Version>
5.8.1

> <Gold.Id.Protein>
6NUR|6NUR_protein|mol2

> <Gold.PLP.Fitness>
41.6875

> <Gold.PLP.PLP>
-31.3888

> <Gold.PLP.part.hbond>
-4.9932

> <Gold.PLP.part.metal>
0.0000

> <Gold.PLP.part.buried>
-6.1496

> <Gold.PLP.part.nonpolar>
-21.8214

> <Gold.PLP.part.repulsive>
0.7818

> <Gold.PLP.ligand.clash>
0.0000

> <Gold.PLP.ligand.torsion>
0.6878

> <Gold.PLP.Chemscore.Hbond>
3.8800

> <Gold.PLP.Chemscore.CHOScore>
0.0000

> <Gold.PLP.Chemscore.Metal>
0.0000

> <Gold.Chemscore.Hbonds>
donor molecule, donor type, donor heavy atom, donor atom, acceptor molecule, acceptor atom, score
      L1  H     2    45       P1  7921  1.00
      L1  H    10    37       P1  7948  1.00
      L1  H    13    38       P1  7948  0.86
      P1  H  7997  8010       L1    16  1.00

> <Gold.PLP.Chemscore.Internal.Correction>
0.0343

> <Gold.Rescore>
     Score         DG    S(hbond)    S(metal)    S(lipo)     H(rot)  DE(clash)    DE(int)     intcor
     19.45     -20.13       3.30        0.00      66.66       1.63       0.04       0.64       ----

> <Gold.Chemscore.Fitness>
19.4482

> <Gold.Chemscore.DG>
-20.1337

> <Gold.Chemscore.ZeroCoef>
-5.4800

> <Gold.Chemscore.Hbond>
3.2991

> <Gold.Chemscore.Metal>
0.0000

> <Gold.Chemscore.Lipo>
66.6600

> <Gold.Chemscore.Internal_Hbond>
0.0000

> <Gold.Chemscore.DEClash>
0.0438

> <Gold.Chemscore.DEInternal>
0.6417

> <Gold.Chemscore.Rot>
1.6267

> <Gold.Chemscore.Internal.Correction>
   9.000000E+99

> <Gold.Chemscore.Hbonds>
donor molecule, donor type, donor heavy atom, donor atom, acceptor molecule, acceptor atom, score
      L1  H     2    45       P1  7921  0.92
      L1  H    10    37       P1  7948  0.95
      L1  H    13    38       P1  7948  0.27
      P1  H  7997  8010       L1    16  0.45

> <Gold.Chemscore.Hbond.Weighted>
-11.0190

> <Gold.Chemscore.Metal.Weighted>
-0.0000

> <Gold.Chemscore.Lipo.Weighted>
-7.7992

> <Gold.Chemscore.Internal_Hbond.Weighted>
0.0000

> <Gold.Chemscore.DEClash.Weighted>
0.0438

> <Gold.Chemscore.DEInternal.Weighted>
0.6417

> <Gold.Chemscore.Rot.Weighted>
4.1645

> <Gold.Chemscore.Internal.Correction.Weighted>
   9.000000E+99

> <Gold.Protein.RotatedTorsions>
[ 6907 6896 6895 6894 ] final   74.10 input  -60.11 | X-H torsion
[ 7974 7965 7964 7962 ] final  135.14 input  175.53 | X-H torsion
[ 8008 7997 7996 7995 ] final  111.65 input   59.86 | X-H torsion
[ 10167 10162 10161 10158 ] final   38.49 input  -65.29 | X-H torsion
[ 10718 10713 10712 10709 ] final  102.19 input   66.30 | X-H torsion
[ 10763 10752 10751 10750 ] final  137.33 input  -60.55 | X-H torsion
[ 11005 11000 10999 10996 ] final -100.26 input  -57.11 | X-H torsion

> <Gold.Protein.ActiveResidues>
 VAL166  LYS551  ARG553  GLY616  TRP617  ASP618  TYR619  PRO620  LYS621  CYS622 
 ASP623  PHE694  ASN695  SER759  ASP760  ASP761  ALA762  ILE779  LEU786  VAL792 
 PHE793  MET794  SER795  GLU796  ALA797  LYS798  CYS799  TRP800  GLU811  SER814 

> <Gold.Protein.RotatedAtoms>
  152.4958  134.4322  159.9515 H   0  0  0  0  0  0  0  0  0  0  0  0  # atno 6907 bound_to 6896
  151.4301  133.3666  159.2775 H   0  0  0  0  0  0  0  0  0  0  0  0  # atno 6908 bound_to 6896
  150.9160  134.8601  159.7517 H   0  0  0  0  0  0  0  0  0  0  0  0  # atno 6909 bound_to 6896
  144.9693  139.4623  143.5441 H   0  0  0  0  0  0  0  0  0  0  0  0  # atno 7974 bound_to 7965
  156.2139  140.3015  155.9794 H   0  0  0  0  0  0  0  0  0  0  0  0  # atno 8008 bound_to 7997
  155.2656  140.0431  157.3019 H   0  0  0  0  0  0  0  0  0  0  0  0  # atno 8009 bound_to 7997
  154.5739  140.2356  155.8160 H   0  0  0  0  0  0  0  0  0  0  0  0  # atno 8010 bound_to 7997
  140.3932  144.1825  150.6131 H   0  0  0  0  0  0  0  0  0  0  0  0  # atno 10167 bound_to 10162
  157.6809  131.0746  150.5366 H   0  0  0  0  0  0  0  0  0  0  0  0  # atno 10718 bound_to 10713
  153.8713  135.3055  155.3442 H   0  0  0  0  0  0  0  0  0  0  0  0  # atno 10763 bound_to 10752
  154.7804  135.4838  153.9836 H   0  0  0  0  0  0  0  0  0  0  0  0  # atno 10764 bound_to 10752
  153.1404  135.6823  153.9132 H   0  0  0  0  0  0  0  0  0  0  0  0  # atno 10765 bound_to 10752
  141.1277  133.8385  157.1079 H   0  0  0  0  0  0  0  0  0  0  0  0  # atno 11005 bound_to 11000
  146.3377  139.8895  142.8811 LP  0  0  0  0  0  0  0  0  0  0  0  0  # atno 17320 bound_to 7965
  145.2582  141.0068  143.3841 LP  0  0  0  0  0  0  0  0  0  0  0  0  # atno 17321 bound_to 7965
  140.4818  143.2376  151.8944 LP  0  0  0  0  0  0  0  0  0  0  0  0  # atno 17342 bound_to 10162
  139.4788  144.5261  151.8733 LP  0  0  0  0  0  0  0  0  0  0  0  0  # atno 17343 bound_to 10162
  156.5674  130.4271  149.6035 LP  0  0  0  0  0  0  0  0  0  0  0  0  # atno 17370 bound_to 10713
  156.2770  130.7049  151.1862 LP  0  0  0  0  0  0  0  0  0  0  0  0  # atno 17371 bound_to 10713
  140.0293  134.9909  157.0748 LP  0  0  0  0  0  0  0  0  0  0  0  0  # atno 17394 bound_to 11000
  140.4311  134.1779  155.7168 LP  0  0  0  0  0  0  0  0  0  0  0  0  # atno 17395 bound_to 11000

$$$$
