AV-unprocessed.smi:34|AV-procd|sdf|232|dock1
  -GOLD-   2262015563D 1   1.00000     0.00000
 Structure written by MMmdl.
 54 58  0  0  0  0  0  0  0  0  2 V2000
  152.9995  140.3566  158.5850 O   0  0  0  0  0  0  0  0  0  0  0  0
  152.1928  141.1635  158.1179 C   0  0  0  0  0  0  0  0  0  0  0  0
  151.5836  141.1251  156.9056 N   0  5  0  0  0  0  0  0  0  0  0  0
  151.8831  140.1483  156.0356 C   0  0  0  0  0  0  0  0  0  0  0  0
  152.1404  140.4437  154.7359 N   0  0  0  0  0  0  0  0  0  0  0  0
  152.4325  139.4694  153.8668 C   0  0  0  0  0  0  0  0  0  0  0  0
  152.5152  138.1532  154.0795 N   0  0  0  0  0  0  0  0  0  0  0  0
  152.2510  137.8390  155.3806 C   0  0  0  0  0  0  0  0  0  0  0  0
  151.9268  138.7755  156.4057 C   0  0  0  0  0  0  0  0  0  0  0  0
  151.7138  138.1291  157.6143 N   0  0  0  0  0  0  0  0  0  0  0  0
  151.9175  136.8577  157.2784 C   0  0  0  0  0  0  0  0  0  0  0  0
  152.2386  136.5954  155.9960 N   0  0  0  0  0  0  0  0  0  0  0  0
  152.5153  135.2494  155.4001 C   0  0  1  0  0  0  0  0  0  0  0  0
  152.3925  134.2605  156.3808 O   0  0  0  0  0  0  0  0  0  0  0  0
  151.6925  133.1182  155.8773 C   0  0  1  0  0  0  0  0  0  0  0  0
  150.3330  133.0145  156.5871 C   0  0  0  0  0  0  0  0  0  0  0  0
  150.5343  133.1082  157.9880 O   0  0  0  0  0  0  0  0  0  0  0  0
  150.1688  134.2231  158.6501 C   0  0  0  0  0  0  0  0  0  0  0  0
  149.6605  135.2057  158.1060 O   0  0  0  0  0  0  0  0  0  0  0  0
  150.4474  134.1456  160.1130 C   0  0  0  0  0  0  0  0  0  0  0  0
  150.9840  132.9541  160.6542 C   0  0  0  0  0  0  0  0  0  0  0  0
  151.2530  132.8500  162.0329 C   0  0  0  0  0  0  0  0  0  0  0  0
  150.9867  133.9356  162.8874 C   0  0  0  0  0  0  0  0  0  0  0  0
  150.4522  135.1262  162.3615 C   0  0  0  0  0  0  0  0  0  0  0  0
  150.1836  135.2326  160.9828 C   0  0  0  0  0  0  0  0  0  0  0  0
  151.5850  133.3740  154.3702 C   0  0  1  0  0  0  0  0  0  0  0  0
  150.5602  132.7708  153.7649 F   0  0  0  0  0  0  0  0  0  0  0  0
  151.5628  134.8865  154.2536 C   0  0  1  0  0  0  0  0  0  0  0  0
  150.2619  135.4272  154.4068 O   0  0  0  0  0  0  0  0  0  0  0  0
  151.8502  142.3922  158.9182 C   0  0  0  0  0  0  0  0  0  0  0  0
  152.3871  142.5549  160.2160 C   0  0  0  0  0  0  0  0  0  0  0  0
  152.0586  143.6843  160.9913 C   0  0  0  0  0  0  0  0  0  0  0  0
  151.1812  144.6590  160.4810 C   0  0  0  0  0  0  0  0  0  0  0  0
  150.6293  144.5016  159.1960 C   0  0  0  0  0  0  0  0  0  0  0  0
  150.9574  143.3728  158.4199 C   0  0  0  0  0  0  0  0  0  0  0  0
  152.6277  139.7898  152.8540 H   0  0  0  0  0  0  0  0  0  0  0  0
  151.8314  136.0682  158.0104 H   0  0  0  0  0  0  0  0  0  0  0  0
  153.5566  135.2947  155.0778 H   0  0  0  0  0  0  0  0  0  0  0  0
  152.2709  132.2129  156.0652 H   0  0  0  0  0  0  0  0  0  0  0  0
  149.6569  133.7967  156.2427 H   0  0  0  0  0  0  0  0  0  0  0  0
  149.8617  132.0568  156.3637 H   0  0  0  0  0  0  0  0  0  0  0  0
  151.1944  132.1068  160.0176 H   0  0  0  0  0  0  0  0  0  0  0  0
  151.6632  131.9354  162.4345 H   0  0  0  0  0  0  0  0  0  0  0  0
  151.1911  133.8552  163.9446 H   0  0  0  0  0  0  0  0  0  0  0  0
  150.2465  135.9600  163.0165 H   0  0  0  0  0  0  0  0  0  0  0  0
  149.7704  136.1593  160.6122 H   0  0  0  0  0  0  0  0  0  0  0  0
  152.4874  132.9981  153.8861 H   0  0  0  0  0  0  0  0  0  0  0  0
  151.9749  135.2335  153.3056 H   0  0  0  0  0  0  0  0  0  0  0  0
  149.9404  135.6856  153.5563 H   0  0  0  0  0  0  0  0  0  0  0  0
  153.0599  141.8146  160.6240 H   0  0  0  0  0  0  0  0  0  0  0  0
  152.4792  143.8011  161.9790 H   0  0  0  0  0  0  0  0  0  0  0  0
  150.9287  145.5244  161.0756 H   0  0  0  0  0  0  0  0  0  0  0  0
  149.9505  145.2450  158.8052 H   0  0  0  0  0  0  0  0  0  0  0  0
  150.5141  143.2666  157.4404 H   0  0  0  0  0  0  0  0  0  0  0  0
  1  2  2  0  0  0  0
  2  3  1  0  0  0  0
  2 30  1  0  0  0  0
  3  4  1  0  0  0  0
  4  9  1  0  0  0  0
  4  5  2  0  0  0  0
  5  6  1  0  0  0  0
  6  7  2  0  0  0  0
  6 36  1  0  0  0  0
  7  8  1  0  0  0  0
  8 12  1  0  0  0  0
  8  9  2  0  0  0  0
  9 10  1  0  0  0  0
 10 11  2  0  0  0  0
 11 12  1  0  0  0  0
 11 37  1  0  0  0  0
 12 13  1  0  0  0  0
 13 28  1  0  0  0  0
 13 14  1  0  0  0  0
 13 38  1  0  0  0  0
 14 15  1  0  0  0  0
 15 16  1  0  0  0  0
 15 26  1  0  0  0  0
 15 39  1  0  0  0  0
 16 17  1  0  0  0  0
 16 40  1  0  0  0  0
 16 41  1  0  0  0  0
 17 18  1  0  0  0  0
 18 19  2  0  0  0  0
 18 20  1  0  0  0  0
 20 25  1  0  0  0  0
 20 21  2  0  0  0  0
 21 22  1  0  0  0  0
 21 42  1  0  0  0  0
 22 23  2  0  0  0  0
 22 43  1  0  0  0  0
 23 24  1  0  0  0  0
 23 44  1  0  0  0  0
 24 25  2  0  0  0  0
 24 45  1  0  0  0  0
 25 46  1  0  0  0  0
 26 27  1  0  0  0  0
 26 28  1  0  0  0  0
 26 47  1  0  0  0  0
 28 29  1  0  0  0  0
 28 48  1  0  0  0  0
 29 49  1  0  0  0  0
 30 35  1  0  0  0  0
 30 31  2  0  0  0  0
 31 32  1  0  0  0  0
 31 50  1  0  0  0  0
 32 33  2  0  0  0  0
 32 51  1  0  0  0  0
 33 34  1  0  0  0  0
 33 52  1  0  0  0  0
 34 35  2  0  0  0  0
 34 53  1  0  0  0  0
 35 54  1  0  0  0  0
M  CHG  1   3  -1
M  END
> <s_m_source_file>
AV-unprocessed.smi

> <i_m_source_file_index>
34

> <i_lp_mmshare_version>
43012

> <i_f3d_flags>
0

> <s_epik_input>
W2NIXTFbY0hdW2NIXVtjSF1bY0hdYzFDKD1PKVtOSF1jKG5bY0hdbjIpYyhjMjMpbltjSF1uM1tDQEBIXTRPW0NASF0oW0NAQEhdKEYpW0NASF00W09IXSlbQ0gyXU9DKD1PKWM1W2NIXVtjSF1bY0hdW2NIXVtjSF01

> <s_epik_cmdline>
J2VwaWtfcHl0aG9uJywgJy1waCcsICc3LjAnLCAnLXRuJywgJzgnLCAnLW1hJywgJzIwMCcsICctbWV0YWxfYmluZGluZycsICctaW1hZScsICc8aW5maWxlLm1hZT4nLCAnLW9tYWUnLCAnPG91dGZpbGUubWFlPic=

> <r_lp_tautomer_probability>
1

> <r_epik_Ionization_Penalty>
4.33227

> <r_epik_Ionization_Penalty_Charging>
3.41027

> <r_epik_Ionization_Penalty_Neutral>
0.922001

> <r_epik_State_Penalty>
3.41358

> <r_epik_Charging_Adjusted_Penalty>
6.82385

> <i_epik_Tot_Q>
-1

> <i_epik_Tot_abs_Q>
1

> <r_epik_Metal_State_Penalty>
0.496292

> <b_epik_Metal_Only>
1

> <s_epik_Chemistry_Notes>
This compound has an ester and may undergo hydrolysis at high or low pH. This compound contains an acetal/aminal-like group ( X-CH(R)-Y where X, Y are N, S, or O) that may be acid/base labile, releasing an aldehyde.

> <s_lp_Force_Field>
OPLS_2005

> <r_lp_Energy>
54.2336

> <b_lp_Chiralities_Consistent>
1

> <s_lp_Variant>
AV-unprocessed.smi:34-18

> <Gold.Version>
5.8.1

> <Gold.Id.Protein>
6NUR|6NUR_protein|mol2

> <Gold.PLP.Fitness>
76.6345

> <Gold.PLP.PLP>
-66.2469

> <Gold.PLP.part.hbond>
-5.0000

> <Gold.PLP.part.metal>
0.0000

> <Gold.PLP.part.buried>
-7.7734

> <Gold.PLP.part.nonpolar>
-54.1530

> <Gold.PLP.part.repulsive>
0.0850

> <Gold.PLP.ligand.clash>
0.0000

> <Gold.PLP.ligand.torsion>
0.8274

> <Gold.PLP.Chemscore.Hbond>
3.5253

> <Gold.PLP.Chemscore.CHOScore>
0.0000

> <Gold.PLP.Chemscore.Metal>
0.0000

> <Gold.Chemscore.Hbonds>
donor molecule, donor type, donor heavy atom, donor atom, acceptor molecule, acceptor atom, score
      L1  H    29    49       P1  7948  0.50

> <Gold.PLP.Chemscore.Internal.Correction>
1.4665

> <Gold.Rescore>
     Score         DG    S(hbond)    S(metal)    S(lipo)     H(rot)  DE(clash)    DE(int)     intcor
     19.30     -23.13       2.71        0.00     132.49       2.69       0.06       3.77       ----

> <Gold.Chemscore.Fitness>
19.2987

> <Gold.Chemscore.DG>
-23.1258

> <Gold.Chemscore.ZeroCoef>
-5.4800

> <Gold.Chemscore.Hbond>
2.7071

> <Gold.Chemscore.Metal>
0.0000

> <Gold.Chemscore.Lipo>
132.4918

> <Gold.Chemscore.Internal_Hbond>
0.0000

> <Gold.Chemscore.DEClash>
0.0575

> <Gold.Chemscore.DEInternal>
3.7696

> <Gold.Chemscore.Rot>
2.6944

> <Gold.Chemscore.Internal.Correction>
   9.000000E+99

> <Gold.Chemscore.Hbonds>
donor molecule, donor type, donor heavy atom, donor atom, acceptor molecule, acceptor atom, score
      L1  H    29    49       P1  7948  0.02

> <Gold.Chemscore.Hbond.Weighted>
-9.0418

> <Gold.Chemscore.Metal.Weighted>
-0.0000

> <Gold.Chemscore.Lipo.Weighted>
-15.5015

> <Gold.Chemscore.Internal_Hbond.Weighted>
0.0000

> <Gold.Chemscore.DEClash.Weighted>
0.0575

> <Gold.Chemscore.DEInternal.Weighted>
3.7696

> <Gold.Chemscore.Rot.Weighted>
6.8975

> <Gold.Chemscore.Internal.Correction.Weighted>
   9.000000E+99

> <Gold.Protein.RotatedTorsions>
[ 6907 6896 6895 6894 ] final  126.86 input  -60.11 | X-H torsion
[ 7974 7965 7964 7962 ] final -110.31 input  175.53 | X-H torsion
[ 8008 7997 7996 7995 ] final  -10.10 input   59.86 | X-H torsion
[ 10167 10162 10161 10158 ] final  -24.08 input  -65.29 | X-H torsion
[ 10718 10713 10712 10709 ] final   80.89 input   66.30 | X-H torsion
[ 10763 10752 10751 10750 ] final  171.21 input  -60.55 | X-H torsion
[ 11005 11000 10999 10996 ] final   24.19 input  -57.11 | X-H torsion

> <Gold.Protein.ActiveResidues>
 VAL166  LYS551  ARG553  GLY616  TRP617  ASP618  TYR619  PRO620  LYS621  CYS622 
 ASP623  PHE694  ASN695  SER759  ASP760  ASP761  ALA762  ILE779  LEU786  VAL792 
 PHE793  MET794  SER795  GLU796  ALA797  LYS798  CYS799  TRP800  GLU811  SER814 

> <Gold.Protein.RotatedAtoms>
  152.3865  133.6619  159.6203 H   0  0  0  0  0  0  0  0  0  0  0  0  # atno 6907 bound_to 6896
  150.7783  133.9026  159.3354 H   0  0  0  0  0  0  0  0  0  0  0  0  # atno 6908 bound_to 6896
  151.6821  135.0961  160.0269 H   0  0  0  0  0  0  0  0  0  0  0  0  # atno 6909 bound_to 6896
  145.1698  140.8920  143.3542 H   0  0  0  0  0  0  0  0  0  0  0  0  # atno 7974 bound_to 7965
  154.5585  140.2337  155.8372 H   0  0  0  0  0  0  0  0  0  0  0  0  # atno 8008 bound_to 7997
  156.2009  140.3052  155.9485 H   0  0  0  0  0  0  0  0  0  0  0  0  # atno 8009 bound_to 7997
  155.2933  140.0427  157.3015 H   0  0  0  0  0  0  0  0  0  0  0  0  # atno 8010 bound_to 7997
  140.7288  143.4385  151.0693 H   0  0  0  0  0  0  0  0  0  0  0  0  # atno 10167 bound_to 10162
  157.6818  130.9980  150.2146 H   0  0  0  0  0  0  0  0  0  0  0  0  # atno 10718 bound_to 10713
  154.4087  135.2756  155.2051 H   0  0  0  0  0  0  0  0  0  0  0  0  # atno 10763 bound_to 10752
  154.4046  135.6036  153.5920 H   0  0  0  0  0  0  0  0  0  0  0  0  # atno 10764 bound_to 10752
  152.9831  135.5934  154.4365 H   0  0  0  0  0  0  0  0  0  0  0  0  # atno 10765 bound_to 10752
  140.3614  134.2121  155.7672 H   0  0  0  0  0  0  0  0  0  0  0  0  # atno 11005 bound_to 11000
  145.0244  139.3395  143.6056 LP  0  0  0  0  0  0  0  0  0  0  0  0  # atno 17320 bound_to 7965
  146.3470  139.9557  142.8723 LP  0  0  0  0  0  0  0  0  0  0  0  0  # atno 17321 bound_to 7965
  139.8050  143.8031  152.3166 LP  0  0  0  0  0  0  0  0  0  0  0  0  # atno 17342 bound_to 10162
  139.8060  144.7355  150.9760 LP  0  0  0  0  0  0  0  0  0  0  0  0  # atno 17343 bound_to 10162
  156.2810  130.3733  149.7935 LP  0  0  0  0  0  0  0  0  0  0  0  0  # atno 17370 bound_to 10713
  156.5623  130.8389  151.3332 LP  0  0  0  0  0  0  0  0  0  0  0  0  # atno 17371 bound_to 10713
  141.1983  133.8039  157.0590 LP  0  0  0  0  0  0  0  0  0  0  0  0  # atno 17394 bound_to 11000
  140.0623  134.9748  157.1327 LP  0  0  0  0  0  0  0  0  0  0  0  0  # atno 17395 bound_to 11000

$$$$
