AV-unprocessed.smi:3028|AV-procd|sdf|11522|dock2
  -GOLD-   2272016463D 1   1.00000     0.00000
 Structure written by MMmdl.
 47 48  0  0  0  0  0  0  0  0  1 V2000
  152.4853  144.6990  158.6186 C   0  0  0  0  0  0  0  0  0  0  0  0
  151.8959  143.3560  158.2989 C   0  0  0  0  0  0  0  0  0  0  0  0
  151.9930  142.1550  159.0570 C   0  0  0  0  0  0  0  0  0  0  0  0
  151.3606  141.1389  158.4944 N   0  0  0  0  0  0  0  0  0  0  0  0
  150.8324  141.6508  157.3616 N   0  0  0  0  0  0  0  0  0  0  0  0
  150.0543  140.7961  156.4720 C   0  0  1  0  0  0  0  0  0  0  0  0
  149.5409  141.6371  155.2878 C   0  0  0  0  0  0  0  0  0  0  0  0
  150.8571  139.5380  156.0326 C   0  0  2  0  0  0  0  0  0  0  0  0
  152.1996  139.8834  155.3646 C   0  0  0  0  0  0  0  0  0  0  0  0
  150.1032  138.7777  155.0378 N   0  0  0  0  0  0  0  0  0  0  0  0
  150.8622  137.6462  154.4877 C   0  0  0  0  0  0  0  0  0  0  0  0
  150.4567  136.3011  155.1100 C   0  0  0  0  0  0  0  0  0  0  0  0
  150.7651  136.0399  156.2721 O   0  0  0  0  0  0  0  0  0  0  0  0
  149.7513  135.4229  154.3766 N   0  0  0  0  0  0  0  0  0  0  0  0
  149.2732  134.1025  154.7804 C   0  0  0  0  0  0  0  0  0  0  0  0
  150.4354  133.2815  155.3586 C   0  0  0  0  0  0  0  0  0  0  0  0
  149.9887  131.8391  155.6480 C   0  0  0  0  0  0  0  0  0  0  0  0
  149.4724  131.2405  154.4639 O   0  0  0  0  0  0  0  0  0  0  0  0
  148.3202  131.9083  153.9615 C   0  0  0  0  0  0  0  0  0  0  0  0
  148.6764  133.3529  153.5774 C   0  0  0  0  0  0  0  0  0  0  0  0
  151.1425  142.9889  157.2203 C   0  0  0  0  0  0  0  0  0  0  0  0
  153.3182  144.6189  159.3170 H   0  0  0  0  0  0  0  0  0  0  0  0
  151.7488  145.3631  159.0706 H   0  0  0  0  0  0  0  0  0  0  0  0
  152.8642  145.1964  157.7256 H   0  0  0  0  0  0  0  0  0  0  0  0
  152.5058  141.9920  159.9934 H   0  0  0  0  0  0  0  0  0  0  0  0
  149.1742  140.4596  157.0237 H   0  0  0  0  0  0  0  0  0  0  0  0
  148.8038  141.0933  154.6974 H   0  0  0  0  0  0  0  0  0  0  0  0
  150.3538  141.9296  154.6226 H   0  0  0  0  0  0  0  0  0  0  0  0
  149.0543  142.5479  155.6386 H   0  0  0  0  0  0  0  0  0  0  0  0
  151.0774  138.9184  156.9038 H   0  0  0  0  0  0  0  0  0  0  0  0
  152.8878  140.3535  156.0670 H   0  0  0  0  0  0  0  0  0  0  0  0
  152.0643  140.5632  154.5224 H   0  0  0  0  0  0  0  0  0  0  0  0
  152.6970  138.9870  154.9918 H   0  0  0  0  0  0  0  0  0  0  0  0
  149.8113  139.4030  154.3002 H   0  0  0  0  0  0  0  0  0  0  0  0
  150.6997  137.5874  153.4109 H   0  0  0  0  0  0  0  0  0  0  0  0
  151.9244  137.8151  154.6496 H   0  0  0  0  0  0  0  0  0  0  0  0
  149.5168  135.7065  153.4362 H   0  0  0  0  0  0  0  0  0  0  0  0
  148.5153  134.1952  155.5595 H   0  0  0  0  0  0  0  0  0  0  0  0
  151.2669  133.2629  154.6525 H   0  0  0  0  0  0  0  0  0  0  0  0
  150.8102  133.7461  156.2711 H   0  0  0  0  0  0  0  0  0  0  0  0
  150.8349  131.2489  156.0002 H   0  0  0  0  0  0  0  0  0  0  0  0
  149.2354  131.8168  156.4371 H   0  0  0  0  0  0  0  0  0  0  0  0
  147.9525  131.3690  153.0885 H   0  0  0  0  0  0  0  0  0  0  0  0
  147.5232  131.8900  154.7060 H   0  0  0  0  0  0  0  0  0  0  0  0
  147.7919  133.8675  153.2041 H   0  0  0  0  0  0  0  0  0  0  0  0
  149.3945  133.3374  152.7561 H   0  0  0  0  0  0  0  0  0  0  0  0
  150.8064  143.5630  156.3695 H   0  0  0  0  0  0  0  0  0  0  0  0
  1  2  1  0  0  0  0
  1 22  1  0  0  0  0
  1 23  1  0  0  0  0
  1 24  1  0  0  0  0
  2 21  2  0  0  0  0
  2  3  1  0  0  0  0
  3  4  2  0  0  0  0
  3 25  1  0  0  0  0
  4  5  1  0  0  0  0
  5  6  1  0  0  0  0
  5 21  1  0  0  0  0
  6  7  1  0  0  0  0
  6  8  1  0  0  0  0
  6 26  1  0  0  0  0
  7 27  1  0  0  0  0
  7 28  1  0  0  0  0
  7 29  1  0  0  0  0
  8  9  1  0  0  0  0
  8 10  1  0  0  0  0
  8 30  1  0  0  0  0
  9 31  1  0  0  0  0
  9 32  1  0  0  0  0
  9 33  1  0  0  0  0
 10 11  1  0  0  0  0
 10 34  1  0  0  0  0
 11 12  1  0  0  0  0
 11 35  1  0  0  0  0
 11 36  1  0  0  0  0
 12 13  2  0  0  0  0
 12 14  1  0  0  0  0
 14 15  1  0  0  0  0
 14 37  1  0  0  0  0
 15 20  1  0  0  0  0
 15 16  1  0  0  0  0
 15 38  1  0  0  0  0
 16 17  1  0  0  0  0
 16 39  1  0  0  0  0
 16 40  1  0  0  0  0
 17 18  1  0  0  0  0
 17 41  1  0  0  0  0
 17 42  1  0  0  0  0
 18 19  1  0  0  0  0
 19 20  1  0  0  0  0
 19 43  1  0  0  0  0
 19 44  1  0  0  0  0
 20 45  1  0  0  0  0
 20 46  1  0  0  0  0
 21 47  1  0  0  0  0
M  END
> <s_m_source_file>
AV-unprocessed.smi

> <i_m_source_file_index>
3028

> <i_lp_mmshare_version>
43012

> <i_f3d_flags>
0

> <s_epik_input>
W0NIM11jMVtjSF1ubihbY0hdMSlbQ0BIXShbQ0gzXSlbQ0BIXShbQ0gzXSlbTkhdW0NIMl1DKD1PKVtOSF1bQ0hdMltDSDJdW0NIMl1PW0NIMl1bQ0gyXTI=

> <s_epik_cmdline>
J2VwaWtfcHl0aG9uJywgJy1waCcsICc3LjAnLCAnLXRuJywgJzgnLCAnLW1hJywgJzIwMCcsICctbWV0YWxfYmluZGluZycsICctaW1hZScsICc8aW5maWxlLm1hZT4nLCAnLW9tYWUnLCAnPG91dGZpbGUubWFlPic=

> <r_lp_tautomer_probability>
1

> <r_epik_Ionization_Penalty>
0.88617

> <r_epik_Ionization_Penalty_Charging>
0

> <r_epik_Ionization_Penalty_Neutral>
0.88617

> <r_epik_State_Penalty>
0.921066

> <r_epik_Charging_Adjusted_Penalty>
0.921066

> <i_epik_Tot_Q>
0

> <i_epik_Tot_abs_Q>
0

> <r_epik_Metal_State_Penalty>
0.917309

> <b_epik_Metal_Only>
0

> <s_lp_Force_Field>
OPLS_2005

> <r_lp_Energy>
17.6671

> <b_lp_Chiralities_Consistent>
1

> <s_lp_Variant>
AV-unprocessed.smi:3028-6

> <Gold.Version>
5.8.1

> <Gold.Id.Protein>
6NUR|6NUR_protein|mol2

> <Gold.PLP.Fitness>
44.4088

> <Gold.PLP.PLP>
-39.4747

> <Gold.PLP.part.hbond>
-1.2713

> <Gold.PLP.part.metal>
0.0000

> <Gold.PLP.part.buried>
-1.7161

> <Gold.PLP.part.nonpolar>
-37.5149

> <Gold.PLP.part.repulsive>
0.1061

> <Gold.PLP.ligand.clash>
0.0000

> <Gold.PLP.ligand.torsion>
0.5761

> <Gold.PLP.Chemscore.Hbond>
0.9500

> <Gold.PLP.Chemscore.CHOScore>
1.0000

> <Gold.PLP.Chemscore.Metal>
0.0000

> <Gold.Chemscore.Hbonds>
donor molecule, donor type, donor heavy atom, donor atom, acceptor molecule, acceptor atom, score
      L1  H    14    37       P1  7948  0.90
      L1  C    21    47       P1  8028  1.00

> <Gold.PLP.Chemscore.Internal.Correction>
0.2364

> <Gold.Rescore>
     Score         DG    S(hbond)    S(metal)    S(lipo)     H(rot)  DE(clash)    DE(int)     intcor
     13.61     -15.39       0.96        0.00      99.37       1.92       0.05       1.73       ----

> <Gold.Chemscore.Fitness>
13.6105

> <Gold.Chemscore.DG>
-15.3885

> <Gold.Chemscore.ZeroCoef>
-5.4800

> <Gold.Chemscore.Hbond>
0.9599

> <Gold.Chemscore.Metal>
0.0000

> <Gold.Chemscore.Lipo>
99.3665

> <Gold.Chemscore.Internal_Hbond>
0.0000

> <Gold.Chemscore.DEClash>
0.0488

> <Gold.Chemscore.DEInternal>
1.7292

> <Gold.Chemscore.Rot>
1.9233

> <Gold.Chemscore.Internal.Correction>
   9.000000E+99

> <Gold.Chemscore.Hbonds>
donor molecule, donor type, donor heavy atom, donor atom, acceptor molecule, acceptor atom, score
      L1  H    14    37       P1  7948  0.18

> <Gold.Chemscore.Hbond.Weighted>
-3.2062

> <Gold.Chemscore.Metal.Weighted>
-0.0000

> <Gold.Chemscore.Lipo.Weighted>
-11.6259

> <Gold.Chemscore.Internal_Hbond.Weighted>
0.0000

> <Gold.Chemscore.DEClash.Weighted>
0.0488

> <Gold.Chemscore.DEInternal.Weighted>
1.7292

> <Gold.Chemscore.Rot.Weighted>
4.9235

> <Gold.Chemscore.Internal.Correction.Weighted>
   9.000000E+99

> <Gold.Protein.RotatedTorsions>
[ 6907 6896 6895 6894 ] final  145.07 input  -60.11 | X-H torsion
[ 7974 7965 7964 7962 ] final  136.84 input  175.53 | X-H torsion
[ 8008 7997 7996 7995 ] final  113.51 input   59.86 | X-H torsion
[ 10167 10162 10161 10158 ] final  -65.15 input  -65.29 | X-H torsion
[ 10718 10713 10712 10709 ] final   49.31 input   66.30 | X-H torsion
[ 10763 10752 10751 10750 ] final   26.46 input  -60.55 | X-H torsion
[ 11005 11000 10999 10996 ] final  166.36 input  -57.11 | X-H torsion

> <Gold.Protein.ActiveResidues>
 VAL166  LYS551  ARG553  GLY616  TRP617  ASP618  TYR619  PRO620  LYS621  CYS622 
 ASP623  PHE694  ASN695  SER759  ASP760  ASP761  ALA762  ILE779  LEU786  VAL792 
 PHE793  MET794  SER795  GLU796  ALA797  LYS798  CYS799  TRP800  GLU811  SER814 

> <Gold.Protein.RotatedAtoms>
  152.1855  133.4737  159.4980 H   0  0  0  0  0  0  0  0  0  0  0  0  # atno 6907 bound_to 6896
  150.6942  134.1779  159.4246 H   0  0  0  0  0  0  0  0  0  0  0  0  # atno 6908 bound_to 6896
  151.9691  135.0085  160.0602 H   0  0  0  0  0  0  0  0  0  0  0  0  # atno 6909 bound_to 6896
  144.9526  139.4801  143.5518 H   0  0  0  0  0  0  0  0  0  0  0  0  # atno 7974 bound_to 7965
  156.2263  140.2978  156.0075 H   0  0  0  0  0  0  0  0  0  0  0  0  # atno 8008 bound_to 7997
  155.2348  140.0420  157.2984 H   0  0  0  0  0  0  0  0  0  0  0  0  # atno 8009 bound_to 7997
  154.5921  140.2404  155.7915 H   0  0  0  0  0  0  0  0  0  0  0  0  # atno 8010 bound_to 7997
  140.5750  143.2321  151.6460 H   0  0  0  0  0  0  0  0  0  0  0  0  # atno 10167 bound_to 10162
  157.4774  130.8293  149.8055 H   0  0  0  0  0  0  0  0  0  0  0  0  # atno 10718 bound_to 10713
  153.0621  135.6560  154.0438 H   0  0  0  0  0  0  0  0  0  0  0  0  # atno 10763 bound_to 10752
  154.0104  135.2929  155.3394 H   0  0  0  0  0  0  0  0  0  0  0  0  # atno 10764 bound_to 10752
  154.6964  135.5262  153.8532 H   0  0  0  0  0  0  0  0  0  0  0  0  # atno 10765 bound_to 10752
  140.2656  134.7867  157.3629 H   0  0  0  0  0  0  0  0  0  0  0  0  # atno 11005 bound_to 11000
  146.3326  139.8622  142.8854 LP  0  0  0  0  0  0  0  0  0  0  0  0  # atno 17320 bound_to 7965
  145.2821  141.0142  143.3711 LP  0  0  0  0  0  0  0  0  0  0  0  0  # atno 17321 bound_to 7965
  139.5138  144.3431  152.0721 LP  0  0  0  0  0  0  0  0  0  0  0  0  # atno 17342 bound_to 10162
  140.2574  144.4104  150.6198 LP  0  0  0  0  0  0  0  0  0  0  0  0  # atno 17343 bound_to 10162
  156.0104  130.3836  150.2285 LP  0  0  0  0  0  0  0  0  0  0  0  0  # atno 17370 bound_to 10713
  157.0470  131.0051  151.3266 LP  0  0  0  0  0  0  0  0  0  0  0  0  # atno 17371 bound_to 10713
  140.1422  134.4957  155.8023 LP  0  0  0  0  0  0  0  0  0  0  0  0  # atno 17394 bound_to 11000
  141.2184  133.6830  156.7231 LP  0  0  0  0  0  0  0  0  0  0  0  0  # atno 17395 bound_to 11000

$$$$
