AV-unprocessed.smi:1370|AV-procd|sdf|5580|dock6
  -GOLD-   22720 5173D 1   1.00000     0.00000
 Structure written by MMmdl.
 39 40  0  0  0  0  0  0  0  0  1 V2000
  150.9591  136.0358  156.2831 O   0  0  0  0  0  0  0  0  0  0  0  0
  150.4323  136.3590  155.2175 C   0  0  0  0  0  0  0  0  0  0  0  0
  150.7787  137.6928  154.5408 C   0  0  0  0  0  0  0  0  0  0  0  0
  150.5500  138.8614  155.4065 N   0  0  0  0  0  0  0  0  0  0  0  0
  149.2416  139.0534  155.8935 C   0  0  0  0  0  0  0  0  0  0  0  0
  148.9251  140.0867  156.6901 C   0  0  0  0  0  0  0  0  0  0  0  0
  149.9693  141.0168  157.0485 C   0  0  0  0  0  0  0  0  0  0  0  0
  151.2232  140.8447  156.5851 C   0  0  0  0  0  0  0  0  0  0  0  0
  151.5726  139.7191  155.7105 C   0  0  0  0  0  0  0  0  0  0  0  0
  152.7145  139.5570  155.2790 O   0  0  0  0  0  0  0  0  0  0  0  0
  149.5565  135.5799  154.5657 N   0  0  0  0  0  0  0  0  0  0  0  0
  149.1140  134.2608  155.0058 C   0  0  0  0  0  0  0  0  0  0  0  0
  148.3956  133.4931  153.8845 C   0  0  0  0  0  0  0  0  0  0  0  0
  146.8001  134.2482  153.4563 S   0  0  0  0  0  0  0  0  0  0  0  0
  146.2767  133.1544  152.1052 C   0  0  0  0  0  0  0  0  0  0  0  0
  144.9841  133.6249  151.4405 C   0  0  0  0  0  0  0  0  0  0  0  0
  144.4692  132.3785  150.7226 C   0  0  0  0  0  0  0  0  0  0  0  0
  144.8791  131.1981  151.6133 C   0  0  0  0  0  0  0  0  0  0  0  0
  145.9610  131.7269  152.5685 C   0  0  0  0  0  0  0  0  0  0  0  0
  151.8218  137.6494  154.2252 H   0  0  0  0  0  0  0  0  0  0  0  0
  150.2064  137.7929  153.6165 H   0  0  0  0  0  0  0  0  0  0  0  0
  148.5187  138.3173  155.5733 H   0  0  0  0  0  0  0  0  0  0  0  0
  147.9156  140.2206  157.0498 H   0  0  0  0  0  0  0  0  0  0  0  0
  149.7442  141.8556  157.6906 H   0  0  0  0  0  0  0  0  0  0  0  0
  151.9914  141.5511  156.8635 H   0  0  0  0  0  0  0  0  0  0  0  0
  149.1791  135.9180  153.6923 H   0  0  0  0  0  0  0  0  0  0  0  0
  149.9672  133.6846  155.3674 H   0  0  0  0  0  0  0  0  0  0  0  0
  148.4462  134.3865  155.8582 H   0  0  0  0  0  0  0  0  0  0  0  0
  149.0213  133.4443  152.9928 H   0  0  0  0  0  0  0  0  0  0  0  0
  148.2179  132.4655  154.2019 H   0  0  0  0  0  0  0  0  0  0  0  0
  147.0646  133.1238  151.3511 H   0  0  0  0  0  0  0  0  0  0  0  0
  144.2624  133.9361  152.1973 H   0  0  0  0  0  0  0  0  0  0  0  0
  145.1411  134.4641  150.7624 H   0  0  0  0  0  0  0  0  0  0  0  0
  143.3941  132.4149  150.5446 H   0  0  0  0  0  0  0  0  0  0  0  0
  144.9606  132.2900  149.7531 H   0  0  0  0  0  0  0  0  0  0  0  0
  144.0242  130.8326  152.1834 H   0  0  0  0  0  0  0  0  0  0  0  0
  145.2469  130.3672  151.0106 H   0  0  0  0  0  0  0  0  0  0  0  0
  146.8502  131.0959  152.5698 H   0  0  0  0  0  0  0  0  0  0  0  0
  145.5680  131.7375  153.5862 H   0  0  0  0  0  0  0  0  0  0  0  0
  1  2  2  0  0  0  0
  2  3  1  0  0  0  0
  2 11  1  0  0  0  0
  3  4  1  0  0  0  0
  3 20  1  0  0  0  0
  3 21  1  0  0  0  0
  4  9  1  0  0  0  0
  4  5  1  0  0  0  0
  5  6  2  0  0  0  0
  5 22  1  0  0  0  0
  6  7  1  0  0  0  0
  6 23  1  0  0  0  0
  7  8  2  0  0  0  0
  7 24  1  0  0  0  0
  8  9  1  0  0  0  0
  8 25  1  0  0  0  0
  9 10  2  0  0  0  0
 11 12  1  0  0  0  0
 11 26  1  0  0  0  0
 12 13  1  0  0  0  0
 12 27  1  0  0  0  0
 12 28  1  0  0  0  0
 13 14  1  0  0  0  0
 13 29  1  0  0  0  0
 13 30  1  0  0  0  0
 14 15  1  0  0  0  0
 15 19  1  0  0  0  0
 15 16  1  0  0  0  0
 15 31  1  0  0  0  0
 16 17  1  0  0  0  0
 16 32  1  0  0  0  0
 16 33  1  0  0  0  0
 17 18  1  0  0  0  0
 17 34  1  0  0  0  0
 17 35  1  0  0  0  0
 18 19  1  0  0  0  0
 18 36  1  0  0  0  0
 18 37  1  0  0  0  0
 19 38  1  0  0  0  0
 19 39  1  0  0  0  0
M  END
> <s_m_source_file>
AV-unprocessed.smi

> <i_m_source_file_index>
1370

> <i_lp_mmshare_version>
43012

> <i_f3d_flags>
0

> <s_epik_input>
Tz1jMVtjSF1bY0hdW2NIXVtjSF1uMVtDSDJdQyg9TylbTkhdW0NIMl1bQ0gyXVNbQ0hdMltDSDJdW0NIMl1bQ0gyXVtDSDJdMg==

> <s_epik_cmdline>
J2VwaWtfcHl0aG9uJywgJy1waCcsICc3LjAnLCAnLXRuJywgJzgnLCAnLW1hJywgJzIwMCcsICctbWV0YWxfYmluZGluZycsICctaW1hZScsICc8aW5maWxlLm1hZT4nLCAnLW9tYWUnLCAnPG91dGZpbGUubWFlPic=

> <r_lp_tautomer_probability>
1

> <r_epik_Ionization_Penalty>
3.75756e-07

> <r_epik_Ionization_Penalty_Charging>
3.52005e-07

> <r_epik_Ionization_Penalty_Neutral>
2.37506e-08

> <r_epik_State_Penalty>
-0

> <r_epik_Charging_Adjusted_Penalty>
3.52005e-07

> <i_epik_Tot_Q>
0

> <i_epik_Tot_abs_Q>
0

> <r_epik_Metal_State_Penalty>
-0

> <b_epik_Metal_Only>
0

> <s_lp_Force_Field>
OPLS_2005

> <r_lp_Energy>
28.6611

> <b_lp_Chiralities_Consistent>
1

> <s_lp_Variant>
AV-unprocessed.smi:1370-1

> <Gold.Version>
5.8.1

> <Gold.Id.Protein>
6NUR|6NUR_protein|mol2

> <Gold.PLP.Fitness>
44.7200

> <Gold.PLP.PLP>
-35.9585

> <Gold.PLP.part.hbond>
-4.8231

> <Gold.PLP.part.metal>
0.0000

> <Gold.PLP.part.buried>
-2.6163

> <Gold.PLP.part.nonpolar>
-29.5227

> <Gold.PLP.part.repulsive>
0.1115

> <Gold.PLP.ligand.clash>
0.0000

> <Gold.PLP.ligand.torsion>
0.1439

> <Gold.PLP.Chemscore.Hbond>
3.0000

> <Gold.PLP.Chemscore.CHOScore>
0.0000

> <Gold.PLP.Chemscore.Metal>
0.0000

> <Gold.Chemscore.Hbonds>
donor molecule, donor type, donor heavy atom, donor atom, acceptor molecule, acceptor atom, score
      L1  H    11    26       P1  7948  1.00
      P1  H  7997  8008       L1    10  1.00

> <Gold.PLP.Chemscore.Internal.Correction>
0.0493

> <Gold.Rescore>
     Score         DG    S(hbond)    S(metal)    S(lipo)     H(rot)  DE(clash)    DE(int)     intcor
     13.67     -14.37       1.65        0.00      69.82       1.87       0.63       0.08       ----

> <Gold.Chemscore.Fitness>
13.6656

> <Gold.Chemscore.DG>
-14.3707

> <Gold.Chemscore.ZeroCoef>
-5.4800

> <Gold.Chemscore.Hbond>
1.6482

> <Gold.Chemscore.Metal>
0.0000

> <Gold.Chemscore.Lipo>
69.8158

> <Gold.Chemscore.Internal_Hbond>
0.0000

> <Gold.Chemscore.DEClash>
0.6273

> <Gold.Chemscore.DEInternal>
0.0778

> <Gold.Chemscore.Rot>
1.8682

> <Gold.Chemscore.Internal.Correction>
   9.000000E+99

> <Gold.Chemscore.Hbonds>
donor molecule, donor type, donor heavy atom, donor atom, acceptor molecule, acceptor atom, score
      L1  H    11    26       P1  7948  0.82
      P1  H  7997  8008       L1    10  0.99

> <Gold.Chemscore.Hbond.Weighted>
-5.5049

> <Gold.Chemscore.Metal.Weighted>
-0.0000

> <Gold.Chemscore.Lipo.Weighted>
-8.1684

> <Gold.Chemscore.Internal_Hbond.Weighted>
0.0000

> <Gold.Chemscore.DEClash.Weighted>
0.6273

> <Gold.Chemscore.DEInternal.Weighted>
0.0778

> <Gold.Chemscore.Rot.Weighted>
4.7827

> <Gold.Chemscore.Internal.Correction.Weighted>
   9.000000E+99

> <Gold.Protein.RotatedTorsions>
[ 6907 6896 6895 6894 ] final  -53.54 input  -60.11 | X-H torsion
[ 7974 7965 7964 7962 ] final  156.91 input  175.53 | X-H torsion
[ 8008 7997 7996 7995 ] final  -20.71 input   59.86 | X-H torsion
[ 10167 10162 10161 10158 ] final  -31.83 input  -65.29 | X-H torsion
[ 10718 10713 10712 10709 ] final -141.89 input   66.30 | X-H torsion
[ 10763 10752 10751 10750 ] final -148.57 input  -60.55 | X-H torsion
[ 11005 11000 10999 10996 ] final  118.49 input  -57.11 | X-H torsion

> <Gold.Protein.ActiveResidues>
 VAL166  LYS551  ARG553  GLY616  TRP617  ASP618  TYR619  PRO620  LYS621  CYS622 
 ASP623  PHE694  ASN695  SER759  ASP760  ASP761  ALA762  ILE779  LEU786  VAL792 
 PHE793  MET794  SER795  GLU796  ALA797  LYS798  CYS799  TRP800  GLU811  SER814 

> <Gold.Protein.RotatedAtoms>
  150.8418  134.7713  159.6938 H   0  0  0  0  0  0  0  0  0  0  0  0  # atno 6907 bound_to 6896
  152.4504  134.5403  159.9847 H   0  0  0  0  0  0  0  0  0  0  0  0  # atno 6908 bound_to 6896
  151.5542  133.3375  159.2994 H   0  0  0  0  0  0  0  0  0  0  0  0  # atno 6909 bound_to 6896
  144.7935  139.7268  143.6211 H   0  0  0  0  0  0  0  0  0  0  0  0  # atno 7974 bound_to 7965
  154.4752  140.2054  155.9895 H   0  0  0  0  0  0  0  0  0  0  0  0  # atno 8008 bound_to 7997
  156.1078  140.3234  155.8000 H   0  0  0  0  0  0  0  0  0  0  0  0  # atno 8009 bound_to 7997
  155.4688  140.0529  157.2973 H   0  0  0  0  0  0  0  0  0  0  0  0  # atno 8010 bound_to 7997
  140.7230  143.3741  151.1723 H   0  0  0  0  0  0  0  0  0  0  0  0  # atno 10167 bound_to 10162
  156.3394  130.7629  151.1762 H   0  0  0  0  0  0  0  0  0  0  0  0  # atno 10718 bound_to 10713
  154.8225  135.3331  154.6995 H   0  0  0  0  0  0  0  0  0  0  0  0  # atno 10763 bound_to 10752
  153.7625  135.6931  153.4927 H   0  0  0  0  0  0  0  0  0  0  0  0  # atno 10764 bound_to 10752
  153.2100  135.4485  155.0317 H   0  0  0  0  0  0  0  0  0  0  0  0  # atno 10765 bound_to 10752
  139.9111  134.9620  156.7510 H   0  0  0  0  0  0  0  0  0  0  0  0  # atno 11005 bound_to 11000
  146.2195  139.5610  142.9628 LP  0  0  0  0  0  0  0  0  0  0  0  0  # atno 17320 bound_to 7965
  145.5734  141.0391  143.2162 LP  0  0  0  0  0  0  0  0  0  0  0  0  # atno 17321 bound_to 7965
  139.7318  143.9061  152.3022 LP  0  0  0  0  0  0  0  0  0  0  0  0  # atno 17342 bound_to 10162
  139.8853  144.6995  150.8832 LP  0  0  0  0  0  0  0  0  0  0  0  0  # atno 17343 bound_to 10162
  157.7444  131.0459  150.4865 LP  0  0  0  0  0  0  0  0  0  0  0  0  # atno 17370 bound_to 10713
  156.5043  130.4124  149.6336 LP  0  0  0  0  0  0  0  0  0  0  0  0  # atno 17371 bound_to 10713
  140.6773  133.9506  155.7890 LP  0  0  0  0  0  0  0  0  0  0  0  0  # atno 17394 bound_to 11000
  141.0535  134.0450  157.3753 LP  0  0  0  0  0  0  0  0  0  0  0  0  # atno 17395 bound_to 11000

$$$$
