AV-unprocessed.smi:2069|AV-procd|sdf|8437|dock1
  -GOLD-   2272011133D 1   1.00000     0.00000
 Structure written by MMmdl.
 38 39  0  0  0  0  0  0  0  0  3 V2000
  147.2524  134.6552  162.1667 C   0  0  0  0  0  0  0  0  0  0  0  0
  147.5999  135.5052  160.9931 C   0  0  0  0  0  0  0  0  0  0  0  0
  148.0765  136.7465  161.1162 N   0  0  0  0  0  0  0  0  0  0  0  0
  148.3219  137.3366  159.8847 N   0  0  0  0  0  0  0  0  0  0  0  0
  148.0164  136.5410  158.8500 C   0  0  0  0  0  0  0  0  0  0  0  0
  148.1805  136.9253  157.5732 N   0  5  0  0  0  0  0  0  0  0  0  0
  148.0212  138.2242  157.2338 C   0  0  0  0  0  0  0  0  0  0  0  0
  148.0166  139.1881  158.0029 O   0  0  0  0  0  0  0  0  0  0  0  0
  147.8544  138.4204  155.9198 N   0  0  0  0  0  0  0  0  0  0  0  0
  147.6621  139.7182  155.2831 C   0  0  0  0  0  0  0  0  0  0  0  0
  146.4510  139.7248  154.3134 C   0  0  2  0  0  0  0  0  0  0  0  0
  146.9104  139.3548  152.8825 C   0  0  0  0  0  0  0  0  0  0  0  0
  145.7061  141.0283  154.3104 N   0  3  0  0  0  0  0  0  0  0  0  0
  145.0194  141.3063  155.6026 C   0  0  0  0  0  0  0  0  0  0  0  0
  144.2239  142.6205  155.5446 C   0  0  0  0  0  0  0  0  0  0  0  0
  145.0943  143.6895  155.2081 O   0  0  0  0  0  0  0  0  0  0  0  0
  145.6691  143.5004  153.9248 C   0  0  0  0  0  0  0  0  0  0  0  0
  146.5140  142.2152  153.9123 C   0  0  0  0  0  0  0  0  0  0  0  0
  147.4117  134.9572  159.3359 S   0  0  0  0  0  0  0  0  0  0  0  0
  146.2851  134.9551  162.5694 H   0  0  0  0  0  0  0  0  0  0  0  0
  148.0069  134.7608  162.9466 H   0  0  0  0  0  0  0  0  0  0  0  0
  147.2001  133.6068  161.8726 H   0  0  0  0  0  0  0  0  0  0  0  0
  147.8650  137.6072  155.3215 H   0  0  0  0  0  0  0  0  0  0  0  0
  147.5192  140.4328  156.0939 H   0  0  0  0  0  0  0  0  0  0  0  0
  148.5721  139.9998  154.7506 H   0  0  0  0  0  0  0  0  0  0  0  0
  145.7611  138.9532  154.6598 H   0  0  0  0  0  0  0  0  0  0  0  0
  147.4719  138.4211  152.8614 H   0  0  0  0  0  0  0  0  0  0  0  0
  147.5524  140.1298  152.4628 H   0  0  0  0  0  0  0  0  0  0  0  0
  146.0773  139.2041  152.1986 H   0  0  0  0  0  0  0  0  0  0  0  0
  144.3248  140.5099  155.8608 H   0  0  0  0  0  0  0  0  0  0  0  0
  145.7579  141.3578  156.4042 H   0  0  0  0  0  0  0  0  0  0  0  0
  143.4080  142.5530  154.8231 H   0  0  0  0  0  0  0  0  0  0  0  0
  143.7733  142.8278  156.5153 H   0  0  0  0  0  0  0  0  0  0  0  0
  144.8877  143.4602  153.1640 H   0  0  0  0  0  0  0  0  0  0  0  0
  146.2951  144.3614  153.6901 H   0  0  0  0  0  0  0  0  0  0  0  0
  147.3674  142.3195  154.5843 H   0  0  0  0  0  0  0  0  0  0  0  0
  146.9029  142.1013  152.9015 H   0  0  0  0  0  0  0  0  0  0  0  0
  144.9850  140.9384  153.6088 H   0  0  0  0  0  0  0  0  0  0  0  0
  1  2  1  0  0  0  0
  1 20  1  0  0  0  0
  1 21  1  0  0  0  0
  1 22  1  0  0  0  0
  2 19  1  0  0  0  0
  2  3  2  0  0  0  0
  3  4  1  0  0  0  0
  4  5  2  0  0  0  0
  5  6  1  0  0  0  0
  5 19  1  0  0  0  0
  6  7  1  0  0  0  0
  7  8  2  0  0  0  0
  7  9  1  0  0  0  0
  9 10  1  0  0  0  0
  9 23  1  0  0  0  0
 10 11  1  0  0  0  0
 10 24  1  0  0  0  0
 10 25  1  0  0  0  0
 11 12  1  0  0  0  0
 11 13  1  0  0  0  0
 11 26  1  0  0  0  0
 12 27  1  0  0  0  0
 12 28  1  0  0  0  0
 12 29  1  0  0  0  0
 13 18  1  0  0  0  0
 13 14  1  0  0  0  0
 13 38  1  0  0  0  0
 14 15  1  0  0  0  0
 14 30  1  0  0  0  0
 14 31  1  0  0  0  0
 15 16  1  0  0  0  0
 15 32  1  0  0  0  0
 15 33  1  0  0  0  0
 16 17  1  0  0  0  0
 17 18  1  0  0  0  0
 17 34  1  0  0  0  0
 17 35  1  0  0  0  0
 18 36  1  0  0  0  0
 18 37  1  0  0  0  0
M  CHG  1   6  -1
M  CHG  1  13   1
M  END
> <s_m_source_file>
AV-unprocessed.smi

> <i_m_source_file_index>
2069

> <i_lp_mmshare_version>
43012

> <i_f3d_flags>
0

> <s_epik_input>
W0NIM11jMW5uYyhzMSlbTkhdQyg9TylbTkhdW0NIMl1bQ0BIXShbQ0gzXSlOMltDSDJdW0NIMl1PW0NIMl1bQ0gyXTI=

> <s_epik_cmdline>
J2VwaWtfcHl0aG9uJywgJy1waCcsICc3LjAnLCAnLXRuJywgJzgnLCAnLW1hJywgJzIwMCcsICctbWV0YWxfYmluZGluZycsICctaW1hZScsICc8aW5maWxlLm1hZT4nLCAnLW9tYWUnLCAnPG91dGZpbGUubWFlPic=

> <r_lp_tautomer_probability>
1

> <r_epik_Ionization_Penalty>
3.53072

> <r_epik_Ionization_Penalty_Charging>
3.4216

> <r_epik_Ionization_Penalty_Neutral>
0.109115

> <r_epik_State_Penalty>
3.61496

> <r_epik_Charging_Adjusted_Penalty>
7.03656

> <i_epik_Tot_Q>
0

> <i_epik_Tot_abs_Q>
2

> <r_epik_Metal_State_Penalty>
1.13918

> <b_epik_Metal_Only>
1

> <s_lp_Force_Field>
OPLS_2005

> <r_lp_Energy>
13.5119

> <b_lp_Chiralities_Consistent>
1

> <s_lp_Variant>
AV-unprocessed.smi:2069-7

> <Gold.Version>
5.8.1

> <Gold.Id.Protein>
6NUR|6NUR_protein|mol2

> <Gold.PLP.Fitness>
34.3293

> <Gold.PLP.PLP>
-28.2205

> <Gold.PLP.part.hbond>
-5.3397

> <Gold.PLP.part.metal>
0.0000

> <Gold.PLP.part.buried>
-3.6366

> <Gold.PLP.part.nonpolar>
-18.7543

> <Gold.PLP.part.repulsive>
0.1935

> <Gold.PLP.ligand.clash>
0.0000

> <Gold.PLP.ligand.torsion>
0.8163

> <Gold.PLP.Chemscore.Hbond>
2.5500

> <Gold.PLP.Chemscore.CHOScore>
0.0000

> <Gold.PLP.Chemscore.Metal>
0.0000

> <Gold.Chemscore.Hbonds>
donor molecule, donor type, donor heavy atom, donor atom, acceptor molecule, acceptor atom, score
      L1  H    13    38       P1 10175  2.00
      P1  H  6931  6943       L1     3  0.35
      P1  H  6934  6947       L1     4  0.01

> <Gold.PLP.Chemscore.Internal.Correction>
0.0915

> <Gold.Rescore>
     Score         DG    S(hbond)    S(metal)    S(lipo)     H(rot)  DE(clash)    DE(int)     intcor
      8.97     -11.28       1.12        0.00      53.00       1.62       0.02       2.29       ----

> <Gold.Chemscore.Fitness>
8.9698

> <Gold.Chemscore.DG>
-11.2777

> <Gold.Chemscore.ZeroCoef>
-5.4800

> <Gold.Chemscore.Hbond>
1.1205

> <Gold.Chemscore.Metal>
0.0000

> <Gold.Chemscore.Lipo>
52.9960

> <Gold.Chemscore.Internal_Hbond>
0.0000

> <Gold.Chemscore.DEClash>
0.0166

> <Gold.Chemscore.DEInternal>
2.2913

> <Gold.Chemscore.Rot>
1.6192

> <Gold.Chemscore.Internal.Correction>
   9.000000E+99

> <Gold.Chemscore.Hbonds>
donor molecule, donor type, donor heavy atom, donor atom, acceptor molecule, acceptor atom, score
      L1  H    13    38       P1 10175  0.78
      P1  H  6931  6943       L1     3  0.01

> <Gold.Chemscore.Hbond.Weighted>
-3.7424

> <Gold.Chemscore.Metal.Weighted>
-0.0000

> <Gold.Chemscore.Lipo.Weighted>
-6.2005

> <Gold.Chemscore.Internal_Hbond.Weighted>
0.0000

> <Gold.Chemscore.DEClash.Weighted>
0.0166

> <Gold.Chemscore.DEInternal.Weighted>
2.2913

> <Gold.Chemscore.Rot.Weighted>
4.1452

> <Gold.Chemscore.Internal.Correction.Weighted>
   9.000000E+99

> <Gold.Protein.RotatedTorsions>
[ 6907 6896 6895 6894 ] final  -55.59 input  -60.11 | X-H torsion
[ 7974 7965 7964 7962 ] final -100.93 input  175.53 | X-H torsion
[ 8008 7997 7996 7995 ] final  146.19 input   59.86 | X-H torsion
[ 10167 10162 10161 10158 ] final  -40.14 input  -65.29 | X-H torsion
[ 10718 10713 10712 10709 ] final  -30.93 input   66.30 | X-H torsion
[ 10763 10752 10751 10750 ] final   92.53 input  -60.55 | X-H torsion
[ 11005 11000 10999 10996 ] final  125.48 input  -57.11 | X-H torsion

> <Gold.Protein.ActiveResidues>
 VAL166  LYS551  ARG553  GLY616  TRP617  ASP618  TYR619  PRO620  LYS621  CYS622 
 ASP623  PHE694  ASN695  SER759  ASP760  ASP761  ALA762  ILE779  LEU786  VAL792 
 PHE793  MET794  SER795  GLU796  ALA797  LYS798  CYS799  TRP800  GLU811  SER814 

> <Gold.Protein.RotatedAtoms>
  150.8238  134.7459  159.6795 H   0  0  0  0  0  0  0  0  0  0  0  0  # atno 6907 bound_to 6896
  152.4351  134.5698  159.9928 H   0  0  0  0  0  0  0  0  0  0  0  0  # atno 6908 bound_to 6896
  151.5876  133.3333  159.3057 H   0  0  0  0  0  0  0  0  0  0  0  0  # atno 6909 bound_to 6896
  145.2882  140.9345  143.2893 H   0  0  0  0  0  0  0  0  0  0  0  0  # atno 7974 bound_to 7965
  156.2862  140.2189  156.5337 H   0  0  0  0  0  0  0  0  0  0  0  0  # atno 8008 bound_to 7997
  154.7427  140.0486  157.0847 H   0  0  0  0  0  0  0  0  0  0  0  0  # atno 8009 bound_to 7997
  155.0210  140.3124  155.4796 H   0  0  0  0  0  0  0  0  0  0  0  0  # atno 8010 bound_to 7997
  140.7043  143.3171  151.2882 H   0  0  0  0  0  0  0  0  0  0  0  0  # atno 10167 bound_to 10162
  156.3936  130.4377  149.7375 H   0  0  0  0  0  0  0  0  0  0  0  0  # atno 10718 bound_to 10713
  153.2202  135.4358  155.0481 H   0  0  0  0  0  0  0  0  0  0  0  0  # atno 10763 bound_to 10752
  154.8246  135.3354  154.6938 H   0  0  0  0  0  0  0  0  0  0  0  0  # atno 10764 bound_to 10752
  153.7370  135.7007  153.5031 H   0  0  0  0  0  0  0  0  0  0  0  0  # atno 10765 bound_to 10752
  139.9408  134.9635  156.8564 H   0  0  0  0  0  0  0  0  0  0  0  0  # atno 11005 bound_to 11000
  144.9195  139.4429  143.6548 LP  0  0  0  0  0  0  0  0  0  0  0  0  # atno 17320 bound_to 7965
  146.3194  139.8048  142.8958 LP  0  0  0  0  0  0  0  0  0  0  0  0  # atno 17321 bound_to 7965
  139.6613  144.0184  152.2694 LP  0  0  0  0  0  0  0  0  0  0  0  0  # atno 17342 bound_to 10162
  139.9752  144.6466  150.7952 LP  0  0  0  0  0  0  0  0  0  0  0  0  # atno 17343 bound_to 10162
  156.4419  130.7865  151.2886 LP  0  0  0  0  0  0  0  0  0  0  0  0  # atno 17370 bound_to 10713
  157.7500  131.0122  150.3376 LP  0  0  0  0  0  0  0  0  0  0  0  0  # atno 17371 bound_to 10713
  140.5956  134.0220  155.7516 LP  0  0  0  0  0  0  0  0  0  0  0  0  # atno 17394 bound_to 11000
  141.1042  133.9720  157.3026 LP  0  0  0  0  0  0  0  0  0  0  0  0  # atno 17395 bound_to 11000

$$$$
