AV-unprocessed.smi:3058|AV-procd|sdf|11675|dock4
  -GOLD-   2272017 83D 1   1.00000     0.00000
 Structure written by MMmdl.
 39 41  0  0  0  0  0  0  0  0  2 V2000
  151.3476  141.1827  157.8863 O   0  0  0  0  0  0  0  0  0  0  0  0
  151.0058  142.3258  157.5809 C   0  0  0  0  0  0  0  0  0  0  0  0
  149.9015  142.5887  156.8650 N   0  0  0  0  0  0  0  0  0  0  0  0
  148.9667  141.5847  156.3712 C   0  0  0  0  0  0  0  0  0  0  0  0
  149.2458  141.2258  154.9023 C   0  0  0  0  0  0  0  0  0  0  0  0
  150.0735  139.9626  154.7702 C   0  0  0  0  0  0  0  0  0  0  0  0
  151.3633  139.8871  155.3411 C   0  0  0  0  0  0  0  0  0  0  0  0
  152.1105  138.6983  155.2056 C   0  0  0  0  0  0  0  0  0  0  0  0
  151.5503  137.6115  154.5034 C   0  0  0  0  0  0  0  0  0  0  0  0
  150.3127  137.7205  153.9718 N   0  3  0  0  0  0  0  0  0  0  0  0
  149.5657  138.8413  154.0789 C   0  0  0  0  0  0  0  0  0  0  0  0
  151.8574  143.5435  157.9822 C   0  0  2  0  0  0  0  0  0  0  0  0
  152.8303  143.2929  159.1613 C   0  0  0  0  0  0  0  0  0  0  0  0
  152.4932  144.4361  160.1373 C   0  0  2  0  0  0  0  0  0  0  0  0
  151.1349  144.1569  160.8075 C   0  0  0  0  0  0  0  0  0  0  0  0
  150.1323  144.4466  159.6754 C   0  0  0  0  0  0  0  0  0  0  0  0
  151.0543  144.7747  158.4800 C   0  0  1  0  0  0  0  0  0  0  0  0
  152.1490  145.5731  159.1820 C   0  0  0  0  0  0  0  0  0  0  0  0
  149.6939  143.5535  156.6504 H   0  0  0  0  0  0  0  0  0  0  0  0
  149.0128  140.6936  156.9999 H   0  0  0  0  0  0  0  0  0  0  0  0
  147.9572  141.9839  156.4719 H   0  0  0  0  0  0  0  0  0  0  0  0
  148.3062  141.0928  154.3642 H   0  0  0  0  0  0  0  0  0  0  0  0
  149.7705  142.0426  154.4045 H   0  0  0  0  0  0  0  0  0  0  0  0
  151.7762  140.7290  155.8782 H   0  0  0  0  0  0  0  0  0  0  0  0
  153.0989  138.6219  155.6351 H   0  0  0  0  0  0  0  0  0  0  0  0
  152.0501  136.6657  154.3527 H   0  0  0  0  0  0  0  0  0  0  0  0
  148.5914  138.8061  153.6131 H   0  0  0  0  0  0  0  0  0  0  0  0
  152.4476  143.8448  157.1144 H   0  0  0  0  0  0  0  0  0  0  0  0
  152.7265  142.3144  159.6322 H   0  0  0  0  0  0  0  0  0  0  0  0
  153.8627  143.3769  158.8194 H   0  0  0  0  0  0  0  0  0  0  0  0
  153.2926  144.6544  160.8459 H   0  0  0  0  0  0  0  0  0  0  0  0
  151.0609  143.1329  161.1754 H   0  0  0  0  0  0  0  0  0  0  0  0
  150.9671  144.8293  161.6496 H   0  0  0  0  0  0  0  0  0  0  0  0
  149.4450  143.6215  159.4936 H   0  0  0  0  0  0  0  0  0  0  0  0
  149.5234  145.3153  159.9290 H   0  0  0  0  0  0  0  0  0  0  0  0
  150.5517  145.3170  157.6786 H   0  0  0  0  0  0  0  0  0  0  0  0
  151.7798  146.4673  159.6880 H   0  0  0  0  0  0  0  0  0  0  0  0
  152.9748  145.8514  158.5248 H   0  0  0  0  0  0  0  0  0  0  0  0
  149.9255  136.9218  153.4683 H   0  0  0  0  0  0  0  0  0  0  0  0
  1  2  2  0  0  0  0
  2  3  1  0  0  0  0
  2 12  1  0  0  0  0
  3  4  1  0  0  0  0
  3 19  1  0  0  0  0
  4  5  1  0  0  0  0
  4 20  1  0  0  0  0
  4 21  1  0  0  0  0
  5  6  1  0  0  0  0
  5 22  1  0  0  0  0
  5 23  1  0  0  0  0
  6 11  1  0  0  0  0
  6  7  2  0  0  0  0
  7  8  1  0  0  0  0
  7 24  1  0  0  0  0
  8  9  2  0  0  0  0
  8 25  1  0  0  0  0
  9 10  1  0  0  0  0
  9 26  1  0  0  0  0
 10 11  2  0  0  0  0
 10 39  1  0  0  0  0
 11 27  1  0  0  0  0
 12 17  1  0  0  0  0
 12 13  1  0  0  0  0
 12 28  1  0  0  0  0
 13 14  1  0  0  0  0
 13 29  1  0  0  0  0
 13 30  1  0  0  0  0
 14 18  1  0  0  0  0
 14 15  1  0  0  0  0
 14 31  1  0  0  0  0
 15 16  1  0  0  0  0
 15 32  1  0  0  0  0
 15 33  1  0  0  0  0
 16 17  1  0  0  0  0
 16 34  1  0  0  0  0
 16 35  1  0  0  0  0
 17 18  1  0  0  0  0
 17 36  1  0  0  0  0
 18 37  1  0  0  0  0
 18 38  1  0  0  0  0
M  CHG  1  10   1
M  END
> <s_m_source_file>
AV-unprocessed.smi

> <i_m_source_file_index>
3058

> <i_lp_mmshare_version>
43012

> <i_f3d_flags>
0

> <s_epik_input>
W0NIMl0xW0NIMl1bQ0BIXShbQ0gyXTIpW0NAQEhdKFtDSDJdW0NAQEhdMTIpQyg9TylbTkhdW0NIMl1bQ0gyXWMzW2NIXVtjSF1bY0hdbltjSF0z

> <s_epik_cmdline>
J2VwaWtfcHl0aG9uJywgJy1waCcsICc3LjAnLCAnLXRuJywgJzgnLCAnLW1hJywgJzIwMCcsICctbWV0YWxfYmluZGluZycsICctaW1hZScsICc8aW5maWxlLm1hZT4nLCAnLW9tYWUnLCAnPG91dGZpbGUubWFlPic=

> <r_epik_Ionization_Penalty>
2.24375

> <r_epik_Ionization_Penalty_Charging>
2.24375

> <r_epik_Ionization_Penalty_Neutral>
1.89995e-08

> <r_epik_State_Penalty>
2.39035

> <r_epik_Charging_Adjusted_Penalty>
4.63411

> <i_epik_Tot_Q>
1

> <i_epik_Tot_abs_Q>
1

> <r_epik_Metal_State_Penalty>
2.40369

> <b_epik_Metal_Only>
0

> <s_lp_Force_Field>
OPLS_2005

> <r_lp_Energy>
54.0755

> <b_lp_Chiralities_Consistent>
1

> <s_lp_Variant>
AV-unprocessed.smi:3058-7

> <Gold.Version>
5.8.1

> <Gold.Id.Protein>
6NUR|6NUR_protein|mol2

> <Gold.PLP.Fitness>
51.4192

> <Gold.PLP.PLP>
-44.3115

> <Gold.PLP.part.hbond>
-2.7734

> <Gold.PLP.part.metal>
0.0000

> <Gold.PLP.part.buried>
-1.3760

> <Gold.PLP.part.nonpolar>
-39.7985

> <Gold.PLP.part.repulsive>
0.0991

> <Gold.PLP.ligand.clash>
0.0000

> <Gold.PLP.ligand.torsion>
0.9398

> <Gold.PLP.Chemscore.Hbond>
2.9920

> <Gold.PLP.Chemscore.CHOScore>
0.0000

> <Gold.PLP.Chemscore.Metal>
0.0000

> <Gold.Chemscore.Hbonds>
donor molecule, donor type, donor heavy atom, donor atom, acceptor molecule, acceptor atom, score
      L1  H     3    19       P1  8028  1.00
      L1  H    10    39       P1  7948  1.92

> <Gold.PLP.Chemscore.Internal.Correction>
0.0113

> <Gold.Rescore>
     Score         DG    S(hbond)    S(metal)    S(lipo)     H(rot)  DE(clash)    DE(int)     intcor
     21.27     -22.81       1.72        0.00     130.79       1.45       0.86       0.69       ----

> <Gold.Chemscore.Fitness>
21.2696

> <Gold.Chemscore.DG>
-22.8134

> <Gold.Chemscore.ZeroCoef>
-5.4800

> <Gold.Chemscore.Hbond>
1.7230

> <Gold.Chemscore.Metal>
0.0000

> <Gold.Chemscore.Lipo>
130.7943

> <Gold.Chemscore.Internal_Hbond>
0.0000

> <Gold.Chemscore.DEClash>
0.8551

> <Gold.Chemscore.DEInternal>
0.6886

> <Gold.Chemscore.Rot>
1.4548

> <Gold.Chemscore.Internal.Correction>
   9.000000E+99

> <Gold.Chemscore.Hbonds>
donor molecule, donor type, donor heavy atom, donor atom, acceptor molecule, acceptor atom, score
      L1  H     3    19       P1  8028  0.94
      L1  H    10    39       P1  7948  0.27

> <Gold.Chemscore.Hbond.Weighted>
-5.7547

> <Gold.Chemscore.Metal.Weighted>
-0.0000

> <Gold.Chemscore.Lipo.Weighted>
-15.3029

> <Gold.Chemscore.Internal_Hbond.Weighted>
0.0000

> <Gold.Chemscore.DEClash.Weighted>
0.8551

> <Gold.Chemscore.DEInternal.Weighted>
0.6886

> <Gold.Chemscore.Rot.Weighted>
3.7242

> <Gold.Chemscore.Internal.Correction.Weighted>
   9.000000E+99

> <Gold.Protein.RotatedTorsions>
[ 6907 6896 6895 6894 ] final  108.00 input  -60.11 | X-H torsion
[ 7974 7965 7964 7962 ] final -156.00 input  175.53 | X-H torsion
[ 8008 7997 7996 7995 ] final  174.12 input   59.86 | X-H torsion
[ 10167 10162 10161 10158 ] final  128.09 input  -65.29 | X-H torsion
[ 10718 10713 10712 10709 ] final  -80.70 input   66.30 | X-H torsion
[ 10763 10752 10751 10750 ] final   76.22 input  -60.55 | X-H torsion
[ 11005 11000 10999 10996 ] final -103.84 input  -57.11 | X-H torsion

> <Gold.Protein.ActiveResidues>
 VAL166  LYS551  ARG553  GLY616  TRP617  ASP618  TYR619  PRO620  LYS621  CYS622 
 ASP623  PHE694  ASN695  SER759  ASP760  ASP761  ALA762  ILE779  LEU786  VAL792 
 PHE793  MET794  SER795  GLU796  ALA797  LYS798  CYS799  TRP800  GLU811  SER814 

> <Gold.Protein.RotatedAtoms>
  152.5131  133.9153  159.7507 H   0  0  0  0  0  0  0  0  0  0  0  0  # atno 6907 bound_to 6896
  150.9537  133.6513  159.2774 H   0  0  0  0  0  0  0  0  0  0  0  0  # atno 6908 bound_to 6896
  151.3782  135.0940  159.9540 H   0  0  0  0  0  0  0  0  0  0  0  0  # atno 6909 bound_to 6896
  144.7613  140.4171  143.5974 H   0  0  0  0  0  0  0  0  0  0  0  0  # atno 7974 bound_to 7965
  156.1007  140.1442  156.9471 H   0  0  0  0  0  0  0  0  0  0  0  0  # atno 8008 bound_to 7997
  154.4700  140.0913  156.7166 H   0  0  0  0  0  0  0  0  0  0  0  0  # atno 8009 bound_to 7997
  155.4765  140.3443  155.4335 H   0  0  0  0  0  0  0  0  0  0  0  0  # atno 8010 bound_to 7997
  139.5545  144.6838  151.4224 H   0  0  0  0  0  0  0  0  0  0  0  0  # atno 10167 bound_to 10162
  156.0065  130.4582  150.3841 H   0  0  0  0  0  0  0  0  0  0  0  0  # atno 10718 bound_to 10713
  153.0709  135.4959  154.8303 H   0  0  0  0  0  0  0  0  0  0  0  0  # atno 10763 bound_to 10752
  154.7021  135.3004  154.9327 H   0  0  0  0  0  0  0  0  0  0  0  0  # atno 10764 bound_to 10752
  154.0047  135.6762  153.4814 H   0  0  0  0  0  0  0  0  0  0  0  0  # atno 10765 bound_to 10752
  141.1128  133.8673  157.1536 H   0  0  0  0  0  0  0  0  0  0  0  0  # atno 11005 bound_to 11000
  145.6610  139.1581  143.2808 LP  0  0  0  0  0  0  0  0  0  0  0  0  # atno 17320 bound_to 7965
  146.1679  140.6690  142.9247 LP  0  0  0  0  0  0  0  0  0  0  0  0  # atno 17321 bound_to 7965
  140.6815  143.8072  150.7127 LP  0  0  0  0  0  0  0  0  0  0  0  0  # atno 17342 bound_to 10162
  140.1526  143.4344  152.2121 LP  0  0  0  0  0  0  0  0  0  0  0  0  # atno 17343 bound_to 10162
  157.1919  131.0417  151.2696 LP  0  0  0  0  0  0  0  0  0  0  0  0  # atno 17370 bound_to 10713
  157.4054  130.7356  149.6798 LP  0  0  0  0  0  0  0  0  0  0  0  0  # atno 17371 bound_to 10713
  140.0031  135.0019  157.0234 LP  0  0  0  0  0  0  0  0  0  0  0  0  # atno 17394 bound_to 11000
  140.4730  134.1367  155.7205 LP  0  0  0  0  0  0  0  0  0  0  0  0  # atno 17395 bound_to 11000

$$$$
