AV-unprocessed.smi:1381|AV-procd|sdf|5611|dock6
  -GOLD-   22720 5223D 1   1.00000     0.00000
 Structure written by MMmdl.
 41 42  0  0  0  0  0  0  0  0  2 V2000
  153.7455  133.1999  165.2601 C   0  0  0  0  0  0  0  0  0  0  0  0
  154.1482  134.3395  164.3887 C   0  0  0  0  0  0  0  0  0  0  0  0
  154.0505  135.6951  164.5254 C   0  0  0  0  0  0  0  0  0  0  0  0
  154.6390  136.1856  163.3279 C   0  0  0  0  0  0  0  0  0  0  0  0
  154.7722  137.4770  162.9876 N   0  5  0  0  0  0  0  0  0  0  0  0
  154.4368  137.8903  161.7433 C   0  0  0  0  0  0  0  0  0  0  0  0
  154.2801  137.1728  160.7524 O   0  0  0  0  0  0  0  0  0  0  0  0
  154.2771  139.2177  161.6395 N   0  0  0  0  0  0  0  0  0  0  0  0
  153.9215  139.9429  160.4248 C   0  0  0  0  0  0  0  0  0  0  0  0
  153.6682  141.4344  160.7146 C   0  0  0  0  0  0  0  0  0  0  0  0
  153.0286  142.1752  159.6282 N   0  0  0  0  0  0  0  0  0  0  0  0
  152.4515  143.4221  160.1189 C   0  0  0  0  0  0  0  0  0  0  0  0
  151.7625  144.2405  159.0090 C   0  0  1  0  0  0  0  0  0  0  0  0
  152.7528  144.9222  158.0495 C   0  0  0  0  0  0  0  0  0  0  0  0
  150.8197  143.4266  158.3093 O   0  0  0  0  0  0  0  0  0  0  0  0
  151.3348  142.1936  157.8095 C   0  0  2  0  0  0  0  0  0  0  0  0
  150.1793  141.4221  157.1636 C   0  0  0  0  0  0  0  0  0  0  0  0
  151.9876  141.4027  158.9579 C   0  0  0  0  0  0  0  0  0  0  0  0
  155.0395  135.2128  162.5262 N   0  0  0  0  0  0  0  0  0  0  0  0
  154.7348  134.0255  163.2027 O   0  0  0  0  0  0  0  0  0  0  0  0
  152.9057  132.6589  164.8245 H   0  0  0  0  0  0  0  0  0  0  0  0
  153.4467  133.5520  166.2475 H   0  0  0  0  0  0  0  0  0  0  0  0
  154.5714  132.4998  165.3874 H   0  0  0  0  0  0  0  0  0  0  0  0
  153.6304  136.2495  165.3513 H   0  0  0  0  0  0  0  0  0  0  0  0
  154.4129  139.7667  162.4756 H   0  0  0  0  0  0  0  0  0  0  0  0
  154.7064  139.8253  159.6757 H   0  0  0  0  0  0  0  0  0  0  0  0
  153.0286  139.4693  160.0189 H   0  0  0  0  0  0  0  0  0  0  0  0
  153.0781  141.5342  161.6268 H   0  0  0  0  0  0  0  0  0  0  0  0
  154.6305  141.9004  160.9305 H   0  0  0  0  0  0  0  0  0  0  0  0
  151.7185  143.1985  160.8956 H   0  0  0  0  0  0  0  0  0  0  0  0
  153.2232  144.0301  160.5931 H   0  0  0  0  0  0  0  0  0  0  0  0
  151.1869  145.0338  159.4868 H   0  0  0  0  0  0  0  0  0  0  0  0
  153.3924  145.6228  158.5868 H   0  0  0  0  0  0  0  0  0  0  0  0
  152.2242  145.4825  157.2783 H   0  0  0  0  0  0  0  0  0  0  0  0
  153.4043  144.2030  157.5537 H   0  0  0  0  0  0  0  0  0  0  0  0
  152.0805  142.3990  157.0409 H   0  0  0  0  0  0  0  0  0  0  0  0
  150.5227  140.4725  156.7523 H   0  0  0  0  0  0  0  0  0  0  0  0
  149.7357  141.9957  156.3494 H   0  0  0  0  0  0  0  0  0  0  0  0
  149.3927  141.2091  157.8883 H   0  0  0  0  0  0  0  0  0  0  0  0
  152.4043  140.4827  158.5499 H   0  0  0  0  0  0  0  0  0  0  0  0
  151.2247  141.1075  159.6800 H   0  0  0  0  0  0  0  0  0  0  0  0
  1  2  1  0  0  0  0
  1 21  1  0  0  0  0
  1 22  1  0  0  0  0
  1 23  1  0  0  0  0
  2 20  1  0  0  0  0
  2  3  2  0  0  0  0
  3  4  1  0  0  0  0
  3 24  1  0  0  0  0
  4  5  1  0  0  0  0
  4 19  2  0  0  0  0
  5  6  1  0  0  0  0
  6  7  2  0  0  0  0
  6  8  1  0  0  0  0
  8  9  1  0  0  0  0
  8 25  1  0  0  0  0
  9 10  1  0  0  0  0
  9 26  1  0  0  0  0
  9 27  1  0  0  0  0
 10 11  1  0  0  0  0
 10 28  1  0  0  0  0
 10 29  1  0  0  0  0
 11 18  1  0  0  0  0
 11 12  1  0  0  0  0
 12 13  1  0  0  0  0
 12 30  1  0  0  0  0
 12 31  1  0  0  0  0
 13 14  1  0  0  0  0
 13 15  1  0  0  0  0
 13 32  1  0  0  0  0
 14 33  1  0  0  0  0
 14 34  1  0  0  0  0
 14 35  1  0  0  0  0
 15 16  1  0  0  0  0
 16 17  1  0  0  0  0
 16 18  1  0  0  0  0
 16 36  1  0  0  0  0
 17 37  1  0  0  0  0
 17 38  1  0  0  0  0
 17 39  1  0  0  0  0
 18 40  1  0  0  0  0
 18 41  1  0  0  0  0
 19 20  1  0  0  0  0
M  CHG  1   5  -1
M  END
> <s_m_source_file>
AV-unprocessed.smi

> <i_m_source_file_index>
1381

> <i_lp_mmshare_version>
43012

> <i_f3d_flags>
0

> <s_epik_input>
W0NIM11jMVtjSF1jKG5vMSlbTkhdQyg9TylbTkhdW0NIMl1bQ0gyXU4yW0NIMl1bQ0BASF0oW0NIM10pT1tDQEBIXShbQ0gzXSlbQ0gyXTI=

> <s_epik_cmdline>
J2VwaWtfcHl0aG9uJywgJy1waCcsICc3LjAnLCAnLXRuJywgJzgnLCAnLW1hJywgJzIwMCcsICctbWV0YWxfYmluZGluZycsICctaW1hZScsICc8aW5maWxlLm1hZT4nLCAnLW9tYWUnLCAnPG91dGZpbGUubWFlPic=

> <r_epik_Ionization_Penalty>
6.88366

> <r_epik_Ionization_Penalty_Charging>
6.57198

> <r_epik_Ionization_Penalty_Neutral>
0.311678

> <r_epik_State_Penalty>
6.77619

> <r_epik_Charging_Adjusted_Penalty>
13.3482

> <i_epik_Tot_Q>
-1

> <i_epik_Tot_abs_Q>
1

> <r_epik_Metal_State_Penalty>
2.70524

> <b_epik_Metal_Only>
1

> <s_lp_Force_Field>
OPLS_2005

> <r_lp_Energy>
15.952

> <b_lp_Chiralities_Consistent>
1

> <s_lp_Variant>
AV-unprocessed.smi:1381-10

> <Gold.Version>
5.8.1

> <Gold.Id.Protein>
6NUR|6NUR_protein|mol2

> <Gold.PLP.Fitness>
39.2590

> <Gold.PLP.PLP>
-40.5988

> <Gold.PLP.part.hbond>
0.0000

> <Gold.PLP.part.metal>
0.0000

> <Gold.PLP.part.buried>
-5.8489

> <Gold.PLP.part.nonpolar>
-35.2225

> <Gold.PLP.part.repulsive>
0.1518

> <Gold.PLP.ligand.clash>
0.0000

> <Gold.PLP.ligand.torsion>
0.6842

> <Gold.PLP.Chemscore.Hbond>
0.0000

> <Gold.PLP.Chemscore.CHOScore>
0.0000

> <Gold.PLP.Chemscore.Metal>
0.0000

> <Gold.PLP.Chemscore.Internal.Correction>
0.0286

> <Gold.Rescore>
     Score         DG    S(hbond)    S(metal)    S(lipo)     H(rot)  DE(clash)    DE(int)     intcor
     12.08     -14.24       0.00        0.00     108.63       1.54       0.07       2.10       ----

> <Gold.Chemscore.Fitness>
12.0790

> <Gold.Chemscore.DG>
-14.2449

> <Gold.Chemscore.ZeroCoef>
-5.4800

> <Gold.Chemscore.Hbond>
0.0000

> <Gold.Chemscore.Metal>
0.0000

> <Gold.Chemscore.Lipo>
108.6288

> <Gold.Chemscore.Internal_Hbond>
0.0000

> <Gold.Chemscore.DEClash>
0.0653

> <Gold.Chemscore.DEInternal>
2.1006

> <Gold.Chemscore.Rot>
1.5409

> <Gold.Chemscore.Internal.Correction>
   9.000000E+99

> <Gold.Chemscore.Hbond.Weighted>
-0.0000

> <Gold.Chemscore.Metal.Weighted>
-0.0000

> <Gold.Chemscore.Lipo.Weighted>
-12.7096

> <Gold.Chemscore.Internal_Hbond.Weighted>
0.0000

> <Gold.Chemscore.DEClash.Weighted>
0.0653

> <Gold.Chemscore.DEInternal.Weighted>
2.1006

> <Gold.Chemscore.Rot.Weighted>
3.9446

> <Gold.Chemscore.Internal.Correction.Weighted>
   9.000000E+99

> <Gold.Protein.RotatedTorsions>
[ 6907 6896 6895 6894 ] final  -90.55 input  -60.11 | X-H torsion
[ 7974 7965 7964 7962 ] final -124.09 input  175.53 | X-H torsion
[ 8008 7997 7996 7995 ] final   -5.56 input   59.86 | X-H torsion
[ 10167 10162 10161 10158 ] final  -93.33 input  -65.29 | X-H torsion
[ 10718 10713 10712 10709 ] final -110.53 input   66.30 | X-H torsion
[ 10763 10752 10751 10750 ] final  178.22 input  -60.55 | X-H torsion
[ 11005 11000 10999 10996 ] final   90.27 input  -57.11 | X-H torsion

> <Gold.Protein.ActiveResidues>
 VAL166  LYS551  ARG553  GLY616  TRP617  ASP618  TYR619  PRO620  LYS621  CYS622 
 ASP623  PHE694  ASN695  SER759  ASP760  ASP761  ALA762  ILE779  LEU786  VAL792 
 PHE793  MET794  SER795  GLU796  ALA797  LYS798  CYS799  TRP800  GLU811  SER814 

> <Gold.Protein.RotatedAtoms>
  150.6883  134.2415  159.4473 H   0  0  0  0  0  0  0  0  0  0  0  0  # atno 6907 bound_to 6896
  152.0358  134.9738  160.0582 H   0  0  0  0  0  0  0  0  0  0  0  0  # atno 6908 bound_to 6896
  152.1259  133.4345  159.4734 H   0  0  0  0  0  0  0  0  0  0  0  0  # atno 6909 bound_to 6896
  145.0117  140.7912  143.4434 H   0  0  0  0  0  0  0  0  0  0  0  0  # atno 7974 bound_to 7965
  154.6027  140.2455  155.7771 H   0  0  0  0  0  0  0  0  0  0  0  0  # atno 8008 bound_to 7997
  156.2321  140.2963  156.0168 H   0  0  0  0  0  0  0  0  0  0  0  0  # atno 8009 bound_to 7997
  155.2184  140.0399  157.2935 H   0  0  0  0  0  0  0  0  0  0  0  0  # atno 8010 bound_to 7997
  140.3258  143.3023  151.9997 H   0  0  0  0  0  0  0  0  0  0  0  0  # atno 10167 bound_to 10162
  156.0596  130.5820  150.8250 H   0  0  0  0  0  0  0  0  0  0  0  0  # atno 10718 bound_to 10713
  154.5048  135.2785  155.1391 H   0  0  0  0  0  0  0  0  0  0  0  0  # atno 10763 bound_to 10752
  154.3010  135.6248  153.5428 H   0  0  0  0  0  0  0  0  0  0  0  0  # atno 10764 bound_to 10752
  152.9908  135.5697  154.5500 H   0  0  0  0  0  0  0  0  0  0  0  0  # atno 10765 bound_to 10752
  139.8859  134.8603  156.3261 H   0  0  0  0  0  0  0  0  0  0  0  0  # atno 11005 bound_to 11000
  145.2014  139.2250  143.5191 LP  0  0  0  0  0  0  0  0  0  0  0  0  # atno 17320 bound_to 7965
  146.3471  140.1832  142.8589 LP  0  0  0  0  0  0  0  0  0  0  0  0  # atno 17321 bound_to 7965
  139.4865  144.6275  151.7136 LP  0  0  0  0  0  0  0  0  0  0  0  0  # atno 17342 bound_to 10162
  140.5442  144.0529  150.6100 LP  0  0  0  0  0  0  0  0  0  0  0  0  # atno 17343 bound_to 10162
  157.5594  131.0945  150.9581 LP  0  0  0  0  0  0  0  0  0  0  0  0  # atno 17370 bound_to 10713
  156.9822  130.5531  149.5297 LP  0  0  0  0  0  0  0  0  0  0  0  0  # atno 17371 bound_to 10713
  140.9754  133.7300  156.0595 LP  0  0  0  0  0  0  0  0  0  0  0  0  # atno 17394 bound_to 11000
  140.7817  134.3718  157.5486 LP  0  0  0  0  0  0  0  0  0  0  0  0  # atno 17395 bound_to 11000

$$$$
