AV-unprocessed.smi:1189|AV-procd|sdf|4979|dock6
  -GOLD-   22720 3573D 1   1.00000     0.00000
 Structure written by MMmdl.
 33 34  0  0  0  0  0  0  0  0  1 V2000
  150.3339  141.3752  158.6551 O   0  0  0  0  0  0  0  0  0  0  0  0
  150.6516  142.3172  157.9276 C   0  0  0  0  0  0  0  0  0  0  0  0
  151.7768  143.2785  158.3296 C   0  0  0  0  0  0  0  0  0  0  0  0
  152.6444  142.7251  159.3564 N   0  0  0  0  0  0  0  0  0  0  0  0
  153.0125  143.2861  160.5605 C   0  0  0  0  0  0  0  0  0  0  0  0
  153.8316  142.3934  161.1897 C   0  0  0  0  0  0  0  0  0  0  0  0
  153.9083  141.2949  160.2847 C   0  0  0  0  0  0  0  0  0  0  0  0
  154.6694  140.0049  160.4444 C   0  0  0  0  0  0  0  0  0  0  0  0
  155.3388  140.0025  161.5974 F   0  0  0  0  0  0  0  0  0  0  0  0
  153.8247  138.9737  160.4373 F   0  0  0  0  0  0  0  0  0  0  0  0
  155.5387  139.8626  159.4439 F   0  0  0  0  0  0  0  0  0  0  0  0
  153.1962  141.5044  159.1853 N   0  0  0  0  0  0  0  0  0  0  0  0
  150.0457  142.5801  156.7591 N   0  0  0  0  0  0  0  0  0  0  0  0
  148.9544  141.8054  156.1759 C   0  0  0  0  0  0  0  0  0  0  0  0
  149.1133  140.2951  156.4356 C   0  0  1  0  0  0  0  0  0  0  0  0
  148.2250  139.4304  155.5643 C   0  0  0  0  0  0  0  0  0  0  0  0
  148.8980  138.0645  155.6704 C   0  0  0  0  0  0  0  0  0  0  0  0
  150.2804  138.3221  155.8997 O   0  0  0  0  0  0  0  0  0  0  0  0
  150.4895  139.7153  156.1047 C   0  0  0  0  0  0  0  0  0  0  0  0
  152.3796  143.5383  157.4576 H   0  0  0  0  0  0  0  0  0  0  0  0
  151.3389  144.2041  158.7044 H   0  0  0  0  0  0  0  0  0  0  0  0
  152.6623  144.2608  160.8665 H   0  0  0  0  0  0  0  0  0  0  0  0
  154.3037  142.5059  162.1543 H   0  0  0  0  0  0  0  0  0  0  0  0
  150.3708  143.3753  156.2285 H   0  0  0  0  0  0  0  0  0  0  0  0
  148.0262  142.1539  156.6290 H   0  0  0  0  0  0  0  0  0  0  0  0
  148.8633  142.0060  155.1069 H   0  0  0  0  0  0  0  0  0  0  0  0
  148.8845  140.0800  157.4809 H   0  0  0  0  0  0  0  0  0  0  0  0
  147.1850  139.4164  155.8917 H   0  0  0  0  0  0  0  0  0  0  0  0
  148.2522  139.7788  154.5307 H   0  0  0  0  0  0  0  0  0  0  0  0
  148.5033  137.5102  156.5226 H   0  0  0  0  0  0  0  0  0  0  0  0
  148.7493  137.4600  154.7754 H   0  0  0  0  0  0  0  0  0  0  0  0
  150.8771  140.1440  155.1795 H   0  0  0  0  0  0  0  0  0  0  0  0
  151.2208  139.8939  156.8933 H   0  0  0  0  0  0  0  0  0  0  0  0
  1  2  2  0  0  0  0
  2  3  1  0  0  0  0
  2 13  1  0  0  0  0
  3  4  1  0  0  0  0
  3 20  1  0  0  0  0
  3 21  1  0  0  0  0
  4 12  1  0  0  0  0
  4  5  1  0  0  0  0
  5  6  2  0  0  0  0
  5 22  1  0  0  0  0
  6  7  1  0  0  0  0
  6 23  1  0  0  0  0
  7  8  1  0  0  0  0
  7 12  2  0  0  0  0
  8  9  1  0  0  0  0
  8 10  1  0  0  0  0
  8 11  1  0  0  0  0
 13 14  1  0  0  0  0
 13 24  1  0  0  0  0
 14 15  1  0  0  0  0
 14 25  1  0  0  0  0
 14 26  1  0  0  0  0
 15 19  1  0  0  0  0
 15 16  1  0  0  0  0
 15 27  1  0  0  0  0
 16 17  1  0  0  0  0
 16 28  1  0  0  0  0
 16 29  1  0  0  0  0
 17 18  1  0  0  0  0
 17 30  1  0  0  0  0
 17 31  1  0  0  0  0
 18 19  1  0  0  0  0
 19 32  1  0  0  0  0
 19 33  1  0  0  0  0
M  END
> <s_m_source_file>
AV-unprocessed.smi

> <i_m_source_file_index>
1189

> <i_lp_mmshare_version>
43012

> <i_f3d_flags>
0

> <s_epik_input>
W0NIMl0xT1tDSDJdW0NIMl1bQ0BIXTFbQ0gyXVtOSF1DKD1PKVtDSDJdbjJbY0hdW2NIXWMobjIpQyhGKShGKUY=

> <s_epik_cmdline>
J2VwaWtfcHl0aG9uJywgJy1waCcsICc3LjAnLCAnLXRuJywgJzgnLCAnLW1hJywgJzIwMCcsICctbWV0YWxfYmluZGluZycsICctaW1hZScsICc8aW5maWxlLm1hZT4nLCAnLW9tYWUnLCAnPG91dGZpbGUubWFlPic=

> <r_lp_tautomer_probability>
1

> <r_epik_Ionization_Penalty>
1.26564e-07

> <r_epik_Ionization_Penalty_Charging>
0

> <r_epik_Ionization_Penalty_Neutral>
1.26564e-07

> <r_epik_State_Penalty>
-0

> <r_epik_Charging_Adjusted_Penalty>
0

> <i_epik_Tot_Q>
0

> <i_epik_Tot_abs_Q>
0

> <r_epik_Metal_State_Penalty>
-0

> <b_epik_Metal_Only>
0

> <s_lp_Force_Field>
OPLS_2005

> <r_lp_Energy>
22.0534

> <b_lp_Chiralities_Consistent>
1

> <s_lp_Variant>
AV-unprocessed.smi:1189-2

> <Gold.Version>
5.8.1

> <Gold.Id.Protein>
6NUR|6NUR_protein|mol2

> <Gold.PLP.Fitness>
43.8491

> <Gold.PLP.PLP>
-44.9532

> <Gold.PLP.part.hbond>
-1.0000

> <Gold.PLP.part.metal>
0.0000

> <Gold.PLP.part.buried>
-3.9996

> <Gold.PLP.part.nonpolar>
-39.7531

> <Gold.PLP.part.repulsive>
0.1276

> <Gold.PLP.ligand.clash>
0.0000

> <Gold.PLP.ligand.torsion>
0.5570

> <Gold.PLP.Chemscore.Hbond>
0.0000

> <Gold.PLP.Chemscore.CHOScore>
0.0000

> <Gold.PLP.Chemscore.Metal>
0.0000

> <Gold.Chemscore.Hbonds>
donor molecule, donor type, donor heavy atom, donor atom, acceptor molecule, acceptor atom, score
      L1  H    13    24       P1  8028  0.29

> <Gold.PLP.Chemscore.Internal.Correction>
0.0099

> <Gold.Rescore>
     Score         DG    S(hbond)    S(metal)    S(lipo)     H(rot)  DE(clash)    DE(int)     intcor
      8.08     -11.94       0.49        0.00      82.57       1.89       0.08       3.78       ----

> <Gold.Chemscore.Fitness>
8.0827

> <Gold.Chemscore.DG>
-11.9433

> <Gold.Chemscore.ZeroCoef>
-5.4800

> <Gold.Chemscore.Hbond>
0.4933

> <Gold.Chemscore.Metal>
0.0000

> <Gold.Chemscore.Lipo>
82.5740

> <Gold.Chemscore.Internal_Hbond>
0.0000

> <Gold.Chemscore.DEClash>
0.0813

> <Gold.Chemscore.DEInternal>
3.7793

> <Gold.Chemscore.Rot>
1.8928

> <Gold.Chemscore.Internal.Correction>
   9.000000E+99

> <Gold.Chemscore.Hbonds>
donor molecule, donor type, donor heavy atom, donor atom, acceptor molecule, acceptor atom, score
      L1  H    13    24       P1  8028  0.27

> <Gold.Chemscore.Hbond.Weighted>
-1.6476

> <Gold.Chemscore.Metal.Weighted>
-0.0000

> <Gold.Chemscore.Lipo.Weighted>
-9.6612

> <Gold.Chemscore.Internal_Hbond.Weighted>
0.0000

> <Gold.Chemscore.DEClash.Weighted>
0.0813

> <Gold.Chemscore.DEInternal.Weighted>
3.7793

> <Gold.Chemscore.Rot.Weighted>
4.8455

> <Gold.Chemscore.Internal.Correction.Weighted>
   9.000000E+99

> <Gold.Protein.RotatedTorsions>
[ 6907 6896 6895 6894 ] final  124.32 input  -60.11 | X-H torsion
[ 7974 7965 7964 7962 ] final  -79.39 input  175.53 | X-H torsion
[ 8008 7997 7996 7995 ] final  135.11 input   59.86 | X-H torsion
[ 10167 10162 10161 10158 ] final   43.15 input  -65.29 | X-H torsion
[ 10718 10713 10712 10709 ] final   17.19 input   66.30 | X-H torsion
[ 10763 10752 10751 10750 ] final -164.86 input  -60.55 | X-H torsion
[ 11005 11000 10999 10996 ] final  -86.78 input  -57.11 | X-H torsion

> <Gold.Protein.ActiveResidues>
 VAL166  LYS551  ARG553  GLY616  TRP617  ASP618  TYR619  PRO620  LYS621  CYS622 
 ASP623  PHE694  ASN695  SER759  ASP760  ASP761  ALA762  ILE779  LEU786  VAL792 
 PHE793  MET794  SER795  GLU796  ALA797  LYS798  CYS799  TRP800  GLU811  SER814 

> <Gold.Protein.RotatedAtoms>
  152.4088  133.6930  159.6379 H   0  0  0  0  0  0  0  0  0  0  0  0  # atno 6907 bound_to 6896
  150.7970  133.8662  159.3254 H   0  0  0  0  0  0  0  0  0  0  0  0  # atno 6908 bound_to 6896
  151.6409  135.1014  160.0192 H   0  0  0  0  0  0  0  0  0  0  0  0  # atno 6909 bound_to 6896
  145.5739  140.9461  143.1381 H   0  0  0  0  0  0  0  0  0  0  0  0  # atno 7974 bound_to 7965
  156.3002  140.2479  156.3528 H   0  0  0  0  0  0  0  0  0  0  0  0  # atno 8008 bound_to 7997
  154.8950  140.0408  157.1880 H   0  0  0  0  0  0  0  0  0  0  0  0  # atno 8009 bound_to 7997
  154.8559  140.2913  155.5573 H   0  0  0  0  0  0  0  0  0  0  0  0  # atno 8010 bound_to 7997
  140.3472  144.2395  150.6149 H   0  0  0  0  0  0  0  0  0  0  0  0  # atno 10167 bound_to 10162
  157.0785  130.6378  149.5821 H   0  0  0  0  0  0  0  0  0  0  0  0  # atno 10718 bound_to 10713
  154.6987  135.2984  154.9373 H   0  0  0  0  0  0  0  0  0  0  0  0  # atno 10763 bound_to 10752
  154.0312  135.6670  153.4785 H   0  0  0  0  0  0  0  0  0  0  0  0  # atno 10764 bound_to 10752
  153.0665  135.5085  154.8119 H   0  0  0  0  0  0  0  0  0  0  0  0  # atno 10765 bound_to 10752
  141.1625  133.7474  156.9211 H   0  0  0  0  0  0  0  0  0  0  0  0  # atno 11005 bound_to 11000
  144.7425  139.7410  143.7305 LP  0  0  0  0  0  0  0  0  0  0  0  0  # atno 17320 bound_to 7965
  146.1765  139.4937  142.9894 LP  0  0  0  0  0  0  0  0  0  0  0  0  # atno 17321 bound_to 7965
  140.5253  143.2256  151.8325 LP  0  0  0  0  0  0  0  0  0  0  0  0  # atno 17342 bound_to 10162
  139.4831  144.4787  151.9334 LP  0  0  0  0  0  0  0  0  0  0  0  0  # atno 17343 bound_to 10162
  155.9930  130.4990  150.7363 LP  0  0  0  0  0  0  0  0  0  0  0  0  # atno 17370 bound_to 10713
  157.4819  131.0903  151.0526 LP  0  0  0  0  0  0  0  0  0  0  0  0  # atno 17371 bound_to 10713
  140.1451  134.9268  157.2518 LP  0  0  0  0  0  0  0  0  0  0  0  0  # atno 17394 bound_to 11000
  140.2790  134.3372  155.7349 LP  0  0  0  0  0  0  0  0  0  0  0  0  # atno 17395 bound_to 11000

$$$$
