AV-unprocessed.smi:221|AV-procd|sdf|1689|dock2
  -GOLD-   2262020133D 1   1.00000     0.00000
 Structure written by MMmdl.
 50 53  0  0  0  0  0  0  0  0  1 V2000
  142.4257  133.9781  154.4415 N   0  0  0  0  0  0  0  0  0  0  0  0
  142.9636  134.9767  153.7330 C   0  0  0  0  0  0  0  0  0  0  0  0
  142.5940  136.1396  153.8799 O   0  0  0  0  0  0  0  0  0  0  0  0
  144.0684  134.6519  152.7078 C   0  0  1  0  0  0  0  0  0  0  0  0
  143.5406  133.7135  151.6100 C   0  0  0  0  0  0  0  0  0  0  0  0
  144.4481  133.9975  150.4182 C   0  0  2  0  0  0  0  0  0  0  0  0
  145.5867  133.3156  150.5529 F   0  0  0  0  0  0  0  0  0  0  0  0
  144.7341  135.4934  150.5442 C   0  0  0  0  0  0  0  0  0  0  0  0
  144.5829  135.8087  151.9610 N   0  0  0  0  0  0  0  0  0  0  0  0
  145.4260  136.7197  152.5193 C   0  0  0  0  0  0  0  0  0  0  0  0
  146.0528  137.6278  151.7250 N   0  0  0  0  0  0  0  0  0  0  0  0
  146.8851  138.5306  152.2509 C   0  0  0  0  0  0  0  0  0  0  0  0
  147.2346  138.6978  153.5268 N   0  0  0  0  0  0  0  0  0  0  0  0
  146.6226  137.7826  154.3309 C   0  0  0  0  0  0  0  0  0  0  0  0
  145.7118  136.7696  153.9151 C   0  0  0  0  0  0  0  0  0  0  0  0
  145.3055  136.0241  155.0168 N   0  0  0  0  0  0  0  0  0  0  0  0
  145.9293  136.5712  156.0237 C   0  0  0  0  0  0  0  0  0  0  0  0
  146.7486  137.6279  155.7005 N   0  0  0  0  0  0  0  0  0  0  0  0
  147.5528  138.4126  156.6205 C   0  0  0  0  0  0  0  0  0  0  0  0
  149.0684  138.0860  156.5163 C   0  0  2  0  0  0  0  0  0  0  0  0
  149.8676  138.8370  157.6030 C   0  0  0  0  0  0  0  0  0  0  0  0
  149.6143  138.3012  158.8852 O   0  0  0  0  0  0  0  0  0  0  0  0
  149.6535  138.3133  155.0954 C   0  0  2  0  0  0  0  0  0  0  0  0
  151.0429  137.7149  154.8584 C   0  0  0  0  0  0  0  0  0  0  0  0
  151.7968  138.8245  154.1317 C   0  0  0  0  0  0  0  0  0  0  0  0
  151.2220  140.0054  154.6639 O   0  0  0  0  0  0  0  0  0  0  0  0
  149.8196  139.7927  154.7130 C   0  0  0  0  0  0  0  0  0  0  0  0
  144.8943  134.1565  153.2211 H   0  0  0  0  0  0  0  0  0  0  0  0
  144.0086  133.7202  149.4596 H   0  0  0  0  0  0  0  0  0  0  0  0
  141.6961  134.1745  155.1112 H   0  0  0  0  0  0  0  0  0  0  0  0
  142.7458  133.0313  154.2986 H   0  0  0  0  0  0  0  0  0  0  0  0
  143.5568  132.6647  151.9089 H   0  0  0  0  0  0  0  0  0  0  0  0
  142.5122  133.9660  151.3446 H   0  0  0  0  0  0  0  0  0  0  0  0
  145.7227  135.7379  150.1516 H   0  0  0  0  0  0  0  0  0  0  0  0
  143.9969  136.0700  149.9844 H   0  0  0  0  0  0  0  0  0  0  0  0
  147.3356  139.2166  151.5490 H   0  0  0  0  0  0  0  0  0  0  0  0
  145.8154  136.2122  157.0364 H   0  0  0  0  0  0  0  0  0  0  0  0
  147.3526  139.4672  156.4339 H   0  0  0  0  0  0  0  0  0  0  0  0
  147.1798  138.2222  157.6275 H   0  0  0  0  0  0  0  0  0  0  0  0
  149.1964  137.0232  156.7304 H   0  0  0  0  0  0  0  0  0  0  0  0
  150.9385  138.8024  157.4009 H   0  0  0  0  0  0  0  0  0  0  0  0
  149.5805  139.8890  157.6231 H   0  0  0  0  0  0  0  0  0  0  0  0
  148.8840  138.7646  159.2665 H   0  0  0  0  0  0  0  0  0  0  0  0
  148.9651  137.8778  154.3696 H   0  0  0  0  0  0  0  0  0  0  0  0
  151.5474  137.4870  155.7971 H   0  0  0  0  0  0  0  0  0  0  0  0
  151.0079  136.7929  154.2774 H   0  0  0  0  0  0  0  0  0  0  0  0
  152.8726  138.7862  154.3042 H   0  0  0  0  0  0  0  0  0  0  0  0
  151.6170  138.7810  153.0563 H   0  0  0  0  0  0  0  0  0  0  0  0
  149.4010  139.9786  153.7228 H   0  0  0  0  0  0  0  0  0  0  0  0
  149.3350  140.4796  155.4063 H   0  0  0  0  0  0  0  0  0  0  0  0
  1  2  1  0  0  0  0
  1 30  1  0  0  0  0
  1 31  1  0  0  0  0
  2  3  2  0  0  0  0
  2  4  1  0  0  0  0
  4 28  1  0  0  0  0
  4  9  1  0  0  0  0
  4  5  1  0  0  0  0
  5  6  1  0  0  0  0
  5 32  1  0  0  0  0
  5 33  1  0  0  0  0
  6 29  1  0  0  0  0
  6  7  1  0  0  0  0
  6  8  1  0  0  0  0
  8  9  1  0  0  0  0
  8 34  1  0  0  0  0
  8 35  1  0  0  0  0
  9 10  1  0  0  0  0
 10 15  1  0  0  0  0
 10 11  2  0  0  0  0
 11 12  1  0  0  0  0
 12 13  2  0  0  0  0
 12 36  1  0  0  0  0
 13 14  1  0  0  0  0
 14 18  1  0  0  0  0
 14 15  2  0  0  0  0
 15 16  1  0  0  0  0
 16 17  2  0  0  0  0
 17 18  1  0  0  0  0
 17 37  1  0  0  0  0
 18 19  1  0  0  0  0
 19 20  1  0  0  0  0
 19 38  1  0  0  0  0
 19 39  1  0  0  0  0
 20 21  1  0  0  0  0
 20 23  1  0  0  0  0
 20 40  1  0  0  0  0
 21 22  1  0  0  0  0
 21 41  1  0  0  0  0
 21 42  1  0  0  0  0
 22 43  1  0  0  0  0
 23 27  1  0  0  0  0
 23 24  1  0  0  0  0
 23 44  1  0  0  0  0
 24 25  1  0  0  0  0
 24 45  1  0  0  0  0
 24 46  1  0  0  0  0
 25 26  1  0  0  0  0
 25 47  1  0  0  0  0
 25 48  1  0  0  0  0
 26 27  1  0  0  0  0
 27 49  1  0  0  0  0
 27 50  1  0  0  0  0
M  END
> <s_m_source_file>
AV-unprocessed.smi

> <i_m_source_file_index>
221

> <i_lp_mmshare_version>
43012

> <i_f3d_flags>
0

> <s_epik_input>
W05IMl1DKD1PKVtDQEBIXTFbQ0gyXVtDQEBIXShGKVtDSDJdTjFjKG5bY0hdbjIpYyhjMjMpbltjSF1uM1tDSDJdW0NASF0oW0NIMl1bT0hdKVtDQEBIXTRbQ0gyXVtDSDJdT1tDSDJdNA==

> <s_epik_cmdline>
J2VwaWtfcHl0aG9uJywgJy1waCcsICc3LjAnLCAnLXRuJywgJzgnLCAnLW1hJywgJzIwMCcsICctbWV0YWxfYmluZGluZycsICctaW1hZScsICc8aW5maWxlLm1hZT4nLCAnLW9tYWUnLCAnPG91dGZpbGUubWFlPic=

> <r_lp_tautomer_probability>
1

> <r_epik_Ionization_Penalty>
0.000818822

> <r_epik_Ionization_Penalty_Charging>
0

> <r_epik_Ionization_Penalty_Neutral>
0.000818822

> <r_epik_State_Penalty>
0.000440551

> <r_epik_Charging_Adjusted_Penalty>
0.000440551

> <i_epik_Tot_Q>
0

> <i_epik_Tot_abs_Q>
0

> <r_epik_Metal_State_Penalty>
-0

> <b_epik_Metal_Only>
0

> <s_lp_Force_Field>
OPLS_2005

> <r_lp_Energy>
52.2348

> <b_lp_Chiralities_Consistent>
1

> <s_lp_Variant>
AV-unprocessed.smi:221-4

> <Gold.Version>
5.8.1

> <Gold.Id.Protein>
6NUR|6NUR_protein|mol2

> <Gold.PLP.Fitness>
44.8797

> <Gold.PLP.PLP>
-33.4988

> <Gold.PLP.part.hbond>
-4.4154

> <Gold.PLP.part.metal>
0.0000

> <Gold.PLP.part.buried>
-5.3273

> <Gold.PLP.part.nonpolar>
-25.6095

> <Gold.PLP.part.repulsive>
1.0330

> <Gold.PLP.ligand.clash>
0.0000

> <Gold.PLP.ligand.torsion>
0.5481

> <Gold.PLP.Chemscore.Hbond>
2.9920

> <Gold.PLP.Chemscore.CHOScore>
1.0000

> <Gold.PLP.Chemscore.Metal>
0.0000

> <Gold.Chemscore.Hbonds>
donor molecule, donor type, donor heavy atom, donor atom, acceptor molecule, acceptor atom, score
      L1  H     1    30       P1 11000  0.96
      L1  H     1    31       P1 10957  0.48
      P1  H  7989  7998       L1    26  0.66
      L1  C    12    36       P1  7957  1.00

> <Gold.PLP.Chemscore.Internal.Correction>
0.5011

> <Gold.Rescore>
     Score         DG    S(hbond)    S(metal)    S(lipo)     H(rot)  DE(clash)    DE(int)     intcor
      3.39      -9.49       1.85        0.00      53.92       3.31       0.58       5.52       ----

> <Gold.Chemscore.Fitness>
3.3917

> <Gold.Chemscore.DG>
-9.4926

> <Gold.Chemscore.ZeroCoef>
-5.4800

> <Gold.Chemscore.Hbond>
1.8489

> <Gold.Chemscore.Metal>
0.0000

> <Gold.Chemscore.Lipo>
53.9161

> <Gold.Chemscore.Internal_Hbond>
0.0000

> <Gold.Chemscore.DEClash>
0.5778

> <Gold.Chemscore.DEInternal>
5.5231

> <Gold.Chemscore.Rot>
3.3089

> <Gold.Chemscore.Internal.Correction>
   9.000000E+99

> <Gold.Chemscore.Hbonds>
donor molecule, donor type, donor heavy atom, donor atom, acceptor molecule, acceptor atom, score
      L1  H     1    30       P1 11000  0.89
      L1  H     1    31       P1 10957  0.48
      P1  H  7989  7998       L1    26  0.06

> <Gold.Chemscore.Hbond.Weighted>
-6.1753

> <Gold.Chemscore.Metal.Weighted>
-0.0000

> <Gold.Chemscore.Lipo.Weighted>
-6.3082

> <Gold.Chemscore.Internal_Hbond.Weighted>
0.0000

> <Gold.Chemscore.DEClash.Weighted>
0.5778

> <Gold.Chemscore.DEInternal.Weighted>
5.5231

> <Gold.Chemscore.Rot.Weighted>
8.4709

> <Gold.Chemscore.Internal.Correction.Weighted>
   9.000000E+99

> <Gold.Protein.RotatedTorsions>
[ 6907 6896 6895 6894 ] final  -98.92 input  -60.11 | X-H torsion
[ 7974 7965 7964 7962 ] final  -98.45 input  175.53 | X-H torsion
[ 8008 7997 7996 7995 ] final  110.43 input   59.86 | X-H torsion
[ 10167 10162 10161 10158 ] final   54.91 input  -65.29 | X-H torsion
[ 10718 10713 10712 10709 ] final  157.93 input   66.30 | X-H torsion
[ 10763 10752 10751 10750 ] final   54.74 input  -60.55 | X-H torsion
[ 11005 11000 10999 10996 ] final  151.83 input  -57.11 | X-H torsion

> <Gold.Protein.ActiveResidues>
 VAL166  LYS551  ARG553  GLY616  TRP617  ASP618  TYR619  PRO620  LYS621  CYS622 
 ASP623  PHE694  ASN695  SER759  ASP760  ASP761  ALA762  ILE779  LEU786  VAL792 
 PHE793  MET794  SER795  GLU796  ALA797  LYS798  CYS799  TRP800  GLU811  SER814 

> <Gold.Protein.RotatedAtoms>
  150.7062  134.1120  159.4003 H   0  0  0  0  0  0  0  0  0  0  0  0  # atno 6907 bound_to 6896
  151.9106  135.0338  160.0523 H   0  0  0  0  0  0  0  0  0  0  0  0  # atno 6908 bound_to 6896
  152.2338  133.5045  159.5268 H   0  0  0  0  0  0  0  0  0  0  0  0  # atno 6909 bound_to 6896
  145.3204  140.9420  143.2719 H   0  0  0  0  0  0  0  0  0  0  0  0  # atno 7974 bound_to 7965
  156.2052  140.3039  155.9612 H   0  0  0  0  0  0  0  0  0  0  0  0  # atno 8008 bound_to 7997
  155.2858  140.0440  157.3036 H   0  0  0  0  0  0  0  0  0  0  0  0  # atno 8009 bound_to 7997
  154.5624  140.2324  155.8324 H   0  0  0  0  0  0  0  0  0  0  0  0  # atno 8010 bound_to 7997
  140.2251  144.3747  150.6435 H   0  0  0  0  0  0  0  0  0  0  0  0  # atno 10167 bound_to 10162
  157.1848  131.0641  151.2112 H   0  0  0  0  0  0  0  0  0  0  0  0  # atno 10718 bound_to 10713
  152.9808  135.5735  154.4953 H   0  0  0  0  0  0  0  0  0  0  0  0  # atno 10763 bound_to 10752
  154.4481  135.2777  155.1803 H   0  0  0  0  0  0  0  0  0  0  0  0  # atno 10764 bound_to 10752
  154.3442  135.6223  153.5665 H   0  0  0  0  0  0  0  0  0  0  0  0  # atno 10765 bound_to 10752
  140.1253  134.8837  157.2129 H   0  0  0  0  0  0  0  0  0  0  0  0  # atno 11005 bound_to 11000
  144.8944  139.4732  143.6663 LP  0  0  0  0  0  0  0  0  0  0  0  0  # atno 17320 bound_to 7965
  146.3084  139.7660  142.9038 LP  0  0  0  0  0  0  0  0  0  0  0  0  # atno 17321 bound_to 7965
  140.6226  143.2178  151.6662 LP  0  0  0  0  0  0  0  0  0  0  0  0  # atno 17342 bound_to 10162
  139.5130  144.3458  152.0698 LP  0  0  0  0  0  0  0  0  0  0  0  0  # atno 17343 bound_to 10162
  157.3918  130.7286  149.6703 LP  0  0  0  0  0  0  0  0  0  0  0  0  # atno 17370 bound_to 10713
  155.9719  130.4144  150.4132 LP  0  0  0  0  0  0  0  0  0  0  0  0  # atno 17371 bound_to 10713
  140.2911  134.3239  155.7315 LP  0  0  0  0  0  0  0  0  0  0  0  0  # atno 17394 bound_to 11000
  141.2160  133.7535  156.9505 LP  0  0  0  0  0  0  0  0  0  0  0  0  # atno 17395 bound_to 11000

$$$$
