AV-unprocessed.smi:2151|AV-procd|sdf|8759|dock3
  -GOLD-   2272011533D 1   1.00000     0.00000
 Structure written by MMmdl.
 39 40  0  0  0  0  0  0  0  0  1 V2000
  151.1907  140.6888  158.1290 C   0  0  0  0  0  0  0  0  0  0  0  0
  151.1758  142.0921  157.5059 C   0  0  1  0  0  0  0  0  0  0  0  0
  150.1506  142.1369  156.4644 N   0  0  0  0  0  0  0  0  0  0  0  0
  150.0756  141.3306  155.3941 C   0  0  0  0  0  0  0  0  0  0  0  0
  150.8966  140.4449  155.1520 O   0  0  0  0  0  0  0  0  0  0  0  0
  148.8982  141.5904  154.4437 C   0  0  0  0  0  0  0  0  0  0  0  0
  147.6113  141.0957  154.9609 N   0  0  0  0  0  0  0  0  0  0  0  0
  146.6223  142.0573  155.2470 C   0  0  0  0  0  0  0  0  0  0  0  0
  145.4081  141.7378  155.7345 C   0  0  0  0  0  0  0  0  0  0  0  0
  144.3421  142.7953  155.9761 C   0  0  0  0  0  0  0  0  0  0  0  0
  144.6640  143.5784  157.0062 F   0  0  0  0  0  0  0  0  0  0  0  0
  144.2129  143.5630  154.8948 F   0  0  0  0  0  0  0  0  0  0  0  0
  143.1590  142.2343  156.2297 F   0  0  0  0  0  0  0  0  0  0  0  0
  145.1419  140.3257  155.9275 C   0  0  0  0  0  0  0  0  0  0  0  0
  146.0718  139.3922  155.6450 C   0  0  0  0  0  0  0  0  0  0  0  0
  147.3944  139.7573  155.1329 C   0  0  0  0  0  0  0  0  0  0  0  0
  148.2534  138.9137  154.8751 O   0  0  0  0  0  0  0  0  0  0  0  0
  150.9145  143.1885  158.5578 C   0  0  2  0  0  0  0  0  0  0  0  0
  151.6388  144.5118  158.3000 C   0  0  0  0  0  0  0  0  0  0  0  0
  151.6927  145.1054  159.6884 C   0  0  0  0  0  0  0  0  0  0  0  0
  151.9562  143.8702  160.5436 C   0  0  0  0  0  0  0  0  0  0  0  0
  151.3758  142.7730  159.8419 O   0  0  0  0  0  0  0  0  0  0  0  0
  151.9624  140.6052  158.8947 H   0  0  0  0  0  0  0  0  0  0  0  0
  151.3943  139.9276  157.3751 H   0  0  0  0  0  0  0  0  0  0  0  0
  150.2335  140.4500  158.5941 H   0  0  0  0  0  0  0  0  0  0  0  0
  152.1609  142.2701  157.0714 H   0  0  0  0  0  0  0  0  0  0  0  0
  149.4337  142.8400  156.5707 H   0  0  0  0  0  0  0  0  0  0  0  0
  148.8312  142.6594  154.2322 H   0  0  0  0  0  0  0  0  0  0  0  0
  149.1289  141.1249  153.4845 H   0  0  0  0  0  0  0  0  0  0  0  0
  146.9113  143.0765  155.0343 H   0  0  0  0  0  0  0  0  0  0  0  0
  144.1814  140.0094  156.3069 H   0  0  0  0  0  0  0  0  0  0  0  0
  145.8386  138.3491  155.8012 H   0  0  0  0  0  0  0  0  0  0  0  0
  149.8436  143.3835  158.6392 H   0  0  0  0  0  0  0  0  0  0  0  0
  152.6500  144.3328  157.9310 H   0  0  0  0  0  0  0  0  0  0  0  0
  151.1202  145.1495  157.5834 H   0  0  0  0  0  0  0  0  0  0  0  0
  152.4585  145.8734  159.7995 H   0  0  0  0  0  0  0  0  0  0  0  0
  150.7271  145.5432  159.9453 H   0  0  0  0  0  0  0  0  0  0  0  0
  153.0283  143.6924  160.6361 H   0  0  0  0  0  0  0  0  0  0  0  0
  151.5413  143.9651  161.5473 H   0  0  0  0  0  0  0  0  0  0  0  0
  1  2  1  0  0  0  0
  1 23  1  0  0  0  0
  1 24  1  0  0  0  0
  1 25  1  0  0  0  0
  2  3  1  0  0  0  0
  2 18  1  0  0  0  0
  2 26  1  0  0  0  0
  3  4  1  0  0  0  0
  3 27  1  0  0  0  0
  4  5  2  0  0  0  0
  4  6  1  0  0  0  0
  6  7  1  0  0  0  0
  6 28  1  0  0  0  0
  6 29  1  0  0  0  0
  7 16  1  0  0  0  0
  7  8  1  0  0  0  0
  8  9  2  0  0  0  0
  8 30  1  0  0  0  0
  9 10  1  0  0  0  0
  9 14  1  0  0  0  0
 10 11  1  0  0  0  0
 10 12  1  0  0  0  0
 10 13  1  0  0  0  0
 14 15  2  0  0  0  0
 14 31  1  0  0  0  0
 15 16  1  0  0  0  0
 15 32  1  0  0  0  0
 16 17  2  0  0  0  0
 18 22  1  0  0  0  0
 18 19  1  0  0  0  0
 18 33  1  0  0  0  0
 19 20  1  0  0  0  0
 19 34  1  0  0  0  0
 19 35  1  0  0  0  0
 20 21  1  0  0  0  0
 20 36  1  0  0  0  0
 20 37  1  0  0  0  0
 21 22  1  0  0  0  0
 21 38  1  0  0  0  0
 21 39  1  0  0  0  0
M  END
> <s_m_source_file>
AV-unprocessed.smi

> <i_m_source_file_index>
2151

> <i_lp_mmshare_version>
43012

> <i_f3d_flags>
0

> <s_epik_input>
TzFbQ0gyXVtDSDJdW0NIMl1bQ0BIXTFbQ0BIXShbQ0gzXSlbTkhdQyg9TylbQ0gyXW4yW2NIXWMoQyhGKShGKUYpW2NIXVtjSF1jMj1P

> <s_epik_cmdline>
J2VwaWtfcHl0aG9uJywgJy1waCcsICc3LjAnLCAnLXRuJywgJzgnLCAnLW1hJywgJzIwMCcsICctbWV0YWxfYmluZGluZycsICctaW1hZScsICc8aW5maWxlLm1hZT4nLCAnLW9tYWUnLCAnPG91dGZpbGUubWFlPic=

> <r_lp_tautomer_probability>
1

> <r_epik_Ionization_Penalty>
4.20109e-08

> <r_epik_Ionization_Penalty_Charging>
1.89977e-08

> <r_epik_Ionization_Penalty_Neutral>
2.30132e-08

> <r_epik_State_Penalty>
-0

> <r_epik_Charging_Adjusted_Penalty>
1.89977e-08

> <i_epik_Tot_Q>
0

> <i_epik_Tot_abs_Q>
0

> <r_epik_Metal_State_Penalty>
-0

> <b_epik_Metal_Only>
0

> <s_lp_Force_Field>
OPLS_2005

> <r_lp_Energy>
30.2794

> <b_lp_Chiralities_Consistent>
1

> <s_lp_Variant>
AV-unprocessed.smi:2151-2

> <Gold.Version>
5.8.1

> <Gold.Id.Protein>
6NUR|6NUR_protein|mol2

> <Gold.PLP.Fitness>
45.9751

> <Gold.PLP.PLP>
-40.5462

> <Gold.PLP.part.hbond>
-2.0000

> <Gold.PLP.part.metal>
0.0000

> <Gold.PLP.part.buried>
-4.4241

> <Gold.PLP.part.nonpolar>
-34.1379

> <Gold.PLP.part.repulsive>
0.2175

> <Gold.PLP.ligand.clash>
0.0000

> <Gold.PLP.ligand.torsion>
1.2914

> <Gold.PLP.Chemscore.Hbond>
1.9000

> <Gold.PLP.Chemscore.CHOScore>
0.7361

> <Gold.PLP.Chemscore.Metal>
0.0000

> <Gold.Chemscore.Hbonds>
donor molecule, donor type, donor heavy atom, donor atom, acceptor molecule, acceptor atom, score
      L1  H     3    27       P1  8028  0.52
      P1  H  7989  7998       L1     5  1.00
      L1  C     8    30       P1  8028  0.54

> <Gold.PLP.Chemscore.Internal.Correction>
0.1032

> <Gold.Rescore>
     Score         DG    S(hbond)    S(metal)    S(lipo)     H(rot)  DE(clash)    DE(int)     intcor
     11.13     -13.61       0.73        0.00      88.59       1.82       0.21       2.27       ----

> <Gold.Chemscore.Fitness>
11.1300

> <Gold.Chemscore.DG>
-13.6069

> <Gold.Chemscore.ZeroCoef>
-5.4800

> <Gold.Chemscore.Hbond>
0.7272

> <Gold.Chemscore.Metal>
0.0000

> <Gold.Chemscore.Lipo>
88.5868

> <Gold.Chemscore.Internal_Hbond>
0.0000

> <Gold.Chemscore.DEClash>
0.2056

> <Gold.Chemscore.DEInternal>
2.2714

> <Gold.Chemscore.Rot>
1.8228

> <Gold.Chemscore.Internal.Correction>
   9.000000E+99

> <Gold.Chemscore.Hbonds>
donor molecule, donor type, donor heavy atom, donor atom, acceptor molecule, acceptor atom, score
      L1  H     3    27       P1  8028  0.51
      P1  H  7989  7998       L1     5  0.53

> <Gold.Chemscore.Hbond.Weighted>
-2.4287

> <Gold.Chemscore.Metal.Weighted>
-0.0000

> <Gold.Chemscore.Lipo.Weighted>
-10.3647

> <Gold.Chemscore.Internal_Hbond.Weighted>
0.0000

> <Gold.Chemscore.DEClash.Weighted>
0.2056

> <Gold.Chemscore.DEInternal.Weighted>
2.2714

> <Gold.Chemscore.Rot.Weighted>
4.6665

> <Gold.Chemscore.Internal.Correction.Weighted>
   9.000000E+99

> <Gold.Protein.RotatedTorsions>
[ 6907 6896 6895 6894 ] final   88.52 input  -60.11 | X-H torsion
[ 7974 7965 7964 7962 ] final  -99.77 input  175.53 | X-H torsion
[ 8008 7997 7996 7995 ] final  -50.19 input   59.86 | X-H torsion
[ 10167 10162 10161 10158 ] final -114.65 input  -65.29 | X-H torsion
[ 10718 10713 10712 10709 ] final   28.58 input   66.30 | X-H torsion
[ 10763 10752 10751 10750 ] final  -65.94 input  -60.55 | X-H torsion
[ 11005 11000 10999 10996 ] final  104.35 input  -57.11 | X-H torsion

> <Gold.Protein.ActiveResidues>
 VAL166  LYS551  ARG553  GLY616  TRP617  ASP618  TYR619  PRO620  LYS621  CYS622 
 ASP623  PHE694  ASN695  SER759  ASP760  ASP761  ALA762  ILE779  LEU786  VAL792 
 PHE793  MET794  SER795  GLU796  ALA797  LYS798  CYS799  TRP800  GLU811  SER814 

> <Gold.Protein.RotatedAtoms>
  152.5426  134.2109  159.8749 H   0  0  0  0  0  0  0  0  0  0  0  0  # atno 6907 bound_to 6896
  151.2092  133.4559  159.2605 H   0  0  0  0  0  0  0  0  0  0  0  0  # atno 6908 bound_to 6896
  151.0914  134.9931  159.8460 H   0  0  0  0  0  0  0  0  0  0  0  0  # atno 6909 bound_to 6896
  145.3033  140.9382  143.2811 H   0  0  0  0  0  0  0  0  0  0  0  0  # atno 7974 bound_to 7965
  154.4057  140.1278  156.4625 H   0  0  0  0  0  0  0  0  0  0  0  0  # atno 8008 bound_to 7997
  155.7258  140.3492  155.5017 H   0  0  0  0  0  0  0  0  0  0  0  0  # atno 8009 bound_to 7997
  155.9172  140.1046  157.1224 H   0  0  0  0  0  0  0  0  0  0  0  0  # atno 8010 bound_to 7997
  140.0987  143.4633  152.1826 H   0  0  0  0  0  0  0  0  0  0  0  0  # atno 10167 bound_to 10162
  157.2353  130.7043  149.6333 H   0  0  0  0  0  0  0  0  0  0  0  0  # atno 10718 bound_to 10713
  154.3524  135.6133  153.5649 H   0  0  0  0  0  0  0  0  0  0  0  0  # atno 10763 bound_to 10752
  152.9797  135.5795  154.4728 H   0  0  0  0  0  0  0  0  0  0  0  0  # atno 10764 bound_to 10752
  154.4451  135.2851  155.1798 H   0  0  0  0  0  0  0  0  0  0  0  0  # atno 10765 bound_to 10752
  139.8791  134.9297  156.5349 H   0  0  0  0  0  0  0  0  0  0  0  0  # atno 11005 bound_to 11000
  144.9076  139.4570  143.6602 LP  0  0  0  0  0  0  0  0  0  0  0  0  # atno 17320 bound_to 7965
  146.3144  139.7865  142.8995 LP  0  0  0  0  0  0  0  0  0  0  0  0  # atno 17321 bound_to 7965
  139.5684  144.7448  151.3959 LP  0  0  0  0  0  0  0  0  0  0  0  0  # atno 17342 bound_to 10162
  140.6990  143.7679  150.7372 LP  0  0  0  0  0  0  0  0  0  0  0  0  # atno 17343 bound_to 10162
  155.9673  130.4475  150.5584 LP  0  0  0  0  0  0  0  0  0  0  0  0  # atno 17370 bound_to 10713
  157.3435  131.0721  151.1769 LP  0  0  0  0  0  0  0  0  0  0  0  0  # atno 17371 bound_to 10713
  140.8353  133.8247  155.9023 LP  0  0  0  0  0  0  0  0  0  0  0  0  # atno 17394 bound_to 11000
  140.9289  134.2047  157.4877 LP  0  0  0  0  0  0  0  0  0  0  0  0  # atno 17395 bound_to 11000

$$$$
