AV-unprocessed.smi:1952|AV-procd|sdf|7886|dock7
  -GOLD-   2272010 43D 1   1.00000     0.00000
 Structure written by MMmdl.
 40 41  0  0  0  0  0  0  0  0  2 V2000
  153.7446  137.5968  157.1848 C   0  0  0  0  0  0  0  0  0  0  0  0
  152.7613  138.0757  156.1723 C   0  0  0  0  0  0  0  0  0  0  0  0
  151.7160  137.4721  155.5313 C   0  0  0  0  0  0  0  0  0  0  0  0
  151.2131  138.5053  154.6967 C   0  0  0  0  0  0  0  0  0  0  0  0
  150.0982  138.2810  153.8489 N   0  0  0  0  0  0  0  0  0  0  0  0
  148.9075  138.9026  153.8846 C   0  0  0  0  0  0  0  0  0  0  0  0
  148.6006  139.8027  154.6667 O   0  0  0  0  0  0  0  0  0  0  0  0
  148.0715  138.4129  152.9562 N   0  0  0  0  0  0  0  0  0  0  0  0
  146.7120  138.8848  152.6871 C   0  0  1  0  0  0  0  0  0  0  0  0
  146.7548  139.8778  151.5175 C   0  0  0  0  0  0  0  0  0  0  0  0
  145.7498  137.7113  152.3876 C   0  0  0  0  0  0  0  0  0  0  0  0
  144.4265  137.8549  153.0461 N   0  3  0  0  0  0  0  0  0  0  0  0
  143.4730  136.7725  152.7011 C   0  0  0  0  0  0  0  0  0  0  0  0
  142.1081  137.0398  153.3563 C   0  0  0  0  0  0  0  0  0  0  0  0
  142.2719  137.1494  154.7652 O   0  0  0  0  0  0  0  0  0  0  0  0
  143.1241  138.2316  155.1199 C   0  0  0  0  0  0  0  0  0  0  0  0
  144.5220  138.0099  154.5164 C   0  0  0  0  0  0  0  0  0  0  0  0
  151.8861  139.6389  154.8212 N   0  0  0  0  0  0  0  0  0  0  0  0
  152.8828  139.3688  155.7662 O   0  0  0  0  0  0  0  0  0  0  0  0
  153.4353  136.6404  157.6068 H   0  0  0  0  0  0  0  0  0  0  0  0
  153.8389  138.3114  158.0026 H   0  0  0  0  0  0  0  0  0  0  0  0
  154.7286  137.4656  156.7343 H   0  0  0  0  0  0  0  0  0  0  0  0
  151.3722  136.4544  155.6425 H   0  0  0  0  0  0  0  0  0  0  0  0
  150.2217  137.5708  153.1423 H   0  0  0  0  0  0  0  0  0  0  0  0
  148.4137  137.6721  152.3614 H   0  0  0  0  0  0  0  0  0  0  0  0
  146.3501  139.4375  153.5552 H   0  0  0  0  0  0  0  0  0  0  0  0
  145.7646  140.2856  151.3125 H   0  0  0  0  0  0  0  0  0  0  0  0
  147.1140  139.4027  150.6038 H   0  0  0  0  0  0  0  0  0  0  0  0
  147.4151  140.7174  151.7379 H   0  0  0  0  0  0  0  0  0  0  0  0
  145.6082  137.5932  151.3122 H   0  0  0  0  0  0  0  0  0  0  0  0
  146.2226  136.7900  152.7320 H   0  0  0  0  0  0  0  0  0  0  0  0
  143.3481  136.7036  151.6210 H   0  0  0  0  0  0  0  0  0  0  0  0
  143.8674  135.8127  153.0388 H   0  0  0  0  0  0  0  0  0  0  0  0
  141.6548  137.9487  152.9570 H   0  0  0  0  0  0  0  0  0  0  0  0
  141.4213  136.2206  153.1426 H   0  0  0  0  0  0  0  0  0  0  0  0
  142.6962  139.1743  154.7749 H   0  0  0  0  0  0  0  0  0  0  0  0
  143.1879  138.2895  156.2067 H   0  0  0  0  0  0  0  0  0  0  0  0
  144.9831  137.1210  154.9498 H   0  0  0  0  0  0  0  0  0  0  0  0
  145.1635  138.8575  154.7604 H   0  0  0  0  0  0  0  0  0  0  0  0
  144.0280  138.7158  152.6978 H   0  0  0  0  0  0  0  0  0  0  0  0
  1  2  1  0  0  0  0
  1 20  1  0  0  0  0
  1 21  1  0  0  0  0
  1 22  1  0  0  0  0
  2 19  1  0  0  0  0
  2  3  2  0  0  0  0
  3  4  1  0  0  0  0
  3 23  1  0  0  0  0
  4  5  1  0  0  0  0
  4 18  2  0  0  0  0
  5  6  1  0  0  0  0
  5 24  1  0  0  0  0
  6  7  2  0  0  0  0
  6  8  1  0  0  0  0
  8  9  1  0  0  0  0
  8 25  1  0  0  0  0
  9 10  1  0  0  0  0
  9 11  1  0  0  0  0
  9 26  1  0  0  0  0
 10 27  1  0  0  0  0
 10 28  1  0  0  0  0
 10 29  1  0  0  0  0
 11 12  1  0  0  0  0
 11 30  1  0  0  0  0
 11 31  1  0  0  0  0
 12 17  1  0  0  0  0
 12 13  1  0  0  0  0
 12 40  1  0  0  0  0
 13 14  1  0  0  0  0
 13 32  1  0  0  0  0
 13 33  1  0  0  0  0
 14 15  1  0  0  0  0
 14 34  1  0  0  0  0
 14 35  1  0  0  0  0
 15 16  1  0  0  0  0
 16 17  1  0  0  0  0
 16 36  1  0  0  0  0
 16 37  1  0  0  0  0
 17 38  1  0  0  0  0
 17 39  1  0  0  0  0
 18 19  1  0  0  0  0
M  CHG  1  12   1
M  END
> <s_m_source_file>
AV-unprocessed.smi

> <i_m_source_file_index>
1952

> <i_lp_mmshare_version>
43012

> <i_f3d_flags>
0

> <s_epik_input>
W0NIM11jMVtjSF1jKG5vMSlbTkhdQyg9TylbTkhdW0NASF0oW0NIM10pW0NIMl1OMltDSDJdW0NIMl1PW0NIMl1bQ0gyXTI=

> <s_epik_cmdline>
J2VwaWtfcHl0aG9uJywgJy1waCcsICc3LjAnLCAnLXRuJywgJzgnLCAnLW1hJywgJzIwMCcsICctbWV0YWxfYmluZGluZycsICctaW1hZScsICc8aW5maWxlLm1hZT4nLCAnLW9tYWUnLCAnPG91dGZpbGUubWFlPic=

> <r_epik_Ionization_Penalty>
0.707079

> <r_epik_Ionization_Penalty_Charging>
0.707039

> <r_epik_Ionization_Penalty_Neutral>
4.01892e-05

> <r_epik_State_Penalty>
0.730276

> <r_epik_Charging_Adjusted_Penalty>
1.43732

> <i_epik_Tot_Q>
1

> <i_epik_Tot_abs_Q>
1

> <r_epik_Metal_State_Penalty>
0.744847

> <b_epik_Metal_Only>
0

> <s_lp_Force_Field>
OPLS_2005

> <r_lp_Energy>
19.2195

> <b_lp_Chiralities_Consistent>
1

> <s_lp_Variant>
AV-unprocessed.smi:1952-4

> <Gold.Version>
5.8.1

> <Gold.Id.Protein>
6NUR|6NUR_protein|mol2

> <Gold.PLP.Fitness>
41.5741

> <Gold.PLP.PLP>
-28.3495

> <Gold.PLP.part.hbond>
-6.7470

> <Gold.PLP.part.metal>
0.0000

> <Gold.PLP.part.buried>
-0.2967

> <Gold.PLP.part.nonpolar>
-22.0541

> <Gold.PLP.part.repulsive>
0.3259

> <Gold.PLP.ligand.clash>
0.0000

> <Gold.PLP.ligand.torsion>
1.4856

> <Gold.PLP.Chemscore.Hbond>
5.3920

> <Gold.PLP.Chemscore.CHOScore>
0.0000

> <Gold.PLP.Chemscore.Metal>
0.0000

> <Gold.Chemscore.Hbonds>
donor molecule, donor type, donor heavy atom, donor atom, acceptor molecule, acceptor atom, score
      L1  H     5    24       P1  7948  0.38
      L1  H     8    25       P1  7948  1.00
      L1  H    12    40       P1 10175  2.00
      P1  H  7989  7998       L1    18  0.98
      P1  H  7997  8009       L1    19  1.00

> <Gold.PLP.Chemscore.Internal.Correction>
0.0198

> <Gold.Rescore>
     Score         DG    S(hbond)    S(metal)    S(lipo)     H(rot)  DE(clash)    DE(int)     intcor
     17.87     -20.29       3.87        0.00      51.38       1.61       0.88       1.54       ----

> <Gold.Chemscore.Fitness>
17.8706

> <Gold.Chemscore.DG>
-20.2905

> <Gold.Chemscore.ZeroCoef>
-5.4800

> <Gold.Chemscore.Hbond>
3.8669

> <Gold.Chemscore.Metal>
0.0000

> <Gold.Chemscore.Lipo>
51.3756

> <Gold.Chemscore.Internal_Hbond>
0.0000

> <Gold.Chemscore.DEClash>
0.8823

> <Gold.Chemscore.DEInternal>
1.5376

> <Gold.Chemscore.Rot>
1.6078

> <Gold.Chemscore.Internal.Correction>
   9.000000E+99

> <Gold.Chemscore.Hbonds>
donor molecule, donor type, donor heavy atom, donor atom, acceptor molecule, acceptor atom, score
      L1  H     5    24       P1  7948  0.06
      L1  H     8    25       P1  7948  0.98
      L1  H    12    40       P1 10175  1.00
      P1  H  7989  7998       L1    18  0.88
      P1  H  7997  8009       L1    19  0.93

> <Gold.Chemscore.Hbond.Weighted>
-12.9154

> <Gold.Chemscore.Metal.Weighted>
-0.0000

> <Gold.Chemscore.Lipo.Weighted>
-6.0109

> <Gold.Chemscore.Internal_Hbond.Weighted>
0.0000

> <Gold.Chemscore.DEClash.Weighted>
0.8823

> <Gold.Chemscore.DEInternal.Weighted>
1.5376

> <Gold.Chemscore.Rot.Weighted>
4.1158

> <Gold.Chemscore.Internal.Correction.Weighted>
   9.000000E+99

> <Gold.Protein.RotatedTorsions>
[ 6907 6896 6895 6894 ] final   75.15 input  -60.11 | X-H torsion
[ 7974 7965 7964 7962 ] final  -18.64 input  175.53 | X-H torsion
[ 8008 7997 7996 7995 ] final -150.82 input   59.86 | X-H torsion
[ 10167 10162 10161 10158 ] final   28.49 input  -65.29 | X-H torsion
[ 10718 10713 10712 10709 ] final   65.75 input   66.30 | X-H torsion
[ 10763 10752 10751 10750 ] final  -53.92 input  -60.55 | X-H torsion
[ 11005 11000 10999 10996 ] final  -54.85 input  -57.11 | X-H torsion

> <Gold.Protein.ActiveResidues>
 VAL166  LYS551  ARG553  GLY616  TRP617  ASP618  TYR619  PRO620  LYS621  CYS622 
 ASP623  PHE694  ASN695  SER759  ASP760  ASP761  ALA762  ILE779  LEU786  VAL792 
 PHE793  MET794  SER795  GLU796  ALA797  LYS798  CYS799  TRP800  GLU811  SER814 

> <Gold.Protein.RotatedAtoms>
  152.5011  134.4164  159.9465 H   0  0  0  0  0  0  0  0  0  0  0  0  # atno 6907 bound_to 6896
  151.4135  133.3714  159.2755 H   0  0  0  0  0  0  0  0  0  0  0  0  # atno 6908 bound_to 6896
  150.9274  134.8713  159.7588 H   0  0  0  0  0  0  0  0  0  0  0  0  # atno 6909 bound_to 6896
  146.1882  140.3949  142.8468 H   0  0  0  0  0  0  0  0  0  0  0  0  # atno 7974 bound_to 7965
  155.6296  140.0690  157.2653 H   0  0  0  0  0  0  0  0  0  0  0  0  # atno 8008 bound_to 7997
  154.4209  140.1770  156.1507 H   0  0  0  0  0  0  0  0  0  0  0  0  # atno 8009 bound_to 7997
  155.9944  140.3342  155.6787 H   0  0  0  0  0  0  0  0  0  0  0  0  # atno 8010 bound_to 7997
  140.4848  144.0559  150.6277 H   0  0  0  0  0  0  0  0  0  0  0  0  # atno 10167 bound_to 10162
  157.6126  130.9231  150.0018 H   0  0  0  0  0  0  0  0  0  0  0  0  # atno 10718 bound_to 10713
  154.1666  135.6466  153.4999 H   0  0  0  0  0  0  0  0  0  0  0  0  # atno 10763 bound_to 10752
  153.0096  135.5373  154.6656 H   0  0  0  0  0  0  0  0  0  0  0  0  # atno 10764 bound_to 10752
  154.5984  135.2941  155.0533 H   0  0  0  0  0  0  0  0  0  0  0  0  # atno 10765 bound_to 10752
  141.1046  133.6614  156.4382 H   0  0  0  0  0  0  0  0  0  0  0  0  # atno 11005 bound_to 11000
  144.8436  140.6896  143.6213 LP  0  0  0  0  0  0  0  0  0  0  0  0  # atno 17320 bound_to 7965
  145.3874  139.1624  143.4248 LP  0  0  0  0  0  0  0  0  0  0  0  0  # atno 17321 bound_to 7965
  140.3811  143.2802  152.0169 LP  0  0  0  0  0  0  0  0  0  0  0  0  # atno 17342 bound_to 10162
  139.4840  144.6153  151.7357 LP  0  0  0  0  0  0  0  0  0  0  0  0  # atno 17343 bound_to 10162
  156.1234  130.3645  149.9849 LP  0  0  0  0  0  0  0  0  0  0  0  0  # atno 17370 bound_to 10713
  156.7925  130.9261  151.3646 LP  0  0  0  0  0  0  0  0  0  0  0  0  # atno 17371 bound_to 10713
  140.4936  134.6552  157.5221 LP  0  0  0  0  0  0  0  0  0  0  0  0  # atno 17394 bound_to 11000
  139.9910  134.6985  155.9689 LP  0  0  0  0  0  0  0  0  0  0  0  0  # atno 17395 bound_to 11000

$$$$
