AV-unprocessed.smi:2446|AV-procd|sdf|9644|dock4
  -GOLD-   2272013273D 1   1.00000     0.00000
 Structure written by MMmdl.
 39 40  0  0  0  0  0  0  0  0  1 V2000
  145.3507  135.6868  151.0957 C   0  0  0  0  0  0  0  0  0  0  0  0
  145.2494  134.1838  150.9007 C   0  0  0  0  0  0  0  0  0  0  0  0
  144.1801  133.6411  150.1562 C   0  0  0  0  0  0  0  0  0  0  0  0
  144.0161  132.3198  149.9406 N   0  0  0  0  0  0  0  0  0  0  0  0
  144.9253  131.4781  150.4733 C   0  0  0  0  0  0  0  0  0  0  0  0
  146.0309  131.9099  151.2317 C   0  0  0  0  0  0  0  0  0  0  0  0
  146.2113  133.2981  151.4444 C   0  0  0  0  0  0  0  0  0  0  0  0
  147.2824  133.8435  152.2063 N   0  0  0  0  0  0  0  0  0  0  0  0
  147.9908  133.2833  153.2064 C   0  0  0  0  0  0  0  0  0  0  0  0
  147.7962  132.1589  153.6627 O   0  0  0  0  0  0  0  0  0  0  0  0
  148.9787  134.0626  153.6834 N   0  0  0  0  0  0  0  0  0  0  0  0
  149.9360  133.7765  154.7579 C   0  0  1  0  0  0  0  0  0  0  0  0
  150.8806  134.9771  154.9566 C   0  0  0  0  0  0  0  0  0  0  0  0
  150.1641  136.1824  155.5884 C   0  0  0  0  0  0  0  0  0  0  0  0
  149.4746  135.7970  156.9061 C   0  0  0  0  0  0  0  0  0  0  0  0
  148.4906  134.6242  156.7129 C   0  0  2  0  0  0  0  0  0  0  0  0
  147.7806  134.2427  158.0281 C   0  0  0  0  0  0  0  0  0  0  0  0
  147.0894  135.2753  158.5116 F   0  0  0  0  0  0  0  0  0  0  0  0
  146.9451  133.2255  157.8179 F   0  0  0  0  0  0  0  0  0  0  0  0
  148.6785  133.8624  158.9370 F   0  0  0  0  0  0  0  0  0  0  0  0
  149.2209  133.4178  156.0806 C   0  0  0  0  0  0  0  0  0  0  0  0
  144.5059  136.2030  150.6386 H   0  0  0  0  0  0  0  0  0  0  0  0
  146.2654  136.0684  150.6414 H   0  0  0  0  0  0  0  0  0  0  0  0
  145.3614  135.9347  152.1575 H   0  0  0  0  0  0  0  0  0  0  0  0
  143.4302  134.2850  149.7206 H   0  0  0  0  0  0  0  0  0  0  0  0
  144.7636  130.4252  150.2958 H   0  0  0  0  0  0  0  0  0  0  0  0
  146.7029  131.1713  151.6399 H   0  0  0  0  0  0  0  0  0  0  0  0
  147.6060  134.7492  151.9002 H   0  0  0  0  0  0  0  0  0  0  0  0
  149.0748  134.9695  153.2498 H   0  0  0  0  0  0  0  0  0  0  0  0
  150.5530  132.9298  154.4526 H   0  0  0  0  0  0  0  0  0  0  0  0
  151.7069  134.6777  155.6025 H   0  0  0  0  0  0  0  0  0  0  0  0
  151.3302  135.2660  154.0058 H   0  0  0  0  0  0  0  0  0  0  0  0
  150.8800  136.9850  155.7675 H   0  0  0  0  0  0  0  0  0  0  0  0
  149.4257  136.5814  154.8920 H   0  0  0  0  0  0  0  0  0  0  0  0
  150.2301  135.5283  157.6455 H   0  0  0  0  0  0  0  0  0  0  0  0
  148.9498  136.6654  157.3052 H   0  0  0  0  0  0  0  0  0  0  0  0
  147.7187  134.9517  156.0150 H   0  0  0  0  0  0  0  0  0  0  0  0
  148.5190  132.6000  155.9190 H   0  0  0  0  0  0  0  0  0  0  0  0
  149.9602  133.0373  156.7865 H   0  0  0  0  0  0  0  0  0  0  0  0
  1  2  1  0  0  0  0
  1 22  1  0  0  0  0
  1 23  1  0  0  0  0
  1 24  1  0  0  0  0
  2  7  1  0  0  0  0
  2  3  2  0  0  0  0
  3  4  1  0  0  0  0
  3 25  1  0  0  0  0
  4  5  2  0  0  0  0
  5  6  1  0  0  0  0
  5 26  1  0  0  0  0
  6  7  2  0  0  0  0
  6 27  1  0  0  0  0
  7  8  1  0  0  0  0
  8  9  1  0  0  0  0
  8 28  1  0  0  0  0
  9 10  2  0  0  0  0
  9 11  1  0  0  0  0
 11 12  1  0  0  0  0
 11 29  1  0  0  0  0
 12 21  1  0  0  0  0
 12 13  1  0  0  0  0
 12 30  1  0  0  0  0
 13 14  1  0  0  0  0
 13 31  1  0  0  0  0
 13 32  1  0  0  0  0
 14 15  1  0  0  0  0
 14 33  1  0  0  0  0
 14 34  1  0  0  0  0
 15 16  1  0  0  0  0
 15 35  1  0  0  0  0
 15 36  1  0  0  0  0
 16 17  1  0  0  0  0
 16 21  1  0  0  0  0
 16 37  1  0  0  0  0
 17 18  1  0  0  0  0
 17 19  1  0  0  0  0
 17 20  1  0  0  0  0
 21 38  1  0  0  0  0
 21 39  1  0  0  0  0
M  END
> <s_m_source_file>
AV-unprocessed.smi

> <i_m_source_file_index>
2446

> <i_lp_mmshare_version>
43012

> <i_f3d_flags>
0

> <s_epik_input>
W0NIM11jMVtjSF1uW2NIXVtjSF1jMVtOSF1DKD1PKVtOSF1bQ0BASF0yW0NIMl1bQ0gyXVtDSDJdW0NAQEhdKEMoRikoRilGKVtDSDJdMg==

> <s_epik_cmdline>
J2VwaWtfcHl0aG9uJywgJy1waCcsICc3LjAnLCAnLXRuJywgJzgnLCAnLW1hJywgJzIwMCcsICctbWV0YWxfYmluZGluZycsICctaW1hZScsICc8aW5maWxlLm1hZT4nLCAnLW9tYWUnLCAnPG91dGZpbGUubWFlPic=

> <r_epik_Ionization_Penalty>
0.20168

> <r_epik_Ionization_Penalty_Charging>
0

> <r_epik_Ionization_Penalty_Neutral>
0.20168

> <r_epik_State_Penalty>
0.191514

> <r_epik_Charging_Adjusted_Penalty>
0.191514

> <i_epik_Tot_Q>
0

> <i_epik_Tot_abs_Q>
0

> <r_epik_Metal_State_Penalty>
0.142371

> <b_epik_Metal_Only>
0

> <s_lp_Force_Field>
OPLS_2005

> <r_lp_Energy>
25.5489

> <b_lp_Chiralities_Consistent>
1

> <s_lp_Variant>
AV-unprocessed.smi:2446-4

> <Gold.Version>
5.8.1

> <Gold.Id.Protein>
6NUR|6NUR_protein|mol2

> <Gold.PLP.Fitness>
36.7853

> <Gold.PLP.PLP>
-28.1122

> <Gold.PLP.part.hbond>
-2.0000

> <Gold.PLP.part.metal>
0.0000

> <Gold.PLP.part.buried>
-4.9101

> <Gold.PLP.part.nonpolar>
-21.5015

> <Gold.PLP.part.repulsive>
0.2788

> <Gold.PLP.ligand.clash>
0.0000

> <Gold.PLP.ligand.torsion>
0.1740

> <Gold.PLP.Chemscore.Hbond>
2.0000

> <Gold.PLP.Chemscore.CHOScore>
1.0000

> <Gold.PLP.Chemscore.Metal>
0.0000

> <Gold.Chemscore.Hbonds>
donor molecule, donor type, donor heavy atom, donor atom, acceptor molecule, acceptor atom, score
      L1  H     8    28       P1  7948  1.00
      L1  H    11    29       P1  7948  0.85
      L1  C     3    25       P1 10186  1.00

> <Gold.PLP.Chemscore.Internal.Correction>
0.0212

> <Gold.Rescore>
     Score         DG    S(hbond)    S(metal)    S(lipo)     H(rot)  DE(clash)    DE(int)     intcor
     15.17     -15.52       1.44        0.00      66.58       1.00       0.05       0.30       ----

> <Gold.Chemscore.Fitness>
15.1691

> <Gold.Chemscore.DG>
-15.5168

> <Gold.Chemscore.ZeroCoef>
-5.4800

> <Gold.Chemscore.Hbond>
1.4393

> <Gold.Chemscore.Metal>
0.0000

> <Gold.Chemscore.Lipo>
66.5774

> <Gold.Chemscore.Internal_Hbond>
0.0000

> <Gold.Chemscore.DEClash>
0.0466

> <Gold.Chemscore.DEInternal>
0.3011

> <Gold.Chemscore.Rot>
1.0000

> <Gold.Chemscore.Internal.Correction>
   9.000000E+99

> <Gold.Chemscore.Hbonds>
donor molecule, donor type, donor heavy atom, donor atom, acceptor molecule, acceptor atom, score
      L1  H     8    28       P1  7948  0.57
      L1  H    11    29       P1  7948  0.14

> <Gold.Chemscore.Hbond.Weighted>
-4.8073

> <Gold.Chemscore.Metal.Weighted>
-0.0000

> <Gold.Chemscore.Lipo.Weighted>
-7.7896

> <Gold.Chemscore.Internal_Hbond.Weighted>
0.0000

> <Gold.Chemscore.DEClash.Weighted>
0.0466

> <Gold.Chemscore.DEInternal.Weighted>
0.3011

> <Gold.Chemscore.Rot.Weighted>
2.5600

> <Gold.Chemscore.Internal.Correction.Weighted>
   9.000000E+99

> <Gold.Protein.RotatedTorsions>
[ 6907 6896 6895 6894 ] final  -58.84 input  -60.11 | X-H torsion
[ 7974 7965 7964 7962 ] final -128.94 input  175.53 | X-H torsion
[ 8008 7997 7996 7995 ] final  -15.95 input   59.86 | X-H torsion
[ 10167 10162 10161 10158 ] final -145.16 input  -65.29 | X-H torsion
[ 10718 10713 10712 10709 ] final  -76.68 input   66.30 | X-H torsion
[ 10763 10752 10751 10750 ] final  -26.86 input  -60.55 | X-H torsion
[ 11005 11000 10999 10996 ] final   82.01 input  -57.11 | X-H torsion

> <Gold.Protein.ActiveResidues>
 VAL166  LYS551  ARG553  GLY616  TRP617  ASP618  TYR619  PRO620  LYS621  CYS622 
 ASP623  PHE694  ASN695  SER759  ASP760  ASP761  ALA762  ILE779  LEU786  VAL792 
 PHE793  MET794  SER795  GLU796  ALA797  LYS798  CYS799  TRP800  GLU811  SER814 

> <Gold.Protein.RotatedAtoms>
  150.7976  134.7046  159.6569 H   0  0  0  0  0  0  0  0  0  0  0  0  # atno 6907 bound_to 6896
  152.4090  134.6154  160.0046 H   0  0  0  0  0  0  0  0  0  0  0  0  # atno 6908 bound_to 6896
  151.6403  133.3289  159.3165 H   0  0  0  0  0  0  0  0  0  0  0  0  # atno 6909 bound_to 6896
  144.9621  140.7457  143.4723 H   0  0  0  0  0  0  0  0  0  0  0  0  # atno 7974 bound_to 7965
  154.5090  140.2182  155.9193 H   0  0  0  0  0  0  0  0  0  0  0  0  # atno 8008 bound_to 7997
  156.1529  140.3158  155.8645 H   0  0  0  0  0  0  0  0  0  0  0  0  # atno 8009 bound_to 7997
  155.3903  140.0478  157.3031 H   0  0  0  0  0  0  0  0  0  0  0  0  # atno 8010 bound_to 7997
  139.7831  143.8072  152.2641 H   0  0  0  0  0  0  0  0  0  0  0  0  # atno 10167 bound_to 10162
  156.0167  130.4472  150.3230 H   0  0  0  0  0  0  0  0  0  0  0  0  # atno 10718 bound_to 10713
  153.7228  135.6944  153.5008 H   0  0  0  0  0  0  0  0  0  0  0  0  # atno 10763 bound_to 10752
  153.2191  135.4376  155.0467 H   0  0  0  0  0  0  0  0  0  0  0  0  # atno 10764 bound_to 10752
  154.8278  135.3456  154.6761 H   0  0  0  0  0  0  0  0  0  0  0  0  # atno 10765 bound_to 10752
  139.9078  134.8039  156.2117 H   0  0  0  0  0  0  0  0  0  0  0  0  # atno 11005 bound_to 11000
  145.2685  139.1964  143.4854 LP  0  0  0  0  0  0  0  0  0  0  0  0  # atno 17320 bound_to 7965
  146.3356  140.2627  142.8602 LP  0  0  0  0  0  0  0  0  0  0  0  0  # atno 17321 bound_to 7965
  139.8141  144.7323  150.9658 LP  0  0  0  0  0  0  0  0  0  0  0  0  # atno 17342 bound_to 10162
  140.7819  143.4222  151.0824 LP  0  0  0  0  0  0  0  0  0  0  0  0  # atno 17343 bound_to 10162
  157.1330  131.0277  151.2961 LP  0  0  0  0  0  0  0  0  0  0  0  0  # atno 17370 bound_to 10713
  157.4535  130.7612  149.7172 LP  0  0  0  0  0  0  0  0  0  0  0  0  # atno 17371 bound_to 10713
  141.0461  133.6912  156.1686 LP  0  0  0  0  0  0  0  0  0  0  0  0  # atno 17394 bound_to 11000
  140.6882  134.4694  157.5589 LP  0  0  0  0  0  0  0  0  0  0  0  0  # atno 17395 bound_to 11000

$$$$
