AV-unprocessed.smi:430|AV-procd|sdf|2546|dock2
  -GOLD-   2262022513D 1   1.00000     0.00000
 Structure written by MMmdl.
 37 38  0  0  0  0  0  0  0  0  1 V2000
  151.0667  134.5335  152.7920 C   0  0  0  0  0  0  0  0  0  0  0  0
  151.1926  135.2031  154.1695 C   0  0  0  0  0  0  0  0  0  0  0  0
  151.7441  136.6315  154.1139 C   0  0  0  0  0  0  0  0  0  0  0  0
  152.7528  136.9490  154.7452 O   0  0  0  0  0  0  0  0  0  0  0  0
  151.0600  137.4913  153.3441 N   0  0  0  0  0  0  0  0  0  0  0  0
  151.4106  138.8932  153.1359 C   0  0  0  0  0  0  0  0  0  0  0  0
  151.5623  139.7170  154.4083 C   0  0  0  0  0  0  0  0  0  0  0  0
  150.4337  140.3343  154.9807 C   0  0  0  0  0  0  0  0  0  0  0  0
  150.5832  141.0829  156.1636 C   0  0  0  0  0  0  0  0  0  0  0  0
  151.8682  141.1985  156.7517 C   0  0  0  0  0  0  0  0  0  0  0  0
  152.0885  141.9272  157.9426 N   0  0  0  0  0  0  0  0  0  0  0  0
  152.6544  141.2316  159.0955 C   0  0  0  0  0  0  0  0  0  0  0  0
  153.1246  142.2396  160.1578 C   0  0  0  0  0  0  0  0  0  0  0  0
  152.0521  143.1082  160.5045 O   0  0  0  0  0  0  0  0  0  0  0  0
  151.6120  143.8709  159.3864 C   0  0  0  0  0  0  0  0  0  0  0  0
  151.0833  142.9318  158.2887 C   0  0  0  0  0  0  0  0  0  0  0  0
  152.9500  140.5975  156.1994 N   0  0  0  0  0  0  0  0  0  0  0  0
  152.8002  139.8794  155.0669 C   0  0  0  0  0  0  0  0  0  0  0  0
  150.6554  133.5289  152.8891 H   0  0  0  0  0  0  0  0  0  0  0  0
  152.0369  134.4456  152.3017 H   0  0  0  0  0  0  0  0  0  0  0  0
  150.4045  135.0967  152.1334 H   0  0  0  0  0  0  0  0  0  0  0  0
  150.2148  135.2279  154.6517 H   0  0  0  0  0  0  0  0  0  0  0  0
  151.8418  134.6025  154.8078 H   0  0  0  0  0  0  0  0  0  0  0  0
  150.2423  137.1488  152.8605 H   0  0  0  0  0  0  0  0  0  0  0  0
  152.3288  138.9573  152.5495 H   0  0  0  0  0  0  0  0  0  0  0  0
  150.6277  139.3489  152.5297 H   0  0  0  0  0  0  0  0  0  0  0  0
  149.4617  140.2375  154.5196 H   0  0  0  0  0  0  0  0  0  0  0  0
  149.7115  141.5587  156.5861 H   0  0  0  0  0  0  0  0  0  0  0  0
  151.9024  140.5643  159.5186 H   0  0  0  0  0  0  0  0  0  0  0  0
  153.5052  140.6214  158.7904 H   0  0  0  0  0  0  0  0  0  0  0  0
  153.4591  141.7130  161.0516 H   0  0  0  0  0  0  0  0  0  0  0  0
  153.9743  142.8200  159.7944 H   0  0  0  0  0  0  0  0  0  0  0  0
  150.8232  144.5504  159.7093 H   0  0  0  0  0  0  0  0  0  0  0  0
  152.4284  144.4889  159.0089 H   0  0  0  0  0  0  0  0  0  0  0  0
  150.7981  143.5316  157.4244 H   0  0  0  0  0  0  0  0  0  0  0  0
  150.1830  142.4224  158.6343 H   0  0  0  0  0  0  0  0  0  0  0  0
  153.7008  139.4215  154.6857 H   0  0  0  0  0  0  0  0  0  0  0  0
  1  2  1  0  0  0  0
  1 19  1  0  0  0  0
  1 20  1  0  0  0  0
  1 21  1  0  0  0  0
  2  3  1  0  0  0  0
  2 22  1  0  0  0  0
  2 23  1  0  0  0  0
  3  4  2  0  0  0  0
  3  5  1  0  0  0  0
  5  6  1  0  0  0  0
  5 24  1  0  0  0  0
  6  7  1  0  0  0  0
  6 25  1  0  0  0  0
  6 26  1  0  0  0  0
  7 18  1  0  0  0  0
  7  8  2  0  0  0  0
  8  9  1  0  0  0  0
  8 27  1  0  0  0  0
  9 10  2  0  0  0  0
  9 28  1  0  0  0  0
 10 11  1  0  0  0  0
 10 17  1  0  0  0  0
 11 16  1  0  0  0  0
 11 12  1  0  0  0  0
 12 13  1  0  0  0  0
 12 29  1  0  0  0  0
 12 30  1  0  0  0  0
 13 14  1  0  0  0  0
 13 31  1  0  0  0  0
 13 32  1  0  0  0  0
 14 15  1  0  0  0  0
 15 16  1  0  0  0  0
 15 33  1  0  0  0  0
 15 34  1  0  0  0  0
 16 35  1  0  0  0  0
 16 36  1  0  0  0  0
 17 18  2  0  0  0  0
 18 37  1  0  0  0  0
M  END
> <s_m_source_file>
AV-unprocessed.smi

> <i_m_source_file_index>
430

> <i_lp_mmshare_version>
43012

> <i_f3d_flags>
0

> <s_epik_input>
W0NIM11bQ0gyXUMoPU8pW05IXVtDSDJdYzFbY0hdW2NIXWMobltjSF0xKU4yW0NIMl1bQ0gyXU9bQ0gyXVtDSDJdMg==

> <s_epik_cmdline>
J2VwaWtfcHl0aG9uJywgJy1waCcsICc3LjAnLCAnLXRuJywgJzgnLCAnLW1hJywgJzIwMCcsICctbWV0YWxfYmluZGluZycsICctaW1hZScsICc8aW5maWxlLm1hZT4nLCAnLW9tYWUnLCAnPG91dGZpbGUubWFlPic=

> <r_lp_tautomer_probability>
1

> <r_epik_Ionization_Penalty>
0.00505548

> <r_epik_Ionization_Penalty_Charging>
0

> <r_epik_Ionization_Penalty_Neutral>
0.00505548

> <r_epik_State_Penalty>
0.00367784

> <r_epik_Charging_Adjusted_Penalty>
0.00367784

> <i_epik_Tot_Q>
0

> <i_epik_Tot_abs_Q>
0

> <r_epik_Metal_State_Penalty>
-0

> <b_epik_Metal_Only>
0

> <s_lp_Force_Field>
OPLS_2005

> <r_lp_Energy>
16.0515

> <b_lp_Chiralities_Consistent>
1

> <s_lp_Variant>
AV-unprocessed.smi:430-1

> <Gold.Version>
5.8.1

> <Gold.Id.Protein>
6NUR|6NUR_protein|mol2

> <Gold.PLP.Fitness>
41.6606

> <Gold.PLP.PLP>
-36.7707

> <Gold.PLP.part.hbond>
-4.0000

> <Gold.PLP.part.metal>
0.0000

> <Gold.PLP.part.buried>
-1.8145

> <Gold.PLP.part.nonpolar>
-30.3799

> <Gold.PLP.part.repulsive>
0.1317

> <Gold.PLP.ligand.clash>
0.0000

> <Gold.PLP.ligand.torsion>
0.6904

> <Gold.PLP.Chemscore.Hbond>
1.9357

> <Gold.PLP.Chemscore.CHOScore>
0.0000

> <Gold.PLP.Chemscore.Metal>
0.0000

> <Gold.Chemscore.Hbonds>
donor molecule, donor type, donor heavy atom, donor atom, acceptor molecule, acceptor atom, score
      L1  H     5    24       P1  7948  0.40
      P1  H  7997  8008       L1    17  0.32

> <Gold.PLP.Chemscore.Internal.Correction>
0.4635

> <Gold.Rescore>
     Score         DG    S(hbond)    S(metal)    S(lipo)     H(rot)  DE(clash)    DE(int)     intcor
     14.87     -16.71       1.62        0.00      85.10       1.62       0.12       1.72       ----

> <Gold.Chemscore.Fitness>
14.8682

> <Gold.Chemscore.DG>
-16.7071

> <Gold.Chemscore.ZeroCoef>
-5.4800

> <Gold.Chemscore.Hbond>
1.6203

> <Gold.Chemscore.Metal>
0.0000

> <Gold.Chemscore.Lipo>
85.1026

> <Gold.Chemscore.Internal_Hbond>
0.0000

> <Gold.Chemscore.DEClash>
0.1226

> <Gold.Chemscore.DEInternal>
1.7163

> <Gold.Chemscore.Rot>
1.6178

> <Gold.Chemscore.Internal.Correction>
   9.000000E+99

> <Gold.Chemscore.Hbonds>
donor molecule, donor type, donor heavy atom, donor atom, acceptor molecule, acceptor atom, score
      L1  H     5    24       P1  7948  0.01
      P1  H  7997  8008       L1    17  0.14

> <Gold.Chemscore.Hbond.Weighted>
-5.4117

> <Gold.Chemscore.Metal.Weighted>
-0.0000

> <Gold.Chemscore.Lipo.Weighted>
-9.9570

> <Gold.Chemscore.Internal_Hbond.Weighted>
0.0000

> <Gold.Chemscore.DEClash.Weighted>
0.1226

> <Gold.Chemscore.DEInternal.Weighted>
1.7163

> <Gold.Chemscore.Rot.Weighted>
4.1416

> <Gold.Chemscore.Internal.Correction.Weighted>
   9.000000E+99

> <Gold.Protein.RotatedTorsions>
[ 6907 6896 6895 6894 ] final   83.67 input  -60.11 | X-H torsion
[ 7974 7965 7964 7962 ] final   25.57 input  175.53 | X-H torsion
[ 8008 7997 7996 7995 ] final  -73.53 input   59.86 | X-H torsion
[ 10167 10162 10161 10158 ] final    1.13 input  -65.29 | X-H torsion
[ 10718 10713 10712 10709 ] final  158.93 input   66.30 | X-H torsion
[ 10763 10752 10751 10750 ] final  148.45 input  -60.55 | X-H torsion
[ 11005 11000 10999 10996 ] final   37.92 input  -57.11 | X-H torsion

> <Gold.Protein.ActiveResidues>
 VAL166  LYS551  ARG553  GLY616  TRP617  ASP618  TYR619  PRO620  LYS621  CYS622 
 ASP623  PHE694  ASN695  SER759  ASP760  ASP761  ALA762  ILE779  LEU786  VAL792 
 PHE793  MET794  SER795  GLU796  ALA797  LYS798  CYS799  TRP800  GLU811  SER814 

> <Gold.Protein.RotatedAtoms>
  152.5333  134.2860  159.9024 H   0  0  0  0  0  0  0  0  0  0  0  0  # atno 6907 bound_to 6896
  151.2813  133.4202  159.2635 H   0  0  0  0  0  0  0  0  0  0  0  0  # atno 6908 bound_to 6896
  151.0281  134.9534  159.8153 H   0  0  0  0  0  0  0  0  0  0  0  0  # atno 6909 bound_to 6896
  146.1882  139.7447  142.8851 H   0  0  0  0  0  0  0  0  0  0  0  0  # atno 7974 bound_to 7965
  154.5255  140.0777  156.8250 H   0  0  0  0  0  0  0  0  0  0  0  0  # atno 8008 bound_to 7997
  155.3485  140.3411  155.4221 H   0  0  0  0  0  0  0  0  0  0  0  0  # atno 8009 bound_to 7997
  156.1727  140.1625  156.8406 H   0  0  0  0  0  0  0  0  0  0  0  0  # atno 8010 bound_to 7997
  140.6697  143.7083  150.7897 H   0  0  0  0  0  0  0  0  0  0  0  0  # atno 10167 bound_to 10162
  157.1712  131.0610  151.2182 H   0  0  0  0  0  0  0  0  0  0  0  0  # atno 10718 bound_to 10713
  154.0550  135.2878  155.3334 H   0  0  0  0  0  0  0  0  0  0  0  0  # atno 10763 bound_to 10752
  154.6845  135.5250  153.8311 H   0  0  0  0  0  0  0  0  0  0  0  0  # atno 10764 bound_to 10752
  153.0545  135.6590  154.0743 H   0  0  0  0  0  0  0  0  0  0  0  0  # atno 10765 bound_to 10752
  140.2177  134.3678  155.8019 H   0  0  0  0  0  0  0  0  0  0  0  0  # atno 11005 bound_to 11000
  145.3875  141.0367  143.3143 LP  0  0  0  0  0  0  0  0  0  0  0  0  # atno 17320 bound_to 7965
  144.8436  139.5433  143.6889 LP  0  0  0  0  0  0  0  0  0  0  0  0  # atno 17321 bound_to 7965
  140.0766  143.5009  152.2552 LP  0  0  0  0  0  0  0  0  0  0  0  0  # atno 17342 bound_to 10162
  139.5960  144.7567  151.3286 LP  0  0  0  0  0  0  0  0  0  0  0  0  # atno 17343 bound_to 10162
  157.4041  130.7349  149.6789 LP  0  0  0  0  0  0  0  0  0  0  0  0  # atno 17370 bound_to 10713
  155.9738  130.4113  150.3973 LP  0  0  0  0  0  0  0  0  0  0  0  0  # atno 17371 bound_to 10713
  141.2224  133.7177  156.8524 LP  0  0  0  0  0  0  0  0  0  0  0  0  # atno 17394 bound_to 11000
  140.1882  134.8984  157.3030 LP  0  0  0  0  0  0  0  0  0  0  0  0  # atno 17395 bound_to 11000

$$$$
