AV-unprocessed.smi:86|AV-procd|sdf|819|dock9
  -GOLD-   2262017223D 1   1.00000     0.00000
 Structure written by MMmdl.
 51 55  0  0  0  0  0  0  0  0  1 V2000
  150.5361  128.6686  158.3044 O   0  0  0  0  0  0  0  0  0  0  0  0
  150.7621  128.8677  156.9234 C   0  0  0  0  0  0  0  0  0  0  0  0
  151.4748  130.2017  156.6524 C   0  0  0  0  0  0  0  0  0  0  0  0
  151.6922  130.3181  155.1246 C   0  0  0  0  0  0  0  0  0  0  0  0
  150.5218  130.7231  154.3598 N   0  0  0  0  0  0  0  0  0  0  0  0
  149.8104  129.9535  153.4685 C   0  0  0  0  0  0  0  0  0  0  0  0
  148.7880  130.5459  152.9160 N   0  0  0  0  0  0  0  0  0  0  0  0
  148.7763  131.8176  153.4797 C   0  0  0  0  0  0  0  0  0  0  0  0
  147.9457  132.9701  153.3412 C   0  0  0  0  0  0  0  0  0  0  0  0
  146.8731  133.0554  152.5134 N   0  0  0  0  0  0  0  0  0  0  0  0
  146.2432  134.3108  152.1181 C   0  0  0  0  0  0  0  0  0  0  0  0
  145.0875  133.8629  151.2249 C   0  0  1  0  0  0  0  0  0  0  0  0
  144.5147  134.8513  150.2025 C   0  0  0  0  0  0  0  0  0  0  0  0
  143.4318  134.1364  149.3650 C   0  0  0  0  0  0  0  0  0  0  0  0
  143.9500  132.8235  148.7267 C   0  0  2  0  0  0  0  0  0  0  0  0
  142.8830  132.1571  148.0858 O   0  0  0  0  0  0  0  0  0  0  0  0
  144.6000  131.8772  149.7622 C   0  0  0  0  0  0  0  0  0  0  0  0
  145.6835  132.6486  150.5252 C   0  0  2  0  0  0  0  0  0  0  0  0
  146.4273  131.9509  151.6646 C   0  0  0  0  0  0  0  0  0  0  0  0
  148.2640  134.0584  154.0904 N   0  0  0  0  0  0  0  0  0  0  0  0
  149.3106  134.0311  154.9195 C   0  0  0  0  0  0  0  0  0  0  0  0
  150.1651  133.0340  155.1503 N   0  0  0  0  0  0  0  0  0  0  0  0
  149.8587  131.9379  154.3993 C   0  0  0  0  0  0  0  0  0  0  0  0
  150.8521  131.4024  157.3875 C   0  0  0  0  0  0  0  0  0  0  0  0
  151.8627  131.3673  158.4165 O   0  0  0  0  0  0  0  0  0  0  0  0
  152.6622  130.5028  157.5827 C   0  0  0  0  0  0  0  0  0  0  0  0
  151.0810  127.9540  158.5976 H   0  0  0  0  0  0  0  0  0  0  0  0
  151.3398  128.0280  156.5362 H   0  0  0  0  0  0  0  0  0  0  0  0
  149.7956  128.8356  156.4187 H   0  0  0  0  0  0  0  0  0  0  0  0
  152.4834  131.0363  154.9065 H   0  0  0  0  0  0  0  0  0  0  0  0
  152.0385  129.3675  154.7172 H   0  0  0  0  0  0  0  0  0  0  0  0
  150.0771  128.9325  153.2363 H   0  0  0  0  0  0  0  0  0  0  0  0
  145.8843  134.8761  152.9785 H   0  0  0  0  0  0  0  0  0  0  0  0
  146.9569  134.9223  151.5646 H   0  0  0  0  0  0  0  0  0  0  0  0
  144.2759  133.5303  151.8759 H   0  0  0  0  0  0  0  0  0  0  0  0
  144.0899  135.7187  150.7086 H   0  0  0  0  0  0  0  0  0  0  0  0
  145.3072  135.2214  149.5510 H   0  0  0  0  0  0  0  0  0  0  0  0
  142.5787  133.9147  150.0078 H   0  0  0  0  0  0  0  0  0  0  0  0
  143.0630  134.8091  148.5896 H   0  0  0  0  0  0  0  0  0  0  0  0
  144.6889  133.0725  147.9639 H   0  0  0  0  0  0  0  0  0  0  0  0
  142.6259  132.6610  147.3289 H   0  0  0  0  0  0  0  0  0  0  0  0
  143.8484  131.5035  150.4592 H   0  0  0  0  0  0  0  0  0  0  0  0
  145.0331  131.0083  149.2654 H   0  0  0  0  0  0  0  0  0  0  0  0
  146.4313  132.9917  149.8070 H   0  0  0  0  0  0  0  0  0  0  0  0
  147.2547  131.3501  151.2849 H   0  0  0  0  0  0  0  0  0  0  0  0
  145.7613  131.3046  152.2373 H   0  0  0  0  0  0  0  0  0  0  0  0
  149.4888  134.9388  155.4769 H   0  0  0  0  0  0  0  0  0  0  0  0
  150.8724  132.3484  156.8484 H   0  0  0  0  0  0  0  0  0  0  0  0
  149.8519  131.2107  157.7775 H   0  0  0  0  0  0  0  0  0  0  0  0
  153.0350  129.6316  158.1223 H   0  0  0  0  0  0  0  0  0  0  0  0
  153.4859  131.0449  157.1198 H   0  0  0  0  0  0  0  0  0  0  0  0
  1  2  1  0  0  0  0
  1 27  1  0  0  0  0
  2  3  1  0  0  0  0
  2 28  1  0  0  0  0
  2 29  1  0  0  0  0
  3 26  1  0  0  0  0
  3  4  1  0  0  0  0
  3 24  1  0  0  0  0
  4  5  1  0  0  0  0
  4 30  1  0  0  0  0
  4 31  1  0  0  0  0
  5 23  1  0  0  0  0
  5  6  1  0  0  0  0
  6  7  2  0  0  0  0
  6 32  1  0  0  0  0
  7  8  1  0  0  0  0
  8 23  2  0  0  0  0
  8  9  1  0  0  0  0
  9 10  1  0  0  0  0
  9 20  2  0  0  0  0
 10 19  1  0  0  0  0
 10 11  1  0  0  0  0
 11 12  1  0  0  0  0
 11 33  1  0  0  0  0
 11 34  1  0  0  0  0
 12 18  1  0  0  0  0
 12 13  1  0  0  0  0
 12 35  1  0  0  0  0
 13 14  1  0  0  0  0
 13 36  1  0  0  0  0
 13 37  1  0  0  0  0
 14 15  1  0  0  0  0
 14 38  1  0  0  0  0
 14 39  1  0  0  0  0
 15 16  1  0  0  0  0
 15 17  1  0  0  0  0
 15 40  1  0  0  0  0
 16 41  1  0  0  0  0
 17 18  1  0  0  0  0
 17 42  1  0  0  0  0
 17 43  1  0  0  0  0
 18 19  1  0  0  0  0
 18 44  1  0  0  0  0
 19 45  1  0  0  0  0
 19 46  1  0  0  0  0
 20 21  1  0  0  0  0
 21 22  2  0  0  0  0
 21 47  1  0  0  0  0
 22 23  1  0  0  0  0
 24 25  1  0  0  0  0
 24 48  1  0  0  0  0
 24 49  1  0  0  0  0
 25 26  1  0  0  0  0
 26 50  1  0  0  0  0
 26 51  1  0  0  0  0
M  END
> <s_m_source_file>
AV-unprocessed.smi

> <i_m_source_file_index>
86

> <i_lp_mmshare_version>
43012

> <i_f3d_flags>
0

> <s_epik_input>
W0NIMl0xT1tDSDJdQzEoW0NIMl1bT0hdKVtDSDJdbihbY0hdbjIpYyhjMjMpbltjSF1uYzNOKFtDSDJdNClbQ0gyXVtDQEBIXShbQ0BIXTQ1KVtDSDJdW0NASF0oW09IXSlbQ0gyXVtDSDJdNQ==

> <s_epik_cmdline>
J2VwaWtfcHl0aG9uJywgJy1waCcsICc3LjAnLCAnLXRuJywgJzgnLCAnLW1hJywgJzIwMCcsICctbWV0YWxfYmluZGluZycsICctaW1hZScsICc8aW5maWxlLm1hZT4nLCAnLW9tYWUnLCAnPG91dGZpbGUubWFlPic=

> <r_lp_tautomer_probability>
1

> <r_epik_Ionization_Penalty>
0.00425795

> <r_epik_Ionization_Penalty_Charging>
0

> <r_epik_Ionization_Penalty_Neutral>
0.00425795

> <r_epik_State_Penalty>
0.00299946

> <r_epik_Charging_Adjusted_Penalty>
0.00299946

> <i_epik_Tot_Q>
0

> <i_epik_Tot_abs_Q>
0

> <r_epik_Metal_State_Penalty>
-0

> <b_epik_Metal_Only>
0

> <s_lp_Force_Field>
OPLS_2005

> <r_lp_Energy>
53.3624

> <b_lp_Chiralities_Consistent>
1

> <s_lp_Variant>
AV-unprocessed.smi:86-8

> <Gold.Version>
5.8.1

> <Gold.Id.Protein>
6NUR|6NUR_protein|mol2

> <Gold.PLP.Fitness>
45.8590

> <Gold.PLP.PLP>
-38.9198

> <Gold.PLP.part.hbond>
-4.5760

> <Gold.PLP.part.metal>
0.0000

> <Gold.PLP.part.buried>
2.2455

> <Gold.PLP.part.nonpolar>
-38.5265

> <Gold.PLP.part.repulsive>
1.7272

> <Gold.PLP.ligand.clash>
0.0000

> <Gold.PLP.ligand.torsion>
0.4992

> <Gold.PLP.Chemscore.Hbond>
2.5210

> <Gold.PLP.Chemscore.CHOScore>
0.0000

> <Gold.PLP.Chemscore.Metal>
0.0000

> <Gold.Chemscore.Hbonds>
donor molecule, donor type, donor heavy atom, donor atom, acceptor molecule, acceptor atom, score
      L1  H    16    41       P1 10195  0.98
      P1  H  6896  6908       L1    25  0.81
      P1  H 10785 10796       L1    16  0.53
      L1  C     6    32       P1 10737  0.44

> <Gold.PLP.Chemscore.Internal.Correction>
0.3747

> <Gold.Rescore>
     Score         DG    S(hbond)    S(metal)    S(lipo)     H(rot)  DE(clash)    DE(int)     intcor
      9.03     -16.06       2.09        0.00      91.28       2.76       3.05       3.97       ----

> <Gold.Chemscore.Fitness>
9.0313

> <Gold.Chemscore.DG>
-16.0571

> <Gold.Chemscore.ZeroCoef>
-5.4800

> <Gold.Chemscore.Hbond>
2.0871

> <Gold.Chemscore.Metal>
0.0000

> <Gold.Chemscore.Lipo>
91.2791

> <Gold.Chemscore.Internal_Hbond>
0.0000

> <Gold.Chemscore.DEClash>
3.0529

> <Gold.Chemscore.DEInternal>
3.9729

> <Gold.Chemscore.Rot>
2.7630

> <Gold.Chemscore.Internal.Correction>
   9.000000E+99

> <Gold.Chemscore.Hbonds>
donor molecule, donor type, donor heavy atom, donor atom, acceptor molecule, acceptor atom, score
      L1  H    16    41       P1 10195  0.91
      P1  H  6896  6908       L1    25  0.21
      P1  H 10785 10796       L1    16  0.18

> <Gold.Chemscore.Hbond.Weighted>
-6.9708

> <Gold.Chemscore.Metal.Weighted>
-0.0000

> <Gold.Chemscore.Lipo.Weighted>
-10.6797

> <Gold.Chemscore.Internal_Hbond.Weighted>
0.0000

> <Gold.Chemscore.DEClash.Weighted>
3.0529

> <Gold.Chemscore.DEInternal.Weighted>
3.9729

> <Gold.Chemscore.Rot.Weighted>
7.0734

> <Gold.Chemscore.Internal.Correction.Weighted>
   9.000000E+99

> <Gold.Protein.RotatedTorsions>
[ 6907 6896 6895 6894 ] final   64.45 input  -60.11 | X-H torsion
[ 7974 7965 7964 7962 ] final  -41.60 input  175.53 | X-H torsion
[ 8008 7997 7996 7995 ] final -161.55 input   59.86 | X-H torsion
[ 10167 10162 10161 10158 ] final   35.53 input  -65.29 | X-H torsion
[ 10718 10713 10712 10709 ] final   44.33 input   66.30 | X-H torsion
[ 10763 10752 10751 10750 ] final   21.18 input  -60.55 | X-H torsion
[ 11005 11000 10999 10996 ] final -170.20 input  -57.11 | X-H torsion

> <Gold.Protein.ActiveResidues>
 VAL166  LYS551  ARG553  GLY616  TRP617  ASP618  TYR619  PRO620  LYS621  CYS622 
 ASP623  PHE694  ASN695  SER759  ASP760  ASP761  ALA762  ILE779  LEU786  VAL792 
 PHE793  MET794  SER795  GLU796  ALA797  LYS798  CYS799  TRP800  GLU811  SER814 

> <Gold.Protein.RotatedAtoms>
  152.4333  134.5736  159.9927 H   0  0  0  0  0  0  0  0  0  0  0  0  # atno 6907 bound_to 6896
  151.5853  133.3367  159.3024 H   0  0  0  0  0  0  0  0  0  0  0  0  # atno 6908 bound_to 6896
  150.8228  134.7479  159.6851 H   0  0  0  0  0  0  0  0  0  0  0  0  # atno 6909 bound_to 6896
  146.0196  140.6866  142.9185 H   0  0  0  0  0  0  0  0  0  0  0  0  # atno 7974 bound_to 7965
  155.7939  140.0882  157.1994 H   0  0  0  0  0  0  0  0  0  0  0  0  # atno 8008 bound_to 7997
  154.3984  140.1485  156.3253 H   0  0  0  0  0  0  0  0  0  0  0  0  # atno 8009 bound_to 7997
  155.8531  140.3433  155.5709 H   0  0  0  0  0  0  0  0  0  0  0  0  # atno 8010 bound_to 7997
  140.4213  144.1456  150.6148 H   0  0  0  0  0  0  0  0  0  0  0  0  # atno 10167 bound_to 10162
  157.4257  130.7995  149.7556 H   0  0  0  0  0  0  0  0  0  0  0  0  # atno 10718 bound_to 10713
  153.1016  135.6674  153.9661 H   0  0  0  0  0  0  0  0  0  0  0  0  # atno 10763 bound_to 10752
  153.9230  135.3012  155.3448 H   0  0  0  0  0  0  0  0  0  0  0  0  # atno 10764 bound_to 10752
  154.7437  135.5067  153.9243 H   0  0  0  0  0  0  0  0  0  0  0  0  # atno 10765 bound_to 10752
  140.5222  134.5698  157.5051 H   0  0  0  0  0  0  0  0  0  0  0  0  # atno 11005 bound_to 11000
  144.6984  140.3542  143.7176 LP  0  0  0  0  0  0  0  0  0  0  0  0  # atno 17320 bound_to 7965
  145.7215  139.1711  143.2482 LP  0  0  0  0  0  0  0  0  0  0  0  0  # atno 17321 bound_to 7965
  140.4530  143.2479  151.9322 LP  0  0  0  0  0  0  0  0  0  0  0  0  # atno 17342 bound_to 10162
  139.4782  144.5543  151.8338 LP  0  0  0  0  0  0  0  0  0  0  0  0  # atno 17343 bound_to 10162
  155.9895  130.3951  150.3068 LP  0  0  0  0  0  0  0  0  0  0  0  0  # atno 17370 bound_to 10713
  157.1220  131.0249  151.3005 LP  0  0  0  0  0  0  0  0  0  0  0  0  # atno 17371 bound_to 10713
  139.9600  134.7469  156.0258 LP  0  0  0  0  0  0  0  0  0  0  0  0  # atno 17394 bound_to 11000
  141.1328  133.6582  156.3511 LP  0  0  0  0  0  0  0  0  0  0  0  0  # atno 17395 bound_to 11000

$$$$
