AV-unprocessed.smi:1933|AV-procd|sdf|7819|dock4
  -GOLD-   22720 9563D 1   1.00000     0.00000
 Structure written by MMmdl.
 48 50  0  0  0  0  0  0  0  0  2 V2000
  144.4402  136.2087  152.6258 O   0  0  0  0  0  0  0  0  0  0  0  0
  145.6572  136.2810  152.4545 C   0  0  0  0  0  0  0  0  0  0  0  0
  146.4318  137.2177  153.0218 N   0  0  0  0  0  0  0  0  0  0  0  0
  145.9730  138.2844  153.9070 C   0  0  0  0  0  0  0  0  0  0  0  0
  146.8810  139.5452  153.8661 C   0  0  2  0  0  0  0  0  0  0  0  0
  148.1644  139.4375  154.7400 C   0  0  2  0  0  0  0  0  0  0  0  0
  149.2159  140.4950  154.4316 C   0  0  0  0  0  0  0  0  0  0  0  0
  150.4770  139.8744  155.0116 C   0  0  0  0  0  0  0  0  0  0  0  0
  150.3659  138.5077  154.6540 O   0  0  0  0  0  0  0  0  0  0  0  0
  148.9895  138.1481  154.5746 C   0  0  0  0  0  0  0  0  0  0  0  0
  146.1243  140.7809  154.2327 N   0  3  0  0  0  0  0  0  0  0  0  0
  145.6913  140.8327  155.6504 C   0  0  0  0  0  0  0  0  0  0  0  0
  144.7523  142.0313  155.8706 C   0  0  0  0  0  0  0  0  0  0  0  0
  145.4034  143.2326  155.4736 O   0  0  0  0  0  0  0  0  0  0  0  0
  145.7551  143.2233  154.0948 C   0  0  0  0  0  0  0  0  0  0  0  0
  146.7365  142.0711  153.8241 C   0  0  0  0  0  0  0  0  0  0  0  0
  146.3884  135.4435  151.6985 N   0  0  0  0  0  0  0  0  0  0  0  0
  145.9537  134.2902  150.9933 C   0  0  0  0  0  0  0  0  0  0  0  0
  144.5777  134.2701  150.6721 C   0  0  0  0  0  0  0  0  0  0  0  0
  144.0469  133.1726  149.9671 C   0  0  0  0  0  0  0  0  0  0  0  0
  144.9075  132.1226  149.6003 C   0  0  0  0  0  0  0  0  0  0  0  0
  146.2647  132.2220  149.9577 C   0  0  0  0  0  0  0  0  0  0  0  0
  146.7756  133.2728  150.6337 N   0  0  0  0  0  0  0  0  0  0  0  0
  147.4209  137.1934  152.8201 H   0  0  0  0  0  0  0  0  0  0  0  0
  144.9624  138.5354  153.5864 H   0  0  0  0  0  0  0  0  0  0  0  0
  145.8814  137.9189  154.9305 H   0  0  0  0  0  0  0  0  0  0  0  0
  147.2163  139.6812  152.8366 H   0  0  0  0  0  0  0  0  0  0  0  0
  147.8964  139.5291  155.7937 H   0  0  0  0  0  0  0  0  0  0  0  0
  149.3286  140.6233  153.3538 H   0  0  0  0  0  0  0  0  0  0  0  0
  148.9909  141.4670  154.8717 H   0  0  0  0  0  0  0  0  0  0  0  0
  151.3901  140.3212  154.6178 H   0  0  0  0  0  0  0  0  0  0  0  0
  150.4881  139.9642  156.0990 H   0  0  0  0  0  0  0  0  0  0  0  0
  148.7545  137.4210  155.3516 H   0  0  0  0  0  0  0  0  0  0  0  0
  148.8186  137.6770  153.6063 H   0  0  0  0  0  0  0  0  0  0  0  0
  145.1734  139.9113  155.9189 H   0  0  0  0  0  0  0  0  0  0  0  0
  146.5576  140.9183  156.3070 H   0  0  0  0  0  0  0  0  0  0  0  0
  143.8239  141.9062  155.3108 H   0  0  0  0  0  0  0  0  0  0  0  0
  144.4808  142.1071  156.9236 H   0  0  0  0  0  0  0  0  0  0  0  0
  144.8602  143.1279  153.4777 H   0  0  0  0  0  0  0  0  0  0  0  0
  146.2167  144.1779  153.8414 H   0  0  0  0  0  0  0  0  0  0  0  0
  147.6566  142.2487  154.3822 H   0  0  0  0  0  0  0  0  0  0  0  0
  146.9969  142.0541  152.7662 H   0  0  0  0  0  0  0  0  0  0  0  0
  147.3762  135.6407  151.6359 H   0  0  0  0  0  0  0  0  0  0  0  0
  143.9306  135.0858  150.9609 H   0  0  0  0  0  0  0  0  0  0  0  0
  142.9978  133.1383  149.7128 H   0  0  0  0  0  0  0  0  0  0  0  0
  144.5377  131.2645  149.0589 H   0  0  0  0  0  0  0  0  0  0  0  0
  146.9594  131.4384  149.6936 H   0  0  0  0  0  0  0  0  0  0  0  0
  145.2649  140.7137  153.7061 H   0  0  0  0  0  0  0  0  0  0  0  0
  1  2  2  0  0  0  0
  2  3  1  0  0  0  0
  2 17  1  0  0  0  0
  3  4  1  0  0  0  0
  3 24  1  0  0  0  0
  4  5  1  0  0  0  0
  4 25  1  0  0  0  0
  4 26  1  0  0  0  0
  5  6  1  0  0  0  0
  5 11  1  0  0  0  0
  5 27  1  0  0  0  0
  6 10  1  0  0  0  0
  6  7  1  0  0  0  0
  6 28  1  0  0  0  0
  7  8  1  0  0  0  0
  7 29  1  0  0  0  0
  7 30  1  0  0  0  0
  8  9  1  0  0  0  0
  8 31  1  0  0  0  0
  8 32  1  0  0  0  0
  9 10  1  0  0  0  0
 10 33  1  0  0  0  0
 10 34  1  0  0  0  0
 11 16  1  0  0  0  0
 11 12  1  0  0  0  0
 11 48  1  0  0  0  0
 12 13  1  0  0  0  0
 12 35  1  0  0  0  0
 12 36  1  0  0  0  0
 13 14  1  0  0  0  0
 13 37  1  0  0  0  0
 13 38  1  0  0  0  0
 14 15  1  0  0  0  0
 15 16  1  0  0  0  0
 15 39  1  0  0  0  0
 15 40  1  0  0  0  0
 16 41  1  0  0  0  0
 16 42  1  0  0  0  0
 17 18  1  0  0  0  0
 17 43  1  0  0  0  0
 18 23  1  0  0  0  0
 18 19  2  0  0  0  0
 19 20  1  0  0  0  0
 19 44  1  0  0  0  0
 20 21  2  0  0  0  0
 20 45  1  0  0  0  0
 21 22  1  0  0  0  0
 21 46  1  0  0  0  0
 22 23  2  0  0  0  0
 22 47  1  0  0  0  0
M  CHG  1  11   1
M  END
> <s_m_source_file>
AV-unprocessed.smi

> <i_m_source_file_index>
1933

> <i_lp_mmshare_version>
43012

> <i_f3d_flags>
0

> <s_epik_input>
bjFbY0hdW2NIXVtjSF1bY0hdYzFbTkhdQyg9TylbTkhdW0NIMl1bQ0BIXShbQ0BASF0yW0NIMl1bQ0gyXU9bQ0gyXTIpTjNbQ0gyXVtDSDJdT1tDSDJdW0NIMl0z

> <s_epik_cmdline>
J2VwaWtfcHl0aG9uJywgJy1waCcsICc3LjAnLCAnLXRuJywgJzgnLCAnLW1hJywgJzIwMCcsICctbWV0YWxfYmluZGluZycsICctaW1hZScsICc8aW5maWxlLm1hZT4nLCAnLW9tYWUnLCAnPG91dGZpbGUubWFlPic=

> <r_epik_Ionization_Penalty>
0.983294

> <r_epik_Ionization_Penalty_Charging>
0.98326

> <r_epik_Ionization_Penalty_Neutral>
3.39688e-05

> <r_epik_State_Penalty>
1.0303

> <r_epik_Charging_Adjusted_Penalty>
2.01356

> <i_epik_Tot_Q>
1

> <i_epik_Tot_abs_Q>
1

> <r_epik_Metal_State_Penalty>
1.0303

> <b_epik_Metal_Only>
0

> <s_lp_Force_Field>
OPLS_2005

> <r_lp_Energy>
40.1747

> <b_lp_Chiralities_Consistent>
1

> <s_lp_Variant>
AV-unprocessed.smi:1933-5

> <Gold.Version>
5.8.1

> <Gold.Id.Protein>
6NUR|6NUR_protein|mol2

> <Gold.PLP.Fitness>
50.0834

> <Gold.PLP.PLP>
-36.5560

> <Gold.PLP.part.hbond>
-3.0000

> <Gold.PLP.part.metal>
0.0000

> <Gold.PLP.part.buried>
-5.3131

> <Gold.PLP.part.nonpolar>
-29.2996

> <Gold.PLP.part.repulsive>
0.8329

> <Gold.PLP.ligand.clash>
0.0000

> <Gold.PLP.ligand.torsion>
0.7948

> <Gold.PLP.Chemscore.Hbond>
3.9440

> <Gold.PLP.Chemscore.CHOScore>
1.0000

> <Gold.PLP.Chemscore.Metal>
0.0000

> <Gold.Chemscore.Hbonds>
donor molecule, donor type, donor heavy atom, donor atom, acceptor molecule, acceptor atom, score
      L1  H     3    24       P1  7948  0.92
      L1  H    11    48       P1 10175  2.00
      L1  H    17    43       P1  7948  1.00
      L1  C    22    47       P1 10747  1.00

> <Gold.PLP.Chemscore.Internal.Correction>
0.2849

> <Gold.Rescore>
     Score         DG    S(hbond)    S(metal)    S(lipo)     H(rot)  DE(clash)    DE(int)     intcor
     18.50     -21.07       2.87        0.00      89.80       1.77       0.14       2.42       ----

> <Gold.Chemscore.Fitness>
18.5023

> <Gold.Chemscore.DG>
-21.0651

> <Gold.Chemscore.ZeroCoef>
-5.4800

> <Gold.Chemscore.Hbond>
2.8750

> <Gold.Chemscore.Metal>
0.0000

> <Gold.Chemscore.Lipo>
89.7987

> <Gold.Chemscore.Internal_Hbond>
0.0000

> <Gold.Chemscore.DEClash>
0.1418

> <Gold.Chemscore.DEInternal>
2.4209

> <Gold.Chemscore.Rot>
1.7671

> <Gold.Chemscore.Internal.Correction>
   9.000000E+99

> <Gold.Chemscore.Hbonds>
donor molecule, donor type, donor heavy atom, donor atom, acceptor molecule, acceptor atom, score
      L1  H     3    24       P1  7948  0.83
      L1  H    11    48       P1 10175  0.90
      L1  H    17    43       P1  7948  0.99

> <Gold.Chemscore.Hbond.Weighted>
-9.6024

> <Gold.Chemscore.Metal.Weighted>
-0.0000

> <Gold.Chemscore.Lipo.Weighted>
-10.5064

> <Gold.Chemscore.Internal_Hbond.Weighted>
0.0000

> <Gold.Chemscore.DEClash.Weighted>
0.1418

> <Gold.Chemscore.DEInternal.Weighted>
2.4209

> <Gold.Chemscore.Rot.Weighted>
4.5238

> <Gold.Chemscore.Internal.Correction.Weighted>
   9.000000E+99

> <Gold.Protein.RotatedTorsions>
[ 6907 6896 6895 6894 ] final   89.79 input  -60.11 | X-H torsion
[ 7974 7965 7964 7962 ] final  -82.66 input  175.53 | X-H torsion
[ 8008 7997 7996 7995 ] final -174.37 input   59.86 | X-H torsion
[ 10167 10162 10161 10158 ] final  131.13 input  -65.29 | X-H torsion
[ 10718 10713 10712 10709 ] final   46.02 input   66.30 | X-H torsion
[ 10763 10752 10751 10750 ] final   -8.32 input  -60.55 | X-H torsion
[ 11005 11000 10999 10996 ] final  111.80 input  -57.11 | X-H torsion

> <Gold.Protein.ActiveResidues>
 VAL166  LYS551  ARG553  GLY616  TRP617  ASP618  TYR619  PRO620  LYS621  CYS622 
 ASP623  PHE694  ASN695  SER759  ASP760  ASP761  ALA762  ILE779  LEU786  VAL792 
 PHE793  MET794  SER795  GLU796  ALA797  LYS798  CYS799  TRP800  GLU811  SER814 

> <Gold.Protein.RotatedAtoms>
  152.5439  134.1912  159.8674 H   0  0  0  0  0  0  0  0  0  0  0  0  # atno 6907 bound_to 6896
  151.1907  133.4662  159.2602 H   0  0  0  0  0  0  0  0  0  0  0  0  # atno 6908 bound_to 6896
  151.1086  135.0026  159.8538 H   0  0  0  0  0  0  0  0  0  0  0  0  # atno 6909 bound_to 6896
  145.5303  140.9522  143.1607 H   0  0  0  0  0  0  0  0  0  0  0  0  # atno 7974 bound_to 7965
  155.9692  140.1159  157.0827 H   0  0  0  0  0  0  0  0  0  0  0  0  # atno 8008 bound_to 7997
  154.4152  140.1166  156.5351 H   0  0  0  0  0  0  0  0  0  0  0  0  # atno 8009 bound_to 7997
  155.6618  140.3473  155.4788 H   0  0  0  0  0  0  0  0  0  0  0  0  # atno 8010 bound_to 7997
  139.5398  144.6719  151.4663 H   0  0  0  0  0  0  0  0  0  0  0  0  # atno 10167 bound_to 10162
  157.4438  130.8097  149.7720 H   0  0  0  0  0  0  0  0  0  0  0  0  # atno 10718 bound_to 10713
  153.4387  135.7013  153.6183 H   0  0  0  0  0  0  0  0  0  0  0  0  # atno 10763 bound_to 10752
  153.4567  135.3745  155.2315 H   0  0  0  0  0  0  0  0  0  0  0  0  # atno 10764 bound_to 10752
  154.8727  135.4010  154.3783 H   0  0  0  0  0  0  0  0  0  0  0  0  # atno 10765 bound_to 10752
  139.8912  134.9516  156.6487 H   0  0  0  0  0  0  0  0  0  0  0  0  # atno 11005 bound_to 11000
  144.7629  139.6913  143.7227 LP  0  0  0  0  0  0  0  0  0  0  0  0  # atno 17320 bound_to 7965
  146.2048  139.5366  142.9719 LP  0  0  0  0  0  0  0  0  0  0  0  0  # atno 17321 bound_to 7965
  140.6623  143.8473  150.6901 LP  0  0  0  0  0  0  0  0  0  0  0  0  # atno 17342 bound_to 10162
  140.1871  143.4067  152.1890 LP  0  0  0  0  0  0  0  0  0  0  0  0  # atno 17343 bound_to 10162
  155.9959  130.3909  150.2800 LP  0  0  0  0  0  0  0  0  0  0  0  0  # atno 17370 bound_to 10713
  157.0967  131.0184  151.3101 LP  0  0  0  0  0  0  0  0  0  0  0  0  # atno 17371 bound_to 10713
  140.7537  133.8876  155.8366 LP  0  0  0  0  0  0  0  0  0  0  0  0  # atno 17394 bound_to 11000
  140.9979  134.1190  157.4345 LP  0  0  0  0  0  0  0  0  0  0  0  0  # atno 17395 bound_to 11000

$$$$
