AV-unprocessed.smi:356|AV-procd|sdf|2409|dock10
  -GOLD-   2262022343D 1   1.00000     0.00000
 Structure written by MMmdl.
 41 43  0  0  0  0  0  0  0  0  1 V2000
  152.2536  138.5225  158.4472 C   0  0  0  0  0  0  0  0  0  0  0  0
  152.2017  140.0103  158.5935 C   0  0  0  0  0  0  0  0  0  0  0  0
  153.0336  140.6736  159.3973 N   0  0  0  0  0  0  0  0  0  0  0  0
  152.6366  141.9861  159.2274 C   0  0  0  0  0  0  0  0  0  0  0  0
  153.1279  143.1774  159.8079 C   0  0  0  0  0  0  0  0  0  0  0  0
  152.5529  144.4223  159.4777 C   0  0  0  0  0  0  0  0  0  0  0  0
  151.4810  144.4941  158.5647 C   0  0  0  0  0  0  0  0  0  0  0  0
  150.9762  143.3194  157.9747 C   0  0  0  0  0  0  0  0  0  0  0  0
  151.5537  142.0795  158.3077 C   0  0  0  0  0  0  0  0  0  0  0  0
  151.3028  140.7682  157.9175 N   0  0  0  0  0  0  0  0  0  0  0  0
  150.2766  140.3340  156.9788 C   0  0  0  0  0  0  0  0  0  0  0  0
  150.4169  141.0008  155.5964 C   0  0  1  0  0  0  0  0  0  0  0  0
  151.4259  140.3414  154.8573 O   0  0  0  0  0  0  0  0  0  0  0  0
  149.1000  140.9256  154.7988 C   0  0  0  0  0  0  0  0  0  0  0  0
  148.0867  141.9209  155.1545 N   0  0  0  0  0  0  0  0  0  0  0  0
  147.4401  141.6418  156.4360 C   0  0  0  0  0  0  0  0  0  0  0  0
  146.3580  142.6833  156.7720 C   0  0  0  0  0  0  0  0  0  0  0  0
  145.4004  142.7384  155.7201 O   0  0  0  0  0  0  0  0  0  0  0  0
  145.9862  143.0555  154.4619 C   0  0  0  0  0  0  0  0  0  0  0  0
  147.0616  142.0104  154.1196 C   0  0  0  0  0  0  0  0  0  0  0  0
  153.0882  138.1109  159.0158 H   0  0  0  0  0  0  0  0  0  0  0  0
  152.3849  138.2469  157.4010 H   0  0  0  0  0  0  0  0  0  0  0  0
  151.3313  138.0756  158.8185 H   0  0  0  0  0  0  0  0  0  0  0  0
  153.9487  143.1329  160.5084 H   0  0  0  0  0  0  0  0  0  0  0  0
  152.9364  145.3263  159.9276 H   0  0  0  0  0  0  0  0  0  0  0  0
  151.0465  145.4516  158.3172 H   0  0  0  0  0  0  0  0  0  0  0  0
  150.1560  143.3703  157.2743 H   0  0  0  0  0  0  0  0  0  0  0  0
  150.2996  139.2483  156.8858 H   0  0  0  0  0  0  0  0  0  0  0  0
  149.3050  140.5786  157.4101 H   0  0  0  0  0  0  0  0  0  0  0  0
  150.7201  142.0365  155.7439 H   0  0  0  0  0  0  0  0  0  0  0  0
  152.2526  140.4814  155.2943 H   0  0  0  0  0  0  0  0  0  0  0  0
  149.3442  141.0255  153.7399 H   0  0  0  0  0  0  0  0  0  0  0  0
  148.6716  139.9282  154.9086 H   0  0  0  0  0  0  0  0  0  0  0  0
  146.9895  140.6483  156.4151 H   0  0  0  0  0  0  0  0  0  0  0  0
  148.1728  141.6363  157.2416 H   0  0  0  0  0  0  0  0  0  0  0  0
  145.8522  142.4187  157.7008 H   0  0  0  0  0  0  0  0  0  0  0  0
  146.8029  143.6687  156.9188 H   0  0  0  0  0  0  0  0  0  0  0  0
  145.2084  143.0646  153.6983 H   0  0  0  0  0  0  0  0  0  0  0  0
  146.4171  144.0576  154.4941 H   0  0  0  0  0  0  0  0  0  0  0  0
  147.5209  142.2687  153.1647 H   0  0  0  0  0  0  0  0  0  0  0  0
  146.5869  141.0373  153.9835 H   0  0  0  0  0  0  0  0  0  0  0  0
  1  2  1  0  0  0  0
  1 21  1  0  0  0  0
  1 22  1  0  0  0  0
  1 23  1  0  0  0  0
  2 10  1  0  0  0  0
  2  3  2  0  0  0  0
  3  4  1  0  0  0  0
  4  9  2  0  0  0  0
  4  5  1  0  0  0  0
  5  6  2  0  0  0  0
  5 24  1  0  0  0  0
  6  7  1  0  0  0  0
  6 25  1  0  0  0  0
  7  8  2  0  0  0  0
  7 26  1  0  0  0  0
  8  9  1  0  0  0  0
  8 27  1  0  0  0  0
  9 10  1  0  0  0  0
 10 11  1  0  0  0  0
 11 12  1  0  0  0  0
 11 28  1  0  0  0  0
 11 29  1  0  0  0  0
 12 13  1  0  0  0  0
 12 14  1  0  0  0  0
 12 30  1  0  0  0  0
 13 31  1  0  0  0  0
 14 15  1  0  0  0  0
 14 32  1  0  0  0  0
 14 33  1  0  0  0  0
 15 20  1  0  0  0  0
 15 16  1  0  0  0  0
 16 17  1  0  0  0  0
 16 34  1  0  0  0  0
 16 35  1  0  0  0  0
 17 18  1  0  0  0  0
 17 36  1  0  0  0  0
 17 37  1  0  0  0  0
 18 19  1  0  0  0  0
 19 20  1  0  0  0  0
 19 38  1  0  0  0  0
 19 39  1  0  0  0  0
 20 40  1  0  0  0  0
 20 41  1  0  0  0  0
M  END
> <s_m_source_file>
AV-unprocessed.smi

> <i_m_source_file_index>
356

> <i_lp_mmshare_version>
43012

> <i_f3d_flags>
0

> <s_epik_input>
W2NIXTFbY0hdW2NIXVtjSF1jKGMxMiluKGMobjIpW0NIM10pW0NIMl1bQ0BIXShbT0hdKVtDSDJdTjNbQ0gyXVtDSDJdT1tDSDJdW0NIMl0z

> <s_epik_cmdline>
J2VwaWtfcHl0aG9uJywgJy1waCcsICc3LjAnLCAnLXRuJywgJzgnLCAnLW1hJywgJzIwMCcsICctbWV0YWxfYmluZGluZycsICctaW1hZScsICc8aW5maWxlLm1hZT4nLCAnLW9tYWUnLCAnPG91dGZpbGUubWFlPic=

> <r_epik_Ionization_Penalty>
0.355661

> <r_epik_Ionization_Penalty_Charging>
0

> <r_epik_Ionization_Penalty_Neutral>
0.355661

> <r_epik_State_Penalty>
0.325123

> <r_epik_Charging_Adjusted_Penalty>
0.325123

> <i_epik_Tot_Q>
0

> <i_epik_Tot_abs_Q>
0

> <r_epik_Metal_State_Penalty>
0.239925

> <b_epik_Metal_Only>
0

> <s_lp_Force_Field>
OPLS_2005

> <r_lp_Energy>
29.7319

> <b_lp_Chiralities_Consistent>
1

> <s_lp_Variant>
AV-unprocessed.smi:356-2

> <Gold.Version>
5.8.1

> <Gold.Id.Protein>
6NUR|6NUR_protein|mol2

> <Gold.PLP.Fitness>
45.0258

> <Gold.PLP.PLP>
-43.5946

> <Gold.PLP.part.hbond>
-1.0000

> <Gold.PLP.part.metal>
0.0000

> <Gold.PLP.part.buried>
-5.9027

> <Gold.PLP.part.nonpolar>
-35.7793

> <Gold.PLP.part.repulsive>
0.3127

> <Gold.PLP.ligand.clash>
0.0000

> <Gold.PLP.ligand.torsion>
0.4896

> <Gold.PLP.Chemscore.Hbond>
0.8000

> <Gold.PLP.Chemscore.CHOScore>
0.0000

> <Gold.PLP.Chemscore.Metal>
0.0000

> <Gold.Chemscore.Hbonds>
donor molecule, donor type, donor heavy atom, donor atom, acceptor molecule, acceptor atom, score
      P1  H  7989  7998       L1    13  0.84

> <Gold.PLP.Chemscore.Internal.Correction>
0.0104

> <Gold.Rescore>
     Score         DG    S(hbond)    S(metal)    S(lipo)     H(rot)  DE(clash)    DE(int)     intcor
     13.38     -13.83       0.30        0.00     106.20       1.99       0.12       0.34       ----

> <Gold.Chemscore.Fitness>
13.3760

> <Gold.Chemscore.DG>
-13.8340

> <Gold.Chemscore.ZeroCoef>
-5.4800

> <Gold.Chemscore.Hbond>
0.3034

> <Gold.Chemscore.Metal>
0.0000

> <Gold.Chemscore.Lipo>
106.2030

> <Gold.Chemscore.Internal_Hbond>
0.0000

> <Gold.Chemscore.DEClash>
0.1167

> <Gold.Chemscore.DEInternal>
0.3414

> <Gold.Chemscore.Rot>
1.9863

> <Gold.Chemscore.Internal.Correction>
   9.000000E+99

> <Gold.Chemscore.Hbonds>
donor molecule, donor type, donor heavy atom, donor atom, acceptor molecule, acceptor atom, score
      P1  H  7989  7998       L1    13  0.32

> <Gold.Chemscore.Hbond.Weighted>
-1.0133

> <Gold.Chemscore.Metal.Weighted>
-0.0000

> <Gold.Chemscore.Lipo.Weighted>
-12.4257

> <Gold.Chemscore.Internal_Hbond.Weighted>
0.0000

> <Gold.Chemscore.DEClash.Weighted>
0.1167

> <Gold.Chemscore.DEInternal.Weighted>
0.3414

> <Gold.Chemscore.Rot.Weighted>
5.0850

> <Gold.Chemscore.Internal.Correction.Weighted>
   9.000000E+99

> <Gold.Protein.RotatedTorsions>
[ 6907 6896 6895 6894 ] final   74.86 input  -60.11 | X-H torsion
[ 7974 7965 7964 7962 ] final -123.96 input  175.53 | X-H torsion
[ 8008 7997 7996 7995 ] final -102.77 input   59.86 | X-H torsion
[ 10167 10162 10161 10158 ] final   63.04 input  -65.29 | X-H torsion
[ 10718 10713 10712 10709 ] final -118.28 input   66.30 | X-H torsion
[ 10763 10752 10751 10750 ] final  132.87 input  -60.55 | X-H torsion
[ 11005 11000 10999 10996 ] final   19.57 input  -57.11 | X-H torsion

> <Gold.Protein.ActiveResidues>
 VAL166  LYS551  ARG553  GLY616  TRP617  ASP618  TYR619  PRO620  LYS621  CYS622 
 ASP623  PHE694  ASN695  SER759  ASP760  ASP761  ALA762  ILE779  LEU786  VAL792 
 PHE793  MET794  SER795  GLU796  ALA797  LYS798  CYS799  TRP800  GLU811  SER814 

> <Gold.Protein.RotatedAtoms>
  152.4997  134.4207  159.9479 H   0  0  0  0  0  0  0  0  0  0  0  0  # atno 6907 bound_to 6896
  151.4180  133.3701  159.2760 H   0  0  0  0  0  0  0  0  0  0  0  0  # atno 6908 bound_to 6896
  150.9243  134.8682  159.7569 H   0  0  0  0  0  0  0  0  0  0  0  0  # atno 6909 bound_to 6896
  145.0131  140.7923  143.4426 H   0  0  0  0  0  0  0  0  0  0  0  0  # atno 7974 bound_to 7965
  154.8614  140.0426  157.1667 H   0  0  0  0  0  0  0  0  0  0  0  0  # atno 8008 bound_to 7997
  154.8836  140.2976  155.5390 H   0  0  0  0  0  0  0  0  0  0  0  0  # atno 8009 bound_to 7997
  156.2998  140.2406  156.3842 H   0  0  0  0  0  0  0  0  0  0  0  0  # atno 8010 bound_to 7997
  140.1373  144.4586  150.6830 H   0  0  0  0  0  0  0  0  0  0  0  0  # atno 10167 bound_to 10162
  156.1095  130.6237  150.9271 H   0  0  0  0  0  0  0  0  0  0  0  0  # atno 10718 bound_to 10713
  153.7978  135.3146  155.3386 H   0  0  0  0  0  0  0  0  0  0  0  0  # atno 10763 bound_to 10752
  154.8101  135.4673  154.0496 H   0  0  0  0  0  0  0  0  0  0  0  0  # atno 10764 bound_to 10752
  153.1834  135.6897  153.8534 H   0  0  0  0  0  0  0  0  0  0  0  0  # atno 10765 bound_to 10752
  140.4122  134.1606  155.7668 H   0  0  0  0  0  0  0  0  0  0  0  0  # atno 11005 bound_to 11000
  145.1996  139.2259  143.5200 LP  0  0  0  0  0  0  0  0  0  0  0  0  # atno 17320 bound_to 7965
  146.3473  140.1810  142.8589 LP  0  0  0  0  0  0  0  0  0  0  0  0  # atno 17321 bound_to 7965
  140.6781  143.2314  151.5455 LP  0  0  0  0  0  0  0  0  0  0  0  0  # atno 17342 bound_to 10162
  139.5489  144.2447  152.1494 LP  0  0  0  0  0  0  0  0  0  0  0  0  # atno 17343 bound_to 10162
  157.6275  131.0924  150.8506 LP  0  0  0  0  0  0  0  0  0  0  0  0  # atno 17370 bound_to 10713
  156.8619  130.5116  149.5303 LP  0  0  0  0  0  0  0  0  0  0  0  0  # atno 17371 bound_to 10713
  141.1817  133.8400  157.1235 LP  0  0  0  0  0  0  0  0  0  0  0  0  # atno 17394 bound_to 11000
  140.0259  134.9924  157.0685 LP  0  0  0  0  0  0  0  0  0  0  0  0  # atno 17395 bound_to 11000

$$$$
