AV-unprocessed.smi:3183|AV-procd|sdf|12155|dock2
  -GOLD-   2272017593D 1   1.00000     0.00000
 Structure written by MMmdl.
 43 44  0  0  0  0  0  0  0  0  2 V2000
  145.4184  134.7856  151.1118 C   0  0  0  0  0  0  0  0  0  0  0  0
  145.3618  136.2304  151.6391 C   0  0  2  0  0  0  0  0  0  0  0  0
  146.2735  137.1334  150.7840 C   0  0  0  0  0  0  0  0  0  0  0  0
  146.2463  138.5961  151.2537 C   0  0  0  0  0  0  0  0  0  0  0  0
  146.6102  138.7306  152.7415 C   0  0  2  0  0  0  0  0  0  0  0  0
  148.0456  138.4434  152.9635 N   0  3  0  0  0  0  0  0  0  0  0  0
  148.5254  138.6886  154.3380 C   0  0  0  0  0  0  0  0  0  0  0  0
  149.5830  139.8019  154.3619 C   0  0  0  0  0  0  0  0  0  0  0  0
  150.9388  139.3543  154.8183 C   0  0  0  0  0  0  0  0  0  0  0  0
  151.7208  138.3081  154.4095 C   0  0  0  0  0  0  0  0  0  0  0  0
  152.8874  138.4067  155.2161 C   0  0  0  0  0  0  0  0  0  0  0  0
  152.8375  139.4259  156.0547 N   0  0  0  0  0  0  0  0  0  0  0  0
  151.6448  140.0093  155.8142 N   0  0  0  0  0  0  0  0  0  0  0  0
  151.2823  141.1806  156.5897 C   0  0  0  0  0  0  0  0  0  0  0  0
  145.7257  137.8139  153.6060 C   0  0  0  0  0  0  0  0  0  0  0  0
  145.7343  136.3400  153.1418 C   0  0  1  0  0  0  0  0  0  0  0  0
  144.8113  135.5053  154.0478 C   0  0  0  0  0  0  0  0  0  0  0  0
  146.4017  134.3422  151.2725 H   0  0  0  0  0  0  0  0  0  0  0  0
  145.2113  134.7507  150.0419 H   0  0  0  0  0  0  0  0  0  0  0  0
  144.6789  134.1479  151.5955 H   0  0  0  0  0  0  0  0  0  0  0  0
  144.3369  136.5840  151.5163 H   0  0  0  0  0  0  0  0  0  0  0  0
  147.2970  136.7570  150.8122 H   0  0  0  0  0  0  0  0  0  0  0  0
  145.9636  137.0887  149.7391 H   0  0  0  0  0  0  0  0  0  0  0  0
  146.9186  139.1998  150.6425 H   0  0  0  0  0  0  0  0  0  0  0  0
  145.2461  139.0003  151.0921 H   0  0  0  0  0  0  0  0  0  0  0  0
  146.4123  139.7616  153.0394 H   0  0  0  0  0  0  0  0  0  0  0  0
  148.2128  137.4741  152.7345 H   0  0  0  0  0  0  0  0  0  0  0  0
  147.6774  138.9641  154.9669 H   0  0  0  0  0  0  0  0  0  0  0  0
  148.9449  137.7647  154.7388 H   0  0  0  0  0  0  0  0  0  0  0  0
  149.6696  140.2318  153.3630 H   0  0  0  0  0  0  0  0  0  0  0  0
  149.2383  140.6068  155.0125 H   0  0  0  0  0  0  0  0  0  0  0  0
  151.4974  137.5766  153.6472 H   0  0  0  0  0  0  0  0  0  0  0  0
  153.7620  137.7731  155.2173 H   0  0  0  0  0  0  0  0  0  0  0  0
  150.3019  141.5548  156.2973 H   0  0  0  0  0  0  0  0  0  0  0  0
  152.0194  141.9682  156.4311 H   0  0  0  0  0  0  0  0  0  0  0  0
  151.2580  140.9257  157.6497 H   0  0  0  0  0  0  0  0  0  0  0  0
  146.0386  137.8809  154.6491 H   0  0  0  0  0  0  0  0  0  0  0  0
  144.7011  138.1880  153.5773 H   0  0  0  0  0  0  0  0  0  0  0  0
  146.7471  135.9544  153.2684 H   0  0  0  0  0  0  0  0  0  0  0  0
  143.7651  135.7811  153.9111 H   0  0  0  0  0  0  0  0  0  0  0  0
  145.0567  135.6527  155.0998 H   0  0  0  0  0  0  0  0  0  0  0  0
  144.9054  134.4379  153.8493 H   0  0  0  0  0  0  0  0  0  0  0  0
  148.5839  139.0177  152.3304 H   0  0  0  0  0  0  0  0  0  0  0  0
  1  2  1  0  0  0  0
  1 18  1  0  0  0  0
  1 19  1  0  0  0  0
  1 20  1  0  0  0  0
  2 16  1  0  0  0  0
  2  3  1  0  0  0  0
  2 21  1  0  0  0  0
  3  4  1  0  0  0  0
  3 22  1  0  0  0  0
  3 23  1  0  0  0  0
  4  5  1  0  0  0  0
  4 24  1  0  0  0  0
  4 25  1  0  0  0  0
  5  6  1  0  0  0  0
  5 15  1  0  0  0  0
  5 26  1  0  0  0  0
  6  7  1  0  0  0  0
  6 27  1  0  0  0  0
  6 43  1  0  0  0  0
  7  8  1  0  0  0  0
  7 28  1  0  0  0  0
  7 29  1  0  0  0  0
  8  9  1  0  0  0  0
  8 30  1  0  0  0  0
  8 31  1  0  0  0  0
  9 13  1  0  0  0  0
  9 10  2  0  0  0  0
 10 11  1  0  0  0  0
 10 32  1  0  0  0  0
 11 12  2  0  0  0  0
 11 33  1  0  0  0  0
 12 13  1  0  0  0  0
 13 14  1  0  0  0  0
 14 34  1  0  0  0  0
 14 35  1  0  0  0  0
 14 36  1  0  0  0  0
 15 16  1  0  0  0  0
 15 37  1  0  0  0  0
 15 38  1  0  0  0  0
 16 17  1  0  0  0  0
 16 39  1  0  0  0  0
 17 40  1  0  0  0  0
 17 41  1  0  0  0  0
 17 42  1  0  0  0  0
M  CHG  1   6   1
M  END
> <s_m_source_file>
AV-unprocessed.smi

> <i_m_source_file_index>
3183

> <i_lp_mmshare_version>
43012

> <i_f3d_flags>
0

> <s_epik_input>
W0NIM11bQ0BASF0xW0NIMl1bQ0gyXVtDQEhdKFtDSDJdW0NASF0xW0NIM10pW05IXVtDSDJdW0NIMl1jMltjSF1bY0hdbm4yW0NIM10=

> <s_epik_cmdline>
J2VwaWtfcHl0aG9uJywgJy1waCcsICc3LjAnLCAnLXRuJywgJzgnLCAnLW1hJywgJzIwMCcsICctbWV0YWxfYmluZGluZycsICctaW1hZScsICc8aW5maWxlLm1hZT4nLCAnLW9tYWUnLCAnPG91dGZpbGUubWFlPic=

> <r_lp_tautomer_probability>
1

> <r_epik_Ionization_Penalty>
0.000327718

> <r_epik_Ionization_Penalty_Charging>
0.000294043

> <r_epik_Ionization_Penalty_Neutral>
3.36755e-05

> <r_epik_State_Penalty>
-0

> <r_epik_Charging_Adjusted_Penalty>
0.000294043

> <i_epik_Tot_Q>
1

> <i_epik_Tot_abs_Q>
1

> <r_epik_Metal_State_Penalty>
-0

> <b_epik_Metal_Only>
0

> <s_lp_Force_Field>
OPLS_2005

> <r_lp_Energy>
17.888

> <b_lp_Chiralities_Consistent>
1

> <s_lp_Variant>
AV-unprocessed.smi:3183-3

> <Gold.Version>
5.8.1

> <Gold.Id.Protein>
6NUR|6NUR_protein|mol2

> <Gold.PLP.Fitness>
43.1265

> <Gold.PLP.PLP>
-32.7626

> <Gold.PLP.part.hbond>
-3.0000

> <Gold.PLP.part.metal>
0.0000

> <Gold.PLP.part.buried>
4.0789

> <Gold.PLP.part.nonpolar>
-34.2993

> <Gold.PLP.part.repulsive>
0.0542

> <Gold.PLP.ligand.clash>
0.0000

> <Gold.PLP.ligand.torsion>
0.8346

> <Gold.PLP.Chemscore.Hbond>
4.0000

> <Gold.PLP.Chemscore.CHOScore>
0.0000

> <Gold.PLP.Chemscore.Metal>
0.0000

> <Gold.Chemscore.Hbonds>
donor molecule, donor type, donor heavy atom, donor atom, acceptor molecule, acceptor atom, score
      L1  H     6    27       P1  7948  2.00
      L1  H     6    43       P1  7957  1.00
      P1  H  7997  8009       L1    12  1.00

> <Gold.PLP.Chemscore.Internal.Correction>
0.0331

> <Gold.Rescore>
     Score         DG    S(hbond)    S(metal)    S(lipo)     H(rot)  DE(clash)    DE(int)     intcor
     19.04     -22.65       2.97        0.00      92.00       1.38       2.76       0.85       ----

> <Gold.Chemscore.Fitness>
19.0391

> <Gold.Chemscore.DG>
-22.6471

> <Gold.Chemscore.ZeroCoef>
-5.4800

> <Gold.Chemscore.Hbond>
2.9723

> <Gold.Chemscore.Metal>
0.0000

> <Gold.Chemscore.Lipo>
92.0026

> <Gold.Chemscore.Internal_Hbond>
0.0000

> <Gold.Chemscore.DEClash>
2.7615

> <Gold.Chemscore.DEInternal>
0.8465

> <Gold.Chemscore.Rot>
1.3768

> <Gold.Chemscore.Internal.Correction>
   9.000000E+99

> <Gold.Chemscore.Hbonds>
donor molecule, donor type, donor heavy atom, donor atom, acceptor molecule, acceptor atom, score
      L1  H     6    27       P1  7948  0.96
      L1  H     6    43       P1  7957  1.00
      P1  H  7997  8009       L1    12  0.88

> <Gold.Chemscore.Hbond.Weighted>
-9.9275

> <Gold.Chemscore.Metal.Weighted>
-0.0000

> <Gold.Chemscore.Lipo.Weighted>
-10.7643

> <Gold.Chemscore.Internal_Hbond.Weighted>
0.0000

> <Gold.Chemscore.DEClash.Weighted>
2.7615

> <Gold.Chemscore.DEInternal.Weighted>
0.8465

> <Gold.Chemscore.Rot.Weighted>
3.5247

> <Gold.Chemscore.Internal.Correction.Weighted>
   9.000000E+99

> <Gold.Protein.RotatedTorsions>
[ 6907 6896 6895 6894 ] final   92.78 input  -60.11 | X-H torsion
[ 7974 7965 7964 7962 ] final  164.37 input  175.53 | X-H torsion
[ 8008 7997 7996 7995 ] final -166.02 input   59.86 | X-H torsion
[ 10167 10162 10161 10158 ] final   43.06 input  -65.29 | X-H torsion
[ 10718 10713 10712 10709 ] final -151.78 input   66.30 | X-H torsion
[ 10763 10752 10751 10750 ] final  -24.42 input  -60.55 | X-H torsion
[ 11005 11000 10999 10996 ] final    8.48 input  -57.11 | X-H torsion

> <Gold.Protein.ActiveResidues>
 VAL166  LYS551  ARG553  GLY616  TRP617  ASP618  TYR619  PRO620  LYS621  CYS622 
 ASP623  PHE694  ASN695  SER759  ASP760  ASP761  ALA762  ILE779  LEU786  VAL792 
 PHE793  MET794  SER795  GLU796  ALA797  LYS798  CYS799  TRP800  GLU811  SER814 

> <Gold.Protein.RotatedAtoms>
  152.5453  134.1449  159.8494 H   0  0  0  0  0  0  0  0  0  0  0  0  # atno 6907 bound_to 6896
  151.1481  133.4918  159.2603 H   0  0  0  0  0  0  0  0  0  0  0  0  # atno 6908 bound_to 6896
  151.1501  135.0233  159.8719 H   0  0  0  0  0  0  0  0  0  0  0  0  # atno 6909 bound_to 6896
  144.7548  139.8316  143.6353 H   0  0  0  0  0  0  0  0  0  0  0  0  # atno 7974 bound_to 7965
  155.8579  140.0973  157.1632 H   0  0  0  0  0  0  0  0  0  0  0  0  # atno 8008 bound_to 7997
  154.3989  140.1370  156.3987 H   0  0  0  0  0  0  0  0  0  0  0  0  # atno 8009 bound_to 7997
  155.7889  140.3456  155.5341 H   0  0  0  0  0  0  0  0  0  0  0  0  # atno 8010 bound_to 7997
  140.3482  144.2384  150.6148 H   0  0  0  0  0  0  0  0  0  0  0  0  # atno 10167 bound_to 10162
  156.4638  130.8226  151.2456 H   0  0  0  0  0  0  0  0  0  0  0  0  # atno 10718 bound_to 10713
  153.6835  135.6965  153.5111 H   0  0  0  0  0  0  0  0  0  0  0  0  # atno 10763 bound_to 10752
  153.2467  135.4288  155.0754 H   0  0  0  0  0  0  0  0  0  0  0  0  # atno 10764 bound_to 10752
  154.8393  135.3521  154.6378 H   0  0  0  0  0  0  0  0  0  0  0  0  # atno 10765 bound_to 10752
  140.5365  134.0415  155.7890 H   0  0  0  0  0  0  0  0  0  0  0  0  # atno 11005 bound_to 11000
  146.1545  139.4638  143.0028 LP  0  0  0  0  0  0  0  0  0  0  0  0  # atno 17320 bound_to 7965
  145.6817  141.0189  143.1603 LP  0  0  0  0  0  0  0  0  0  0  0  0  # atno 17321 bound_to 7965
  140.5244  143.2258  151.8337 LP  0  0  0  0  0  0  0  0  0  0  0  0  # atno 17342 bound_to 10162
  139.4830  144.4797  151.9322 LP  0  0  0  0  0  0  0  0  0  0  0  0  # atno 17343 bound_to 10162
  157.7496  131.0098  150.3283 LP  0  0  0  0  0  0  0  0  0  0  0  0  # atno 17370 bound_to 10713
  156.3689  130.3860  149.7191 LP  0  0  0  0  0  0  0  0  0  0  0  0  # atno 17371 bound_to 10713
  141.1251  133.9396  157.2651 LP  0  0  0  0  0  0  0  0  0  0  0  0  # atno 17394 bound_to 11000
  139.9526  135.0172  156.9038 LP  0  0  0  0  0  0  0  0  0  0  0  0  # atno 17395 bound_to 11000

$$$$
