AV-unprocessed.smi:561|AV-procd|sdf|2939|dock10
  -GOLD-   2262023433D 1   1.00000     0.00000
 Structure written by MMmdl.
 36 37  0  0  0  0  0  0  0  0  1 V2000
  144.1732  136.3159  151.7895 C   0  0  0  0  0  0  0  0  0  0  0  0
  145.4914  135.6650  152.2338 C   0  0  1  0  0  0  0  0  0  0  0  0
  146.1120  134.8162  151.1079 C   0  0  0  0  0  0  0  0  0  0  0  0
  145.4203  133.5526  150.9289 N   0  0  0  0  0  0  0  0  0  0  0  0
  144.0826  133.3687  150.6058 C   0  0  0  0  0  0  0  0  0  0  0  0
  143.8741  132.0090  150.5555 C   0  0  0  0  0  0  0  0  0  0  0  0
  145.0629  131.3409  150.8407 N   0  0  0  0  0  0  0  0  0  0  0  0
  145.9333  132.3201  151.0490 C   0  0  0  0  0  0  0  0  0  0  0  0
  146.4379  136.6943  152.6562 N   0  0  0  0  0  0  0  0  0  0  0  0
  146.1860  137.6887  153.5266 C   0  0  0  0  0  0  0  0  0  0  0  0
  145.0769  137.8815  154.0253 O   0  0  0  0  0  0  0  0  0  0  0  0
  147.3461  138.5532  153.8708 C   0  0  0  0  0  0  0  0  0  0  0  0
  148.5411  138.0512  153.8989 N   0  0  0  0  0  0  0  0  0  0  0  0
  149.6481  138.8032  154.2327 N   0  0  0  0  0  0  0  0  0  0  0  0
  150.8449  138.0009  154.4843 C   0  0  0  0  0  0  0  0  0  0  0  0
  149.6603  140.1590  154.3105 C   0  0  0  0  0  0  0  0  0  0  0  0
  150.6435  140.8241  154.6357 O   0  0  0  0  0  0  0  0  0  0  0  0
  148.3586  140.8740  153.9352 C   0  0  0  0  0  0  0  0  0  0  0  0
  147.1150  140.0092  154.2197 C   0  0  0  0  0  0  0  0  0  0  0  0
  143.4461  135.5611  151.4886 H   0  0  0  0  0  0  0  0  0  0  0  0
  144.3267  136.9864  150.9433 H   0  0  0  0  0  0  0  0  0  0  0  0
  143.7274  136.8960  152.5983 H   0  0  0  0  0  0  0  0  0  0  0  0
  145.2769  135.0032  153.0752 H   0  0  0  0  0  0  0  0  0  0  0  0
  146.0727  135.3584  150.1622 H   0  0  0  0  0  0  0  0  0  0  0  0
  147.1652  134.6157  151.3104 H   0  0  0  0  0  0  0  0  0  0  0  0
  143.4084  134.1974  150.4462 H   0  0  0  0  0  0  0  0  0  0  0  0
  142.9669  131.4645  150.3385 H   0  0  0  0  0  0  0  0  0  0  0  0
  146.9674  132.1363  151.3027 H   0  0  0  0  0  0  0  0  0  0  0  0
  147.3777  136.6210  152.2938 H   0  0  0  0  0  0  0  0  0  0  0  0
  151.7421  138.5925  154.6704 H   0  0  0  0  0  0  0  0  0  0  0  0
  151.0534  137.3583  153.6280 H   0  0  0  0  0  0  0  0  0  0  0  0
  150.6875  137.3603  155.3529 H   0  0  0  0  0  0  0  0  0  0  0  0
  148.2871  141.8262  154.4619 H   0  0  0  0  0  0  0  0  0  0  0  0
  148.4081  141.1070  152.8709 H   0  0  0  0  0  0  0  0  0  0  0  0
  146.2760  140.4123  153.6513 H   0  0  0  0  0  0  0  0  0  0  0  0
  146.8402  140.0877  155.2721 H   0  0  0  0  0  0  0  0  0  0  0  0
  1  2  1  0  0  0  0
  1 20  1  0  0  0  0
  1 21  1  0  0  0  0
  1 22  1  0  0  0  0
  2  3  1  0  0  0  0
  2  9  1  0  0  0  0
  2 23  1  0  0  0  0
  3  4  1  0  0  0  0
  3 24  1  0  0  0  0
  3 25  1  0  0  0  0
  4  8  1  0  0  0  0
  4  5  1  0  0  0  0
  5  6  2  0  0  0  0
  5 26  1  0  0  0  0
  6  7  1  0  0  0  0
  6 27  1  0  0  0  0
  7  8  2  0  0  0  0
  8 28  1  0  0  0  0
  9 10  1  0  0  0  0
  9 29  1  0  0  0  0
 10 11  2  0  0  0  0
 10 12  1  0  0  0  0
 12 19  1  0  0  0  0
 12 13  2  0  0  0  0
 13 14  1  0  0  0  0
 14 15  1  0  0  0  0
 14 16  1  0  0  0  0
 15 30  1  0  0  0  0
 15 31  1  0  0  0  0
 15 32  1  0  0  0  0
 16 17  2  0  0  0  0
 16 18  1  0  0  0  0
 18 19  1  0  0  0  0
 18 33  1  0  0  0  0
 18 34  1  0  0  0  0
 19 35  1  0  0  0  0
 19 36  1  0  0  0  0
M  END
> <s_m_source_file>
AV-unprocessed.smi

> <i_m_source_file_index>
561

> <i_lp_mmshare_version>
43012

> <i_f3d_flags>
0

> <s_epik_input>
W2NIXTFuW2NIXVtjSF1uMVtDSDJdW0NAQEhdKFtDSDNdKVtOSF1DKD1PKUMyPU5OKFtDSDNdKUMoPU8pW0NIMl1bQ0gyXTI=

> <s_epik_cmdline>
J2VwaWtfcHl0aG9uJywgJy1waCcsICc3LjAnLCAnLXRuJywgJzgnLCAnLW1hJywgJzIwMCcsICctbWV0YWxfYmluZGluZycsICctaW1hZScsICc8aW5maWxlLm1hZT4nLCAnLW9tYWUnLCAnPG91dGZpbGUubWFlPic=

> <r_lp_tautomer_probability>
1

> <r_epik_Ionization_Penalty>
0.46798

> <r_epik_Ionization_Penalty_Charging>
0.467902

> <r_epik_Ionization_Penalty_Neutral>
7.78263e-05

> <r_epik_State_Penalty>
0.47192

> <r_epik_Charging_Adjusted_Penalty>
0.939822

> <i_epik_Tot_Q>
0

> <i_epik_Tot_abs_Q>
0

> <r_epik_Metal_State_Penalty>
0.280825

> <b_epik_Metal_Only>
0

> <s_epik_Chemistry_Notes>
This compound has an imine and may undergo hydrolysis.

> <s_lp_Force_Field>
OPLS_2005

> <r_lp_Energy>
18.7987

> <b_lp_Chiralities_Consistent>
1

> <s_lp_Variant>
AV-unprocessed.smi:561-4

> <Gold.Version>
5.8.1

> <Gold.Id.Protein>
6NUR|6NUR_protein|mol2

> <Gold.PLP.Fitness>
42.3803

> <Gold.PLP.PLP>
-28.6580

> <Gold.PLP.part.hbond>
-2.0000

> <Gold.PLP.part.metal>
0.0000

> <Gold.PLP.part.buried>
-5.2527

> <Gold.PLP.part.nonpolar>
-24.1854

> <Gold.PLP.part.repulsive>
3.0097

> <Gold.PLP.ligand.clash>
0.0000

> <Gold.PLP.ligand.torsion>
0.6179

> <Gold.PLP.Chemscore.Hbond>
2.0000

> <Gold.PLP.Chemscore.CHOScore>
2.9804

> <Gold.PLP.Chemscore.Metal>
0.0000

> <Gold.Chemscore.Hbonds>
donor molecule, donor type, donor heavy atom, donor atom, acceptor molecule, acceptor atom, score
      L1  H     9    29       P1  7948  1.00
      P1  H  7989  7998       L1    17  0.76
      L1  C     5    26       P1 10186  0.91
      L1  C     6    27       P1 10952  0.98
      L1  C     8    28       P1 10747  0.84

> <Gold.PLP.Chemscore.Internal.Correction>
0.0168

> <Gold.Rescore>
     Score         DG    S(hbond)    S(metal)    S(lipo)     H(rot)  DE(clash)    DE(int)     intcor
     10.57     -13.84       1.97        0.00      52.64       1.71       1.59       1.69       ----

> <Gold.Chemscore.Fitness>
10.5656

> <Gold.Chemscore.DG>
-13.8413

> <Gold.Chemscore.ZeroCoef>
-5.4800

> <Gold.Chemscore.Hbond>
1.9689

> <Gold.Chemscore.Metal>
0.0000

> <Gold.Chemscore.Lipo>
52.6414

> <Gold.Chemscore.Internal_Hbond>
0.0000

> <Gold.Chemscore.DEClash>
1.5869

> <Gold.Chemscore.DEInternal>
1.6888

> <Gold.Chemscore.Rot>
1.7086

> <Gold.Chemscore.Internal.Correction>
   9.000000E+99

> <Gold.Chemscore.Hbonds>
donor molecule, donor type, donor heavy atom, donor atom, acceptor molecule, acceptor atom, score
      L1  H     9    29       P1  7948  1.00
      P1  H  7989  7998       L1    17  0.54

> <Gold.Chemscore.Hbond.Weighted>
-6.5762

> <Gold.Chemscore.Metal.Weighted>
-0.0000

> <Gold.Chemscore.Lipo.Weighted>
-6.1590

> <Gold.Chemscore.Internal_Hbond.Weighted>
0.0000

> <Gold.Chemscore.DEClash.Weighted>
1.5869

> <Gold.Chemscore.DEInternal.Weighted>
1.6888

> <Gold.Chemscore.Rot.Weighted>
4.3739

> <Gold.Chemscore.Internal.Correction.Weighted>
   9.000000E+99

> <Gold.Protein.RotatedTorsions>
[ 6907 6896 6895 6894 ] final   -4.59 input  -60.11 | X-H torsion
[ 7974 7965 7964 7962 ] final -146.46 input  175.53 | X-H torsion
[ 8008 7997 7996 7995 ] final  164.94 input   59.86 | X-H torsion
[ 10167 10162 10161 10158 ] final   64.26 input  -65.29 | X-H torsion
[ 10718 10713 10712 10709 ] final -115.64 input   66.30 | X-H torsion
[ 10763 10752 10751 10750 ] final -119.28 input  -60.55 | X-H torsion
[ 11005 11000 10999 10996 ] final -152.06 input  -57.11 | X-H torsion

> <Gold.Protein.ActiveResidues>
 VAL166  LYS551  ARG553  GLY616  TRP617  ASP618  TYR619  PRO620  LYS621  CYS622 
 ASP623  PHE694  ASN695  SER759  ASP760  ASP761  ALA762  ILE779  LEU786  VAL792 
 PHE793  MET794  SER795  GLU796  ALA797  LYS798  CYS799  TRP800  GLU811  SER814 

> <Gold.Protein.RotatedAtoms>
  151.4952  135.1059  159.9813 H   0  0  0  0  0  0  0  0  0  0  0  0  # atno 6907 bound_to 6896
  152.4725  133.8057  159.6987 H   0  0  0  0  0  0  0  0  0  0  0  0  # atno 6908 bound_to 6896
  150.8742  133.7400  159.2978 H   0  0  0  0  0  0  0  0  0  0  0  0  # atno 6909 bound_to 6896
  144.8158  140.5452  143.5612 H   0  0  0  0  0  0  0  0  0  0  0  0  # atno 7974 bound_to 7965
  156.1840  140.1683  156.8220 H   0  0  0  0  0  0  0  0  0  0  0  0  # atno 8008 bound_to 7997
  154.5393  140.0740  156.8515 H   0  0  0  0  0  0  0  0  0  0  0  0  # atno 8009 bound_to 7997
  155.3247  140.3375  155.4243 H   0  0  0  0  0  0  0  0  0  0  0  0  # atno 8010 bound_to 7997
  140.1241  144.4704  150.6903 H   0  0  0  0  0  0  0  0  0  0  0  0  # atno 10167 bound_to 10162
  156.0909  130.6092  150.8932 H   0  0  0  0  0  0  0  0  0  0  0  0  # atno 10718 bound_to 10713
  154.8613  135.4244  154.2274 H   0  0  0  0  0  0  0  0  0  0  0  0  # atno 10763 bound_to 10752
  153.3266  135.6985  153.6989 H   0  0  0  0  0  0  0  0  0  0  0  0  # atno 10764 bound_to 10752
  153.6023  135.3534  155.2923 H   0  0  0  0  0  0  0  0  0  0  0  0  # atno 10765 bound_to 10752
  140.7229  134.3707  157.5180 H   0  0  0  0  0  0  0  0  0  0  0  0  # atno 11005 bound_to 11000
  145.5219  139.1476  143.3548 LP  0  0  0  0  0  0  0  0  0  0  0  0  # atno 17320 bound_to 7965
  146.2460  140.5359  142.8913 LP  0  0  0  0  0  0  0  0  0  0  0  0  # atno 17321 bound_to 7965
  140.6855  143.2348  151.5271 LP  0  0  0  0  0  0  0  0  0  0  0  0  # atno 17342 bound_to 10162
  139.5553  144.2290  152.1602 LP  0  0  0  0  0  0  0  0  0  0  0  0  # atno 17343 bound_to 10162
  157.6058  131.0939  150.8882 LP  0  0  0  0  0  0  0  0  0  0  0  0  # atno 17370 bound_to 10713
  156.9030  130.5253  149.5282 LP  0  0  0  0  0  0  0  0  0  0  0  0  # atno 17371 bound_to 10713
  139.8844  134.8967  156.2707 LP  0  0  0  0  0  0  0  0  0  0  0  0  # atno 17394 bound_to 11000
  140.9988  133.7164  156.0927 LP  0  0  0  0  0  0  0  0  0  0  0  0  # atno 17395 bound_to 11000

$$$$
