AV-unprocessed.smi:867|AV-procd|sdf|3997|dock2
  -GOLD-   22720 1473D 1   1.00000     0.00000
 Structure written by MMmdl.
 53 56  0  0  0  0  0  0  0  0  2 V2000
  152.4971  139.7812  156.3410 O   0  0  0  0  0  0  0  0  0  0  0  0
  151.5589  139.9558  155.5627 C   0  0  0  0  0  0  0  0  0  0  0  0
  150.8189  141.0784  155.5660 N   0  0  0  0  0  0  0  0  0  0  0  0
  150.9995  142.2174  156.4630 C   0  0  0  0  0  0  0  0  0  0  0  0
  151.1299  141.7833  157.9356 C   0  0  0  0  0  0  0  0  0  0  0  0
  151.3471  142.9411  158.8941 C   0  0  0  0  0  0  0  0  0  0  0  0
  152.2761  142.8459  159.9510 C   0  0  0  0  0  0  0  0  0  0  0  0
  152.4585  143.9571  160.7961 C   0  0  0  0  0  0  0  0  0  0  0  0
  151.6979  145.1177  160.5509 C   0  0  0  0  0  0  0  0  0  0  0  0
  150.8030  145.2191  159.5449 N   0  0  0  0  0  0  0  0  0  0  0  0
  150.6358  144.1498  158.7375 C   0  0  0  0  0  0  0  0  0  0  0  0
  151.1288  139.0032  154.6994 N   0  0  0  0  0  0  0  0  0  0  0  0
  151.7411  137.6833  154.5011 C   0  0  0  0  0  0  0  0  0  0  0  0
  150.8711  136.6166  155.1928 C   0  0  0  0  0  0  0  0  0  0  0  0
  149.4585  136.6568  154.7146 N   0  3  0  0  0  0  0  0  0  0  0  0
  148.5851  135.6436  155.3733 C   0  0  1  0  0  0  0  0  0  0  0  0
  147.3607  135.2103  154.5299 C   0  0  0  0  0  0  0  0  0  0  0  0
  147.4244  133.6721  154.5846 C   0  0  1  0  0  0  0  0  0  0  0  0
  148.5437  133.1897  153.6466 C   0  0  0  0  0  0  0  0  0  0  0  0
  149.8159  133.6249  154.3946 C   0  0  0  0  0  0  0  0  0  0  0  0
  149.2584  134.2814  155.6771 C   0  0  2  0  0  0  0  0  0  0  0  0
  148.0365  133.4126  155.9559 C   0  0  0  0  0  0  0  0  0  0  0  0
  148.8846  138.0318  154.7742 C   0  0  0  0  0  0  0  0  0  0  0  0
  149.8010  139.0572  154.0848 C   0  0  0  0  0  0  0  0  0  0  0  0
  150.0473  141.1342  154.9175 H   0  0  0  0  0  0  0  0  0  0  0  0
  151.8675  142.8088  156.1673 H   0  0  0  0  0  0  0  0  0  0  0  0
  150.1362  142.8741  156.3534 H   0  0  0  0  0  0  0  0  0  0  0  0
  150.2313  141.2447  158.2386 H   0  0  0  0  0  0  0  0  0  0  0  0
  151.9543  141.0765  158.0379 H   0  0  0  0  0  0  0  0  0  0  0  0
  152.8466  141.9422  160.1074 H   0  0  0  0  0  0  0  0  0  0  0  0
  153.1642  143.9215  161.6125 H   0  0  0  0  0  0  0  0  0  0  0  0
  151.8118  145.9882  161.1798 H   0  0  0  0  0  0  0  0  0  0  0  0
  149.9192  144.2650  157.9376 H   0  0  0  0  0  0  0  0  0  0  0  0
  151.8032  137.4776  153.4315 H   0  0  0  0  0  0  0  0  0  0  0  0
  152.7639  137.6123  154.8709 H   0  0  0  0  0  0  0  0  0  0  0  0
  151.3102  135.6380  155.0023 H   0  0  0  0  0  0  0  0  0  0  0  0
  150.8899  136.7680  156.2734 H   0  0  0  0  0  0  0  0  0  0  0  0
  148.2327  136.0680  156.3158 H   0  0  0  0  0  0  0  0  0  0  0  0
  146.4382  135.5824  154.9773 H   0  0  0  0  0  0  0  0  0  0  0  0
  147.3946  135.5620  153.4982 H   0  0  0  0  0  0  0  0  0  0  0  0
  146.4650  133.1858  154.4055 H   0  0  0  0  0  0  0  0  0  0  0  0
  148.5163  132.1045  153.5368 H   0  0  0  0  0  0  0  0  0  0  0  0
  148.4733  133.6275  152.6502 H   0  0  0  0  0  0  0  0  0  0  0  0
  150.4251  132.7547  154.6422 H   0  0  0  0  0  0  0  0  0  0  0  0
  150.4340  134.3004  153.8033 H   0  0  0  0  0  0  0  0  0  0  0  0
  149.9730  134.3149  156.5002 H   0  0  0  0  0  0  0  0  0  0  0  0
  147.4214  133.7762  156.7811 H   0  0  0  0  0  0  0  0  0  0  0  0
  148.2808  132.3628  156.1286 H   0  0  0  0  0  0  0  0  0  0  0  0
  147.9049  138.0614  154.2989 H   0  0  0  0  0  0  0  0  0  0  0  0
  148.7349  138.3159  155.8173 H   0  0  0  0  0  0  0  0  0  0  0  0
  149.3569  140.0526  154.1350 H   0  0  0  0  0  0  0  0  0  0  0  0
  149.8871  138.8279  153.0214 H   0  0  0  0  0  0  0  0  0  0  0  0
  149.4916  136.4084  153.7360 H   0  0  0  0  0  0  0  0  0  0  0  0
  1  2  2  0  0  0  0
  2  3  1  0  0  0  0
  2 12  1  0  0  0  0
  3  4  1  0  0  0  0
  3 25  1  0  0  0  0
  4  5  1  0  0  0  0
  4 26  1  0  0  0  0
  4 27  1  0  0  0  0
  5  6  1  0  0  0  0
  5 28  1  0  0  0  0
  5 29  1  0  0  0  0
  6 11  1  0  0  0  0
  6  7  2  0  0  0  0
  7  8  1  0  0  0  0
  7 30  1  0  0  0  0
  8  9  2  0  0  0  0
  8 31  1  0  0  0  0
  9 10  1  0  0  0  0
  9 32  1  0  0  0  0
 10 11  2  0  0  0  0
 11 33  1  0  0  0  0
 12 24  1  0  0  0  0
 12 13  1  0  0  0  0
 13 14  1  0  0  0  0
 13 34  1  0  0  0  0
 13 35  1  0  0  0  0
 14 15  1  0  0  0  0
 14 36  1  0  0  0  0
 14 37  1  0  0  0  0
 15 16  1  0  0  0  0
 15 23  1  0  0  0  0
 15 53  1  0  0  0  0
 16 21  1  0  0  0  0
 16 17  1  0  0  0  0
 16 38  1  0  0  0  0
 17 18  1  0  0  0  0
 17 39  1  0  0  0  0
 17 40  1  0  0  0  0
 18 22  1  0  0  0  0
 18 19  1  0  0  0  0
 18 41  1  0  0  0  0
 19 20  1  0  0  0  0
 19 42  1  0  0  0  0
 19 43  1  0  0  0  0
 20 21  1  0  0  0  0
 20 44  1  0  0  0  0
 20 45  1  0  0  0  0
 21 22  1  0  0  0  0
 21 46  1  0  0  0  0
 22 47  1  0  0  0  0
 22 48  1  0  0  0  0
 23 24  1  0  0  0  0
 23 49  1  0  0  0  0
 23 50  1  0  0  0  0
 24 51  1  0  0  0  0
 24 52  1  0  0  0  0
M  CHG  1  15   1
M  END
> <s_m_source_file>
AV-unprocessed.smi

> <i_m_source_file_index>
867

> <i_lp_mmshare_version>
43012

> <i_f3d_flags>
0

> <s_epik_input>
W0NIMl0xW0NIMl1bQ0BASF0oW0NIMl0yKVtDQEBIXShbQ0gyXVtDQEhdMTIpTihbQ0gyXVtDSDJdMylbQ0gyXVtDSDJdTjNDKD1PKVtOSF1bQ0gyXVtDSDJdYzRbY0hdW2NIXVtjSF1uW2NIXTQ=

> <s_epik_cmdline>
J2VwaWtfcHl0aG9uJywgJy1waCcsICc3LjAnLCAnLXRuJywgJzgnLCAnLW1hJywgJzIwMCcsICctbWV0YWxfYmluZGluZycsICctaW1hZScsICc8aW5maWxlLm1hZT4nLCAnLW9tYWUnLCAnPG91dGZpbGUubWFlPic=

> <r_epik_Ionization_Penalty>
0.0161279

> <r_epik_Ionization_Penalty_Charging>
0.00262064

> <r_epik_Ionization_Penalty_Neutral>
0.0135072

> <r_epik_State_Penalty>
0.0104914

> <r_epik_Charging_Adjusted_Penalty>
0.013112

> <i_epik_Tot_Q>
1

> <i_epik_Tot_abs_Q>
1

> <r_epik_Metal_State_Penalty>
0.0102536

> <b_epik_Metal_Only>
0

> <s_lp_Force_Field>
OPLS_2005

> <r_lp_Energy>
96.5484

> <b_lp_Chiralities_Consistent>
1

> <s_lp_Variant>
AV-unprocessed.smi:867-4

> <Gold.Version>
5.8.1

> <Gold.Id.Protein>
6NUR|6NUR_protein|mol2

> <Gold.PLP.Fitness>
53.5265

> <Gold.PLP.PLP>
-44.3342

> <Gold.PLP.part.hbond>
-2.0000

> <Gold.PLP.part.metal>
0.0000

> <Gold.PLP.part.buried>
-3.7581

> <Gold.PLP.part.nonpolar>
-37.9504

> <Gold.PLP.part.repulsive>
1.0989

> <Gold.PLP.ligand.clash>
1.6346

> <Gold.PLP.ligand.torsion>
0.7836

> <Gold.PLP.Chemscore.Hbond>
3.0000

> <Gold.PLP.Chemscore.CHOScore>
1.0939

> <Gold.PLP.Chemscore.Metal>
0.0000

> <Gold.Chemscore.Hbonds>
donor molecule, donor type, donor heavy atom, donor atom, acceptor molecule, acceptor atom, score
      L1  H    15    53       P1  7948  2.00
      P1  H  7997  8009       L1     1  1.00
      L1  C    11    33       P1  8028  0.87
      L1  C    11    33       P1  8029  0.25

> <Gold.PLP.Chemscore.Internal.Correction>
0.1125

> <Gold.Rescore>
     Score         DG    S(hbond)    S(metal)    S(lipo)     H(rot)  DE(clash)    DE(int)     intcor
     20.09     -22.47       1.96        0.00     119.39       1.37       0.42       1.95       ----

> <Gold.Chemscore.Fitness>
20.0936

> <Gold.Chemscore.DG>
-22.4682

> <Gold.Chemscore.ZeroCoef>
-5.4800

> <Gold.Chemscore.Hbond>
1.9564

> <Gold.Chemscore.Metal>
0.0000

> <Gold.Chemscore.Lipo>
119.3945

> <Gold.Chemscore.Internal_Hbond>
0.0000

> <Gold.Chemscore.DEClash>
0.4222

> <Gold.Chemscore.DEInternal>
1.9524

> <Gold.Chemscore.Rot>
1.3731

> <Gold.Chemscore.Internal.Correction>
   9.000000E+99

> <Gold.Chemscore.Hbonds>
donor molecule, donor type, donor heavy atom, donor atom, acceptor molecule, acceptor atom, score
      L1  H    15    53       P1  7948  0.74
      P1  H  7997  8009       L1     1  1.00

> <Gold.Chemscore.Hbond.Weighted>
-6.5342

> <Gold.Chemscore.Metal.Weighted>
-0.0000

> <Gold.Chemscore.Lipo.Weighted>
-13.9692

> <Gold.Chemscore.Internal_Hbond.Weighted>
0.0000

> <Gold.Chemscore.DEClash.Weighted>
0.4222

> <Gold.Chemscore.DEInternal.Weighted>
1.9524

> <Gold.Chemscore.Rot.Weighted>
3.5152

> <Gold.Chemscore.Internal.Correction.Weighted>
   9.000000E+99

> <Gold.Protein.RotatedTorsions>
[ 6907 6896 6895 6894 ] final  135.56 input  -60.11 | X-H torsion
[ 7974 7965 7964 7962 ] final  -24.55 input  175.53 | X-H torsion
[ 8008 7997 7996 7995 ] final -164.96 input   59.86 | X-H torsion
[ 10167 10162 10161 10158 ] final  -52.19 input  -65.29 | X-H torsion
[ 10718 10713 10712 10709 ] final   57.66 input   66.30 | X-H torsion
[ 10763 10752 10751 10750 ] final  -60.33 input  -60.55 | X-H torsion
[ 11005 11000 10999 10996 ] final  133.11 input  -57.11 | X-H torsion

> <Gold.Protein.ActiveResidues>
 VAL166  LYS551  ARG553  GLY616  TRP617  ASP618  TYR619  PRO620  LYS621  CYS622 
 ASP623  PHE694  ASN695  SER759  ASP760  ASP761  ALA762  ILE779  LEU786  VAL792 
 PHE793  MET794  SER795  GLU796  ALA797  LYS798  CYS799  TRP800  GLU811  SER814 

> <Gold.Protein.RotatedAtoms>
  152.2991  133.5637  159.5606 H   0  0  0  0  0  0  0  0  0  0  0  0  # atno 6907 bound_to 6896
  150.7269  134.0317  159.3744 H   0  0  0  0  0  0  0  0  0  0  0  0  # atno 6908 bound_to 6896
  151.8218  135.0649  160.0477 H   0  0  0  0  0  0  0  0  0  0  0  0  # atno 6909 bound_to 6896
  146.1547  140.4767  142.8596 H   0  0  0  0  0  0  0  0  0  0  0  0  # atno 7974 bound_to 7965
  155.8431  140.0951  157.1722 H   0  0  0  0  0  0  0  0  0  0  0  0  # atno 8008 bound_to 7997
  154.3982  140.1397  156.3814 H   0  0  0  0  0  0  0  0  0  0  0  0  # atno 8009 bound_to 7997
  155.8043  140.3452  155.5423 H   0  0  0  0  0  0  0  0  0  0  0  0  # atno 8010 bound_to 7997
  140.6550  143.2592  151.4612 H   0  0  0  0  0  0  0  0  0  0  0  0  # atno 10167 bound_to 10162
  157.5533  130.8781  149.8996 H   0  0  0  0  0  0  0  0  0  0  0  0  # atno 10718 bound_to 10713
  154.2675  135.6296  153.5297 H   0  0  0  0  0  0  0  0  0  0  0  0  # atno 10763 bound_to 10752
  152.9885  135.5602  154.5637 H   0  0  0  0  0  0  0  0  0  0  0  0  # atno 10764 bound_to 10752
  154.5199  135.2882  155.1246 H   0  0  0  0  0  0  0  0  0  0  0  0  # atno 10765 bound_to 10752
  139.9831  134.9541  156.9678 H   0  0  0  0  0  0  0  0  0  0  0  0  # atno 11005 bound_to 11000
  144.7949  140.6103  143.6517 LP  0  0  0  0  0  0  0  0  0  0  0  0  # atno 17320 bound_to 7965
  145.4736  139.1501  143.3800 LP  0  0  0  0  0  0  0  0  0  0  0  0  # atno 17321 bound_to 7965
  139.5771  144.1794  152.1918 LP  0  0  0  0  0  0  0  0  0  0  0  0  # atno 17342 bound_to 10162
  140.1108  144.5458  150.6926 LP  0  0  0  0  0  0  0  0  0  0  0  0  # atno 17343 bound_to 10162
  156.0596  130.3702  150.1013 LP  0  0  0  0  0  0  0  0  0  0  0  0  # atno 17370 bound_to 10713
  156.9184  130.9674  151.3552 LP  0  0  0  0  0  0  0  0  0  0  0  0  # atno 17371 bound_to 10713
  140.5056  134.1053  155.7259 LP  0  0  0  0  0  0  0  0  0  0  0  0  # atno 17394 bound_to 11000
  141.1500  133.8985  157.2120 LP  0  0  0  0  0  0  0  0  0  0  0  0  # atno 17395 bound_to 11000

$$$$
