AV-unprocessed.smi:21|AV-procd|sdf|146|dock1
  -GOLD-   2262015353D 1   1.00000     0.00000
 Structure written by MMmdl.
 62 65  0  0  0  0  0  0  0  0  2 V2000
  146.8739  132.2648  151.9878 C   0  0  0  0  0  0  0  0  0  0  0  0
  145.4625  132.1258  152.0238 O   0  0  0  0  0  0  0  0  0  0  0  0
  144.7682  133.1510  151.3251 C   0  0  2  0  0  0  0  0  0  0  0  0
  145.2801  134.5033  151.8014 C   0  0  0  0  0  0  0  0  0  0  0  0
  144.5227  134.7510  153.1133 C   0  0  1  0  0  0  0  0  0  0  0  0
  144.4187  136.2453  153.5099 C   0  0  0  0  0  0  0  0  0  0  0  0
  145.6960  136.9512  153.3851 N   0  0  0  0  0  0  0  0  0  0  0  0
  146.1210  137.3768  152.0574 C   0  0  0  0  0  0  0  0  0  0  0  0
  146.2627  137.5140  154.4885 C   0  0  0  0  0  0  0  0  0  0  0  0
  145.9145  137.0210  155.7068 N   0  0  0  0  0  0  0  0  0  0  0  0
  146.4261  137.5382  156.8263 C   0  0  0  0  0  0  0  0  0  0  0  0
  147.2910  138.5432  156.9589 N   0  0  0  0  0  0  0  0  0  0  0  0
  147.6508  139.0476  155.7451 C   0  0  0  0  0  0  0  0  0  0  0  0
  147.1902  138.6008  154.4719 C   0  0  0  0  0  0  0  0  0  0  0  0
  147.7651  139.3821  153.4743 N   0  0  0  0  0  0  0  0  0  0  0  0
  148.5243  140.2270  154.1153 C   0  0  0  0  0  0  0  0  0  0  0  0
  148.5285  140.0851  155.4832 N   0  0  0  0  0  0  0  0  0  0  0  0
  149.2683  140.8940  156.4360 C   0  0  0  0  0  0  0  0  0  0  0  0
  150.8109  140.8337  156.2809 C   0  0  2  0  0  0  0  0  0  0  0  0
  151.2417  139.3675  156.0436 C   0  0  0  0  0  0  0  0  0  0  0  0
  152.4257  139.2883  155.2762 O   0  0  0  0  0  0  0  0  0  0  0  0
  151.6015  141.5087  157.4400 C   0  0  1  0  0  0  0  0  0  0  0  0
  151.4176  143.0150  157.5407 C   0  0  0  0  0  0  0  0  0  0  0  0
  151.8974  143.3042  158.9551 C   0  0  0  0  0  0  0  0  0  0  0  0
  151.4359  142.2005  159.7191 O   0  0  0  0  0  0  0  0  0  0  0  0
  151.1973  141.0873  158.8625 C   0  0  0  0  0  0  0  0  0  0  0  0
  143.2279  134.0224  152.9706 N   0  3  1  0  0  0  0  0  0  0  0  0
  141.9773  134.8109  153.0758 C   0  0  0  0  0  0  0  0  0  0  0  0
  143.2942  133.2001  151.7393 C   0  0  0  0  0  0  0  0  0  0  0  0
  144.8980  133.0423  150.2468 H   0  0  0  0  0  0  0  0  0  0  0  0
  145.0546  134.2238  153.9065 H   0  0  0  0  0  0  0  0  0  0  0  0
  147.3339  131.4440  152.5378 H   0  0  0  0  0  0  0  0  0  0  0  0
  147.1881  133.1981  152.4569 H   0  0  0  0  0  0  0  0  0  0  0  0
  147.2590  132.2402  150.9684 H   0  0  0  0  0  0  0  0  0  0  0  0
  146.3638  134.5260  151.9241 H   0  0  0  0  0  0  0  0  0  0  0  0
  145.0135  135.2654  151.0679 H   0  0  0  0  0  0  0  0  0  0  0  0
  143.6334  136.7414  152.9400 H   0  0  0  0  0  0  0  0  0  0  0  0
  144.1166  136.3247  154.5542 H   0  0  0  0  0  0  0  0  0  0  0  0
  147.2081  137.4371  151.9958 H   0  0  0  0  0  0  0  0  0  0  0  0
  145.6985  138.3509  151.8100 H   0  0  0  0  0  0  0  0  0  0  0  0
  145.7890  136.6653  151.3006 H   0  0  0  0  0  0  0  0  0  0  0  0
  146.0947  137.0815  157.7472 H   0  0  0  0  0  0  0  0  0  0  0  0
  149.1114  140.9753  153.6027 H   0  0  0  0  0  0  0  0  0  0  0  0
  148.9234  141.9253  156.3514 H   0  0  0  0  0  0  0  0  0  0  0  0
  148.9817  140.5573  157.4330 H   0  0  0  0  0  0  0  0  0  0  0  0
  151.0689  141.3654  155.3647 H   0  0  0  0  0  0  0  0  0  0  0  0
  151.4106  138.8624  156.9949 H   0  0  0  0  0  0  0  0  0  0  0  0
  150.4576  138.8031  155.5393 H   0  0  0  0  0  0  0  0  0  0  0  0
  152.9108  138.5247  155.5491 H   0  0  0  0  0  0  0  0  0  0  0  0
  152.6668  141.3098  157.3115 H   0  0  0  0  0  0  0  0  0  0  0  0
  151.9830  143.5693  156.7910 H   0  0  0  0  0  0  0  0  0  0  0  0
  150.3638  143.2805  157.4432 H   0  0  0  0  0  0  0  0  0  0  0  0
  152.9874  143.3289  158.9916 H   0  0  0  0  0  0  0  0  0  0  0  0
  151.5199  144.2496  159.3452 H   0  0  0  0  0  0  0  0  0  0  0  0
  150.1355  140.8443  158.9165 H   0  0  0  0  0  0  0  0  0  0  0  0
  151.7602  140.2229  159.2121 H   0  0  0  0  0  0  0  0  0  0  0  0
  141.9248  135.5803  152.3044 H   0  0  0  0  0  0  0  0  0  0  0  0
  141.8888  135.2843  154.0535 H   0  0  0  0  0  0  0  0  0  0  0  0
  141.1129  134.1569  152.9560 H   0  0  0  0  0  0  0  0  0  0  0  0
  142.7278  133.6903  150.9456 H   0  0  0  0  0  0  0  0  0  0  0  0
  142.8502  132.2171  151.8938 H   0  0  0  0  0  0  0  0  0  0  0  0
  143.2090  133.3689  153.7408 H   0  0  0  0  0  0  0  0  0  0  0  0
  1  2  1  0  0  0  0
  1 32  1  0  0  0  0
  1 33  1  0  0  0  0
  1 34  1  0  0  0  0
  2  3  1  0  0  0  0
  3 30  1  0  0  0  0
  3 29  1  0  0  0  0
  3  4  1  0  0  0  0
  4  5  1  0  0  0  0
  4 35  1  0  0  0  0
  4 36  1  0  0  0  0
  5 31  1  0  0  0  0
  5  6  1  0  0  0  0
  5 27  1  0  0  0  0
  6  7  1  0  0  0  0
  6 37  1  0  0  0  0
  6 38  1  0  0  0  0
  7  8  1  0  0  0  0
  7  9  1  0  0  0  0
  8 39  1  0  0  0  0
  8 40  1  0  0  0  0
  8 41  1  0  0  0  0
  9 14  1  0  0  0  0
  9 10  2  0  0  0  0
 10 11  1  0  0  0  0
 11 12  2  0  0  0  0
 11 42  1  0  0  0  0
 12 13  1  0  0  0  0
 13 17  1  0  0  0  0
 13 14  2  0  0  0  0
 14 15  1  0  0  0  0
 15 16  2  0  0  0  0
 16 17  1  0  0  0  0
 16 43  1  0  0  0  0
 17 18  1  0  0  0  0
 18 19  1  0  0  0  0
 18 44  1  0  0  0  0
 18 45  1  0  0  0  0
 19 20  1  0  0  0  0
 19 22  1  0  0  0  0
 19 46  1  0  0  0  0
 20 21  1  0  0  0  0
 20 47  1  0  0  0  0
 20 48  1  0  0  0  0
 21 49  1  0  0  0  0
 22 26  1  0  0  0  0
 22 23  1  0  0  0  0
 22 50  1  0  0  0  0
 23 24  1  0  0  0  0
 23 51  1  0  0  0  0
 23 52  1  0  0  0  0
 24 25  1  0  0  0  0
 24 53  1  0  0  0  0
 24 54  1  0  0  0  0
 25 26  1  0  0  0  0
 26 55  1  0  0  0  0
 26 56  1  0  0  0  0
 27 28  1  0  0  0  0
 27 29  1  0  0  0  0
 27 62  1  0  0  0  0
 28 57  1  0  0  0  0
 28 58  1  0  0  0  0
 28 59  1  0  0  0  0
 29 60  1  0  0  0  0
 29 61  1  0  0  0  0
M  CHG  1  27   1
M  END
> <s_m_source_file>
AV-unprocessed.smi

> <i_m_source_file_index>
21

> <i_lp_mmshare_version>
43012

> <i_f3d_flags>
0

> <s_epik_input>
W0NIM11PW0NASF0xW0NIMl1bQ0BIXShOKFtDSDNdKVtDSDJdMSlbQ0gyXU4oW0NIM10pYyhuW2NIXW4yKWMoYzIzKW5bY0hdbjNbQ0gyXVtDQEhdKFtDSDJdW09IXSlbQ0BASF00W0NIMl1bQ0gyXU9bQ0gyXTQ=

> <s_epik_cmdline>
J2VwaWtfcHl0aG9uJywgJy1waCcsICc3LjAnLCAnLXRuJywgJzgnLCAnLW1hJywgJzIwMCcsICctbWV0YWxfYmluZGluZycsICctaW1hZScsICc8aW5maWxlLm1hZT4nLCAnLW9tYWUnLCAnPG91dGZpbGUubWFlPic=

> <r_lp_tautomer_probability>
1

> <r_epik_Ionization_Penalty>
0.0157465

> <r_epik_Ionization_Penalty_Charging>
0.015354

> <r_epik_Ionization_Penalty_Neutral>
0.000392529

> <r_epik_State_Penalty>
0.0120612

> <r_epik_Charging_Adjusted_Penalty>
0.0274152

> <i_epik_Tot_Q>
1

> <i_epik_Tot_abs_Q>
1

> <r_epik_Metal_State_Penalty>
0.0121253

> <b_epik_Metal_Only>
0

> <s_lp_Force_Field>
OPLS_2005

> <r_lp_Energy>
61.785

> <b_lp_Chiralities_Consistent>
1

> <s_lp_Variant>
AV-unprocessed.smi:21-26

> <Gold.Version>
5.8.1

> <Gold.Id.Protein>
6NUR|6NUR_protein|mol2

> <Gold.PLP.Fitness>
46.4860

> <Gold.PLP.PLP>
-38.5047

> <Gold.PLP.part.hbond>
-2.2087

> <Gold.PLP.part.metal>
0.0000

> <Gold.PLP.part.buried>
-5.8008

> <Gold.PLP.part.nonpolar>
-31.1960

> <Gold.PLP.part.repulsive>
0.6099

> <Gold.PLP.ligand.clash>
0.0000

> <Gold.PLP.ligand.torsion>
0.9214

> <Gold.PLP.Chemscore.Hbond>
2.7680

> <Gold.PLP.Chemscore.CHOScore>
0.2250

> <Gold.PLP.Chemscore.Metal>
0.0000

> <Gold.Chemscore.Hbonds>
donor molecule, donor type, donor heavy atom, donor atom, acceptor molecule, acceptor atom, score
      L1  H    27    62       P1 10957  2.00
      L1  C    16    43       P1  7957  0.38

> <Gold.PLP.Chemscore.Internal.Correction>
0.8451

> <Gold.Rescore>
     Score         DG    S(hbond)    S(metal)    S(lipo)     H(rot)  DE(clash)    DE(int)     intcor
     11.66     -14.14       1.74        0.00      91.54       3.08       0.12       2.36       ----

> <Gold.Chemscore.Fitness>
11.6566

> <Gold.Chemscore.DG>
-14.1440

> <Gold.Chemscore.ZeroCoef>
-5.4800

> <Gold.Chemscore.Hbond>
1.7449

> <Gold.Chemscore.Metal>
0.0000

> <Gold.Chemscore.Lipo>
91.5406

> <Gold.Chemscore.Internal_Hbond>
0.0000

> <Gold.Chemscore.DEClash>
0.1238

> <Gold.Chemscore.DEInternal>
2.3636

> <Gold.Chemscore.Rot>
3.0758

> <Gold.Chemscore.Internal.Correction>
   9.000000E+99

> <Gold.Chemscore.Hbonds>
donor molecule, donor type, donor heavy atom, donor atom, acceptor molecule, acceptor atom, score
      L1  H    27    62       P1 10957  0.96

> <Gold.Chemscore.Hbond.Weighted>
-5.8279

> <Gold.Chemscore.Metal.Weighted>
-0.0000

> <Gold.Chemscore.Lipo.Weighted>
-10.7102

> <Gold.Chemscore.Internal_Hbond.Weighted>
0.0000

> <Gold.Chemscore.DEClash.Weighted>
0.1238

> <Gold.Chemscore.DEInternal.Weighted>
2.3636

> <Gold.Chemscore.Rot.Weighted>
7.8741

> <Gold.Chemscore.Internal.Correction.Weighted>
   9.000000E+99

> <Gold.Protein.RotatedTorsions>
[ 6907 6896 6895 6894 ] final -177.97 input  -60.11 | X-H torsion
[ 7974 7965 7964 7962 ] final  168.87 input  175.53 | X-H torsion
[ 8008 7997 7996 7995 ] final -142.81 input   59.86 | X-H torsion
[ 10167 10162 10161 10158 ] final  103.25 input  -65.29 | X-H torsion
[ 10718 10713 10712 10709 ] final -124.43 input   66.30 | X-H torsion
[ 10763 10752 10751 10750 ] final -110.96 input  -60.55 | X-H torsion
[ 11005 11000 10999 10996 ] final   54.64 input  -57.11 | X-H torsion

> <Gold.Protein.ActiveResidues>
 VAL166  LYS551  ARG553  GLY616  TRP617  ASP618  TYR619  PRO620  LYS621  CYS622 
 ASP623  PHE694  ASN695  SER759  ASP760  ASP761  ALA762  ILE779  LEU786  VAL792 
 PHE793  MET794  SER795  GLU796  ALA797  LYS798  CYS799  TRP800  GLU811  SER814 

> <Gold.Protein.RotatedAtoms>
  151.6296  133.3333  159.3105 H   0  0  0  0  0  0  0  0  0  0  0  0  # atno 6907 bound_to 6896
  150.8063  134.7194  159.6659 H   0  0  0  0  0  0  0  0  0  0  0  0  # atno 6908 bound_to 6896
  152.4159  134.6048  160.0061 H   0  0  0  0  0  0  0  0  0  0  0  0  # atno 6909 bound_to 6896
  144.7374  139.8970  143.6407 H   0  0  0  0  0  0  0  0  0  0  0  0  # atno 7974 bound_to 7965
  155.5003  140.0575  157.2940 H   0  0  0  0  0  0  0  0  0  0  0  0  # atno 8008 bound_to 7997
  154.4590  140.1987  156.0249 H   0  0  0  0  0  0  0  0  0  0  0  0  # atno 8009 bound_to 7997
  156.0853  140.3241  155.7750 H   0  0  0  0  0  0  0  0  0  0  0  0  # atno 8010 bound_to 7997
  139.7279  144.7043  151.0768 H   0  0  0  0  0  0  0  0  0  0  0  0  # atno 10167 bound_to 10162
  156.1587  130.6587  151.0019 H   0  0  0  0  0  0  0  0  0  0  0  0  # atno 10718 bound_to 10713
  154.8275  135.4545  154.0965 H   0  0  0  0  0  0  0  0  0  0  0  0  # atno 10763 bound_to 10752
  153.2266  135.6900  153.7944 H   0  0  0  0  0  0  0  0  0  0  0  0  # atno 10764 bound_to 10752
  153.7342  135.3322  155.3268 H   0  0  0  0  0  0  0  0  0  0  0  0  # atno 10765 bound_to 10752
  140.0670  134.5523  155.9088 H   0  0  0  0  0  0  0  0  0  0  0  0  # atno 11005 bound_to 11000
  146.1100  139.4103  143.0294 LP  0  0  0  0  0  0  0  0  0  0  0  0  # atno 17320 bound_to 7965
  145.7457  140.9991  143.1277 LP  0  0  0  0  0  0  0  0  0  0  0  0  # atno 17321 bound_to 7965
  140.7766  143.5081  150.9687 LP  0  0  0  0  0  0  0  0  0  0  0  0  # atno 17342 bound_to 10162
  139.8768  143.7122  152.3161 LP  0  0  0  0  0  0  0  0  0  0  0  0  # atno 17343 bound_to 10162
  157.6716  131.0860  150.7599 LP  0  0  0  0  0  0  0  0  0  0  0  0  # atno 17370 bound_to 10713
  156.7663  130.4814  149.5427 LP  0  0  0  0  0  0  0  0  0  0  0  0  # atno 17371 bound_to 10713
  141.1997  133.6608  156.5856 LP  0  0  0  0  0  0  0  0  0  0  0  0  # atno 17394 bound_to 11000
  140.3684  134.7627  157.4582 LP  0  0  0  0  0  0  0  0  0  0  0  0  # atno 17395 bound_to 11000

$$$$
