#       Name:                AV-unprocessed.smi:3249
#       Creating user name   scv26
#       Creation time:       Fri Mar 27 18:30:23 2020


#       File generated by GOLD software.
#

@<TRIPOS>MOLECULE
AV-unprocessed.smi:3249
    47    48     1
SMALL
NO_CHARGES


@<TRIPOS>ATOM
      1 ****        -3.4658   0.4555  -3.6037 C.3            1 S1                 0.0000
      2 ****        -3.1422   0.5158  -2.1387 C.2            1 S1                 0.0000
      3 ****        -3.3879  -0.4753  -1.1470 C.2            1 S1                 0.0000
      4 ****        -2.9689  -0.1140   0.0546 N.2            1 S1                 0.0000
      5 ****        -2.4579   1.1240  -0.1197 N.pl3          1 S1                 0.0000
      6 ****        -1.8655   1.8260   1.0139 C.3            1 S1                 0.0000
      7 ****        -2.4707   3.2381   1.1261 C.3            1 S1                 0.0000
      8 ****        -0.3178   1.8199   0.9128 C.3            1 S1                 0.0000
      9 ****         0.3577   2.4977   2.1202 C.3            1 S1                 0.0000
     10 ****         0.1693   0.4262   0.7812 N.4            1 S1                 1.0000
     11 ****         1.4856   0.2718   0.1271 C.3            1 S1                 0.0000
     12 ****         1.8532  -1.2101  -0.0426 C.3            1 S1                 0.0000
     13 ****         2.1682  -1.9034   1.2994 C.3            1 S1                 0.0000
     14 ****         2.6237  -3.3483   1.0656 C.3            1 S1                 0.0000
     15 ****         3.7803  -3.3698   0.0610 C.3            1 S1                 0.0000
     16 ****         3.3954  -2.6017  -1.2129 C.3            1 S1                 0.0000
     17 ****         3.0055  -1.2726  -0.8794 O.3            1 S1                 0.0000
     18 ****        -2.5406   1.5228  -1.4391 C.2            1 S1                 0.0000
     19 ****        -4.1328  -0.3745  -3.8379 H              1 S1                 0.0000
     20 ****        -2.5678   0.3263  -4.2079 H              1 S1                 0.0000
     21 ****        -3.9561   1.3669  -3.9462 H              1 S1                 0.0000
     22 ****        -3.8501  -1.4443  -1.2658 H              1 S1                 0.0000
     23 ****        -2.1487   1.2847   1.9190 H              1 S1                 0.0000
     24 ****        -2.1896   3.7239   2.0601 H              1 S1                 0.0000
     25 ****        -3.5604   3.1975   1.1074 H              1 S1                 0.0000
     26 ****        -2.1482   3.8801   0.3058 H              1 S1                 0.0000
     27 ****        -0.0394   2.3652   0.0092 H              1 S1                 0.0000
     28 ****         0.0890   3.5510   2.1927 H              1 S1                 0.0000
     29 ****         1.4443   2.4608   2.0471 H              1 S1                 0.0000
     30 ****         0.0728   2.0153   3.0557 H              1 S1                 0.0000
     31 ****         0.1929  -0.0015   1.6958 H              1 S1                 0.0000
     32 ****         1.4391   0.7439  -0.8553 H              1 S1                 0.0000
     33 ****         2.2594   0.7901   0.6934 H              1 S1                 0.0000
     34 ****         1.0307  -1.7237  -0.5443 H              1 S1                 0.0000
     35 ****         2.9534  -1.3552   1.8218 H              1 S1                 0.0000
     36 ****         1.2942  -1.8943   1.9513 H              1 S1                 0.0000
     37 ****         2.9271  -3.8095   2.0059 H              1 S1                 0.0000
     38 ****         1.7914  -3.9387   0.6805 H              1 S1                 0.0000
     39 ****         4.6637  -2.9122   0.5079 H              1 S1                 0.0000
     40 ****         4.0495  -4.3975  -0.1839 H              1 S1                 0.0000
     41 ****         4.2448  -2.5583  -1.8946 H              1 S1                 0.0000
     42 ****         2.5874  -3.1076  -1.7437 H              1 S1                 0.0000
     43 ****        -2.1657   2.4802  -1.7702 H              1 S1                 0.0000
     44 ****        -0.5032  -0.0729   0.2156 H              1 S1                 0.0000
     45 ****        -3.0193  -0.6404   0.9033 LP             1 S1                 0.0000
     46 ****         3.7659  -0.8296  -0.4043 LP             1 S1                 0.0000
     47 ****         2.8086  -0.7787  -1.7263 LP             1 S1                 0.0000
@<TRIPOS>BOND
    1    1    2 1     
    2    1   19 1     
    3    1   20 1     
    4    1   21 1     
    5    2   18 2     
    6    2    3 1     
    7    3    4 2     
    8    3   22 1     
    9    4    5 1     
   10    5    6 1     
   11    5   18 1     
   12    6    7 1     
   13    6    8 1     
   14    6   23 1     
   15    7   24 1     
   16    7   25 1     
   17    7   26 1     
   18    8    9 1     
   19    8   10 1     
   20    8   27 1     
   21    9   28 1     
   22    9   29 1     
   23    9   30 1     
   24   10   11 1     
   25   10   31 1     
   26   10   44 1     
   27   11   12 1     
   28   11   32 1     
   29   11   33 1     
   30   12   17 1     
   31   12   13 1     
   32   12   34 1     
   33   13   14 1     
   34   13   35 1     
   35   13   36 1     
   36   14   15 1     
   37   14   37 1     
   38   14   38 1     
   39   15   16 1     
   40   15   39 1     
   41   15   40 1     
   42   16   17 1     
   43   16   41 1     
   44   16   42 1     
   45   18   43 1     
   46    4   45 1     
   47   17   46 1     
   48   17   47 1     
@<TRIPOS>SUBSTRUCTURE
      1 S1             1
@<TRIPOS>SET
LONE_PAIRS      STATIC     ATOMS    <user>   **** ""
3 45 46 47
DONOR_HYDROGENS      STATIC     ATOMS    <user>   **** ""
2 31 44
ATOM$BLUE        STATIC     ATOMS    COLORGROUP SYSTEM
3 45 46 47
ATOM$RED        STATIC     ATOMS    COLORGROUP SYSTEM
2 31 44
