AV-unprocessed.smi:1154|AV-procd|sdf|4900|dock7
  -GOLD-   22720 3473D 1   1.00000     0.00000
 Structure written by MMmdl.
 42 43  0  0  0  0  0  0  0  0  2 V2000
  151.6732  141.1324  156.9216 C   0  0  0  0  0  0  0  0  0  0  0  0
  151.0648  141.3892  158.3115 C   0  0  2  0  0  0  0  0  0  0  0  0
  150.5835  142.8400  158.4977 C   0  0  0  0  0  0  0  0  0  0  0  0
  151.7626  143.8123  158.6834 C   0  0  1  0  0  0  0  0  0  0  0  0
  151.2712  145.2450  158.9352 C   0  0  0  0  0  0  0  0  0  0  0  0
  152.6835  143.3253  159.8188 C   0  0  0  0  0  0  0  0  0  0  0  0
  153.1587  141.9387  159.5756 N   0  3  1  0  0  0  0  0  0  0  0  0
  154.1753  141.5096  160.5692 C   0  0  0  0  0  0  0  0  0  0  0  0
  154.8302  140.1704  160.1932 C   0  0  0  0  0  0  0  0  0  0  0  0
  156.2567  140.2001  160.4830 N   0  0  0  0  0  0  0  0  0  0  0  0
  157.2176  139.9644  159.5762 C   0  0  0  0  0  0  0  0  0  0  0  0
  156.9796  139.6697  158.4055 O   0  0  0  0  0  0  0  0  0  0  0  0
  158.6672  140.0669  160.0586 C   0  0  0  0  0  0  0  0  0  0  0  0
  159.2819  141.3182  159.6527 N   0  0  0  0  0  0  0  0  0  0  0  0
  159.4276  141.8725  158.4475 C   0  0  0  0  0  0  0  0  0  0  0  0
  160.0681  143.0292  158.5153 N   0  0  0  0  0  0  0  0  0  0  0  0
  160.3155  143.1731  159.8704 N   0  0  0  0  0  0  0  0  0  0  0  0
  159.8502  142.1616  160.5506 N   0  0  0  0  0  0  0  0  0  0  0  0
  152.0222  140.9867  159.4507 C   0  0  0  0  0  0  0  0  0  0  0  0
  152.5844  141.7084  156.7607 H   0  0  0  0  0  0  0  0  0  0  0  0
  150.9700  141.3965  156.1311 H   0  0  0  0  0  0  0  0  0  0  0  0
  151.9250  140.0791  156.7946 H   0  0  0  0  0  0  0  0  0  0  0  0
  150.1861  140.7465  158.3826 H   0  0  0  0  0  0  0  0  0  0  0  0
  149.9683  143.1448  157.6500 H   0  0  0  0  0  0  0  0  0  0  0  0
  149.9365  142.8888  159.3749 H   0  0  0  0  0  0  0  0  0  0  0  0
  152.3433  143.8292  157.7604 H   0  0  0  0  0  0  0  0  0  0  0  0
  150.6819  145.3086  159.8506 H   0  0  0  0  0  0  0  0  0  0  0  0
  150.6470  145.5959  158.1129 H   0  0  0  0  0  0  0  0  0  0  0  0
  152.1085  145.9369  159.0303 H   0  0  0  0  0  0  0  0  0  0  0  0
  153.5408  143.9960  159.8929 H   0  0  0  0  0  0  0  0  0  0  0  0
  152.1639  143.3683  160.7777 H   0  0  0  0  0  0  0  0  0  0  0  0
  154.9631  142.2626  160.6255 H   0  0  0  0  0  0  0  0  0  0  0  0
  153.7255  141.4598  161.5621 H   0  0  0  0  0  0  0  0  0  0  0  0
  154.3859  139.3425  160.7456 H   0  0  0  0  0  0  0  0  0  0  0  0
  154.6766  139.9699  159.1313 H   0  0  0  0  0  0  0  0  0  0  0  0
  156.5337  140.4290  161.4268 H   0  0  0  0  0  0  0  0  0  0  0  0
  158.6970  139.9926  161.1463 H   0  0  0  0  0  0  0  0  0  0  0  0
  159.2567  139.2390  159.6617 H   0  0  0  0  0  0  0  0  0  0  0  0
  159.0745  141.4289  157.5281 H   0  0  0  0  0  0  0  0  0  0  0  0
  151.4779  140.9581  160.3961 H   0  0  0  0  0  0  0  0  0  0  0  0
  152.3835  139.9744  159.2734 H   0  0  0  0  0  0  0  0  0  0  0  0
  153.6268  141.9578  158.6806 H   0  0  0  0  0  0  0  0  0  0  0  0
  1  2  1  0  0  0  0
  1 20  1  0  0  0  0
  1 21  1  0  0  0  0
  1 22  1  0  0  0  0
  2 19  1  0  0  0  0
  2  3  1  0  0  0  0
  2 23  1  0  0  0  0
  3  4  1  0  0  0  0
  3 24  1  0  0  0  0
  3 25  1  0  0  0  0
  4  5  1  0  0  0  0
  4  6  1  0  0  0  0
  4 26  1  0  0  0  0
  5 27  1  0  0  0  0
  5 28  1  0  0  0  0
  5 29  1  0  0  0  0
  6  7  1  0  0  0  0
  6 30  1  0  0  0  0
  6 31  1  0  0  0  0
  7  8  1  0  0  0  0
  7 19  1  0  0  0  0
  7 42  1  0  0  0  0
  8  9  1  0  0  0  0
  8 32  1  0  0  0  0
  8 33  1  0  0  0  0
  9 10  1  0  0  0  0
  9 34  1  0  0  0  0
  9 35  1  0  0  0  0
 10 11  1  0  0  0  0
 10 36  1  0  0  0  0
 11 12  2  0  0  0  0
 11 13  1  0  0  0  0
 13 14  1  0  0  0  0
 13 37  1  0  0  0  0
 13 38  1  0  0  0  0
 14 18  1  0  0  0  0
 14 15  1  0  0  0  0
 15 16  2  0  0  0  0
 15 39  1  0  0  0  0
 16 17  1  0  0  0  0
 17 18  2  0  0  0  0
 19 40  1  0  0  0  0
 19 41  1  0  0  0  0
M  CHG  1   7   1
M  END
> <s_m_source_file>
AV-unprocessed.smi

> <i_m_source_file_index>
1154

> <i_lp_mmshare_version>
43012

> <i_f3d_flags>
0

> <s_epik_input>
W0NIM11bQ0BASF0xW0NIMl1bQ0BASF0oW0NIM10pW0NIMl1OKFtDSDJdMSlbQ0gyXVtDSDJdW05IXUMoPU8pW0NIMl1uMltjSF1ubm4y

> <s_epik_cmdline>
J2VwaWtfcHl0aG9uJywgJy1waCcsICc3LjAnLCAnLXRuJywgJzgnLCAnLW1hJywgJzIwMCcsICctbWV0YWxfYmluZGluZycsICctaW1hZScsICc8aW5maWxlLm1hZT4nLCAnLW9tYWUnLCAnPG91dGZpbGUubWFlPic=

> <r_lp_tautomer_probability>
1

> <r_epik_Ionization_Penalty>
0.00217773

> <r_epik_Ionization_Penalty_Charging>
0.00217329

> <r_epik_Ionization_Penalty_Neutral>
4.43997e-06

> <r_epik_State_Penalty>
0.00149294

> <r_epik_Charging_Adjusted_Penalty>
0.00366623

> <i_epik_Tot_Q>
1

> <i_epik_Tot_abs_Q>
1

> <r_epik_Metal_State_Penalty>
-0

> <b_epik_Metal_Only>
0

> <s_lp_Force_Field>
OPLS_2005

> <r_lp_Energy>
22.5946

> <b_lp_Chiralities_Consistent>
1

> <s_lp_Variant>
AV-unprocessed.smi:1154-1

> <Gold.Version>
5.8.1

> <Gold.Id.Protein>
6NUR|6NUR_protein|mol2

> <Gold.PLP.Fitness>
42.7885

> <Gold.PLP.PLP>
-40.9106

> <Gold.PLP.part.hbond>
-4.0711

> <Gold.PLP.part.metal>
0.0000

> <Gold.PLP.part.buried>
-7.4914

> <Gold.PLP.part.nonpolar>
-29.0146

> <Gold.PLP.part.repulsive>
0.2642

> <Gold.PLP.ligand.clash>
0.0000

> <Gold.PLP.ligand.torsion>
0.5764

> <Gold.PLP.Chemscore.Hbond>
1.0000

> <Gold.PLP.Chemscore.CHOScore>
0.0000

> <Gold.PLP.Chemscore.Metal>
0.0000

> <Gold.Chemscore.Hbonds>
donor molecule, donor type, donor heavy atom, donor atom, acceptor molecule, acceptor atom, score
      P1  H  7997  8009       L1    12  1.00

> <Gold.PLP.Chemscore.Internal.Correction>
0.0306

> <Gold.Rescore>
     Score         DG    S(hbond)    S(metal)    S(lipo)     H(rot)  DE(clash)    DE(int)     intcor
     10.98     -12.88       1.00        0.00      93.09       2.67       1.38       0.52       ----

> <Gold.Chemscore.Fitness>
10.9779

> <Gold.Chemscore.DG>
-12.8764

> <Gold.Chemscore.ZeroCoef>
-5.4800

> <Gold.Chemscore.Hbond>
0.9981

> <Gold.Chemscore.Metal>
0.0000

> <Gold.Chemscore.Lipo>
93.0891

> <Gold.Chemscore.Internal_Hbond>
0.0000

> <Gold.Chemscore.DEClash>
1.3755

> <Gold.Chemscore.DEInternal>
0.5230

> <Gold.Chemscore.Rot>
2.6674

> <Gold.Chemscore.Internal.Correction>
   9.000000E+99

> <Gold.Chemscore.Hbonds>
donor molecule, donor type, donor heavy atom, donor atom, acceptor molecule, acceptor atom, score
      P1  H  7997  8009       L1    12  1.00

> <Gold.Chemscore.Hbond.Weighted>
-3.3336

> <Gold.Chemscore.Metal.Weighted>
-0.0000

> <Gold.Chemscore.Lipo.Weighted>
-10.8914

> <Gold.Chemscore.Internal_Hbond.Weighted>
0.0000

> <Gold.Chemscore.DEClash.Weighted>
1.3755

> <Gold.Chemscore.DEInternal.Weighted>
0.5230

> <Gold.Chemscore.Rot.Weighted>
6.8286

> <Gold.Chemscore.Internal.Correction.Weighted>
   9.000000E+99

> <Gold.Protein.RotatedTorsions>
[ 6907 6896 6895 6894 ] final  150.35 input  -60.11 | X-H torsion
[ 7974 7965 7964 7962 ] final   84.22 input  175.53 | X-H torsion
[ 8008 7997 7996 7995 ] final   77.66 input   59.86 | X-H torsion
[ 10167 10162 10161 10158 ] final  -28.20 input  -65.29 | X-H torsion
[ 10718 10713 10712 10709 ] final   73.84 input   66.30 | X-H torsion
[ 10763 10752 10751 10750 ] final   20.23 input  -60.55 | X-H torsion
[ 11005 11000 10999 10996 ] final   78.50 input  -57.11 | X-H torsion

> <Gold.Protein.ActiveResidues>
 VAL166  LYS551  ARG553  GLY616  TRP617  ASP618  TYR619  PRO620  LYS621  CYS622 
 ASP623  PHE694  ASN695  SER759  ASP760  ASP761  ALA762  ILE779  LEU786  VAL792 
 PHE793  MET794  SER795  GLU796  ALA797  LYS798  CYS799  TRP800  GLU811  SER814 

> <Gold.Protein.RotatedAtoms>
  152.1156  133.4325  159.4651 H   0  0  0  0  0  0  0  0  0  0  0  0  # atno 6907 bound_to 6896
  150.6869  134.2596  159.4553 H   0  0  0  0  0  0  0  0  0  0  0  0  # atno 6908 bound_to 6896
  152.0468  134.9677  160.0625 H   0  0  0  0  0  0  0  0  0  0  0  0  # atno 6909 bound_to 6896
  145.6016  139.2353  143.2242 H   0  0  0  0  0  0  0  0  0  0  0  0  # atno 7974 bound_to 7965
  155.8448  140.3460  155.5655 H   0  0  0  0  0  0  0  0  0  0  0  0  # atno 8008 bound_to 7997
  155.8101  140.0897  157.1928 H   0  0  0  0  0  0  0  0  0  0  0  0  # atno 8009 bound_to 7997
  154.4006  140.1449  156.3364 H   0  0  0  0  0  0  0  0  0  0  0  0  # atno 8010 bound_to 7997
  140.7272  143.4030  151.1233 H   0  0  0  0  0  0  0  0  0  0  0  0  # atno 10167 bound_to 10162
  157.6566  130.9648  150.1126 H   0  0  0  0  0  0  0  0  0  0  0  0  # atno 10718 bound_to 10713
  153.1095  135.6693  153.9527 H   0  0  0  0  0  0  0  0  0  0  0  0  # atno 10763 bound_to 10752
  153.9074  135.3029  155.3450 H   0  0  0  0  0  0  0  0  0  0  0  0  # atno 10764 bound_to 10752
  154.7515  135.5032  153.9374 H   0  0  0  0  0  0  0  0  0  0  0  0  # atno 10765 bound_to 10752
  139.9210  134.7768  156.1658 H   0  0  0  0  0  0  0  0  0  0  0  0  # atno 11005 bound_to 11000
  146.1572  140.6841  142.9294 LP  0  0  0  0  0  0  0  0  0  0  0  0  # atno 17320 bound_to 7965
  144.7307  140.4663  143.6940 LP  0  0  0  0  0  0  0  0  0  0  0  0  # atno 17321 bound_to 7965
  139.7652  143.8575  152.3109 LP  0  0  0  0  0  0  0  0  0  0  0  0  # atno 17342 bound_to 10162
  139.8475  144.7180  150.9255 LP  0  0  0  0  0  0  0  0  0  0  0  0  # atno 17343 bound_to 10162
  156.2019  130.3661  149.8778 LP  0  0  0  0  0  0  0  0  0  0  0  0  # atno 17370 bound_to 10713
  156.6679  130.8808  151.3557 LP  0  0  0  0  0  0  0  0  0  0  0  0  # atno 17371 bound_to 10713
  141.0730  133.6788  156.2179 LP  0  0  0  0  0  0  0  0  0  0  0  0  # atno 17394 bound_to 11000
  140.6475  134.5102  157.5575 LP  0  0  0  0  0  0  0  0  0  0  0  0  # atno 17395 bound_to 11000

$$$$
