AV-unprocessed.smi:830|AV-procd|sdf|3873|dock3
  -GOLD-   22720 1323D 1   1.00000     0.00000
 Structure written by MMmdl.
 53 55  0  0  0  0  0  0  0  0  2 V2000
  151.1600  137.2444  156.2890 C   0  0  0  0  0  0  0  0  0  0  0  0
  150.7484  137.7867  154.9103 C   0  0  1  0  0  0  0  0  0  0  0  0
  149.5357  137.0853  154.4904 N   0  0  0  0  0  0  0  0  0  0  0  0
  148.4516  136.8887  155.2550 C   0  0  0  0  0  0  0  0  0  0  0  0
  148.3376  137.3226  156.4015 O   0  0  0  0  0  0  0  0  0  0  0  0
  147.5344  136.1440  154.6168 N   0  0  0  0  0  0  0  0  0  0  0  0
  146.3176  135.6273  155.1435 C   0  0  0  0  0  0  0  0  0  0  0  0
  145.8409  136.0021  156.4253 C   0  0  0  0  0  0  0  0  0  0  0  0
  144.6117  135.4959  156.8897 C   0  0  0  0  0  0  0  0  0  0  0  0
  143.8732  134.6322  156.0615 C   0  0  0  0  0  0  0  0  0  0  0  0
  144.3478  134.3070  154.8409 N   0  3  0  0  0  0  0  0  0  0  0  0
  145.5233  134.7628  154.3413 C   0  0  0  0  0  0  0  0  0  0  0  0
  145.9334  134.3347  153.0603 N   0  0  0  0  0  0  0  0  0  0  0  0
  146.1985  132.9013  152.9611 C   0  0  0  0  0  0  0  0  0  0  0  0
  145.7355  132.4697  151.5681 C   0  0  0  0  0  0  0  0  0  0  0  0
  144.6554  133.4899  151.2300 C   0  0  0  0  0  0  0  0  0  0  0  0
  145.1938  134.7655  151.8749 C   0  0  0  0  0  0  0  0  0  0  0  0
  150.4889  139.2964  155.0449 C   0  0  0  0  0  0  0  0  0  0  0  0
  151.3460  140.0413  155.5239 O   0  0  0  0  0  0  0  0  0  0  0  0
  149.3006  139.7332  154.6011 N   0  0  0  0  0  0  0  0  0  0  0  0
  148.8469  141.1207  154.6393 C   0  0  0  0  0  0  0  0  0  0  0  0
  148.5660  141.5653  156.0874 C   0  0  0  0  0  0  0  0  0  0  0  0
  147.2085  142.2690  156.0573 C   0  0  0  0  0  0  0  0  0  0  0  0
  146.4528  141.5797  154.9260 C   0  0  0  0  0  0  0  0  0  0  0  0
  147.5242  141.3105  153.8688 C   0  0  0  0  0  0  0  0  0  0  0  0
  152.0687  137.7279  156.6504 H   0  0  0  0  0  0  0  0  0  0  0  0
  151.3606  136.1736  156.2420 H   0  0  0  0  0  0  0  0  0  0  0  0
  150.3806  137.4015  157.0365 H   0  0  0  0  0  0  0  0  0  0  0  0
  151.5493  137.6052  154.1906 H   0  0  0  0  0  0  0  0  0  0  0  0
  149.5438  136.6885  153.5623 H   0  0  0  0  0  0  0  0  0  0  0  0
  147.8019  135.7918  153.7091 H   0  0  0  0  0  0  0  0  0  0  0  0
  146.3933  136.6838  157.0542 H   0  0  0  0  0  0  0  0  0  0  0  0
  144.2395  135.7720  157.8655 H   0  0  0  0  0  0  0  0  0  0  0  0
  142.9226  134.1970  156.3338 H   0  0  0  0  0  0  0  0  0  0  0  0
  147.2563  132.6825  153.1091 H   0  0  0  0  0  0  0  0  0  0  0  0
  145.6354  132.3618  153.7246 H   0  0  0  0  0  0  0  0  0  0  0  0
  146.5600  132.5586  150.8593 H   0  0  0  0  0  0  0  0  0  0  0  0
  145.3761  131.4407  151.5404 H   0  0  0  0  0  0  0  0  0  0  0  0
  144.4853  133.5942  150.1579 H   0  0  0  0  0  0  0  0  0  0  0  0
  143.7128  133.2032  151.6986 H   0  0  0  0  0  0  0  0  0  0  0  0
  144.3996  135.4864  152.0672 H   0  0  0  0  0  0  0  0  0  0  0  0
  145.9021  135.2499  151.2019 H   0  0  0  0  0  0  0  0  0  0  0  0
  148.6592  139.0539  154.2180 H   0  0  0  0  0  0  0  0  0  0  0  0
  149.6142  141.7654  154.2067 H   0  0  0  0  0  0  0  0  0  0  0  0
  148.4999  140.7003  156.7496 H   0  0  0  0  0  0  0  0  0  0  0  0
  149.3521  142.2111  156.4802 H   0  0  0  0  0  0  0  0  0  0  0  0
  146.6832  142.2104  157.0110 H   0  0  0  0  0  0  0  0  0  0  0  0
  147.3460  143.3240  155.8167 H   0  0  0  0  0  0  0  0  0  0  0  0
  146.0413  140.6343  155.2819 H   0  0  0  0  0  0  0  0  0  0  0  0
  145.6272  142.1806  154.5437 H   0  0  0  0  0  0  0  0  0  0  0  0
  147.6124  142.1805  153.2171 H   0  0  0  0  0  0  0  0  0  0  0  0
  147.2632  140.4627  153.2336 H   0  0  0  0  0  0  0  0  0  0  0  0
  143.7911  133.6772  154.2627 H   0  0  0  0  0  0  0  0  0  0  0  0
  1  2  1  0  0  0  0
  1 26  1  0  0  0  0
  1 27  1  0  0  0  0
  1 28  1  0  0  0  0
  2  3  1  0  0  0  0
  2 18  1  0  0  0  0
  2 29  1  0  0  0  0
  3  4  1  0  0  0  0
  3 30  1  0  0  0  0
  4  5  2  0  0  0  0
  4  6  1  0  0  0  0
  6  7  1  0  0  0  0
  6 31  1  0  0  0  0
  7 12  1  0  0  0  0
  7  8  2  0  0  0  0
  8  9  1  0  0  0  0
  8 32  1  0  0  0  0
  9 10  2  0  0  0  0
  9 33  1  0  0  0  0
 10 11  1  0  0  0  0
 10 34  1  0  0  0  0
 11 12  2  0  0  0  0
 11 53  1  0  0  0  0
 12 13  1  0  0  0  0
 13 17  1  0  0  0  0
 13 14  1  0  0  0  0
 14 15  1  0  0  0  0
 14 35  1  0  0  0  0
 14 36  1  0  0  0  0
 15 16  1  0  0  0  0
 15 37  1  0  0  0  0
 15 38  1  0  0  0  0
 16 17  1  0  0  0  0
 16 39  1  0  0  0  0
 16 40  1  0  0  0  0
 17 41  1  0  0  0  0
 17 42  1  0  0  0  0
 18 19  2  0  0  0  0
 18 20  1  0  0  0  0
 20 21  1  0  0  0  0
 20 43  1  0  0  0  0
 21 25  1  0  0  0  0
 21 22  1  0  0  0  0
 21 44  1  0  0  0  0
 22 23  1  0  0  0  0
 22 45  1  0  0  0  0
 22 46  1  0  0  0  0
 23 24  1  0  0  0  0
 23 47  1  0  0  0  0
 23 48  1  0  0  0  0
 24 25  1  0  0  0  0
 24 49  1  0  0  0  0
 24 50  1  0  0  0  0
 25 51  1  0  0  0  0
 25 52  1  0  0  0  0
M  CHG  1  11   1
M  END
> <s_m_source_file>
AV-unprocessed.smi

> <i_m_source_file_index>
830

> <i_lp_mmshare_version>
43012

> <i_f3d_flags>
0

> <s_epik_input>
W0NIMl0xW0NIMl1bQ0gyXVtDSDJdW0NIXTFbTkhdQyg9TylbQ0BIXShbQ0gzXSlbTkhdQyg9TylbTkhdYzJbY0hdW2NIXVtjSF1uYzJOM1tDSDJdW0NIMl1bQ0gyXVtDSDJdMw==

> <s_epik_cmdline>
J2VwaWtfcHl0aG9uJywgJy1waCcsICc3LjAnLCAnLXRuJywgJzgnLCAnLW1hJywgJzIwMCcsICctbWV0YWxfYmluZGluZycsICctaW1hZScsICc8aW5maWxlLm1hZT4nLCAnLW9tYWUnLCAnPG91dGZpbGUubWFlPic=

> <r_lp_tautomer_probability>
0.999994

> <r_epik_Ionization_Penalty>
1.21091

> <r_epik_Ionization_Penalty_Charging>
1.21089

> <r_epik_Ionization_Penalty_Neutral>
1.88713e-05

> <r_epik_State_Penalty>
1.27732

> <r_epik_Charging_Adjusted_Penalty>
2.48821

> <i_epik_Tot_Q>
1

> <i_epik_Tot_abs_Q>
1

> <r_epik_Metal_State_Penalty>
1.3505

> <b_epik_Metal_Only>
0

> <s_lp_Force_Field>
OPLS_2005

> <r_lp_Energy>
52.3557

> <b_lp_Chiralities_Consistent>
1

> <s_lp_Variant>
AV-unprocessed.smi:830-4

> <Gold.Version>
5.8.1

> <Gold.Id.Protein>
6NUR|6NUR_protein|mol2

> <Gold.PLP.Fitness>
42.1782

> <Gold.PLP.PLP>
-30.3110

> <Gold.PLP.part.hbond>
-5.2179

> <Gold.PLP.part.metal>
0.0000

> <Gold.PLP.part.buried>
-2.9985

> <Gold.PLP.part.nonpolar>
-23.0249

> <Gold.PLP.part.repulsive>
0.3112

> <Gold.PLP.ligand.clash>
0.0000

> <Gold.PLP.ligand.torsion>
0.4021

> <Gold.PLP.Chemscore.Hbond>
4.1580

> <Gold.PLP.Chemscore.CHOScore>
0.0000

> <Gold.PLP.Chemscore.Metal>
0.0000

> <Gold.Chemscore.Hbonds>
donor molecule, donor type, donor heavy atom, donor atom, acceptor molecule, acceptor atom, score
      L1  H     3    30       P1  7948  1.00
      L1  H     6    31       P1  7948  0.49
      L1  H    11    53       P1 10957  0.47
      P1  H  7989  7998       L1    19  0.23

> <Gold.PLP.Chemscore.Internal.Correction>
0.1975

> <Gold.Rescore>
     Score         DG    S(hbond)    S(metal)    S(lipo)     H(rot)  DE(clash)    DE(int)     intcor
     13.83     -17.76       2.67        0.00      65.33       1.67       0.01       3.92       ----

> <Gold.Chemscore.Fitness>
13.8260

> <Gold.Chemscore.DG>
-17.7579

> <Gold.Chemscore.ZeroCoef>
-5.4800

> <Gold.Chemscore.Hbond>
2.6658

> <Gold.Chemscore.Metal>
0.0000

> <Gold.Chemscore.Lipo>
65.3259

> <Gold.Chemscore.Internal_Hbond>
0.0000

> <Gold.Chemscore.DEClash>
0.0143

> <Gold.Chemscore.DEInternal>
3.9175

> <Gold.Chemscore.Rot>
1.6676

> <Gold.Chemscore.Internal.Correction>
   9.000000E+99

> <Gold.Chemscore.Hbonds>
donor molecule, donor type, donor heavy atom, donor atom, acceptor molecule, acceptor atom, score
      L1  H     3    30       P1  7948  0.74
      L1  H     6    31       P1  7948  0.48
      L1  H    11    53       P1 10957  0.23
      P1  H  7989  7998       L1    19  0.01

> <Gold.Chemscore.Hbond.Weighted>
-8.9038

> <Gold.Chemscore.Metal.Weighted>
-0.0000

> <Gold.Chemscore.Lipo.Weighted>
-7.6431

> <Gold.Chemscore.Internal_Hbond.Weighted>
0.0000

> <Gold.Chemscore.DEClash.Weighted>
0.0143

> <Gold.Chemscore.DEInternal.Weighted>
3.9175

> <Gold.Chemscore.Rot.Weighted>
4.2691

> <Gold.Chemscore.Internal.Correction.Weighted>
   9.000000E+99

> <Gold.Protein.RotatedTorsions>
[ 6907 6896 6895 6894 ] final  -40.40 input  -60.11 | X-H torsion
[ 7974 7965 7964 7962 ] final  103.39 input  175.53 | X-H torsion
[ 8008 7997 7996 7995 ] final   76.14 input   59.86 | X-H torsion
[ 10167 10162 10161 10158 ] final   71.33 input  -65.29 | X-H torsion
[ 10718 10713 10712 10709 ] final   91.14 input   66.30 | X-H torsion
[ 10763 10752 10751 10750 ] final -161.68 input  -60.55 | X-H torsion
[ 11005 11000 10999 10996 ] final  174.60 input  -57.11 | X-H torsion

> <Gold.Protein.ActiveResidues>
 VAL166  LYS551  ARG553  GLY616  TRP617  ASP618  TYR619  PRO620  LYS621  CYS622 
 ASP623  PHE694  ASN695  SER759  ASP760  ASP761  ALA762  ILE779  LEU786  VAL792 
 PHE793  MET794  SER795  GLU796  ALA797  LYS798  CYS799  TRP800  GLU811  SER814 

> <Gold.Protein.RotatedAtoms>
  150.9789  134.9148  159.7832 H   0  0  0  0  0  0  0  0  0  0  0  0  # atno 6907 bound_to 6896
  152.5215  134.3438  159.9236 H   0  0  0  0  0  0  0  0  0  0  0  0  # atno 6908 bound_to 6896
  151.3445  133.3908  159.2709 H   0  0  0  0  0  0  0  0  0  0  0  0  # atno 6909 bound_to 6896
  145.3465  139.2449  143.3581 H   0  0  0  0  0  0  0  0  0  0  0  0  # atno 7974 bound_to 7965
  155.8230  140.3469  155.5526 H   0  0  0  0  0  0  0  0  0  0  0  0  # atno 8008 bound_to 7997
  155.8322  140.0929  157.1805 H   0  0  0  0  0  0  0  0  0  0  0  0  # atno 8009 bound_to 7997
  154.4004  140.1410  156.3615 H   0  0  0  0  0  0  0  0  0  0  0  0  # atno 8010 bound_to 7997
  140.0473  144.5341  150.7389 H   0  0  0  0  0  0  0  0  0  0  0  0  # atno 10167 bound_to 10162
  157.6960  131.0396  150.3684 H   0  0  0  0  0  0  0  0  0  0  0  0  # atno 10718 bound_to 10713
  154.7282  135.3040  154.8935 H   0  0  0  0  0  0  0  0  0  0  0  0  # atno 10763 bound_to 10752
  153.9786  135.6733  153.4753 H   0  0  0  0  0  0  0  0  0  0  0  0  # atno 10764 bound_to 10752
  153.0894  135.4967  154.8581 H   0  0  0  0  0  0  0  0  0  0  0  0  # atno 10765 bound_to 10752
  140.3531  134.7178  157.4281 H   0  0  0  0  0  0  0  0  0  0  0  0  # atno 11005 bound_to 11000
  146.2986  140.4073  142.8712 LP  0  0  0  0  0  0  0  0  0  0  0  0  # atno 17320 bound_to 7965
  144.8750  140.7324  143.6023 LP  0  0  0  0  0  0  0  0  0  0  0  0  # atno 17321 bound_to 7965
  140.7233  143.2610  151.4206 LP  0  0  0  0  0  0  0  0  0  0  0  0  # atno 17342 bound_to 10162
  139.5975  144.1365  152.2161 LP  0  0  0  0  0  0  0  0  0  0  0  0  # atno 17343 bound_to 10162
  156.4112  130.3934  149.6890 LP  0  0  0  0  0  0  0  0  0  0  0  0  # atno 17370 bound_to 10713
  156.4174  130.7752  151.2768 LP  0  0  0  0  0  0  0  0  0  0  0  0  # atno 17371 bound_to 10713
  140.0687  134.5893  155.8666 LP  0  0  0  0  0  0  0  0  0  0  0  0  # atno 17394 bound_to 11000
  141.2006  133.6613  156.5907 LP  0  0  0  0  0  0  0  0  0  0  0  0  # atno 17395 bound_to 11000

$$$$
