AV-unprocessed.smi:2603|AV-procd|sdf|10186|dock4
  -GOLD-   2272014203D 1   1.00000     0.00000
 Structure written by MMmdl.
 35 36  0  0  0  0  0  0  0  0  1 V2000
  151.8836  144.8413  158.7352 C   0  0  0  0  0  0  0  0  0  0  0  0
  151.1012  144.9147  160.0485 C   0  0  0  0  0  0  0  0  0  0  0  0
  151.2853  143.7051  160.7617 O   0  0  0  0  0  0  0  0  0  0  0  0
  152.6572  143.4016  160.9588 C   0  0  1  0  0  0  0  0  0  0  0  0
  152.8962  142.2447  161.8883 C   0  0  0  0  0  0  0  0  0  0  0  0
  153.0662  142.0592  160.3906 C   0  0  1  0  0  0  0  0  0  0  0  0
  152.0771  141.2984  159.6992 N   0  0  0  0  0  0  0  0  0  0  0  0
  152.3075  140.2279  158.9262 C   0  0  0  0  0  0  0  0  0  0  0  0
  153.4223  139.7356  158.7537 O   0  0  0  0  0  0  0  0  0  0  0  0
  151.0886  139.6284  158.2252 C   0  0  0  0  0  0  0  0  0  0  0  0
  151.3710  139.4948  156.7502 C   0  0  0  0  0  0  0  0  0  0  0  0
  150.7754  140.2040  155.6659 C   0  0  0  0  0  0  0  0  0  0  0  0
  149.7146  141.2668  155.6976 C   0  0  0  0  0  0  0  0  0  0  0  0
  151.2716  139.8285  154.4993 N   0  0  0  0  0  0  0  0  0  0  0  0
  152.2266  138.8486  154.7854 O   0  0  0  0  0  0  0  0  0  0  0  0
  152.2690  138.6701  156.1298 C   0  0  0  0  0  0  0  0  0  0  0  0
  153.2409  137.6597  156.6379 C   0  0  0  0  0  0  0  0  0  0  0  0
  151.7640  145.7589  158.1590 H   0  0  0  0  0  0  0  0  0  0  0  0
  151.5373  144.0116  158.1185 H   0  0  0  0  0  0  0  0  0  0  0  0
  152.9486  144.6996  158.9210 H   0  0  0  0  0  0  0  0  0  0  0  0
  151.4509  145.7586  160.6450 H   0  0  0  0  0  0  0  0  0  0  0  0
  150.0413  145.0716  159.8426 H   0  0  0  0  0  0  0  0  0  0  0  0
  153.3512  144.2392  160.9108 H   0  0  0  0  0  0  0  0  0  0  0  0
  153.7989  142.2678  162.4954 H   0  0  0  0  0  0  0  0  0  0  0  0
  152.0283  141.7908  162.3639 H   0  0  0  0  0  0  0  0  0  0  0  0
  154.0920  141.9870  160.0318 H   0  0  0  0  0  0  0  0  0  0  0  0
  151.1260  141.6298  159.7712 H   0  0  0  0  0  0  0  0  0  0  0  0
  150.8604  138.6613  158.6746 H   0  0  0  0  0  0  0  0  0  0  0  0
  150.2180  140.2582  158.4122 H   0  0  0  0  0  0  0  0  0  0  0  0
  149.5103  141.6027  156.7136 H   0  0  0  0  0  0  0  0  0  0  0  0
  148.7790  140.8983  155.2769 H   0  0  0  0  0  0  0  0  0  0  0  0
  150.0183  142.1399  155.1200 H   0  0  0  0  0  0  0  0  0  0  0  0
  153.4915  137.8494  157.6817 H   0  0  0  0  0  0  0  0  0  0  0  0
  154.1658  137.6857  156.0616 H   0  0  0  0  0  0  0  0  0  0  0  0
  152.8243  136.6552  156.5672 H   0  0  0  0  0  0  0  0  0  0  0  0
  1  2  1  0  0  0  0
  1 18  1  0  0  0  0
  1 19  1  0  0  0  0
  1 20  1  0  0  0  0
  2  3  1  0  0  0  0
  2 21  1  0  0  0  0
  2 22  1  0  0  0  0
  3  4  1  0  0  0  0
  4  6  1  0  0  0  0
  4  5  1  0  0  0  0
  4 23  1  0  0  0  0
  5  6  1  0  0  0  0
  5 24  1  0  0  0  0
  5 25  1  0  0  0  0
  6  7  1  0  0  0  0
  6 26  1  0  0  0  0
  7  8  1  0  0  0  0
  7 27  1  0  0  0  0
  8  9  2  0  0  0  0
  8 10  1  0  0  0  0
 10 11  1  0  0  0  0
 10 28  1  0  0  0  0
 10 29  1  0  0  0  0
 11 16  2  0  0  0  0
 11 12  1  0  0  0  0
 12 13  1  0  0  0  0
 12 14  2  0  0  0  0
 13 30  1  0  0  0  0
 13 31  1  0  0  0  0
 13 32  1  0  0  0  0
 14 15  1  0  0  0  0
 15 16  1  0  0  0  0
 16 17  1  0  0  0  0
 17 33  1  0  0  0  0
 17 34  1  0  0  0  0
 17 35  1  0  0  0  0
M  END
> <s_m_source_file>
AV-unprocessed.smi

> <i_m_source_file_index>
2603

> <i_lp_mmshare_version>
43012

> <i_f3d_flags>
0

> <s_epik_input>
W0NIM11bQ0gyXU9bQ0BASF0xW0NIMl1bQ0BIXTFbTkhdQyg9TylbQ0gyXWMyYyhbQ0gzXSlub2MyW0NIM10=

> <s_epik_cmdline>
J2VwaWtfcHl0aG9uJywgJy1waCcsICc3LjAnLCAnLXRuJywgJzgnLCAnLW1hJywgJzIwMCcsICctbWV0YWxfYmluZGluZycsICctaW1hZScsICc8aW5maWxlLm1hZT4nLCAnLW9tYWUnLCAnPG91dGZpbGUubWFlPic=

> <r_lp_tautomer_probability>
1

> <r_epik_Ionization_Penalty>
2.37325e-08

> <r_epik_Ionization_Penalty_Charging>
0

> <r_epik_Ionization_Penalty_Neutral>
2.37325e-08

> <r_epik_State_Penalty>
-0

> <r_epik_Charging_Adjusted_Penalty>
0

> <i_epik_Tot_Q>
0

> <i_epik_Tot_abs_Q>
0

> <r_epik_Metal_State_Penalty>
-0

> <b_epik_Metal_Only>
0

> <s_lp_Force_Field>
OPLS_2005

> <r_lp_Energy>
11.0439

> <b_lp_Chiralities_Consistent>
1

> <s_lp_Variant>
AV-unprocessed.smi:2603-2

> <Gold.Version>
5.8.1

> <Gold.Id.Protein>
6NUR|6NUR_protein|mol2

> <Gold.PLP.Fitness>
42.2096

> <Gold.PLP.PLP>
-36.7459

> <Gold.PLP.part.hbond>
-2.0242

> <Gold.PLP.part.metal>
0.0000

> <Gold.PLP.part.buried>
-6.1480

> <Gold.PLP.part.nonpolar>
-28.9786

> <Gold.PLP.part.repulsive>
0.3693

> <Gold.PLP.ligand.clash>
0.0000

> <Gold.PLP.ligand.torsion>
0.6095

> <Gold.PLP.Chemscore.Hbond>
2.0000

> <Gold.PLP.Chemscore.CHOScore>
0.0000

> <Gold.PLP.Chemscore.Metal>
0.0000

> <Gold.Chemscore.Hbonds>
donor molecule, donor type, donor heavy atom, donor atom, acceptor molecule, acceptor atom, score
      P1  H  7989  7998       L1    14  0.89
      P1  H  7997  8010       L1     9  0.71

> <Gold.PLP.Chemscore.Internal.Correction>
0.6826

> <Gold.Rescore>
     Score         DG    S(hbond)    S(metal)    S(lipo)     H(rot)  DE(clash)    DE(int)     intcor
     17.67     -18.48       1.90        0.00      93.98       1.69       0.13       0.67       ----

> <Gold.Chemscore.Fitness>
17.6741

> <Gold.Chemscore.DG>
-18.4784

> <Gold.Chemscore.ZeroCoef>
-5.4800

> <Gold.Chemscore.Hbond>
1.8973

> <Gold.Chemscore.Metal>
0.0000

> <Gold.Chemscore.Lipo>
93.9831

> <Gold.Chemscore.Internal_Hbond>
0.0000

> <Gold.Chemscore.DEClash>
0.1341

> <Gold.Chemscore.DEInternal>
0.6702

> <Gold.Chemscore.Rot>
1.6933

> <Gold.Chemscore.Internal.Correction>
   9.000000E+99

> <Gold.Chemscore.Hbonds>
donor molecule, donor type, donor heavy atom, donor atom, acceptor molecule, acceptor atom, score
      P1  H  7989  7998       L1    14  0.79
      P1  H  7997  8010       L1     9  0.68

> <Gold.Chemscore.Hbond.Weighted>
-6.3371

> <Gold.Chemscore.Metal.Weighted>
-0.0000

> <Gold.Chemscore.Lipo.Weighted>
-10.9960

> <Gold.Chemscore.Internal_Hbond.Weighted>
0.0000

> <Gold.Chemscore.DEClash.Weighted>
0.1341

> <Gold.Chemscore.DEInternal.Weighted>
0.6702

> <Gold.Chemscore.Rot.Weighted>
4.3348

> <Gold.Chemscore.Internal.Correction.Weighted>
   9.000000E+99

> <Gold.Protein.RotatedTorsions>
[ 6907 6896 6895 6894 ] final    0.51 input  -60.11 | X-H torsion
[ 7974 7965 7964 7962 ] final   17.74 input  175.53 | X-H torsion
[ 8008 7997 7996 7995 ] final    8.16 input   59.86 | X-H torsion
[ 10167 10162 10161 10158 ] final  138.34 input  -65.29 | X-H torsion
[ 10718 10713 10712 10709 ] final  -72.24 input   66.30 | X-H torsion
[ 10763 10752 10751 10750 ] final  -26.73 input  -60.55 | X-H torsion
[ 11005 11000 10999 10996 ] final   38.74 input  -57.11 | X-H torsion

> <Gold.Protein.ActiveResidues>
 VAL166  LYS551  ARG553  GLY616  TRP617  ASP618  TYR619  PRO620  LYS621  CYS622 
 ASP623  PHE694  ASN695  SER759  ASP760  ASP761  ALA762  ILE779  LEU786  VAL792 
 PHE793  MET794  SER795  GLU796  ALA797  LYS798  CYS799  TRP800  GLU811  SER814 

> <Gold.Protein.RotatedAtoms>
  151.5776  135.1060  160.0009 H   0  0  0  0  0  0  0  0  0  0  0  0  # atno 6907 bound_to 6896
  152.4370  133.7374  159.6632 H   0  0  0  0  0  0  0  0  0  0  0  0  # atno 6908 bound_to 6896
  150.8269  133.8087  159.3138 H   0  0  0  0  0  0  0  0  0  0  0  0  # atno 6909 bound_to 6896
  146.2208  139.8559  142.8614 H   0  0  0  0  0  0  0  0  0  0  0  0  # atno 7974 bound_to 7965
  154.7632  140.2788  155.6197 H   0  0  0  0  0  0  0  0  0  0  0  0  # atno 8008 bound_to 7997
  156.2919  140.2656  156.2343 H   0  0  0  0  0  0  0  0  0  0  0  0  # atno 8009 bound_to 7997
  154.9992  140.0373  157.2342 H   0  0  0  0  0  0  0  0  0  0  0  0  # atno 8010 bound_to 7997
  139.5114  144.6359  151.5698 H   0  0  0  0  0  0  0  0  0  0  0  0  # atno 10167 bound_to 10162
  156.0329  130.4368  150.2563 H   0  0  0  0  0  0  0  0  0  0  0  0  # atno 10718 bound_to 10713
  153.7206  135.6945  153.5014 H   0  0  0  0  0  0  0  0  0  0  0  0  # atno 10763 bound_to 10752
  153.2206  135.4371  155.0484 H   0  0  0  0  0  0  0  0  0  0  0  0  # atno 10764 bound_to 10752
  154.8285  135.3459  154.6740 H   0  0  0  0  0  0  0  0  0  0  0  0  # atno 10765 bound_to 10752
  140.2096  134.3771  155.8055 H   0  0  0  0  0  0  0  0  0  0  0  0  # atno 11005 bound_to 11000
  145.2754  141.0122  143.3748 LP  0  0  0  0  0  0  0  0  0  0  0  0  # atno 17320 bound_to 7965
  144.9191  139.4434  143.6550 LP  0  0  0  0  0  0  0  0  0  0  0  0  # atno 17321 bound_to 7965
  140.6108  143.9440  150.6452 LP  0  0  0  0  0  0  0  0  0  0  0  0  # atno 17342 bound_to 10162
  140.2682  143.3475  152.1262 LP  0  0  0  0  0  0  0  0  0  0  0  0  # atno 17343 bound_to 10162
  157.0664  131.0104  151.3205 LP  0  0  0  0  0  0  0  0  0  0  0  0  # atno 17370 bound_to 10713
  157.5032  130.7893  149.7626 LP  0  0  0  0  0  0  0  0  0  0  0  0  # atno 17371 bound_to 10713
  141.2226  133.7136  156.8396 LP  0  0  0  0  0  0  0  0  0  0  0  0  # atno 17394 bound_to 11000
  140.1965  134.8928  157.3120 LP  0  0  0  0  0  0  0  0  0  0  0  0  # atno 17395 bound_to 11000

$$$$
