AV-unprocessed.smi:2356|AV-procd|sdf|9398|dock6
  -GOLD-   2272013 33D 1   1.00000     0.00000
 Structure written by MMmdl.
 54 57  0  0  0  0  0  0  0  0  2 V2000
  147.7084  142.0088  153.9446 C   0  0  0  0  0  0  0  0  0  0  0  0
  148.6930  141.1507  154.7227 C   0  0  0  0  0  0  0  0  0  0  0  0
  149.5424  141.8102  155.5420 N   0  3  0  0  0  0  0  0  0  0  0  0
  150.4749  141.2016  156.3048 C   0  0  0  0  0  0  0  0  0  0  0  0
  151.2819  142.0247  157.1026 N   0  0  0  0  0  0  0  0  0  0  0  0
  152.1973  141.3186  157.9835 C   0  0  0  0  0  0  0  0  0  0  0  0
  152.6438  142.3490  159.0242 C   0  0  0  0  0  0  0  0  0  0  0  0
  151.5622  143.4354  158.9939 C   0  0  0  0  0  0  0  0  0  0  0  0
  150.5532  142.9560  157.9472 C   0  0  0  0  0  0  0  0  0  0  0  0
  150.5802  139.7936  156.2666 C   0  0  0  0  0  0  0  0  0  0  0  0
  149.7185  139.0589  155.4285 C   0  0  0  0  0  0  0  0  0  0  0  0
  148.7656  139.7373  154.6265 C   0  0  0  0  0  0  0  0  0  0  0  0
  147.8565  139.0563  153.7696 N   0  0  0  0  0  0  0  0  0  0  0  0
  147.1793  137.9123  153.9908 C   0  0  0  0  0  0  0  0  0  0  0  0
  147.2624  137.2379  155.0147 O   0  0  0  0  0  0  0  0  0  0  0  0
  146.3849  137.5353  152.9725 N   0  0  0  0  0  0  0  0  0  0  0  0
  145.5196  136.3571  152.8797 C   0  0  1  0  0  0  0  0  0  0  0  0
  144.0496  136.8000  152.8315 C   0  0  0  0  0  0  0  0  0  0  0  0
  143.1243  135.5961  152.5923 C   0  0  0  0  0  0  0  0  0  0  0  0
  143.5043  134.9201  151.3984 O   0  0  0  0  0  0  0  0  0  0  0  0
  144.8219  134.3822  151.4543 C   0  0  1  0  0  0  0  0  0  0  0  0
  145.0668  133.5948  150.1827 C   0  0  0  0  0  0  0  0  0  0  0  0
  144.3735  132.2737  149.9449 C   0  0  0  0  0  0  0  0  0  0  0  0
  145.8587  132.3081  150.2139 C   0  0  0  0  0  0  0  0  0  0  0  0
  145.8363  135.5283  151.6217 C   0  0  0  0  0  0  0  0  0  0  0  0
  147.0205  141.4261  153.3331 H   0  0  0  0  0  0  0  0  0  0  0  0
  148.2478  142.6886  153.2845 H   0  0  0  0  0  0  0  0  0  0  0  0
  147.1120  142.6089  154.6323 H   0  0  0  0  0  0  0  0  0  0  0  0
  151.6943  140.4848  158.4746 H   0  0  0  0  0  0  0  0  0  0  0  0
  153.0453  140.9179  157.4273 H   0  0  0  0  0  0  0  0  0  0  0  0
  152.7524  141.8989  160.0115 H   0  0  0  0  0  0  0  0  0  0  0  0
  153.6081  142.7768  158.7467 H   0  0  0  0  0  0  0  0  0  0  0  0
  151.0925  143.5823  159.9667 H   0  0  0  0  0  0  0  0  0  0  0  0
  152.0008  144.3864  158.6895 H   0  0  0  0  0  0  0  0  0  0  0  0
  150.1558  143.7868  157.3633 H   0  0  0  0  0  0  0  0  0  0  0  0
  149.7153  142.4566  158.4355 H   0  0  0  0  0  0  0  0  0  0  0  0
  151.3069  139.2745  156.8743 H   0  0  0  0  0  0  0  0  0  0  0  0
  149.7980  137.9831  155.4305 H   0  0  0  0  0  0  0  0  0  0  0  0
  147.7523  139.4541  152.8476 H   0  0  0  0  0  0  0  0  0  0  0  0
  146.3650  138.1515  152.1727 H   0  0  0  0  0  0  0  0  0  0  0  0
  145.6534  135.7341  153.7660 H   0  0  0  0  0  0  0  0  0  0  0  0
  143.7742  137.3035  153.7589 H   0  0  0  0  0  0  0  0  0  0  0  0
  143.9059  137.5241  152.0279 H   0  0  0  0  0  0  0  0  0  0  0  0
  143.1537  134.9079  153.4385 H   0  0  0  0  0  0  0  0  0  0  0  0
  142.0918  135.9319  152.4927 H   0  0  0  0  0  0  0  0  0  0  0  0
  144.8949  133.7000  152.3036 H   0  0  0  0  0  0  0  0  0  0  0  0
  145.2133  134.2184  149.3025 H   0  0  0  0  0  0  0  0  0  0  0  0
  143.7288  131.8904  150.7332 H   0  0  0  0  0  0  0  0  0  0  0  0
  144.0500  132.0538  148.9296 H   0  0  0  0  0  0  0  0  0  0  0  0
  146.5270  132.1097  149.3785 H   0  0  0  0  0  0  0  0  0  0  0  0
  146.2019  131.9472  151.1817 H   0  0  0  0  0  0  0  0  0  0  0  0
  145.8076  136.1708  150.7401 H   0  0  0  0  0  0  0  0  0  0  0  0
  146.8460  135.1204  151.6759 H   0  0  0  0  0  0  0  0  0  0  0  0
  149.4746  142.8272  155.5870 H   0  0  0  0  0  0  0  0  0  0  0  0
  1  2  1  0  0  0  0
  1 26  1  0  0  0  0
  1 27  1  0  0  0  0
  1 28  1  0  0  0  0
  2 12  1  0  0  0  0
  2  3  2  0  0  0  0
  3  4  1  0  0  0  0
  3 54  1  0  0  0  0
  4  5  1  0  0  0  0
  4 10  2  0  0  0  0
  5  9  1  0  0  0  0
  5  6  1  0  0  0  0
  6  7  1  0  0  0  0
  6 29  1  0  0  0  0
  6 30  1  0  0  0  0
  7  8  1  0  0  0  0
  7 31  1  0  0  0  0
  7 32  1  0  0  0  0
  8  9  1  0  0  0  0
  8 33  1  0  0  0  0
  8 34  1  0  0  0  0
  9 35  1  0  0  0  0
  9 36  1  0  0  0  0
 10 11  1  0  0  0  0
 10 37  1  0  0  0  0
 11 12  2  0  0  0  0
 11 38  1  0  0  0  0
 12 13  1  0  0  0  0
 13 14  1  0  0  0  0
 13 39  1  0  0  0  0
 14 15  2  0  0  0  0
 14 16  1  0  0  0  0
 16 17  1  0  0  0  0
 16 40  1  0  0  0  0
 17 25  1  0  0  0  0
 17 18  1  0  0  0  0
 17 41  1  0  0  0  0
 18 19  1  0  0  0  0
 18 42  1  0  0  0  0
 18 43  1  0  0  0  0
 19 20  1  0  0  0  0
 19 44  1  0  0  0  0
 19 45  1  0  0  0  0
 20 21  1  0  0  0  0
 21 22  1  0  0  0  0
 21 25  1  0  0  0  0
 21 46  1  0  0  0  0
 22 24  1  0  0  0  0
 22 23  1  0  0  0  0
 22 47  1  0  0  0  0
 23 24  1  0  0  0  0
 23 48  1  0  0  0  0
 23 49  1  0  0  0  0
 24 50  1  0  0  0  0
 24 51  1  0  0  0  0
 25 52  1  0  0  0  0
 25 53  1  0  0  0  0
M  CHG  1   3   1
M  END
> <s_m_source_file>
AV-unprocessed.smi

> <i_m_source_file_index>
2356

> <i_lp_mmshare_version>
43012

> <i_f3d_flags>
0

> <s_epik_input>
W0NIMl0xW0NIMl1bQ0gyXVtDSDJdTjFjKG5jMltDSDNdKVtjSF1bY0hdYzJbTkhdQyg9TylbTkhdW0NAQEhdM1tDSDJdW0NIMl1PW0NASF0oW0NIMl0zKVtDSF00W0NIMl1bQ0gyXTQ=

> <s_epik_cmdline>
J2VwaWtfcHl0aG9uJywgJy1waCcsICc3LjAnLCAnLXRuJywgJzgnLCAnLW1hJywgJzIwMCcsICctbWV0YWxfYmluZGluZycsICctaW1hZScsICc8aW5maWxlLm1hZT4nLCAnLW9tYWUnLCAnPG91dGZpbGUubWFlPic=

> <r_lp_tautomer_probability>
0.999994

> <r_epik_Ionization_Penalty>
0.534681

> <r_epik_Ionization_Penalty_Charging>
0.534661

> <r_epik_Ionization_Penalty_Neutral>
1.99132e-05

> <r_epik_State_Penalty>
0.543738

> <r_epik_Charging_Adjusted_Penalty>
1.0784

> <i_epik_Tot_Q>
1

> <i_epik_Tot_abs_Q>
1

> <r_epik_Metal_State_Penalty>
0.74699

> <b_epik_Metal_Only>
0

> <s_lp_Force_Field>
OPLS_2005

> <r_lp_Energy>
63.5996

> <b_lp_Chiralities_Consistent>
1

> <s_lp_Variant>
AV-unprocessed.smi:2356-6

> <Gold.Version>
5.8.1

> <Gold.Id.Protein>
6NUR|6NUR_protein|mol2

> <Gold.PLP.Fitness>
44.2568

> <Gold.PLP.PLP>
-39.2047

> <Gold.PLP.part.hbond>
-1.9934

> <Gold.PLP.part.metal>
0.0000

> <Gold.PLP.part.buried>
-4.6689

> <Gold.PLP.part.nonpolar>
-33.1012

> <Gold.PLP.part.repulsive>
0.5150

> <Gold.PLP.ligand.clash>
0.0000

> <Gold.PLP.ligand.torsion>
1.0184

> <Gold.PLP.Chemscore.Hbond>
2.0000

> <Gold.PLP.Chemscore.CHOScore>
0.0000

> <Gold.PLP.Chemscore.Metal>
0.0000

> <Gold.Chemscore.Hbonds>
donor molecule, donor type, donor heavy atom, donor atom, acceptor molecule, acceptor atom, score
      L1  H     3    54       P1  8028  2.00

> <Gold.PLP.Chemscore.Internal.Correction>
1.0890

> <Gold.Rescore>
     Score         DG    S(hbond)    S(metal)    S(lipo)     H(rot)  DE(clash)    DE(int)     intcor
     17.22     -18.78       1.00        0.00     113.85       1.31       0.03       1.54       ----

> <Gold.Chemscore.Fitness>
17.2178

> <Gold.Chemscore.DG>
-18.7810

> <Gold.Chemscore.ZeroCoef>
-5.4800

> <Gold.Chemscore.Hbond>
0.9953

> <Gold.Chemscore.Metal>
0.0000

> <Gold.Chemscore.Lipo>
113.8452

> <Gold.Chemscore.Internal_Hbond>
0.0000

> <Gold.Chemscore.DEClash>
0.0263

> <Gold.Chemscore.DEInternal>
1.5369

> <Gold.Chemscore.Rot>
1.3060

> <Gold.Chemscore.Internal.Correction>
   9.000000E+99

> <Gold.Chemscore.Hbonds>
donor molecule, donor type, donor heavy atom, donor atom, acceptor molecule, acceptor atom, score
      L1  H     3    54       P1  8028  0.97

> <Gold.Chemscore.Hbond.Weighted>
-3.3244

> <Gold.Chemscore.Metal.Weighted>
-0.0000

> <Gold.Chemscore.Lipo.Weighted>
-13.3199

> <Gold.Chemscore.Internal_Hbond.Weighted>
0.0000

> <Gold.Chemscore.DEClash.Weighted>
0.0263

> <Gold.Chemscore.DEInternal.Weighted>
1.5369

> <Gold.Chemscore.Rot.Weighted>
3.3433

> <Gold.Chemscore.Internal.Correction.Weighted>
   9.000000E+99

> <Gold.Protein.RotatedTorsions>
[ 6907 6896 6895 6894 ] final  126.77 input  -60.11 | X-H torsion
[ 7974 7965 7964 7962 ] final  174.51 input  175.53 | X-H torsion
[ 8008 7997 7996 7995 ] final   88.38 input   59.86 | X-H torsion
[ 10167 10162 10161 10158 ] final  136.16 input  -65.29 | X-H torsion
[ 10718 10713 10712 10709 ] final -102.05 input   66.30 | X-H torsion
[ 10763 10752 10751 10750 ] final   36.51 input  -60.55 | X-H torsion
[ 11005 11000 10999 10996 ] final   83.51 input  -57.11 | X-H torsion

> <Gold.Protein.ActiveResidues>
 VAL166  LYS551  ARG553  GLY616  TRP617  ASP618  TYR619  PRO620  LYS621  CYS622 
 ASP623  PHE694  ASN695  SER759  ASP760  ASP761  ALA762  ILE779  LEU786  VAL792 
 PHE793  MET794  SER795  GLU796  ALA797  LYS798  CYS799  TRP800  GLU811  SER814 

> <Gold.Protein.RotatedAtoms>
  152.3873  133.6629  159.6208 H   0  0  0  0  0  0  0  0  0  0  0  0  # atno 6907 bound_to 6896
  150.7789  133.9014  159.3351 H   0  0  0  0  0  0  0  0  0  0  0  0  # atno 6908 bound_to 6896
  151.6808  135.0963  160.0267 H   0  0  0  0  0  0  0  0  0  0  0  0  # atno 6909 bound_to 6896
  144.7220  139.9808  143.6438 H   0  0  0  0  0  0  0  0  0  0  0  0  # atno 7974 bound_to 7965
  155.9871  140.3372  155.6718 H   0  0  0  0  0  0  0  0  0  0  0  0  # atno 8008 bound_to 7997
  155.6471  140.0701  157.2617 H   0  0  0  0  0  0  0  0  0  0  0  0  # atno 8009 bound_to 7997
  154.4208  140.1732  156.1622 H   0  0  0  0  0  0  0  0  0  0  0  0  # atno 8010 bound_to 7997
  139.5190  144.6479  151.5387 H   0  0  0  0  0  0  0  0  0  0  0  0  # atno 10167 bound_to 10162
  156.0215  130.5402  150.7051 H   0  0  0  0  0  0  0  0  0  0  0  0  # atno 10718 bound_to 10713
  153.0074  135.6304  154.1997 H   0  0  0  0  0  0  0  0  0  0  0  0  # atno 10763 bound_to 10752
  154.1740  135.2817  155.3074 H   0  0  0  0  0  0  0  0  0  0  0  0  # atno 10764 bound_to 10752
  154.5886  135.5624  153.7316 H   0  0  0  0  0  0  0  0  0  0  0  0  # atno 10765 bound_to 10752
  139.9029  134.8150  156.2319 H   0  0  0  0  0  0  0  0  0  0  0  0  # atno 11005 bound_to 11000
  146.0489  139.3492  143.0651 LP  0  0  0  0  0  0  0  0  0  0  0  0  # atno 17320 bound_to 7965
  145.8240  140.9665  143.0884 LP  0  0  0  0  0  0  0  0  0  0  0  0  # atno 17321 bound_to 7965
  140.6271  143.9147  150.6574 LP  0  0  0  0  0  0  0  0  0  0  0  0  # atno 17342 bound_to 10162
  140.2439  143.3643  152.1463 LP  0  0  0  0  0  0  0  0  0  0  0  0  # atno 17343 bound_to 10162
  157.4702  131.0892  151.0650 LP  0  0  0  0  0  0  0  0  0  0  0  0  # atno 17370 bound_to 10713
  157.1113  130.6022  149.5482 LP  0  0  0  0  0  0  0  0  0  0  0  0  # atno 17371 bound_to 10713
  141.0340  133.6973  156.1479 LP  0  0  0  0  0  0  0  0  0  0  0  0  # atno 17394 bound_to 11000
  140.7055  134.4518  157.5584 LP  0  0  0  0  0  0  0  0  0  0  0  0  # atno 17395 bound_to 11000

$$$$
