#       Name:                AV-unprocessed.smi:1410
#       Creating user name   scv26
#       Creation time:       Fri Mar 27 05:36:31 2020


#       File generated by GOLD software.
#

@<TRIPOS>MOLECULE
AV-unprocessed.smi:1410
    45    46     1
SMALL
NO_CHARGES


@<TRIPOS>ATOM
      1 ****        -4.6643   2.6033   2.6821 N.am           1 S1                 0.0000
      2 ****        -3.4126   2.2411   2.9727 C.2            1 S1                 0.0000
      3 ****        -2.6662   2.9478   3.6479 O.2            1 S1                 0.0000
      4 ****        -2.9428   0.8827   2.4411 C.3            1 S1                 0.0000
      5 ****        -1.4632   0.7661   2.3758 N.4            1 S1                 1.0000
      6 ****        -0.8717   1.4889   1.2185 C.3            1 S1                 0.0000
      7 ****         0.6653   1.4680   1.2813 C.3            1 S1                 0.0000
      8 ****         1.2200   0.0312   1.3614 C.3            1 S1                 0.0000
      9 ****         1.0530  -0.6908   0.0997 N.am           1 S1                 0.0000
     10 ****         1.8103  -0.5216  -0.9947 C.2            1 S1                 0.0000
     11 ****         2.7364   0.2862  -1.0551 O.2            1 S1                 0.0000
     12 ****         1.4076  -1.3269  -1.9936 N.am           1 S1                 0.0000
     13 ****         1.9277  -1.4471  -3.3120 C.ar           1 S1                 0.0000
     14 ****         1.1242  -2.0946  -4.2733 C.ar           1 S1                 0.0000
     15 ****         1.6167  -2.2402  -5.5857 C.ar           1 S1                 0.0000
     16 ****         2.8298  -1.7963  -5.9758 N.ar           1 S1                 0.0000
     17 ****         3.6033  -1.1880  -5.0522 C.ar           1 S1                 0.0000
     18 ****         3.2069  -0.9915  -3.7139 C.ar           1 S1                 0.0000
     19 ****         0.5352  -0.7255   2.5131 C.3            1 S1                 0.0000
     20 ****        -1.0008  -0.6440   2.4319 C.3            1 S1                 0.0000
     21 ****        -5.0188   3.4891   3.0146 H              1 S1                 0.0000
     22 ****        -5.2569   1.9946   2.1357 H              1 S1                 0.0000
     23 ****        -3.3411   0.1285   3.1212 H              1 S1                 0.0000
     24 ****        -3.3781   0.6814   1.4606 H              1 S1                 0.0000
     25 ****        -1.2180   1.0372   0.2877 H              1 S1                 0.0000
     26 ****        -1.2118   2.5247   1.2083 H              1 S1                 0.0000
     27 ****         1.0816   1.9966   0.4231 H              1 S1                 0.0000
     28 ****         0.9906   2.0252   2.1609 H              1 S1                 0.0000
     29 ****         2.2888   0.0787   1.5785 H              1 S1                 0.0000
     30 ****         0.3160  -1.3797   0.0620 H              1 S1                 0.0000
     31 ****         0.5919  -1.8902  -1.8041 H              1 S1                 0.0000
     32 ****         0.1448  -2.4714  -4.0168 H              1 S1                 0.0000
     33 ****         1.0194  -2.7278  -6.3418 H              1 S1                 0.0000
     34 ****         4.5729  -0.8512  -5.3880 H              1 S1                 0.0000
     35 ****         3.8922  -0.5108  -3.0336 H              1 S1                 0.0000
     36 ****         0.8563  -1.7679   2.5261 H              1 S1                 0.0000
     37 ****         0.8614  -0.2978   3.4624 H              1 S1                 0.0000
     38 ****        -1.4279  -1.1361   3.3066 H              1 S1                 0.0000
     39 ****        -1.3662  -1.1834   1.5566 H              1 S1                 0.0000
     40 ****        -1.1123   1.2131   3.2113 H              1 S1                 0.0000
     41 ****        -2.9913   3.8259   3.9989 LP             1 S1                 0.0000
     42 ****        -1.7342   2.6443   3.8459 LP             1 S1                 0.0000
     43 ****         2.9552   0.8561  -0.2631 LP             1 S1                 0.0000
     44 ****         3.2703   0.3727  -1.8962 LP             1 S1                 0.0000
     45 ****         3.1450  -1.9141  -6.9175 LP             1 S1                 0.0000
@<TRIPOS>BOND
    1    1    2 am    
    2    1   21 1     
    3    1   22 1     
    4    2    3 2     
    5    2    4 1     
    6    4    5 1     
    7    4   23 1     
    8    4   24 1     
    9    5   20 1     
   10    5    6 1     
   11    5   40 1     
   12    6    7 1     
   13    6   25 1     
   14    6   26 1     
   15    7    8 1     
   16    7   27 1     
   17    7   28 1     
   18    8    9 1     
   19    8   19 1     
   20    8   29 1     
   21    9   10 am    
   22    9   30 1     
   23   10   11 2     
   24   10   12 am    
   25   12   13 1     
   26   12   31 1     
   27   13   18 ar    
   28   13   14 ar    
   29   14   15 ar    
   30   14   32 1     
   31   15   16 ar    
   32   15   33 1     
   33   16   17 ar    
   34   17   18 ar    
   35   17   34 1     
   36   18   35 1     
   37   19   20 1     
   38   19   36 1     
   39   19   37 1     
   40   20   38 1     
   41   20   39 1     
   42    3   41 1     
   43    3   42 1     
   44   11   43 1     
   45   11   44 1     
   46   16   45 1     
@<TRIPOS>SUBSTRUCTURE
      1 S1             1
@<TRIPOS>SET
LONE_PAIRS      STATIC     ATOMS    <user>   **** ""
5 41 42 43 44 45
DONOR_HYDROGENS      STATIC     ATOMS    <user>   **** ""
5 21 22 40 30 31
ATOM$BLUE        STATIC     ATOMS    COLORGROUP SYSTEM
5 41 42 43 44 45
ATOM$RED        STATIC     ATOMS    COLORGROUP SYSTEM
5 21 22 40 30 31
