AV-unprocessed.smi:2254|AV-procd|sdf|9124|dock3
  -GOLD-   2272012323D 1   1.00000     0.00000
 Structure written by MMmdl.
 41 42  0  0  0  0  0  0  0  0  1 V2000
  148.2086  141.7134  153.9038 C   0  0  0  0  0  0  0  0  0  0  0  0
  149.2176  140.6772  154.3666 C   0  0  0  0  0  0  0  0  0  0  0  0
  149.1097  139.4192  153.7667 N   0  0  0  0  0  0  0  0  0  0  0  0
  149.9225  138.4722  154.1043 C   0  0  0  0  0  0  0  0  0  0  0  0
  150.9248  138.6684  155.0694 N   0  0  0  0  0  0  0  0  0  0  0  0
  151.7827  137.5093  155.3685 C   0  0  0  0  0  0  0  0  0  0  0  0
  151.0308  136.4149  156.1598 C   0  0  1  0  0  0  0  0  0  0  0  0
  151.7965  135.2287  156.2218 O   0  0  0  0  0  0  0  0  0  0  0  0
  150.7117  136.8324  157.6057 C   0  0  0  0  0  0  0  0  0  0  0  0
  149.5412  136.1668  158.0533 O   0  0  0  0  0  0  0  0  0  0  0  0
  148.9850  136.7426  159.2232 C   0  0  0  0  0  0  0  0  0  0  0  0
  147.9840  135.8133  159.8818 C   0  0  0  0  0  0  0  0  0  0  0  0
  147.6420  134.5886  159.2702 C   0  0  0  0  0  0  0  0  0  0  0  0
  146.7034  133.7316  159.8777 C   0  0  0  0  0  0  0  0  0  0  0  0
  146.0980  134.0986  161.0955 C   0  0  0  0  0  0  0  0  0  0  0  0
  144.9489  133.0483  161.8393 Cl  0  0  0  0  0  0  0  0  0  0  0  0
  146.4296  135.3249  161.7040 C   0  0  0  0  0  0  0  0  0  0  0  0
  147.3682  136.1819  161.0970 C   0  0  0  0  0  0  0  0  0  0  0  0
  151.1099  139.8687  155.6904 C   0  0  0  0  0  0  0  0  0  0  0  0
  152.0064  140.0380  156.5188 O   0  0  0  0  0  0  0  0  0  0  0  0
  150.1721  140.9347  155.3020 C   0  0  0  0  0  0  0  0  0  0  0  0
  150.3366  142.2844  155.9896 C   0  0  0  0  0  0  0  0  0  0  0  0
  148.7172  142.5797  153.4797 H   0  0  0  0  0  0  0  0  0  0  0  0
  147.5912  142.0447  154.7390 H   0  0  0  0  0  0  0  0  0  0  0  0
  147.5457  141.3084  153.1381 H   0  0  0  0  0  0  0  0  0  0  0  0
  149.8842  137.4748  153.6626 H   0  0  0  0  0  0  0  0  0  0  0  0
  152.2263  137.0932  154.4617 H   0  0  0  0  0  0  0  0  0  0  0  0
  152.6425  137.8455  155.9522 H   0  0  0  0  0  0  0  0  0  0  0  0
  150.0896  136.1714  155.6649 H   0  0  0  0  0  0  0  0  0  0  0  0
  151.6975  134.8501  157.0823 H   0  0  0  0  0  0  0  0  0  0  0  0
  151.5445  136.5484  158.2509 H   0  0  0  0  0  0  0  0  0  0  0  0
  150.6009  137.9155  157.6839 H   0  0  0  0  0  0  0  0  0  0  0  0
  149.7743  136.9625  159.9437 H   0  0  0  0  0  0  0  0  0  0  0  0
  148.4999  137.6870  158.9711 H   0  0  0  0  0  0  0  0  0  0  0  0
  148.0999  134.3003  158.3355 H   0  0  0  0  0  0  0  0  0  0  0  0
  146.4486  132.7931  159.4076 H   0  0  0  0  0  0  0  0  0  0  0  0
  145.9642  135.6103  162.6361 H   0  0  0  0  0  0  0  0  0  0  0  0
  147.6155  137.1222  161.5680 H   0  0  0  0  0  0  0  0  0  0  0  0
  150.2370  142.1709  157.0697 H   0  0  0  0  0  0  0  0  0  0  0  0
  149.6025  143.0221  155.6699 H   0  0  0  0  0  0  0  0  0  0  0  0
  151.3259  142.6935  155.7823 H   0  0  0  0  0  0  0  0  0  0  0  0
  1  2  1  0  0  0  0
  1 23  1  0  0  0  0
  1 24  1  0  0  0  0
  1 25  1  0  0  0  0
  2 21  2  0  0  0  0
  2  3  1  0  0  0  0
  3  4  2  0  0  0  0
  4  5  1  0  0  0  0
  4 26  1  0  0  0  0
  5  6  1  0  0  0  0
  5 19  1  0  0  0  0
  6  7  1  0  0  0  0
  6 27  1  0  0  0  0
  6 28  1  0  0  0  0
  7  8  1  0  0  0  0
  7  9  1  0  0  0  0
  7 29  1  0  0  0  0
  8 30  1  0  0  0  0
  9 10  1  0  0  0  0
  9 31  1  0  0  0  0
  9 32  1  0  0  0  0
 10 11  1  0  0  0  0
 11 12  1  0  0  0  0
 11 33  1  0  0  0  0
 11 34  1  0  0  0  0
 12 18  1  0  0  0  0
 12 13  2  0  0  0  0
 13 14  1  0  0  0  0
 13 35  1  0  0  0  0
 14 15  2  0  0  0  0
 14 36  1  0  0  0  0
 15 16  1  0  0  0  0
 15 17  1  0  0  0  0
 17 18  2  0  0  0  0
 17 37  1  0  0  0  0
 18 38  1  0  0  0  0
 19 20  2  0  0  0  0
 19 21  1  0  0  0  0
 21 22  1  0  0  0  0
 22 39  1  0  0  0  0
 22 40  1  0  0  0  0
 22 41  1  0  0  0  0
M  END
> <s_m_source_file>
AV-unprocessed.smi

> <i_m_source_file_index>
2254

> <i_lp_mmshare_version>
43012

> <i_f3d_flags>
0

> <s_epik_input>
W0NIM11jMW5bY0hdbihjKD1PKWMxW0NIM10pW0NIMl1bQ0BIXShbT0hdKVtDSDJdT1tDSDJdYzJbY0hdW2NIXWMoQ2wpW2NIXVtjSF0y

> <s_epik_cmdline>
J2VwaWtfcHl0aG9uJywgJy1waCcsICc3LjAnLCAnLXRuJywgJzgnLCAnLW1hJywgJzIwMCcsICctbWV0YWxfYmluZGluZycsICctaW1hZScsICc8aW5maWxlLm1hZT4nLCAnLW9tYWUnLCAnPG91dGZpbGUubWFlPic=

> <r_lp_tautomer_probability>
1

> <r_epik_Ionization_Penalty>
5.36e-05

> <r_epik_Ionization_Penalty_Charging>
1.17753e-07

> <r_epik_Ionization_Penalty_Neutral>
5.34822e-05

> <r_epik_State_Penalty>
-0

> <r_epik_Charging_Adjusted_Penalty>
1.17753e-07

> <i_epik_Tot_Q>
0

> <i_epik_Tot_abs_Q>
0

> <r_epik_Metal_State_Penalty>
-0

> <b_epik_Metal_Only>
0

> <s_lp_Force_Field>
OPLS_2005

> <r_lp_Energy>
22.8907

> <b_lp_Chiralities_Consistent>
1

> <s_lp_Variant>
AV-unprocessed.smi:2254-2

> <Gold.Version>
5.8.1

> <Gold.Id.Protein>
6NUR|6NUR_protein|mol2

> <Gold.PLP.Fitness>
48.7601

> <Gold.PLP.PLP>
-40.8529

> <Gold.PLP.part.hbond>
-2.5703

> <Gold.PLP.part.metal>
0.0000

> <Gold.PLP.part.buried>
-0.0118

> <Gold.PLP.part.nonpolar>
-37.7055

> <Gold.PLP.part.repulsive>
0.7827

> <Gold.PLP.ligand.clash>
0.0000

> <Gold.PLP.ligand.torsion>
0.6171

> <Gold.PLP.Chemscore.Hbond>
2.0000

> <Gold.PLP.Chemscore.CHOScore>
1.0000

> <Gold.PLP.Chemscore.Metal>
0.0000

> <Gold.Chemscore.Hbonds>
donor molecule, donor type, donor heavy atom, donor atom, acceptor molecule, acceptor atom, score
      P1  H  7997  8008       L1    20  0.24
      P1  H 10752 10765       L1     8  1.00
      L1  C     4    26       P1  7948  1.00

> <Gold.PLP.Chemscore.Internal.Correction>
0.1414

> <Gold.Rescore>
     Score         DG    S(hbond)    S(metal)    S(lipo)     H(rot)  DE(clash)    DE(int)     intcor
     13.78     -16.54       1.87        0.00      96.23       2.52       2.11       0.65       ----

> <Gold.Chemscore.Fitness>
13.7847

> <Gold.Chemscore.DG>
-16.5438

> <Gold.Chemscore.ZeroCoef>
-5.4800

> <Gold.Chemscore.Hbond>
1.8701

> <Gold.Chemscore.Metal>
0.0000

> <Gold.Chemscore.Lipo>
96.2311

> <Gold.Chemscore.Internal_Hbond>
0.0000

> <Gold.Chemscore.DEClash>
2.1106

> <Gold.Chemscore.DEInternal>
0.6485

> <Gold.Chemscore.Rot>
2.5162

> <Gold.Chemscore.Internal.Correction>
   9.000000E+99

> <Gold.Chemscore.Hbonds>
donor molecule, donor type, donor heavy atom, donor atom, acceptor molecule, acceptor atom, score
      P1  H  7997  8008       L1    20  0.25
      P1  H 10752 10765       L1     8  0.49

> <Gold.Chemscore.Hbond.Weighted>
-6.2461

> <Gold.Chemscore.Metal.Weighted>
-0.0000

> <Gold.Chemscore.Lipo.Weighted>
-11.2590

> <Gold.Chemscore.Internal_Hbond.Weighted>
0.0000

> <Gold.Chemscore.DEClash.Weighted>
2.1106

> <Gold.Chemscore.DEInternal.Weighted>
0.6485

> <Gold.Chemscore.Rot.Weighted>
6.4414

> <Gold.Chemscore.Internal.Correction.Weighted>
   9.000000E+99

> <Gold.Protein.RotatedTorsions>
[ 6907 6896 6895 6894 ] final    6.12 input  -60.11 | X-H torsion
[ 7974 7965 7964 7962 ] final -121.34 input  175.53 | X-H torsion
[ 8008 7997 7996 7995 ] final  -47.16 input   59.86 | X-H torsion
[ 10167 10162 10161 10158 ] final  130.15 input  -65.29 | X-H torsion
[ 10718 10713 10712 10709 ] final   96.66 input   66.30 | X-H torsion
[ 10763 10752 10751 10750 ] final -155.08 input  -60.55 | X-H torsion
[ 11005 11000 10999 10996 ] final -107.88 input  -57.11 | X-H torsion

> <Gold.Protein.ActiveResidues>
 VAL166  LYS551  ARG553  GLY616  TRP617  ASP618  TYR619  PRO620  LYS621  CYS622 
 ASP623  PHE694  ASN695  SER759  ASP760  ASP761  ALA762  ILE779  LEU786  VAL792 
 PHE793  MET794  SER795  GLU796  ALA797  LYS798  CYS799  TRP800  GLU811  SER814 

> <Gold.Protein.RotatedAtoms>
  151.6685  135.0979  160.0193 H   0  0  0  0  0  0  0  0  0  0  0  0  # atno 6907 bound_to 6896
  152.3905  133.6668  159.6242 H   0  0  0  0  0  0  0  0  0  0  0  0  # atno 6908 bound_to 6896
  150.7822  133.8879  159.3346 H   0  0  0  0  0  0  0  0  0  0  0  0  # atno 6909 bound_to 6896
  145.0414  140.8147  143.4264 H   0  0  0  0  0  0  0  0  0  0  0  0  # atno 7974 bound_to 7965
  154.4014  140.1353  156.4129 H   0  0  0  0  0  0  0  0  0  0  0  0  # atno 8008 bound_to 7997
  155.7716  140.3483  155.5230 H   0  0  0  0  0  0  0  0  0  0  0  0  # atno 8009 bound_to 7997
  155.8761  140.0979  157.1507 H   0  0  0  0  0  0  0  0  0  0  0  0  # atno 8010 bound_to 7997
  139.5443  144.6759  151.4522 H   0  0  0  0  0  0  0  0  0  0  0  0  # atno 10167 bound_to 10162
  157.6924  131.0585  150.4525 H   0  0  0  0  0  0  0  0  0  0  0  0  # atno 10718 bound_to 10713
  154.7813  135.3175  154.7984 H   0  0  0  0  0  0  0  0  0  0  0  0  # atno 10763 bound_to 10752
  153.8695  135.6845  153.4780 H   0  0  0  0  0  0  0  0  0  0  0  0  # atno 10764 bound_to 10752
  153.1450  135.4723  154.9490 H   0  0  0  0  0  0  0  0  0  0  0  0  # atno 10765 bound_to 10752
  141.0931  133.9020  157.2029 H   0  0  0  0  0  0  0  0  0  0  0  0  # atno 11005 bound_to 11000
  145.1643  139.2440  143.5375 LP  0  0  0  0  0  0  0  0  0  0  0  0  # atno 17320 bound_to 7965
  146.3509  140.1378  142.8595 LP  0  0  0  0  0  0  0  0  0  0  0  0  # atno 17321 bound_to 7965
  140.6686  143.8344  150.6971 LP  0  0  0  0  0  0  0  0  0  0  0  0  # atno 17342 bound_to 10162
  140.1761  143.4154  152.1966 LP  0  0  0  0  0  0  0  0  0  0  0  0  # atno 17343 bound_to 10162
  156.4875  130.4087  149.6426 LP  0  0  0  0  0  0  0  0  0  0  0  0  # atno 17370 bound_to 10713
  156.3448  130.7401  151.2352 LP  0  0  0  0  0  0  0  0  0  0  0  0  # atno 17371 bound_to 10713
  139.9761  135.0113  156.9634 LP  0  0  0  0  0  0  0  0  0  0  0  0  # atno 17394 bound_to 11000
  140.5206  134.0912  155.7291 LP  0  0  0  0  0  0  0  0  0  0  0  0  # atno 17395 bound_to 11000

$$$$
