AV-unprocessed.smi:3266|AV-procd|sdf|12503|dock10
  -GOLD-   2272018413D 1   1.00000     0.00000
 Structure written by MMmdl.
 39 40  0  0  0  0  0  0  0  0  2 V2000
  152.6432  139.7885  155.6744 O   0  0  0  0  0  0  0  0  0  0  0  0
  151.4779  139.4441  155.4768 C   0  0  0  0  0  0  0  0  0  0  0  0
  151.1321  138.4115  154.4002 C   0  0  0  0  0  0  0  0  0  0  0  0
  149.6208  138.2765  154.1373 C   0  0  0  0  0  0  0  0  0  0  0  0
  149.0516  139.4743  153.3630 C   0  0  1  0  0  0  0  0  0  0  0  0
  147.5259  139.4953  153.2874 C   0  0  0  0  0  0  0  0  0  0  0  0
  147.2561  140.9659  153.0666 C   0  0  0  0  0  0  0  0  0  0  0  0
  148.3063  141.6096  153.9668 C   0  0  0  0  0  0  0  0  0  0  0  0
  149.4057  140.7023  153.9962 O   0  0  0  0  0  0  0  0  0  0  0  0
  150.4428  139.9192  156.1855 N   0  0  0  0  0  0  0  0  0  0  0  0
  150.5372  140.9005  157.2627 C   0  0  0  0  0  0  0  0  0  0  0  0
  151.2037  142.2258  156.8367 C   0  0  0  0  0  0  0  0  0  0  0  0
  151.4512  143.1902  157.9846 C   0  0  0  0  0  0  0  0  0  0  0  0
  152.3829  142.9132  159.0083 C   0  0  0  0  0  0  0  0  0  0  0  0
  152.5736  143.8560  160.0402 C   0  0  0  0  0  0  0  0  0  0  0  0
  151.8310  145.0550  160.0262 C   0  0  0  0  0  0  0  0  0  0  0  0
  150.9151  145.2816  158.9788 C   0  0  0  0  0  0  0  0  0  0  0  0
  150.7602  144.3536  158.0095 N   0  3  0  0  0  0  0  0  0  0  0  0
  151.6455  138.6949  153.4807 H   0  0  0  0  0  0  0  0  0  0  0  0
  151.5364  137.4435  154.6998 H   0  0  0  0  0  0  0  0  0  0  0  0
  149.4329  137.3650  153.5679 H   0  0  0  0  0  0  0  0  0  0  0  0
  149.0840  138.1690  155.0809 H   0  0  0  0  0  0  0  0  0  0  0  0
  149.4545  139.4924  152.3491 H   0  0  0  0  0  0  0  0  0  0  0  0
  147.1299  138.8617  152.4932 H   0  0  0  0  0  0  0  0  0  0  0  0
  147.0865  139.1744  154.2333 H   0  0  0  0  0  0  0  0  0  0  0  0
  147.4415  141.2283  152.0240 H   0  0  0  0  0  0  0  0  0  0  0  0
  146.2374  141.2609  153.3193 H   0  0  0  0  0  0  0  0  0  0  0  0
  148.6107  142.5947  153.6130 H   0  0  0  0  0  0  0  0  0  0  0  0
  147.9220  141.7182  154.9815 H   0  0  0  0  0  0  0  0  0  0  0  0
  149.5186  139.5837  155.9544 H   0  0  0  0  0  0  0  0  0  0  0  0
  149.5476  141.0919  157.6801 H   0  0  0  0  0  0  0  0  0  0  0  0
  151.1234  140.4450  158.0614 H   0  0  0  0  0  0  0  0  0  0  0  0
  152.1551  142.0190  156.3445 H   0  0  0  0  0  0  0  0  0  0  0  0
  150.5841  142.7195  156.0875 H   0  0  0  0  0  0  0  0  0  0  0  0
  152.9467  141.9916  159.0029 H   0  0  0  0  0  0  0  0  0  0  0  0
  153.2818  143.6620  160.8323 H   0  0  0  0  0  0  0  0  0  0  0  0
  151.9623  145.7897  160.8073 H   0  0  0  0  0  0  0  0  0  0  0  0
  150.3065  146.1692  158.8872 H   0  0  0  0  0  0  0  0  0  0  0  0
  150.0928  144.5382  157.2597 H   0  0  0  0  0  0  0  0  0  0  0  0
  1  2  2  0  0  0  0
  2  3  1  0  0  0  0
  2 10  1  0  0  0  0
  3  4  1  0  0  0  0
  3 19  1  0  0  0  0
  3 20  1  0  0  0  0
  4  5  1  0  0  0  0
  4 21  1  0  0  0  0
  4 22  1  0  0  0  0
  5  9  1  0  0  0  0
  5  6  1  0  0  0  0
  5 23  1  0  0  0  0
  6  7  1  0  0  0  0
  6 24  1  0  0  0  0
  6 25  1  0  0  0  0
  7  8  1  0  0  0  0
  7 26  1  0  0  0  0
  7 27  1  0  0  0  0
  8  9  1  0  0  0  0
  8 28  1  0  0  0  0
  8 29  1  0  0  0  0
 10 11  1  0  0  0  0
 10 30  1  0  0  0  0
 11 12  1  0  0  0  0
 11 31  1  0  0  0  0
 11 32  1  0  0  0  0
 12 13  1  0  0  0  0
 12 33  1  0  0  0  0
 12 34  1  0  0  0  0
 13 18  1  0  0  0  0
 13 14  2  0  0  0  0
 14 15  1  0  0  0  0
 14 35  1  0  0  0  0
 15 16  2  0  0  0  0
 15 36  1  0  0  0  0
 16 17  1  0  0  0  0
 16 37  1  0  0  0  0
 17 18  2  0  0  0  0
 17 38  1  0  0  0  0
 18 39  1  0  0  0  0
M  CHG  1  18   1
M  END
> <s_m_source_file>
AV-unprocessed.smi

> <i_m_source_file_index>
3266

> <i_lp_mmshare_version>
43012

> <i_f3d_flags>
0

> <s_epik_input>
TzFbQ0gyXVtDSDJdW0NIMl1bQ0BIXTFbQ0gyXVtDSDJdQyg9TylbTkhdW0NIMl1bQ0gyXWMyW2NIXVtjSF1bY0hdW2NIXW4y

> <s_epik_cmdline>
J2VwaWtfcHl0aG9uJywgJy1waCcsICc3LjAnLCAnLXRuJywgJzgnLCAnLW1hJywgJzIwMCcsICctbWV0YWxfYmluZGluZycsICctaW1hZScsICc8aW5maWxlLm1hZT4nLCAnLW9tYWUnLCAnPG91dGZpbGUubWFlPic=

> <r_epik_Ionization_Penalty>
1.8495

> <r_epik_Ionization_Penalty_Charging>
1.8495

> <r_epik_Ionization_Penalty_Neutral>
1.53068e-08

> <r_epik_State_Penalty>
1.96688

> <r_epik_Charging_Adjusted_Penalty>
3.81638

> <i_epik_Tot_Q>
1

> <i_epik_Tot_abs_Q>
1

> <r_epik_Metal_State_Penalty>
1.99263

> <b_epik_Metal_Only>
0

> <s_lp_Force_Field>
OPLS_2005

> <r_lp_Energy>
22.1722

> <b_lp_Chiralities_Consistent>
1

> <s_lp_Variant>
AV-unprocessed.smi:3266-4

> <Gold.Version>
5.8.1

> <Gold.Id.Protein>
6NUR|6NUR_protein|mol2

> <Gold.PLP.Fitness>
48.1775

> <Gold.PLP.PLP>
-39.4288

> <Gold.PLP.part.hbond>
-2.7864

> <Gold.PLP.part.metal>
0.0000

> <Gold.PLP.part.buried>
0.0381

> <Gold.PLP.part.nonpolar>
-36.8236

> <Gold.PLP.part.repulsive>
0.8810

> <Gold.PLP.ligand.clash>
0.0000

> <Gold.PLP.ligand.torsion>
0.2395

> <Gold.PLP.Chemscore.Hbond>
3.0546

> <Gold.PLP.Chemscore.CHOScore>
0.0000

> <Gold.PLP.Chemscore.Metal>
0.0000

> <Gold.Chemscore.Hbonds>
donor molecule, donor type, donor heavy atom, donor atom, acceptor molecule, acceptor atom, score
      L1  H    18    39       P1  8028  2.00
      P1  H  7989  7998       L1     9  0.23
      P1  H  7997  8010       L1     1  1.00

> <Gold.PLP.Chemscore.Internal.Correction>
0.0638

> <Gold.Rescore>
     Score         DG    S(hbond)    S(metal)    S(lipo)     H(rot)  DE(clash)    DE(int)     intcor
     16.82     -19.51       1.49        0.00     117.64       1.84       1.75       0.94       ----

> <Gold.Chemscore.Fitness>
16.8245

> <Gold.Chemscore.DG>
-19.5071

> <Gold.Chemscore.ZeroCoef>
-5.4800

> <Gold.Chemscore.Hbond>
1.4877

> <Gold.Chemscore.Metal>
0.0000

> <Gold.Chemscore.Lipo>
117.6416

> <Gold.Chemscore.Internal_Hbond>
0.0000

> <Gold.Chemscore.DEClash>
1.7462

> <Gold.Chemscore.DEInternal>
0.9364

> <Gold.Chemscore.Rot>
1.8382

> <Gold.Chemscore.Internal.Correction>
   9.000000E+99

> <Gold.Chemscore.Hbonds>
donor molecule, donor type, donor heavy atom, donor atom, acceptor molecule, acceptor atom, score
      L1  H    18    39       P1  8028  0.39
      P1  H  7989  7998       L1     9  0.08
      P1  H  7997  8010       L1     1  1.00

> <Gold.Chemscore.Hbond.Weighted>
-4.9688

> <Gold.Chemscore.Metal.Weighted>
-0.0000

> <Gold.Chemscore.Lipo.Weighted>
-13.7641

> <Gold.Chemscore.Internal_Hbond.Weighted>
0.0000

> <Gold.Chemscore.DEClash.Weighted>
1.7462

> <Gold.Chemscore.DEInternal.Weighted>
0.9364

> <Gold.Chemscore.Rot.Weighted>
4.7058

> <Gold.Chemscore.Internal.Correction.Weighted>
   9.000000E+99

> <Gold.Protein.RotatedTorsions>
[ 6907 6896 6895 6894 ] final   13.76 input  -60.11 | X-H torsion
[ 7974 7965 7964 7962 ] final -117.86 input  175.53 | X-H torsion
[ 8008 7997 7996 7995 ] final   91.91 input   59.86 | X-H torsion
[ 10167 10162 10161 10158 ] final  169.98 input  -65.29 | X-H torsion
[ 10718 10713 10712 10709 ] final   89.88 input   66.30 | X-H torsion
[ 10763 10752 10751 10750 ] final  -50.43 input  -60.55 | X-H torsion
[ 11005 11000 10999 10996 ] final   99.99 input  -57.11 | X-H torsion

> <Gold.Protein.ActiveResidues>
 VAL166  LYS551  ARG553  GLY616  TRP617  ASP618  TYR619  PRO620  LYS621  CYS622 
 ASP623  PHE694  ASN695  SER759  ASP760  ASP761  ALA762  ILE779  LEU786  VAL792 
 PHE793  MET794  SER795  GLU796  ALA797  LYS798  CYS799  TRP800  GLU811  SER814 

> <Gold.Protein.RotatedAtoms>
  151.7914  135.0734  160.0387 H   0  0  0  0  0  0  0  0  0  0  0  0  # atno 6907 bound_to 6896
  152.3154  133.5792  159.5717 H   0  0  0  0  0  0  0  0  0  0  0  0  # atno 6908 bound_to 6896
  150.7341  134.0007  159.3679 H   0  0  0  0  0  0  0  0  0  0  0  0  # atno 6909 bound_to 6896
  145.0803  140.8421  143.4043 H   0  0  0  0  0  0  0  0  0  0  0  0  # atno 7974 bound_to 7965
  156.0293  140.3332  155.7122 H   0  0  0  0  0  0  0  0  0  0  0  0  # atno 8008 bound_to 7997
  155.5908  140.0646  157.2777 H   0  0  0  0  0  0  0  0  0  0  0  0  # atno 8009 bound_to 7997
  154.4347  140.1827  156.1061 H   0  0  0  0  0  0  0  0  0  0  0  0  # atno 8010 bound_to 7997
  139.5006  144.3646  151.9788 H   0  0  0  0  0  0  0  0  0  0  0  0  # atno 10167 bound_to 10162
  157.6957  131.0350  150.3493 H   0  0  0  0  0  0  0  0  0  0  0  0  # atno 10718 bound_to 10713
  154.1103  135.6550  153.4884 H   0  0  0  0  0  0  0  0  0  0  0  0  # atno 10763 bound_to 10752
  153.0259  135.5246  154.7199 H   0  0  0  0  0  0  0  0  0  0  0  0  # atno 10764 bound_to 10752
  154.6377  135.2984  155.0111 H   0  0  0  0  0  0  0  0  0  0  0  0  # atno 10765 bound_to 10752
  139.8771  134.9120  156.4688 H   0  0  0  0  0  0  0  0  0  0  0  0  # atno 11005 bound_to 11000
  145.1186  139.2709  143.5600 LP  0  0  0  0  0  0  0  0  0  0  0  0  # atno 17320 bound_to 7965
  146.3531  140.0803  142.8618 LP  0  0  0  0  0  0  0  0  0  0  0  0  # atno 17321 bound_to 7965
  140.3083  144.3568  150.6041 LP  0  0  0  0  0  0  0  0  0  0  0  0  # atno 17342 bound_to 10162
  140.5819  143.2172  151.7412 LP  0  0  0  0  0  0  0  0  0  0  0  0  # atno 17343 bound_to 10162
  156.3943  130.3904  149.7006 LP  0  0  0  0  0  0  0  0  0  0  0  0  # atno 17370 bound_to 10713
  156.4345  130.7831  151.2852 LP  0  0  0  0  0  0  0  0  0  0  0  0  # atno 17371 bound_to 10713
  140.8811  133.7917  155.9467 LP  0  0  0  0  0  0  0  0  0  0  0  0  # atno 17394 bound_to 11000
  140.8853  134.2561  157.5123 LP  0  0  0  0  0  0  0  0  0  0  0  0  # atno 17395 bound_to 11000

$$$$
