AV-unprocessed.smi:3057|AV-procd|sdf|11667|dock7
  -GOLD-   2272017 73D 1   1.00000     0.00000
 Structure written by MMmdl.
 41 43  0  0  0  0  0  0  0  0  2 V2000
  147.8074  141.8405  154.8384 C   0  0  0  0  0  0  0  0  0  0  0  0
  148.3766  140.7084  155.7187 C   0  0  1  0  0  0  0  0  0  0  0  0
  147.8327  139.3376  155.2852 C   0  0  0  0  0  0  0  0  0  0  0  0
  148.8672  138.8320  154.2678 C   0  0  0  0  0  0  0  0  0  0  0  0
  150.1217  139.5952  154.6671 C   0  0  0  0  0  0  0  0  0  0  0  0
  151.2489  139.2871  154.2822 O   0  0  0  0  0  0  0  0  0  0  0  0
  149.8092  140.5763  155.5289 N   0  0  0  0  0  0  0  0  0  0  0  0
  150.6738  141.3352  156.4457 C   0  0  2  0  0  0  0  0  0  0  0  0
  151.7124  140.4583  157.1694 C   0  0  0  0  0  0  0  0  0  0  0  0
  152.5697  139.8505  156.5265 O   0  0  0  0  0  0  0  0  0  0  0  0
  151.6188  140.3966  158.5066 N   0  0  0  0  0  0  0  0  0  0  0  0
  152.5271  139.6505  159.3687 C   0  0  0  0  0  0  0  0  0  0  0  0
  153.7537  140.4943  159.7568 C   0  0  0  0  0  0  0  0  0  0  0  0
  153.3943  141.6388  160.6834 C   0  0  0  0  0  0  0  0  0  0  0  0
  152.5006  142.6637  160.3036 C   0  0  0  0  0  0  0  0  0  0  0  0
  152.2084  143.6964  161.2191 C   0  0  0  0  0  0  0  0  0  0  0  0
  152.8146  143.6826  162.4924 C   0  0  0  0  0  0  0  0  0  0  0  0
  153.6986  142.6341  162.8193 C   0  0  0  0  0  0  0  0  0  0  0  0
  153.9525  141.6624  161.9154 N   0  3  0  0  0  0  0  0  0  0  0  0
  149.7371  142.0627  157.4353 C   0  0  0  0  0  0  0  0  0  0  0  0
  148.2061  141.0908  157.4738 S   0  0  0  0  0  0  0  0  0  0  0  0
  147.9590  141.6382  153.7776 H   0  0  0  0  0  0  0  0  0  0  0  0
  148.2759  142.8004  155.0553 H   0  0  0  0  0  0  0  0  0  0  0  0
  146.7352  141.9558  154.9994 H   0  0  0  0  0  0  0  0  0  0  0  0
  147.7930  138.6541  156.1350 H   0  0  0  0  0  0  0  0  0  0  0  0
  146.8280  139.3953  154.8649 H   0  0  0  0  0  0  0  0  0  0  0  0
  149.0101  137.7524  154.3232 H   0  0  0  0  0  0  0  0  0  0  0  0
  148.5906  139.1008  153.2480 H   0  0  0  0  0  0  0  0  0  0  0  0
  151.2069  142.0816  155.8544 H   0  0  0  0  0  0  0  0  0  0  0  0
  150.8813  140.9186  158.9579 H   0  0  0  0  0  0  0  0  0  0  0  0
  151.9814  139.3538  160.2649 H   0  0  0  0  0  0  0  0  0  0  0  0
  152.8346  138.7286  158.8722 H   0  0  0  0  0  0  0  0  0  0  0  0
  154.5031  139.8730  160.2495 H   0  0  0  0  0  0  0  0  0  0  0  0
  154.2299  140.8938  158.8603 H   0  0  0  0  0  0  0  0  0  0  0  0
  152.0438  142.6606  159.3245 H   0  0  0  0  0  0  0  0  0  0  0  0
  151.5269  144.4892  160.9474 H   0  0  0  0  0  0  0  0  0  0  0  0
  152.6042  144.4646  163.2076 H   0  0  0  0  0  0  0  0  0  0  0  0
  154.2065  142.5436  163.7684 H   0  0  0  0  0  0  0  0  0  0  0  0
  150.1575  142.1695  158.4363 H   0  0  0  0  0  0  0  0  0  0  0  0
  149.5056  143.0635  157.0708 H   0  0  0  0  0  0  0  0  0  0  0  0
  154.5952  140.9126  162.1730 H   0  0  0  0  0  0  0  0  0  0  0  0
  1  2  1  0  0  0  0
  1 22  1  0  0  0  0
  1 23  1  0  0  0  0
  1 24  1  0  0  0  0
  2  7  1  0  0  0  0
  2 21  1  0  0  0  0
  2  3  1  0  0  0  0
  3  4  1  0  0  0  0
  3 25  1  0  0  0  0
  3 26  1  0  0  0  0
  4  5  1  0  0  0  0
  4 27  1  0  0  0  0
  4 28  1  0  0  0  0
  5  6  2  0  0  0  0
  5  7  1  0  0  0  0
  7  8  1  0  0  0  0
  8  9  1  0  0  0  0
  8 20  1  0  0  0  0
  8 29  1  0  0  0  0
  9 10  2  0  0  0  0
  9 11  1  0  0  0  0
 11 12  1  0  0  0  0
 11 30  1  0  0  0  0
 12 13  1  0  0  0  0
 12 31  1  0  0  0  0
 12 32  1  0  0  0  0
 13 14  1  0  0  0  0
 13 33  1  0  0  0  0
 13 34  1  0  0  0  0
 14 19  1  0  0  0  0
 14 15  2  0  0  0  0
 15 16  1  0  0  0  0
 15 35  1  0  0  0  0
 16 17  2  0  0  0  0
 16 36  1  0  0  0  0
 17 18  1  0  0  0  0
 17 37  1  0  0  0  0
 18 19  2  0  0  0  0
 18 38  1  0  0  0  0
 19 41  1  0  0  0  0
 20 21  1  0  0  0  0
 20 39  1  0  0  0  0
 20 40  1  0  0  0  0
M  CHG  1  19   1
M  END
> <s_m_source_file>
AV-unprocessed.smi

> <i_m_source_file_index>
3057

> <i_lp_mmshare_version>
43012

> <i_f3d_flags>
0

> <s_epik_input>
W0NIMl0xW0NIMl1DKD1PKU4oW0NAQF0xMltDSDNdKVtDQEhdKFtDSDJdUzIpQyg9TylbTkhdW0NIMl1bQ0gyXWMzW2NIXVtjSF1bY0hdW2NIXW4z

> <s_epik_cmdline>
J2VwaWtfcHl0aG9uJywgJy1waCcsICc3LjAnLCAnLXRuJywgJzgnLCAnLW1hJywgJzIwMCcsICctbWV0YWxfYmluZGluZycsICctaW1hZScsICc8aW5maWxlLm1hZT4nLCAnLW9tYWUnLCAnPG91dGZpbGUubWFlPic=

> <r_epik_Ionization_Penalty>
1.8888

> <r_epik_Ionization_Penalty_Charging>
1.8888

> <r_epik_Ionization_Penalty_Neutral>
1.66252e-07

> <r_epik_State_Penalty>
2.00916

> <r_epik_Charging_Adjusted_Penalty>
3.89796

> <i_epik_Tot_Q>
1

> <i_epik_Tot_abs_Q>
1

> <r_epik_Metal_State_Penalty>
2.03343

> <b_epik_Metal_Only>
0

> <s_lp_Force_Field>
OPLS_2005

> <r_lp_Energy>
30.9082

> <b_lp_Chiralities_Consistent>
1

> <s_lp_Variant>
AV-unprocessed.smi:3057-7

> <Gold.Version>
5.8.1

> <Gold.Id.Protein>
6NUR|6NUR_protein|mol2

> <Gold.PLP.Fitness>
46.7260

> <Gold.PLP.PLP>
-42.0999

> <Gold.PLP.part.hbond>
-2.4867

> <Gold.PLP.part.metal>
0.0000

> <Gold.PLP.part.buried>
-2.7924

> <Gold.PLP.part.nonpolar>
-35.5764

> <Gold.PLP.part.repulsive>
0.2891

> <Gold.PLP.ligand.clash>
0.6490

> <Gold.PLP.ligand.torsion>
0.2202

> <Gold.PLP.Chemscore.Hbond>
1.9000

> <Gold.PLP.Chemscore.CHOScore>
0.0000

> <Gold.PLP.Chemscore.Metal>
0.0000

> <Gold.Chemscore.Hbonds>
donor molecule, donor type, donor heavy atom, donor atom, acceptor molecule, acceptor atom, score
      P1  H  7989  7998       L1     6  0.85
      P1  H  7997  8010       L1    10  1.00

> <Gold.PLP.Chemscore.Internal.Correction>
0.0154

> <Gold.Rescore>
     Score         DG    S(hbond)    S(metal)    S(lipo)     H(rot)  DE(clash)    DE(int)     intcor
     16.05     -17.96       1.65        0.00      94.99       1.62       0.06       1.84       ----

> <Gold.Chemscore.Fitness>
16.0505

> <Gold.Chemscore.DG>
-17.9552

> <Gold.Chemscore.ZeroCoef>
-5.4800

> <Gold.Chemscore.Hbond>
1.6518

> <Gold.Chemscore.Metal>
0.0000

> <Gold.Chemscore.Lipo>
94.9909

> <Gold.Chemscore.Internal_Hbond>
0.0000

> <Gold.Chemscore.DEClash>
0.0618

> <Gold.Chemscore.DEInternal>
1.8429

> <Gold.Chemscore.Rot>
1.6234

> <Gold.Chemscore.Internal.Correction>
   9.000000E+99

> <Gold.Chemscore.Hbonds>
donor molecule, donor type, donor heavy atom, donor atom, acceptor molecule, acceptor atom, score
      P1  H  7989  7998       L1     6  0.15
      P1  H  7997  8010       L1    10  1.00

> <Gold.Chemscore.Hbond.Weighted>
-5.5170

> <Gold.Chemscore.Metal.Weighted>
-0.0000

> <Gold.Chemscore.Lipo.Weighted>
-11.1139

> <Gold.Chemscore.Internal_Hbond.Weighted>
0.0000

> <Gold.Chemscore.DEClash.Weighted>
0.0618

> <Gold.Chemscore.DEInternal.Weighted>
1.8429

> <Gold.Chemscore.Rot.Weighted>
4.1558

> <Gold.Chemscore.Internal.Correction.Weighted>
   9.000000E+99

> <Gold.Protein.RotatedTorsions>
[ 6907 6896 6895 6894 ] final  -53.46 input  -60.11 | X-H torsion
[ 7974 7965 7964 7962 ] final  -53.30 input  175.53 | X-H torsion
[ 8008 7997 7996 7995 ] final   76.73 input   59.86 | X-H torsion
[ 10167 10162 10161 10158 ] final  -96.73 input  -65.29 | X-H torsion
[ 10718 10713 10712 10709 ] final   86.74 input   66.30 | X-H torsion
[ 10763 10752 10751 10750 ] final -162.31 input  -60.55 | X-H torsion
[ 11005 11000 10999 10996 ] final    6.75 input  -57.11 | X-H torsion

> <Gold.Protein.ActiveResidues>
 VAL166  LYS551  ARG553  GLY616  TRP617  ASP618  TYR619  PRO620  LYS621  CYS622 
 ASP623  PHE694  ASN695  SER759  ASP760  ASP761  ALA762  ILE779  LEU786  VAL792 
 PHE793  MET794  SER795  GLU796  ALA797  LYS798  CYS799  TRP800  GLU811  SER814 

> <Gold.Protein.RotatedAtoms>
  150.8425  134.7722  159.6943 H   0  0  0  0  0  0  0  0  0  0  0  0  # atno 6907 bound_to 6896
  152.4509  134.5392  159.9844 H   0  0  0  0  0  0  0  0  0  0  0  0  # atno 6908 bound_to 6896
  151.5529  133.3377  159.2992 H   0  0  0  0  0  0  0  0  0  0  0  0  # atno 6909 bound_to 6896
  145.8984  140.8014  142.9756 H   0  0  0  0  0  0  0  0  0  0  0  0  # atno 7974 bound_to 7965
  155.8315  140.3466  155.5575 H   0  0  0  0  0  0  0  0  0  0  0  0  # atno 8008 bound_to 7997
  155.8236  140.0916  157.1854 H   0  0  0  0  0  0  0  0  0  0  0  0  # atno 8009 bound_to 7997
  154.4004  140.1425  156.3517 H   0  0  0  0  0  0  0  0  0  0  0  0  # atno 8010 bound_to 7997
  140.2908  143.3223  152.0348 H   0  0  0  0  0  0  0  0  0  0  0  0  # atno 10167 bound_to 10162
  157.6932  131.0228  150.3019 H   0  0  0  0  0  0  0  0  0  0  0  0  # atno 10718 bound_to 10713
  154.7226  135.3029  154.9023 H   0  0  0  0  0  0  0  0  0  0  0  0  # atno 10763 bound_to 10752
  153.9890  135.6721  153.4757 H   0  0  0  0  0  0  0  0  0  0  0  0  # atno 10764 bound_to 10752
  153.0847  135.4990  154.8490 H   0  0  0  0  0  0  0  0  0  0  0  0  # atno 10765 bound_to 10752
  140.5559  134.0238  155.7954 H   0  0  0  0  0  0  0  0  0  0  0  0  # atno 11005 bound_to 11000
  144.6734  140.1638  143.7420 LP  0  0  0  0  0  0  0  0  0  0  0  0  # atno 17320 bound_to 7965
  145.8822  139.2329  143.1598 LP  0  0  0  0  0  0  0  0  0  0  0  0  # atno 17321 bound_to 7965
  139.4938  144.6526  151.6642 LP  0  0  0  0  0  0  0  0  0  0  0  0  # atno 17342 bound_to 10162
  140.5734  144.0070  150.6228 LP  0  0  0  0  0  0  0  0  0  0  0  0  # atno 17343 bound_to 10162
  156.3533  130.3834  149.7311 LP  0  0  0  0  0  0  0  0  0  0  0  0  # atno 17370 bound_to 10713
  156.4781  130.8028  151.3043 LP  0  0  0  0  0  0  0  0  0  0  0  0  # atno 17371 bound_to 10713
  141.1143  133.9565  157.2851 LP  0  0  0  0  0  0  0  0  0  0  0  0  # atno 17394 bound_to 11000
  139.9432  135.0188  156.8771 LP  0  0  0  0  0  0  0  0  0  0  0  0  # atno 17395 bound_to 11000

$$$$
