AV-unprocessed.smi:723|AV-procd|sdf|3506|dock1
  -GOLD-   22720 0503D 1   1.00000     0.00000
 Structure written by MMmdl.
 42 44  0  0  0  0  0  0  0  0  1 V2000
  143.6934  137.0525  152.8078 C   0  0  0  0  0  0  0  0  0  0  0  0
  145.0046  137.3496  152.3602 O   0  0  0  0  0  0  0  0  0  0  0  0
  145.7242  138.1468  153.2854 C   0  0  0  0  0  0  0  0  0  0  0  0
  146.9820  138.6969  152.6008 C   0  0  0  0  0  0  0  0  0  0  0  0
  147.4853  139.8787  153.2737 N   0  0  0  0  0  0  0  0  0  0  0  0
  148.5732  139.9816  154.1182 C   0  0  0  0  0  0  0  0  0  0  0  0
  148.6269  141.2946  154.4923 C   0  0  0  0  0  0  0  0  0  0  0  0
  149.5449  141.9486  155.3523 N   0  0  0  0  0  0  0  0  0  0  0  0
  150.2294  141.4119  156.3758 C   0  0  0  0  0  0  0  0  0  0  0  0
  150.1654  140.2343  156.7296 O   0  0  0  0  0  0  0  0  0  0  0  0
  151.0010  142.3287  156.9742 N   0  0  0  0  0  0  0  0  0  0  0  0
  151.8562  142.0950  158.0950 C   0  0  2  0  0  0  0  0  0  0  0  0
  151.5241  142.7461  159.4264 C   0  0  2  0  0  0  0  0  0  0  0  0
  150.4040  143.7552  159.6308 C   0  0  0  0  0  0  0  0  0  0  0  0
  150.9603  145.1161  160.0944 C   0  0  0  0  0  0  0  0  0  0  0  0
  152.1844  145.6155  159.2842 C   0  0  0  0  0  0  0  0  0  0  0  0
  152.6120  144.6755  158.1402 C   0  0  0  0  0  0  0  0  0  0  0  0
  152.7048  143.2371  158.6262 C   0  0  2  0  0  0  0  0  0  0  0  0
  147.5394  141.9289  153.8374 C   0  0  0  0  0  0  0  0  0  0  0  0
  146.8547  141.0669  153.1013 N   0  0  0  0  0  0  0  0  0  0  0  0
  143.1851  136.4330  152.0692 H   0  0  0  0  0  0  0  0  0  0  0  0
  143.1078  137.9626  152.9448 H   0  0  0  0  0  0  0  0  0  0  0  0
  143.7134  136.5035  153.7504 H   0  0  0  0  0  0  0  0  0  0  0  0
  145.0968  138.9673  153.6376 H   0  0  0  0  0  0  0  0  0  0  0  0
  146.0035  137.5480  154.1541 H   0  0  0  0  0  0  0  0  0  0  0  0
  147.7681  137.9408  152.5931 H   0  0  0  0  0  0  0  0  0  0  0  0
  146.7721  138.9474  151.5599 H   0  0  0  0  0  0  0  0  0  0  0  0
  149.1886  139.1298  154.3677 H   0  0  0  0  0  0  0  0  0  0  0  0
  149.6966  142.9296  155.1685 H   0  0  0  0  0  0  0  0  0  0  0  0
  150.9852  143.2700  156.6100 H   0  0  0  0  0  0  0  0  0  0  0  0
  152.3151  141.1092  158.1579 H   0  0  0  0  0  0  0  0  0  0  0  0
  151.7770  142.1831  160.3230 H   0  0  0  0  0  0  0  0  0  0  0  0
  149.8520  143.8934  158.7017 H   0  0  0  0  0  0  0  0  0  0  0  0
  149.6904  143.3620  160.3554 H   0  0  0  0  0  0  0  0  0  0  0  0
  150.1652  145.8615  160.0606 H   0  0  0  0  0  0  0  0  0  0  0  0
  151.2463  145.0383  161.1439 H   0  0  0  0  0  0  0  0  0  0  0  0
  151.9838  146.6094  158.8833 H   0  0  0  0  0  0  0  0  0  0  0  0
  153.0261  145.7375  159.9672 H   0  0  0  0  0  0  0  0  0  0  0  0
  151.8916  144.7505  157.3260 H   0  0  0  0  0  0  0  0  0  0  0  0
  153.5744  144.9809  157.7285 H   0  0  0  0  0  0  0  0  0  0  0  0
  153.6786  142.9747  159.0360 H   0  0  0  0  0  0  0  0  0  0  0  0
  147.2308  142.9635  153.8696 H   0  0  0  0  0  0  0  0  0  0  0  0
  1  2  1  0  0  0  0
  1 21  1  0  0  0  0
  1 22  1  0  0  0  0
  1 23  1  0  0  0  0
  2  3  1  0  0  0  0
  3  4  1  0  0  0  0
  3 24  1  0  0  0  0
  3 25  1  0  0  0  0
  4  5  1  0  0  0  0
  4 26  1  0  0  0  0
  4 27  1  0  0  0  0
  5 20  1  0  0  0  0
  5  6  1  0  0  0  0
  6  7  2  0  0  0  0
  6 28  1  0  0  0  0
  7  8  1  0  0  0  0
  7 19  1  0  0  0  0
  8  9  1  0  0  0  0
  8 29  1  0  0  0  0
  9 10  2  0  0  0  0
  9 11  1  0  0  0  0
 11 12  1  0  0  0  0
 11 30  1  0  0  0  0
 12 18  1  0  0  0  0
 12 13  1  0  0  0  0
 12 31  1  0  0  0  0
 13 18  1  0  0  0  0
 13 14  1  0  0  0  0
 13 32  1  0  0  0  0
 14 15  1  0  0  0  0
 14 33  1  0  0  0  0
 14 34  1  0  0  0  0
 15 16  1  0  0  0  0
 15 35  1  0  0  0  0
 15 36  1  0  0  0  0
 16 17  1  0  0  0  0
 16 37  1  0  0  0  0
 16 38  1  0  0  0  0
 17 18  1  0  0  0  0
 17 39  1  0  0  0  0
 17 40  1  0  0  0  0
 18 41  1  0  0  0  0
 19 20  2  0  0  0  0
 19 42  1  0  0  0  0
M  END
> <s_m_source_file>
AV-unprocessed.smi

> <i_m_source_file_index>
723

> <i_lp_mmshare_version>
43012

> <i_f3d_flags>
0

> <s_epik_input>
W0NIM11PW0NIMl1bQ0gyXW4xW2NIXWMoW2NIXW4xKVtOSF1DKD1PKVtOSF1bQ0BIXTJbQ0BASF0oW0NAQEhdMjMpW0NIMl1bQ0gyXVtDSDJdW0NIMl0z

> <s_epik_cmdline>
J2VwaWtfcHl0aG9uJywgJy1waCcsICc3LjAnLCAnLXRuJywgJzgnLCAnLW1hJywgJzIwMCcsICctbWV0YWxfYmluZGluZycsICctaW1hZScsICc8aW5maWxlLm1hZT4nLCAnLW9tYWUnLCAnPG91dGZpbGUubWFlPic=

> <r_lp_tautomer_probability>
1

> <r_epik_Ionization_Penalty>
0.00031755

> <r_epik_Ionization_Penalty_Charging>
0

> <r_epik_Ionization_Penalty_Neutral>
0.00031755

> <r_epik_State_Penalty>
-0

> <r_epik_Charging_Adjusted_Penalty>
0

> <i_epik_Tot_Q>
0

> <i_epik_Tot_abs_Q>
0

> <r_epik_Metal_State_Penalty>
-0

> <b_epik_Metal_Only>
0

> <s_lp_Force_Field>
OPLS_2005

> <r_lp_Energy>
44.2387

> <b_lp_Chiralities_Consistent>
1

> <s_lp_Variant>
AV-unprocessed.smi:723-2

> <Gold.Version>
5.8.1

> <Gold.Id.Protein>
6NUR|6NUR_protein|mol2

> <Gold.PLP.Fitness>
40.5261

> <Gold.PLP.PLP>
-39.0753

> <Gold.PLP.part.hbond>
-1.0000

> <Gold.PLP.part.metal>
0.0000

> <Gold.PLP.part.buried>
-4.5970

> <Gold.PLP.part.nonpolar>
-33.9708

> <Gold.PLP.part.repulsive>
0.6462

> <Gold.PLP.ligand.clash>
0.0000

> <Gold.PLP.ligand.torsion>
0.5573

> <Gold.PLP.Chemscore.Hbond>
0.8320

> <Gold.PLP.Chemscore.CHOScore>
0.0000

> <Gold.PLP.Chemscore.Metal>
0.0000

> <Gold.Chemscore.Hbonds>
donor molecule, donor type, donor heavy atom, donor atom, acceptor molecule, acceptor atom, score
      L1  H     8    29       P1  8028  0.80

> <Gold.PLP.Chemscore.Internal.Correction>
0.0693

> <Gold.Rescore>
     Score         DG    S(hbond)    S(metal)    S(lipo)     H(rot)  DE(clash)    DE(int)     intcor
     17.35     -18.08       0.93        0.00     115.22       1.56       0.08       0.64       ----

> <Gold.Chemscore.Fitness>
17.3517

> <Gold.Chemscore.DG>
-18.0791

> <Gold.Chemscore.ZeroCoef>
-5.4800

> <Gold.Chemscore.Hbond>
0.9337

> <Gold.Chemscore.Metal>
0.0000

> <Gold.Chemscore.Lipo>
115.2212

> <Gold.Chemscore.Internal_Hbond>
0.0000

> <Gold.Chemscore.DEClash>
0.0840

> <Gold.Chemscore.DEInternal>
0.6433

> <Gold.Chemscore.Rot>
1.5627

> <Gold.Chemscore.Internal.Correction>
   9.000000E+99

> <Gold.Chemscore.Hbonds>
donor molecule, donor type, donor heavy atom, donor atom, acceptor molecule, acceptor atom, score
      L1  H     8    29       P1  8028  0.75

> <Gold.Chemscore.Hbond.Weighted>
-3.1186

> <Gold.Chemscore.Metal.Weighted>
-0.0000

> <Gold.Chemscore.Lipo.Weighted>
-13.4809

> <Gold.Chemscore.Internal_Hbond.Weighted>
0.0000

> <Gold.Chemscore.DEClash.Weighted>
0.0840

> <Gold.Chemscore.DEInternal.Weighted>
0.6433

> <Gold.Chemscore.Rot.Weighted>
4.0005

> <Gold.Chemscore.Internal.Correction.Weighted>
   9.000000E+99

> <Gold.Protein.RotatedTorsions>
[ 6907 6896 6895 6894 ] final  -18.98 input  -60.11 | X-H torsion
[ 7974 7965 7964 7962 ] final -117.08 input  175.53 | X-H torsion
[ 8008 7997 7996 7995 ] final  -29.66 input   59.86 | X-H torsion
[ 10167 10162 10161 10158 ] final -111.86 input  -65.29 | X-H torsion
[ 10718 10713 10712 10709 ] final  101.52 input   66.30 | X-H torsion
[ 10763 10752 10751 10750 ] final -126.79 input  -60.55 | X-H torsion
[ 11005 11000 10999 10996 ] final -135.98 input  -57.11 | X-H torsion

> <Gold.Protein.ActiveResidues>
 VAL166  LYS551  ARG553  GLY616  TRP617  ASP618  TYR619  PRO620  LYS621  CYS622 
 ASP623  PHE694  ASN695  SER759  ASP760  ASP761  ALA762  ILE779  LEU786  VAL792 
 PHE793  MET794  SER795  GLU796  ALA797  LYS798  CYS799  TRP800  GLU811  SER814 

> <Gold.Protein.RotatedAtoms>
  151.2700  135.0681  159.9130 H   0  0  0  0  0  0  0  0  0  0  0  0  # atno 6907 bound_to 6896
  152.5352  134.0141  159.7962 H   0  0  0  0  0  0  0  0  0  0  0  0  # atno 6908 bound_to 6896
  151.0377  133.5683  159.2685 H   0  0  0  0  0  0  0  0  0  0  0  0  # atno 6909 bound_to 6896
  145.0894  140.8479  143.3992 H   0  0  0  0  0  0  0  0  0  0  0  0  # atno 7974 bound_to 7965
  154.4281  140.1812  156.1284 H   0  0  0  0  0  0  0  0  0  0  0  0  # atno 8008 bound_to 7997
  156.0087  140.3353  155.6894 H   0  0  0  0  0  0  0  0  0  0  0  0  # atno 8009 bound_to 7997
  155.6141  140.0653  157.2688 H   0  0  0  0  0  0  0  0  0  0  0  0  # atno 8010 bound_to 7997
  140.1290  143.4377  152.1640 H   0  0  0  0  0  0  0  0  0  0  0  0  # atno 10167 bound_to 10162
  157.6827  131.0728  150.5264 H   0  0  0  0  0  0  0  0  0  0  0  0  # atno 10718 bound_to 10713
  154.8748  135.3984  154.3488 H   0  0  0  0  0  0  0  0  0  0  0  0  # atno 10763 bound_to 10752
  153.4276  135.7024  153.6257 H   0  0  0  0  0  0  0  0  0  0  0  0  # atno 10764 bound_to 10752
  153.4892  135.3752  155.2453 H   0  0  0  0  0  0  0  0  0  0  0  0  # atno 10765 bound_to 10752
  140.8848  134.1887  157.4567 H   0  0  0  0  0  0  0  0  0  0  0  0  # atno 11005 bound_to 11000
  145.1084  139.2774  143.5650 LP  0  0  0  0  0  0  0  0  0  0  0  0  # atno 17320 bound_to 7965
  146.3531  140.0673  142.8625 LP  0  0  0  0  0  0  0  0  0  0  0  0  # atno 17321 bound_to 7965
  139.5529  144.7351  151.4380 LP  0  0  0  0  0  0  0  0  0  0  0  0  # atno 17342 bound_to 10162
  140.6828  143.8043  150.7145 LP  0  0  0  0  0  0  0  0  0  0  0  0  # atno 17343 bound_to 10162
  156.5575  130.4247  149.6078 LP  0  0  0  0  0  0  0  0  0  0  0  0  # atno 17370 bound_to 10713
  156.2849  130.7092  151.1925 LP  0  0  0  0  0  0  0  0  0  0  0  0  # atno 17371 bound_to 10713
  139.8723  134.9833  156.5191 LP  0  0  0  0  0  0  0  0  0  0  0  0  # atno 17394 bound_to 11000
  140.8418  133.8199  155.9083 LP  0  0  0  0  0  0  0  0  0  0  0  0  # atno 17395 bound_to 11000

$$$$
