AV-unprocessed.smi:2902|AV-procd|sdf|11156|dock2
  -GOLD-   2272016 43D 1   1.00000     0.00000
 Structure written by MMmdl.
 47 48  0  0  0  0  0  0  0  0  1 V2000
  147.2865  141.3583  157.3318 C   0  0  0  0  0  0  0  0  0  0  0  0
  148.7723  141.2821  157.7039 C   0  0  0  0  0  0  0  0  0  0  0  0
  149.6949  141.7947  156.5822 C   0  0  1  0  0  0  0  0  0  0  0  0
  151.0288  141.8254  157.0879 O   0  0  0  0  0  0  0  0  0  0  0  0
  151.2840  142.7415  158.1493 C   0  0  0  0  0  0  0  0  0  0  0  0
  151.4575  144.1845  157.6653 C   0  0  0  0  0  0  0  0  0  0  0  0
  152.3319  144.8612  158.7277 C   0  0  0  0  0  0  0  0  0  0  0  0
  153.0466  143.7305  159.4844 C   0  0  0  0  0  0  0  0  0  0  0  0
  152.6354  142.4293  158.7894 C   0  0  0  0  0  0  0  0  0  0  0  0
  149.6091  140.8945  155.3405 C   0  0  0  0  0  0  0  0  0  0  0  0
  149.1815  141.3438  154.2772 O   0  0  0  0  0  0  0  0  0  0  0  0
  150.0250  139.6272  155.4967 N   0  0  0  0  0  0  0  0  0  0  0  0
  150.0871  138.6072  154.4486 C   0  0  2  0  0  0  0  0  0  0  0  0
  148.7722  137.8107  154.4872 C   0  0  0  0  0  0  0  0  0  0  0  0
  151.3471  137.7176  154.6369 C   0  0  1  0  0  0  0  0  0  0  0  0
  152.6530  138.5299  154.7388 C   0  0  0  0  0  0  0  0  0  0  0  0
  151.2107  136.8401  155.7945 N   0  0  0  0  0  0  0  0  0  0  0  0
  151.9329  136.7757  156.9151 C   0  0  0  0  0  0  0  0  0  0  0  0
  151.5591  135.8091  157.7415 N   0  0  0  0  0  0  0  0  0  0  0  0
  150.5305  135.2761  157.0175 C   0  0  0  0  0  0  0  0  0  0  0  0
  150.2814  135.8543  155.8427 N   0  0  0  0  0  0  0  0  0  0  0  0
  146.6640  140.9814  158.1435 H   0  0  0  0  0  0  0  0  0  0  0  0
  147.0717  140.7632  156.4440 H   0  0  0  0  0  0  0  0  0  0  0  0
  146.9820  142.3854  157.1296 H   0  0  0  0  0  0  0  0  0  0  0  0
  148.9432  141.8525  158.6182 H   0  0  0  0  0  0  0  0  0  0  0  0
  149.0191  140.2453  157.9394 H   0  0  0  0  0  0  0  0  0  0  0  0
  149.3823  142.8069  156.3177 H   0  0  0  0  0  0  0  0  0  0  0  0
  150.5150  142.6934  158.9230 H   0  0  0  0  0  0  0  0  0  0  0  0
  151.9826  144.1877  156.7090 H   0  0  0  0  0  0  0  0  0  0  0  0
  150.5095  144.7023  157.5202 H   0  0  0  0  0  0  0  0  0  0  0  0
  153.0401  145.5527  158.2697 H   0  0  0  0  0  0  0  0  0  0  0  0
  151.7141  145.4368  159.4182 H   0  0  0  0  0  0  0  0  0  0  0  0
  154.1294  143.8586  159.4885 H   0  0  0  0  0  0  0  0  0  0  0  0
  152.7149  143.7172  160.5235 H   0  0  0  0  0  0  0  0  0  0  0  0
  152.5897  141.5815  159.4736 H   0  0  0  0  0  0  0  0  0  0  0  0
  153.3632  142.1884  158.0130 H   0  0  0  0  0  0  0  0  0  0  0  0
  150.3482  139.3521  156.4127 H   0  0  0  0  0  0  0  0  0  0  0  0
  150.1440  139.0861  153.4694 H   0  0  0  0  0  0  0  0  0  0  0  0
  148.7020  137.1082  153.6573 H   0  0  0  0  0  0  0  0  0  0  0  0
  147.9107  138.4754  154.4128 H   0  0  0  0  0  0  0  0  0  0  0  0
  148.6758  137.2461  155.4151 H   0  0  0  0  0  0  0  0  0  0  0  0
  151.4376  137.0702  153.7633 H   0  0  0  0  0  0  0  0  0  0  0  0
  152.8738  139.0534  153.8091 H   0  0  0  0  0  0  0  0  0  0  0  0
  153.5025  137.8783  154.9457 H   0  0  0  0  0  0  0  0  0  0  0  0
  152.6021  139.2725  155.5357 H   0  0  0  0  0  0  0  0  0  0  0  0
  152.7576  137.4410  157.1246 H   0  0  0  0  0  0  0  0  0  0  0  0
  149.9491  134.4352  157.3660 H   0  0  0  0  0  0  0  0  0  0  0  0
  1  2  1  0  0  0  0
  1 22  1  0  0  0  0
  1 23  1  0  0  0  0
  1 24  1  0  0  0  0
  2  3  1  0  0  0  0
  2 25  1  0  0  0  0
  2 26  1  0  0  0  0
  3  4  1  0  0  0  0
  3 10  1  0  0  0  0
  3 27  1  0  0  0  0
  4  5  1  0  0  0  0
  5  9  1  0  0  0  0
  5  6  1  0  0  0  0
  5 28  1  0  0  0  0
  6  7  1  0  0  0  0
  6 29  1  0  0  0  0
  6 30  1  0  0  0  0
  7  8  1  0  0  0  0
  7 31  1  0  0  0  0
  7 32  1  0  0  0  0
  8  9  1  0  0  0  0
  8 33  1  0  0  0  0
  8 34  1  0  0  0  0
  9 35  1  0  0  0  0
  9 36  1  0  0  0  0
 10 11  2  0  0  0  0
 10 12  1  0  0  0  0
 12 13  1  0  0  0  0
 12 37  1  0  0  0  0
 13 14  1  0  0  0  0
 13 15  1  0  0  0  0
 13 38  1  0  0  0  0
 14 39  1  0  0  0  0
 14 40  1  0  0  0  0
 14 41  1  0  0  0  0
 15 16  1  0  0  0  0
 15 17  1  0  0  0  0
 15 42  1  0  0  0  0
 16 43  1  0  0  0  0
 16 44  1  0  0  0  0
 16 45  1  0  0  0  0
 17 21  1  0  0  0  0
 17 18  1  0  0  0  0
 18 19  2  0  0  0  0
 18 46  1  0  0  0  0
 19 20  1  0  0  0  0
 20 21  2  0  0  0  0
 20 47  1  0  0  0  0
M  END
> <s_m_source_file>
AV-unprocessed.smi

> <i_m_source_file_index>
2902

> <i_lp_mmshare_version>
43012

> <i_f3d_flags>
0

> <s_epik_input>
W0NIMl0xW0NIMl1bQ0gyXVtDSDJdW0NIXTFPW0NAQEhdKFtDSDJdW0NIM10pQyg9TylbTkhdW0NASF0oW0NIM10pW0NASF0oW0NIM10pbjJbY0hdbltjSF1uMg==

> <s_epik_cmdline>
J2VwaWtfcHl0aG9uJywgJy1waCcsICc3LjAnLCAnLXRuJywgJzgnLCAnLW1hJywgJzIwMCcsICctbWV0YWxfYmluZGluZycsICctaW1hZScsICc8aW5maWxlLm1hZT4nLCAnLW9tYWUnLCAnPG91dGZpbGUubWFlPic=

> <r_lp_tautomer_probability>
1

> <r_epik_Ionization_Penalty>
6.95617e-05

> <r_epik_Ionization_Penalty_Charging>
0

> <r_epik_Ionization_Penalty_Neutral>
6.95617e-05

> <r_epik_State_Penalty>
-0

> <r_epik_Charging_Adjusted_Penalty>
0

> <i_epik_Tot_Q>
0

> <i_epik_Tot_abs_Q>
0

> <r_epik_Metal_State_Penalty>
-0

> <b_epik_Metal_Only>
0

> <s_lp_Force_Field>
OPLS_2005

> <r_lp_Energy>
29.6491

> <b_lp_Chiralities_Consistent>
1

> <s_lp_Variant>
AV-unprocessed.smi:2902-6

> <Gold.Version>
5.8.1

> <Gold.Id.Protein>
6NUR|6NUR_protein|mol2

> <Gold.PLP.Fitness>
40.8629

> <Gold.PLP.PLP>
-39.6658

> <Gold.PLP.part.hbond>
-3.0000

> <Gold.PLP.part.metal>
0.0000

> <Gold.PLP.part.buried>
-1.8267

> <Gold.PLP.part.nonpolar>
-35.3158

> <Gold.PLP.part.repulsive>
0.4192

> <Gold.PLP.ligand.clash>
0.0000

> <Gold.PLP.ligand.torsion>
0.7226

> <Gold.PLP.Chemscore.Hbond>
0.8013

> <Gold.PLP.Chemscore.CHOScore>
0.0000

> <Gold.PLP.Chemscore.Metal>
0.0000

> <Gold.Chemscore.Hbonds>
donor molecule, donor type, donor heavy atom, donor atom, acceptor molecule, acceptor atom, score
      P1  H  6896  6908       L1    19  0.06
      P1  H  8011  8017       L1    11  0.22

> <Gold.PLP.Chemscore.Internal.Correction>
0.2383

> <Gold.Rescore>
     Score         DG    S(hbond)    S(metal)    S(lipo)     H(rot)  DE(clash)    DE(int)     intcor
     12.40     -15.39       1.56        0.00      99.12       2.69       1.25       1.74       ----

> <Gold.Chemscore.Fitness>
12.3986

> <Gold.Chemscore.DG>
-15.3916

> <Gold.Chemscore.ZeroCoef>
-5.4800

> <Gold.Chemscore.Hbond>
1.5600

> <Gold.Chemscore.Metal>
0.0000

> <Gold.Chemscore.Lipo>
99.1154

> <Gold.Chemscore.Internal_Hbond>
0.0000

> <Gold.Chemscore.DEClash>
1.2509

> <Gold.Chemscore.DEInternal>
1.7420

> <Gold.Chemscore.Rot>
2.6935

> <Gold.Chemscore.Internal.Correction>
   9.000000E+99

> <Gold.Chemscore.Hbonds>
donor molecule, donor type, donor heavy atom, donor atom, acceptor molecule, acceptor atom, score
      P1  H  6896  6908       L1    19  0.01
      P1  H  8011  8017       L1    11  0.22

> <Gold.Chemscore.Hbond.Weighted>
-5.2104

> <Gold.Chemscore.Metal.Weighted>
-0.0000

> <Gold.Chemscore.Lipo.Weighted>
-11.5965

> <Gold.Chemscore.Internal_Hbond.Weighted>
0.0000

> <Gold.Chemscore.DEClash.Weighted>
1.2509

> <Gold.Chemscore.DEInternal.Weighted>
1.7420

> <Gold.Chemscore.Rot.Weighted>
6.8954

> <Gold.Chemscore.Internal.Correction.Weighted>
   9.000000E+99

> <Gold.Protein.RotatedTorsions>
[ 6907 6896 6895 6894 ] final -170.07 input  -60.11 | X-H torsion
[ 7974 7965 7964 7962 ] final    8.22 input  175.53 | X-H torsion
[ 8008 7997 7996 7995 ] final   66.39 input   59.86 | X-H torsion
[ 10167 10162 10161 10158 ] final -146.50 input  -65.29 | X-H torsion
[ 10718 10713 10712 10709 ] final  -80.25 input   66.30 | X-H torsion
[ 10763 10752 10751 10750 ] final   11.94 input  -60.55 | X-H torsion
[ 11005 11000 10999 10996 ] final   56.53 input  -57.11 | X-H torsion

> <Gold.Protein.ActiveResidues>
 VAL166  LYS551  ARG553  GLY616  TRP617  ASP618  TYR619  PRO620  LYS621  CYS622 
 ASP623  PHE694  ASN695  SER759  ASP760  ASP761  ALA762  ILE779  LEU786  VAL792 
 PHE793  MET794  SER795  GLU796  ALA797  LYS798  CYS799  TRP800  GLU811  SER814 

> <Gold.Protein.RotatedAtoms>
  151.5018  133.3503  159.2870 H   0  0  0  0  0  0  0  0  0  0  0  0  # atno 6907 bound_to 6896
  150.8768  134.8154  159.7206 H   0  0  0  0  0  0  0  0  0  0  0  0  # atno 6908 bound_to 6896
  152.4736  134.4910  159.9747 H   0  0  0  0  0  0  0  0  0  0  0  0  # atno 6909 bound_to 6896
  146.2418  139.9965  142.8420 H   0  0  0  0  0  0  0  0  0  0  0  0  # atno 7974 bound_to 7965
  155.6765  140.3497  155.4839 H   0  0  0  0  0  0  0  0  0  0  0  0  # atno 8008 bound_to 7997
  155.9643  140.1143  157.0891 H   0  0  0  0  0  0  0  0  0  0  0  0  # atno 8009 bound_to 7997
  154.4150  140.1169  156.5207 H   0  0  0  0  0  0  0  0  0  0  0  0  # atno 8010 bound_to 7997
  139.7708  143.8241  152.2624 H   0  0  0  0  0  0  0  0  0  0  0  0  # atno 10167 bound_to 10162
  156.0074  130.4569  150.3771 H   0  0  0  0  0  0  0  0  0  0  0  0  # atno 10718 bound_to 10713
  153.1874  135.6837  153.8398 H   0  0  0  0  0  0  0  0  0  0  0  0  # atno 10763 bound_to 10752
  153.7709  135.3196  155.3353 H   0  0  0  0  0  0  0  0  0  0  0  0  # atno 10764 bound_to 10752
  154.8096  135.4726  154.0580 H   0  0  0  0  0  0  0  0  0  0  0  0  # atno 10765 bound_to 10752
  140.0522  134.5721  155.9250 H   0  0  0  0  0  0  0  0  0  0  0  0  # atno 11005 bound_to 11000
  145.1454  140.9594  143.4464 LP  0  0  0  0  0  0  0  0  0  0  0  0  # atno 17320 bound_to 7965
  145.0255  139.3386  143.6051 LP  0  0  0  0  0  0  0  0  0  0  0  0  # atno 17321 bound_to 7965
  139.8274  144.7269  150.9494 LP  0  0  0  0  0  0  0  0  0  0  0  0  # atno 17342 bound_to 10162
  140.7814  143.4101  151.1006 LP  0  0  0  0  0  0  0  0  0  0  0  0  # atno 17343 bound_to 10162
  157.1853  131.0402  151.2728 LP  0  0  0  0  0  0  0  0  0  0  0  0  # atno 17370 bound_to 10713
  157.4110  130.7385  149.6839 LP  0  0  0  0  0  0  0  0  0  0  0  0  # atno 17371 bound_to 10713
  141.1935  133.6579  156.5553 LP  0  0  0  0  0  0  0  0  0  0  0  0  # atno 17394 bound_to 11000
  140.3900  134.7449  157.4715 LP  0  0  0  0  0  0  0  0  0  0  0  0  # atno 17395 bound_to 11000

$$$$
