AV-unprocessed.smi:653|AV-procd|sdf|3204|dock3
  -GOLD-   22720 0143D 1   1.00000     0.00000
 Structure written by MMmdl.
 44 45  0  0  0  0  0  0  0  0  1 V2000
  144.6901  131.4765  151.0687 C   0  0  0  0  0  0  0  0  0  0  0  0
  144.9479  132.9619  151.2114 C   0  0  0  0  0  0  0  0  0  0  0  0
  144.0348  133.9063  150.6971 C   0  0  0  0  0  0  0  0  0  0  0  0
  144.3275  135.2749  150.8520 C   0  0  0  0  0  0  0  0  0  0  0  0
  145.5177  135.6458  151.5116 C   0  0  0  0  0  0  0  0  0  0  0  0
  145.8827  137.1092  151.7010 C   0  0  0  0  0  0  0  0  0  0  0  0
  146.1605  137.4562  153.1686 C   0  0  0  0  0  0  0  0  0  0  0  0
  145.3525  138.1044  153.8356 O   0  0  0  0  0  0  0  0  0  0  0  0
  147.3258  137.0103  153.6612 N   0  0  0  0  0  0  0  0  0  0  0  0
  147.8046  137.2436  155.0194 C   0  0  0  0  0  0  0  0  0  0  0  0
  148.5363  138.5945  155.1453 C   0  0  2  0  0  0  0  0  0  0  0  0
  147.8300  139.7527  154.4672 C   0  0  0  0  0  0  0  0  0  0  0  0
  148.9580  140.7693  154.3359 C   0  0  0  0  0  0  0  0  0  0  0  0
  150.1389  140.0034  154.1223 O   0  0  0  0  0  0  0  0  0  0  0  0
  149.9051  138.6342  154.4487 C   0  0  1  0  0  0  0  0  0  0  0  0
  151.0907  138.0389  155.2433 C   0  0  0  0  0  0  0  0  0  0  0  0
  152.4616  138.3096  154.5964 C   0  0  0  0  0  0  0  0  0  0  0  0
  150.8922  136.5327  155.4740 C   0  0  0  0  0  0  0  0  0  0  0  0
  146.3625  134.6216  151.9898 C   0  0  0  0  0  0  0  0  0  0  0  0
  146.0905  133.3070  151.8448 N   0  0  0  0  0  0  0  0  0  0  0  0
  143.6463  131.2811  150.8212 H   0  0  0  0  0  0  0  0  0  0  0  0
  144.9209  130.9545  151.9981 H   0  0  0  0  0  0  0  0  0  0  0  0
  145.3134  131.0612  150.2768 H   0  0  0  0  0  0  0  0  0  0  0  0
  143.1312  133.5926  150.1953 H   0  0  0  0  0  0  0  0  0  0  0  0
  143.6496  136.0251  150.4723 H   0  0  0  0  0  0  0  0  0  0  0  0
  146.7642  137.3488  151.1053 H   0  0  0  0  0  0  0  0  0  0  0  0
  145.0686  137.7317  151.3267 H   0  0  0  0  0  0  0  0  0  0  0  0
  147.9297  136.4815  153.0485 H   0  0  0  0  0  0  0  0  0  0  0  0
  146.9689  137.1972  155.7196 H   0  0  0  0  0  0  0  0  0  0  0  0
  148.4738  136.4255  155.2876 H   0  0  0  0  0  0  0  0  0  0  0  0
  148.6493  138.8471  156.1991 H   0  0  0  0  0  0  0  0  0  0  0  0
  147.4736  139.4599  153.4784 H   0  0  0  0  0  0  0  0  0  0  0  0
  146.9831  140.1336  155.0387 H   0  0  0  0  0  0  0  0  0  0  0  0
  148.7896  141.4804  153.5270 H   0  0  0  0  0  0  0  0  0  0  0  0
  149.0726  141.3305  155.2642 H   0  0  0  0  0  0  0  0  0  0  0  0
  149.8132  138.1048  153.4985 H   0  0  0  0  0  0  0  0  0  0  0  0
  151.0966  138.5090  156.2271 H   0  0  0  0  0  0  0  0  0  0  0  0
  152.5161  137.8973  153.5885 H   0  0  0  0  0  0  0  0  0  0  0  0
  153.2625  137.8547  155.1799 H   0  0  0  0  0  0  0  0  0  0  0  0
  152.6825  139.3743  154.5343 H   0  0  0  0  0  0  0  0  0  0  0  0
  150.8727  135.9861  154.5307 H   0  0  0  0  0  0  0  0  0  0  0  0
  149.9547  136.3332  155.9934 H   0  0  0  0  0  0  0  0  0  0  0  0
  151.6969  136.1178  156.0814 H   0  0  0  0  0  0  0  0  0  0  0  0
  147.2824  134.8625  152.5021 H   0  0  0  0  0  0  0  0  0  0  0  0
  1  2  1  0  0  0  0
  1 21  1  0  0  0  0
  1 22  1  0  0  0  0
  1 23  1  0  0  0  0
  2 20  1  0  0  0  0
  2  3  2  0  0  0  0
  3  4  1  0  0  0  0
  3 24  1  0  0  0  0
  4  5  2  0  0  0  0
  4 25  1  0  0  0  0
  5  6  1  0  0  0  0
  5 19  1  0  0  0  0
  6  7  1  0  0  0  0
  6 26  1  0  0  0  0
  6 27  1  0  0  0  0
  7  8  2  0  0  0  0
  7  9  1  0  0  0  0
  9 10  1  0  0  0  0
  9 28  1  0  0  0  0
 10 11  1  0  0  0  0
 10 29  1  0  0  0  0
 10 30  1  0  0  0  0
 11 15  1  0  0  0  0
 11 12  1  0  0  0  0
 11 31  1  0  0  0  0
 12 13  1  0  0  0  0
 12 32  1  0  0  0  0
 12 33  1  0  0  0  0
 13 14  1  0  0  0  0
 13 34  1  0  0  0  0
 13 35  1  0  0  0  0
 14 15  1  0  0  0  0
 15 16  1  0  0  0  0
 15 36  1  0  0  0  0
 16 17  1  0  0  0  0
 16 18  1  0  0  0  0
 16 37  1  0  0  0  0
 17 38  1  0  0  0  0
 17 39  1  0  0  0  0
 17 40  1  0  0  0  0
 18 41  1  0  0  0  0
 18 42  1  0  0  0  0
 18 43  1  0  0  0  0
 19 20  2  0  0  0  0
 19 44  1  0  0  0  0
M  END
> <s_m_source_file>
AV-unprocessed.smi

> <i_m_source_file_index>
653

> <i_lp_mmshare_version>
43012

> <i_f3d_flags>
0

> <s_epik_input>
W0NIM11jMVtjSF1bY0hdYyhbY0hdbjEpW0NIMl1DKD1PKVtOSF1bQ0gyXVtDQEBIXTJbQ0gyXVtDSDJdT1tDQEhdMltDSF0oW0NIM10pW0NIM10=

> <s_epik_cmdline>
J2VwaWtfcHl0aG9uJywgJy1waCcsICc3LjAnLCAnLXRuJywgJzgnLCAnLW1hJywgJzIwMCcsICctbWV0YWxfYmluZGluZycsICctaW1hZScsICc8aW5maWxlLm1hZT4nLCAnLW9tYWUnLCAnPG91dGZpbGUubWFlPic=

> <r_epik_Ionization_Penalty>
0.0166429

> <r_epik_Ionization_Penalty_Charging>
0

> <r_epik_Ionization_Penalty_Neutral>
0.0166429

> <r_epik_State_Penalty>
0.0131478

> <r_epik_Charging_Adjusted_Penalty>
0.0131478

> <i_epik_Tot_Q>
0

> <i_epik_Tot_abs_Q>
0

> <r_epik_Metal_State_Penalty>
0.012786

> <b_epik_Metal_Only>
0

> <s_lp_Force_Field>
OPLS_2005

> <r_lp_Energy>
19.6488

> <b_lp_Chiralities_Consistent>
1

> <s_lp_Variant>
AV-unprocessed.smi:653-1

> <Gold.Version>
5.8.1

> <Gold.Id.Protein>
6NUR|6NUR_protein|mol2

> <Gold.PLP.Fitness>
40.3123

> <Gold.PLP.PLP>
-32.4069

> <Gold.PLP.part.hbond>
-1.9128

> <Gold.PLP.part.metal>
0.0000

> <Gold.PLP.part.buried>
-3.7064

> <Gold.PLP.part.nonpolar>
-28.3170

> <Gold.PLP.part.repulsive>
1.3001

> <Gold.PLP.ligand.clash>
0.0000

> <Gold.PLP.ligand.torsion>
0.5242

> <Gold.PLP.Chemscore.Hbond>
1.9760

> <Gold.PLP.Chemscore.CHOScore>
0.9975

> <Gold.PLP.Chemscore.Metal>
0.0000

> <Gold.Chemscore.Hbonds>
donor molecule, donor type, donor heavy atom, donor atom, acceptor molecule, acceptor atom, score
      L1  H     9    28       P1  7948  1.00
      P1  H  7989  7998       L1    14  1.00
      L1  C    19    44       P1  7948  0.97

> <Gold.PLP.Chemscore.Internal.Correction>
0.0332

> <Gold.Rescore>
     Score         DG    S(hbond)    S(metal)    S(lipo)     H(rot)  DE(clash)    DE(int)     intcor
     16.77     -18.26       1.90        0.00      87.40       1.48       0.91       0.58       ----

> <Gold.Chemscore.Fitness>
16.7737

> <Gold.Chemscore.DG>
-18.2604

> <Gold.Chemscore.ZeroCoef>
-5.4800

> <Gold.Chemscore.Hbond>
1.9030

> <Gold.Chemscore.Metal>
0.0000

> <Gold.Chemscore.Lipo>
87.4005

> <Gold.Chemscore.Internal_Hbond>
0.0000

> <Gold.Chemscore.DEClash>
0.9064

> <Gold.Chemscore.DEInternal>
0.5802

> <Gold.Chemscore.Rot>
1.4850

> <Gold.Chemscore.Internal.Correction>
   9.000000E+99

> <Gold.Chemscore.Hbonds>
donor molecule, donor type, donor heavy atom, donor atom, acceptor molecule, acceptor atom, score
      L1  H     9    28       P1  7948  0.97
      P1  H  7989  7998       L1    14  0.90

> <Gold.Chemscore.Hbond.Weighted>
-6.3561

> <Gold.Chemscore.Metal.Weighted>
-0.0000

> <Gold.Chemscore.Lipo.Weighted>
-10.2259

> <Gold.Chemscore.Internal_Hbond.Weighted>
0.0000

> <Gold.Chemscore.DEClash.Weighted>
0.9064

> <Gold.Chemscore.DEInternal.Weighted>
0.5802

> <Gold.Chemscore.Rot.Weighted>
3.8015

> <Gold.Chemscore.Internal.Correction.Weighted>
   9.000000E+99

> <Gold.Protein.RotatedTorsions>
[ 6907 6896 6895 6894 ] final  124.59 input  -60.11 | X-H torsion
[ 7974 7965 7964 7962 ] final   -1.91 input  175.53 | X-H torsion
[ 8008 7997 7996 7995 ] final -138.16 input   59.86 | X-H torsion
[ 10167 10162 10161 10158 ] final -133.22 input  -65.29 | X-H torsion
[ 10718 10713 10712 10709 ] final -179.73 input   66.30 | X-H torsion
[ 10763 10752 10751 10750 ] final -140.43 input  -60.55 | X-H torsion
[ 11005 11000 10999 10996 ] final    9.94 input  -57.11 | X-H torsion

> <Gold.Protein.ActiveResidues>
 VAL166  LYS551  ARG553  GLY616  TRP617  ASP618  TYR619  PRO620  LYS621  CYS622 
 ASP623  PHE694  ASN695  SER759  ASP760  ASP761  ALA762  ILE779  LEU786  VAL792 
 PHE793  MET794  SER795  GLU796  ALA797  LYS798  CYS799  TRP800  GLU811  SER814 

> <Gold.Protein.RotatedAtoms>
  152.4065  133.6897  159.6360 H   0  0  0  0  0  0  0  0  0  0  0  0  # atno 6907 bound_to 6896
  150.7949  133.8700  159.3264 H   0  0  0  0  0  0  0  0  0  0  0  0  # atno 6908 bound_to 6896
  151.6453  135.1010  160.0201 H   0  0  0  0  0  0  0  0  0  0  0  0  # atno 6909 bound_to 6896
  146.2411  140.1492  142.8334 H   0  0  0  0  0  0  0  0  0  0  0  0  # atno 7974 bound_to 7965
  155.4238  140.0520  157.3024 H   0  0  0  0  0  0  0  0  0  0  0  0  # atno 8008 bound_to 7997
  154.4891  140.2112  155.9548 H   0  0  0  0  0  0  0  0  0  0  0  0  # atno 8009 bound_to 7997
  156.1316  140.3170  155.8363 H   0  0  0  0  0  0  0  0  0  0  0  0  # atno 8010 bound_to 7997
  139.9005  143.6613  152.2596 H   0  0  0  0  0  0  0  0  0  0  0  0  # atno 10167 bound_to 10162
  156.8634  130.9759  151.3081 H   0  0  0  0  0  0  0  0  0  0  0  0  # atno 10718 bound_to 10713
  154.8579  135.3553  154.5705 H   0  0  0  0  0  0  0  0  0  0  0  0  # atno 10763 bound_to 10752
  153.6318  135.7002  153.5277 H   0  0  0  0  0  0  0  0  0  0  0  0  # atno 10764 bound_to 10752
  153.3043  135.4197  155.1239 H   0  0  0  0  0  0  0  0  0  0  0  0  # atno 10765 bound_to 10752
  140.5200  134.0568  155.7842 H   0  0  0  0  0  0  0  0  0  0  0  0  # atno 11005 bound_to 11000
  145.0182  140.8771  143.5183 LP  0  0  0  0  0  0  0  0  0  0  0  0  # atno 17320 bound_to 7965
  145.1536  139.2499  143.5428 LP  0  0  0  0  0  0  0  0  0  0  0  0  # atno 17321 bound_to 7965
  139.7030  144.7632  151.1241 LP  0  0  0  0  0  0  0  0  0  0  0  0  # atno 17342 bound_to 10162
  140.7708  143.5433  150.9288 LP  0  0  0  0  0  0  0  0  0  0  0  0  # atno 17343 bound_to 10162
  157.6237  130.8675  149.9152 LP  0  0  0  0  0  0  0  0  0  0  0  0  # atno 17370 bound_to 10713
  156.0764  130.3678  150.0668 LP  0  0  0  0  0  0  0  0  0  0  0  0  # atno 17371 bound_to 10713
  141.1339  133.9255  157.2476 LP  0  0  0  0  0  0  0  0  0  0  0  0  # atno 17394 bound_to 11000
  139.9611  135.0154  156.9262 LP  0  0  0  0  0  0  0  0  0  0  0  0  # atno 17395 bound_to 11000

$$$$
