AV-unprocessed.smi:1|AV-procd|sdf|4|dock2
  -GOLD-   2262015 83D 1   1.00000     0.00000
 Structure written by MMmdl.
 57 62  0  0  0  0  0  0  0  0  1 V2000
  154.8806  140.0272  159.3437 O   0  0  0  0  0  0  0  0  0  0  0  0
  154.2579  140.1896  160.3936 C   0  0  0  0  0  0  0  0  0  0  0  0
  154.2514  139.1938  161.4508 N   0  0  0  0  0  0  0  0  0  0  0  0
  154.8358  137.9728  161.4550 C   0  0  0  0  0  0  0  0  0  0  0  0
  155.6378  137.5436  160.4453 N   0  0  0  0  0  0  0  0  0  0  0  0
  156.1983  136.3321  160.5008 C   0  0  0  0  0  0  0  0  0  0  0  0
  156.0932  135.4083  161.4579 N   0  0  0  0  0  0  0  0  0  0  0  0
  155.2868  135.8283  162.4748 C   0  0  0  0  0  0  0  0  0  0  0  0
  154.6255  137.0868  162.5436 C   0  0  0  0  0  0  0  0  0  0  0  0
  153.8896  137.1679  163.7179 N   0  0  0  0  0  0  0  0  0  0  0  0
  154.1073  136.0228  164.3064 C   0  0  0  0  0  0  0  0  0  0  0  0
  154.9449  135.1603  163.6341 N   0  0  0  0  0  0  0  0  0  0  0  0
  155.3679  133.7924  164.0639 C   0  0  1  0  0  0  0  0  0  0  0  0
  156.7327  133.8037  164.3616 O   0  0  0  0  0  0  0  0  0  0  0  0
  156.9525  133.4835  165.7331 C   0  0  2  0  0  0  0  0  0  0  0  0
  158.2825  132.7442  165.9188 C   0  0  0  0  0  0  0  0  0  0  0  0
  158.1612  131.8402  167.0043 O   0  0  0  0  0  0  0  0  0  0  0  0
  158.3810  132.2644  168.2632 C   0  0  0  0  0  0  0  0  0  0  0  0
  158.6617  133.4299  168.5513 O   0  0  0  0  0  0  0  0  0  0  0  0
  158.2512  131.1747  169.2732 C   0  0  0  0  0  0  0  0  0  0  0  0
  158.2815  131.4989  170.6498 C   0  0  0  0  0  0  0  0  0  0  0  0
  158.1625  130.4914  171.6269 C   0  0  0  0  0  0  0  0  0  0  0  0
  158.0117  129.1474  171.2392 C   0  0  0  0  0  0  0  0  0  0  0  0
  157.9799  128.8117  169.8731 C   0  0  0  0  0  0  0  0  0  0  0  0
  158.0985  129.8177  168.8943 C   0  0  0  0  0  0  0  0  0  0  0  0
  155.7194  132.6756  166.1336 C   0  0  2  0  0  0  0  0  0  0  0  0
  155.8336  131.3213  165.7273 O   0  0  0  0  0  0  0  0  0  0  0  0
  154.3736  130.8431  165.0716 S   0  0  0  0  0  0  0  0  0  0  0  0
  154.6190  130.3687  163.7012 O   0  0  0  0  0  0  0  0  0  0  0  0
  153.6576  130.0392  166.0734 O   0  0  0  0  0  0  0  0  0  0  0  0
  153.6422  132.3434  164.9856 O   0  0  0  0  0  0  0  0  0  0  0  0
  154.6047  133.3296  165.3140 C   0  0  2  0  0  0  0  0  0  0  0  0
  153.5267  141.4670  160.6885 C   0  0  0  0  0  0  0  0  0  0  0  0
  153.5398  142.0032  161.9959 C   0  0  0  0  0  0  0  0  0  0  0  0
  152.8668  143.2077  162.2795 C   0  0  0  0  0  0  0  0  0  0  0  0
  152.1819  143.8903  161.2566 C   0  0  0  0  0  0  0  0  0  0  0  0
  152.1742  143.3701  159.9487 C   0  0  0  0  0  0  0  0  0  0  0  0
  152.8466  142.1656  159.6638 C   0  0  0  0  0  0  0  0  0  0  0  0
  153.7398  139.4404  162.2854 H   0  0  0  0  0  0  0  0  0  0  0  0
  156.8218  136.0666  159.6599 H   0  0  0  0  0  0  0  0  0  0  0  0
  153.6618  135.7762  165.2595 H   0  0  0  0  0  0  0  0  0  0  0  0
  155.1964  133.1598  163.1920 H   0  0  0  0  0  0  0  0  0  0  0  0
  156.9631  134.4054  166.3143 H   0  0  0  0  0  0  0  0  0  0  0  0
  158.5219  132.1802  165.0162 H   0  0  0  0  0  0  0  0  0  0  0  0
  159.0947  133.4513  166.0933 H   0  0  0  0  0  0  0  0  0  0  0  0
  158.3965  132.5242  170.9713 H   0  0  0  0  0  0  0  0  0  0  0  0
  158.1875  130.7511  172.6750 H   0  0  0  0  0  0  0  0  0  0  0  0
  157.9205  128.3750  171.9886 H   0  0  0  0  0  0  0  0  0  0  0  0
  157.8638  127.7802  169.5740 H   0  0  0  0  0  0  0  0  0  0  0  0
  158.0695  129.5253  167.8547 H   0  0  0  0  0  0  0  0  0  0  0  0
  155.5257  132.7117  167.2060 H   0  0  0  0  0  0  0  0  0  0  0  0
  154.1614  134.1731  165.8439 H   0  0  0  0  0  0  0  0  0  0  0  0
  154.0614  141.4916  162.7921 H   0  0  0  0  0  0  0  0  0  0  0  0
  152.8771  143.6078  163.2826 H   0  0  0  0  0  0  0  0  0  0  0  0
  151.6660  144.8138  161.4742 H   0  0  0  0  0  0  0  0  0  0  0  0
  151.6540  143.8965  159.1620 H   0  0  0  0  0  0  0  0  0  0  0  0
  152.8354  141.7892  158.6512 H   0  0  0  0  0  0  0  0  0  0  0  0
  1  2  2  0  0  0  0
  2  3  1  0  0  0  0
  2 33  1  0  0  0  0
  3  4  1  0  0  0  0
  3 39  1  0  0  0  0
  4  9  1  0  0  0  0
  4  5  2  0  0  0  0
  5  6  1  0  0  0  0
  6  7  2  0  0  0  0
  6 40  1  0  0  0  0
  7  8  1  0  0  0  0
  8 12  1  0  0  0  0
  8  9  2  0  0  0  0
  9 10  1  0  0  0  0
 10 11  2  0  0  0  0
 11 12  1  0  0  0  0
 11 41  1  0  0  0  0
 12 13  1  0  0  0  0
 13 32  1  0  0  0  0
 13 14  1  0  0  0  0
 13 42  1  0  0  0  0
 14 15  1  0  0  0  0
 15 16  1  0  0  0  0
 15 26  1  0  0  0  0
 15 43  1  0  0  0  0
 16 17  1  0  0  0  0
 16 44  1  0  0  0  0
 16 45  1  0  0  0  0
 17 18  1  0  0  0  0
 18 19  2  0  0  0  0
 18 20  1  0  0  0  0
 20 25  1  0  0  0  0
 20 21  2  0  0  0  0
 21 22  1  0  0  0  0
 21 46  1  0  0  0  0
 22 23  2  0  0  0  0
 22 47  1  0  0  0  0
 23 24  1  0  0  0  0
 23 48  1  0  0  0  0
 24 25  2  0  0  0  0
 24 49  1  0  0  0  0
 25 50  1  0  0  0  0
 26 32  1  0  0  0  0
 26 27  1  0  0  0  0
 26 51  1  0  0  0  0
 27 28  1  0  0  0  0
 28 29  2  0  0  0  0
 28 30  2  0  0  0  0
 28 31  1  0  0  0  0
 31 32  1  0  0  0  0
 32 52  1  0  0  0  0
 33 38  1  0  0  0  0
 33 34  2  0  0  0  0
 34 35  1  0  0  0  0
 34 53  1  0  0  0  0
 35 36  2  0  0  0  0
 35 54  1  0  0  0  0
 36 37  1  0  0  0  0
 36 55  1  0  0  0  0
 37 38  2  0  0  0  0
 37 56  1  0  0  0  0
 38 57  1  0  0  0  0
M  END
> <s_m_source_file>
AV-unprocessed.smi

> <i_m_source_file_index>
1

> <i_lp_mmshare_version>
43012

> <i_f3d_flags>
0

> <s_epik_input>
W2NIXTFbY0hdW2NIXVtjSF1bY0hdYzFDKD1PKVtOSF1jKG5bY0hdbjIpYyhjMjMpbltjSF1uM1tDQEBIXShbQ0BIXShbQ0BIXTQ1KU9TKE81KSg9Tyk9TylPW0NASF00W0NIMl1PQyg9TyljNltjSF1bY0hdW2NIXVtjSF1bY0hdNg==

> <s_epik_cmdline>
J2VwaWtfcHl0aG9uJywgJy1waCcsICc3LjAnLCAnLXRuJywgJzgnLCAnLW1hJywgJzIwMCcsICctbWV0YWxfYmluZGluZycsICctaW1hZScsICc8aW5maWxlLm1hZT4nLCAnLW9tYWUnLCAnPG91dGZpbGUubWFlPic=

> <r_lp_tautomer_probability>
1

> <r_epik_Ionization_Penalty>
0.00195722

> <r_epik_Ionization_Penalty_Charging>
0

> <r_epik_Ionization_Penalty_Neutral>
0.00195722

> <r_epik_State_Penalty>
0.00633741

> <r_epik_Charging_Adjusted_Penalty>
0.00633741

> <i_epik_Tot_Q>
0

> <i_epik_Tot_abs_Q>
0

> <r_epik_Metal_State_Penalty>
0.341185

> <b_epik_Metal_Only>
0

> <s_epik_Chemistry_Notes>
This compound has an ester and may undergo hydrolysis at high or low pH. This compound contains an acetal/aminal-like group ( X-CH(R)-Y where X, Y are N, S, or O) that may be acid/base labile, releasing an aldehyde.

> <s_lp_Force_Field>
OPLS_2005

> <r_lp_Energy>
46.3459

> <b_lp_Chiralities_Consistent>
1

> <s_lp_Variant>
AV-unprocessed.smi:1-4

> <Gold.Version>
5.8.1

> <Gold.Id.Protein>
6NUR|6NUR_protein|mol2

> <Gold.PLP.Fitness>
66.2451

> <Gold.PLP.PLP>
-65.3698

> <Gold.PLP.part.hbond>
-1.0000

> <Gold.PLP.part.metal>
0.0000

> <Gold.PLP.part.buried>
-7.6741

> <Gold.PLP.part.nonpolar>
-56.7180

> <Gold.PLP.part.repulsive>
0.1831

> <Gold.PLP.ligand.clash>
0.0000

> <Gold.PLP.ligand.torsion>
1.2406

> <Gold.PLP.Chemscore.Hbond>
0.9920

> <Gold.PLP.Chemscore.CHOScore>
0.0000

> <Gold.PLP.Chemscore.Metal>
0.0000

> <Gold.Chemscore.Hbonds>
donor molecule, donor type, donor heavy atom, donor atom, acceptor molecule, acceptor atom, score
      P1  H  7997  8008       L1     1  0.99

> <Gold.PLP.Chemscore.Internal.Correction>
0.3805

> <Gold.Rescore>
     Score         DG    S(hbond)    S(metal)    S(lipo)     H(rot)  DE(clash)    DE(int)     intcor
     14.93     -19.56       0.99        0.00     138.67       2.13       0.39       4.24       ----

> <Gold.Chemscore.Fitness>
14.9265

> <Gold.Chemscore.DG>
-19.5570

> <Gold.Chemscore.ZeroCoef>
-5.4800

> <Gold.Chemscore.Hbond>
0.9923

> <Gold.Chemscore.Metal>
0.0000

> <Gold.Chemscore.Lipo>
138.6670

> <Gold.Chemscore.Internal_Hbond>
0.0000

> <Gold.Chemscore.DEClash>
0.3906

> <Gold.Chemscore.DEInternal>
4.2399

> <Gold.Chemscore.Rot>
2.1333

> <Gold.Chemscore.Internal.Correction>
   9.000000E+99

> <Gold.Chemscore.Hbonds>
donor molecule, donor type, donor heavy atom, donor atom, acceptor molecule, acceptor atom, score
      P1  H  7997  8008       L1     1  0.89

> <Gold.Chemscore.Hbond.Weighted>
-3.3143

> <Gold.Chemscore.Metal.Weighted>
-0.0000

> <Gold.Chemscore.Lipo.Weighted>
-16.2240

> <Gold.Chemscore.Internal_Hbond.Weighted>
0.0000

> <Gold.Chemscore.DEClash.Weighted>
0.3906

> <Gold.Chemscore.DEInternal.Weighted>
4.2399

> <Gold.Chemscore.Rot.Weighted>
5.4614

> <Gold.Chemscore.Internal.Correction.Weighted>
   9.000000E+99

> <Gold.Protein.RotatedTorsions>
[ 6907 6896 6895 6894 ] final -132.85 input  -60.11 | X-H torsion
[ 7974 7965 7964 7962 ] final -125.23 input  175.53 | X-H torsion
[ 8008 7997 7996 7995 ] final -132.78 input   59.86 | X-H torsion
[ 10167 10162 10161 10158 ] final   33.57 input  -65.29 | X-H torsion
[ 10718 10713 10712 10709 ] final  -93.66 input   66.30 | X-H torsion
[ 10763 10752 10751 10750 ] final   39.42 input  -60.55 | X-H torsion
[ 11005 11000 10999 10996 ] final  -67.30 input  -57.11 | X-H torsion

> <Gold.Protein.ActiveResidues>
 VAL166  LYS551  ARG553  GLY616  TRP617  ASP618  TYR619  PRO620  LYS621  CYS622 
 ASP623  PHE694  ASN695  SER759  ASP760  ASP761  ALA762  ILE779  LEU786  VAL792 
 PHE793  MET794  SER795  GLU796  ALA797  LYS798  CYS799  TRP800  GLU811  SER814 

> <Gold.Protein.RotatedAtoms>
  150.9672  133.6382  159.2743 H   0  0  0  0  0  0  0  0  0  0  0  0  # atno 6907 bound_to 6896
  151.3683  135.0916  159.9467 H   0  0  0  0  0  0  0  0  0  0  0  0  # atno 6908 bound_to 6896
  152.5170  133.9232  159.7599 H   0  0  0  0  0  0  0  0  0  0  0  0  # atno 6909 bound_to 6896
  144.9997  140.7809  143.4503 H   0  0  0  0  0  0  0  0  0  0  0  0  # atno 7974 bound_to 7965
  155.3346  140.0469  157.3043 H   0  0  0  0  0  0  0  0  0  0  0  0  # atno 8008 bound_to 7997
  154.5310  140.2257  155.8770 H   0  0  0  0  0  0  0  0  0  0  0  0  # atno 8009 bound_to 7997
  156.1788  140.3079  155.9116 H   0  0  0  0  0  0  0  0  0  0  0  0  # atno 8010 bound_to 7997
  140.4395  144.1209  150.6171 H   0  0  0  0  0  0  0  0  0  0  0  0  # atno 10167 bound_to 10162
  156.0016  130.5036  150.5809 H   0  0  0  0  0  0  0  0  0  0  0  0  # atno 10718 bound_to 10713
  152.9968  135.6221  154.2462 H   0  0  0  0  0  0  0  0  0  0  0  0  # atno 10763 bound_to 10752
  154.2201  135.2796  155.2929 H   0  0  0  0  0  0  0  0  0  0  0  0  # atno 10764 bound_to 10752
  154.5535  135.5726  153.7002 H   0  0  0  0  0  0  0  0  0  0  0  0  # atno 10765 bound_to 10752
  141.1504  133.6716  156.6271 H   0  0  0  0  0  0  0  0  0  0  0  0  # atno 11005 bound_to 11000
  145.2170  139.2177  143.5113 LP  0  0  0  0  0  0  0  0  0  0  0  0  # atno 17320 bound_to 7965
  146.3449  140.2020  142.8589 LP  0  0  0  0  0  0  0  0  0  0  0  0  # atno 17321 bound_to 7965
  140.4335  143.2557  151.9565 LP  0  0  0  0  0  0  0  0  0  0  0  0  # atno 17342 bound_to 10162
  139.4789  144.5721  151.8070 LP  0  0  0  0  0  0  0  0  0  0  0  0  # atno 17343 bound_to 10162
  157.3689  131.0762  151.1574 LP  0  0  0  0  0  0  0  0  0  0  0  0  # atno 17370 bound_to 10713
  157.2334  130.6536  149.5859 LP  0  0  0  0  0  0  0  0  0  0  0  0  # atno 17371 bound_to 10713
  140.3495  134.7780  157.4457 LP  0  0  0  0  0  0  0  0  0  0  0  0  # atno 17394 bound_to 11000
  140.0872  134.5650  155.8480 LP  0  0  0  0  0  0  0  0  0  0  0  0  # atno 17395 bound_to 11000

$$$$
