#       Name:                AV-unprocessed.smi:798
#       Creating user name   scv26
#       Creation time:       Fri Mar 27 01:20:47 2020


#       File generated by GOLD software.
#

@<TRIPOS>MOLECULE
AV-unprocessed.smi:798
    40    42     1
SMALL
NO_CHARGES


@<TRIPOS>ATOM
      1 ****        -1.0873   1.9542   0.8697 O.2            1 S1                 0.0000
      2 ****        -1.5640   0.8676   0.5410 C.2            1 S1                 0.0000
      3 ****        -2.8729   0.6143   0.3675 N.am           1 S1                 0.0000
      4 ****        -3.9692   1.5041   0.5174 C.2            1 S1                 0.0000
      5 ****        -3.8408   2.7904   0.8787 N.2            1 S1                 0.0000
      6 ****        -5.0690   3.4350   0.9504 N.2            1 S1                 0.0000
      7 ****        -6.0738   2.6106   0.6413 C.2            1 S1                 0.0000
      8 ****        -5.6183   0.9655   0.2337 S.3            1 S1                 0.0000
      9 ****        -0.8265  -0.2272   0.3085 N.am           1 S1                 0.0000
     10 ****         0.6311  -0.2961   0.3814 C.3            1 S1                 0.0000
     11 ****         1.0837  -1.7044   0.8267 C.3            1 S1                 0.0000
     12 ****         2.5559  -1.6328   1.2694 C.3            1 S1                 0.0000
     13 ****         3.2965  -1.4524  -0.0690 C.3            1 S1                 0.0000
     14 ****         2.1489  -1.4414  -1.1021 C.3            1 S1                 0.0000
     15 ****         1.1966  -2.4625  -0.4930 C.3            1 S1                 0.0000
     16 ****         1.3000  -0.1507  -1.0102 C.3            1 S1                 0.0000
     17 ****         2.0829   1.1596  -1.2221 C.3            1 S1                 0.0000
     18 ****         1.1886   2.2357  -1.4069 O.3            1 S1                 0.0000
     19 ****        -3.1138  -0.3267   0.0941 H              1 S1                 0.0000
     20 ****        -7.0907   2.9738   0.6534 H              1 S1                 0.0000
     21 ****        -1.3056  -1.0759   0.0461 H              1 S1                 0.0000
     22 ****         1.0020   0.4499   1.0874 H              1 S1                 0.0000
     23 ****         0.4345  -2.1662   1.5716 H              1 S1                 0.0000
     24 ****         2.7447  -0.8152   1.9660 H              1 S1                 0.0000
     25 ****         2.8614  -2.5610   1.7539 H              1 S1                 0.0000
     26 ****         3.9087  -0.5517  -0.0932 H              1 S1                 0.0000
     27 ****         3.9607  -2.2988  -0.2484 H              1 S1                 0.0000
     28 ****         2.4744  -1.6744  -2.1162 H              1 S1                 0.0000
     29 ****         1.6349  -3.4563  -0.3852 H              1 S1                 0.0000
     30 ****         0.2493  -2.5480  -1.0283 H              1 S1                 0.0000
     31 ****         0.5409  -0.2166  -1.7928 H              1 S1                 0.0000
     32 ****         2.7313   1.3828  -0.3751 H              1 S1                 0.0000
     33 ****         2.7148   1.0846  -2.1072 H              1 S1                 0.0000
     34 ****         1.6892   3.0306  -1.5096 H              1 S1                 0.0000
     35 ****        -1.6893   2.7364   1.0299 LP             1 S1                 0.0000
     36 ****        -0.0981   2.0545   0.9765 LP             1 S1                 0.0000
     37 ****        -2.9649   3.2321   1.0732 LP             1 S1                 0.0000
     38 ****        -5.1864   4.3957   1.2019 LP             1 S1                 0.0000
     39 ****         0.5892   2.3158  -0.6105 LP             1 S1                 0.0000
     40 ****         0.6362   2.0776  -2.2253 LP             1 S1                 0.0000
@<TRIPOS>BOND
    1    1    2 2     
    2    2    3 am    
    3    2    9 am    
    4    3    4 1     
    5    3   19 1     
    6    4    8 1     
    7    4    5 2     
    8    5    6 1     
    9    6    7 2     
   10    7    8 1     
   11    7   20 1     
   12    9   10 1     
   13    9   21 1     
   14   10   16 1     
   15   10   11 1     
   16   10   22 1     
   17   11   15 1     
   18   11   12 1     
   19   11   23 1     
   20   12   13 1     
   21   12   24 1     
   22   12   25 1     
   23   13   14 1     
   24   13   26 1     
   25   13   27 1     
   26   14   15 1     
   27   14   16 1     
   28   14   28 1     
   29   15   29 1     
   30   15   30 1     
   31   16   17 1     
   32   16   31 1     
   33   17   18 1     
   34   17   32 1     
   35   17   33 1     
   36   18   34 1     
   37    1   35 1     
   38    1   36 1     
   39    5   37 1     
   40    6   38 1     
   41   18   39 1     
   42   18   40 1     
@<TRIPOS>SUBSTRUCTURE
      1 S1             1
@<TRIPOS>SET
LONE_PAIRS      STATIC     ATOMS    <user>   **** ""
6 35 36 37 38 39 40
DONOR_HYDROGENS      STATIC     ATOMS    <user>   **** ""
3 19 21 34
ATOM$BLUE        STATIC     ATOMS    COLORGROUP SYSTEM
6 35 36 37 38 39 40
ATOM$RED        STATIC     ATOMS    COLORGROUP SYSTEM
3 19 21 34
