AV-unprocessed.smi:317|AV-procd|sdf|2326|dock6
  -GOLD-   2262022233D 1   1.00000     0.00000
 Structure written by MMmdl.
 39 40  0  0  0  0  0  0  0  0  1 V2000
  145.4174  143.7912  153.6253 C   0  0  0  0  0  0  0  0  0  0  0  0
  145.9018  142.4465  154.1925 C   0  0  2  0  0  0  0  0  0  0  0  0
  144.8679  141.8470  155.1627 C   0  0  0  0  0  0  0  0  0  0  0  0
  143.5886  141.8274  154.5652 O   0  0  0  0  0  0  0  0  0  0  0  0
  147.1660  142.6481  154.8957 N   0  0  0  0  0  0  0  0  0  0  0  0
  147.9311  141.6748  155.4092 C   0  0  0  0  0  0  0  0  0  0  0  0
  147.6567  140.4771  155.3324 O   0  0  0  0  0  0  0  0  0  0  0  0
  149.0319  142.1800  155.9896 N   0  0  0  0  0  0  0  0  0  0  0  0
  150.1032  141.4679  156.5972 C   0  0  0  0  0  0  0  0  0  0  0  0
  150.3046  140.0886  156.3477 C   0  0  0  0  0  0  0  0  0  0  0  0
  151.3300  139.4079  157.0260 C   0  0  0  0  0  0  0  0  0  0  0  0
  152.1106  140.1284  157.9452 C   0  0  0  0  0  0  0  0  0  0  0  0
  151.9238  141.4383  158.2031 N   0  0  0  0  0  0  0  0  0  0  0  0
  150.9479  142.1127  157.5459 C   0  0  0  0  0  0  0  0  0  0  0  0
  150.8106  143.4885  157.8428 N   0  0  0  0  0  0  0  0  0  0  0  0
  150.0350  143.9234  158.9996 C   0  0  0  0  0  0  0  0  0  0  0  0
  150.4371  145.3786  159.2210 C   0  0  0  0  0  0  0  0  0  0  0  0
  151.9138  145.3693  158.8398 C   0  0  0  0  0  0  0  0  0  0  0  0
  151.9881  144.3413  157.7058 C   0  0  0  0  0  0  0  0  0  0  0  0
  144.4786  143.6729  153.0836 H   0  0  0  0  0  0  0  0  0  0  0  0
  146.1433  144.2128  152.9290 H   0  0  0  0  0  0  0  0  0  0  0  0
  145.2537  144.5216  154.4184 H   0  0  0  0  0  0  0  0  0  0  0  0
  146.0421  141.7595  153.3553 H   0  0  0  0  0  0  0  0  0  0  0  0
  145.1505  140.8447  155.4870 H   0  0  0  0  0  0  0  0  0  0  0  0
  144.7913  142.4616  156.0602 H   0  0  0  0  0  0  0  0  0  0  0  0
  143.6035  141.2194  153.8420 H   0  0  0  0  0  0  0  0  0  0  0  0
  147.4734  143.6027  155.0099 H   0  0  0  0  0  0  0  0  0  0  0  0
  149.1746  143.1743  155.8885 H   0  0  0  0  0  0  0  0  0  0  0  0
  149.6743  139.5383  155.6657 H   0  0  0  0  0  0  0  0  0  0  0  0
  151.5039  138.3560  156.8551 H   0  0  0  0  0  0  0  0  0  0  0  0
  152.9026  139.6394  158.4928 H   0  0  0  0  0  0  0  0  0  0  0  0
  148.9645  143.8214  158.8209 H   0  0  0  0  0  0  0  0  0  0  0  0
  150.2937  143.3384  159.8833 H   0  0  0  0  0  0  0  0  0  0  0  0
  149.8810  146.0275  158.5431 H   0  0  0  0  0  0  0  0  0  0  0  0
  150.2597  145.7190  160.2416 H   0  0  0  0  0  0  0  0  0  0  0  0
  152.2856  146.3512  158.5467 H   0  0  0  0  0  0  0  0  0  0  0  0
  152.5076  145.0238  159.6869 H   0  0  0  0  0  0  0  0  0  0  0  0
  152.9173  143.7713  157.7451 H   0  0  0  0  0  0  0  0  0  0  0  0
  151.9434  144.8491  156.7423 H   0  0  0  0  0  0  0  0  0  0  0  0
  1  2  1  0  0  0  0
  1 20  1  0  0  0  0
  1 21  1  0  0  0  0
  1 22  1  0  0  0  0
  2  3  1  0  0  0  0
  2  5  1  0  0  0  0
  2 23  1  0  0  0  0
  3  4  1  0  0  0  0
  3 24  1  0  0  0  0
  3 25  1  0  0  0  0
  4 26  1  0  0  0  0
  5  6  1  0  0  0  0
  5 27  1  0  0  0  0
  6  7  2  0  0  0  0
  6  8  1  0  0  0  0
  8  9  1  0  0  0  0
  8 28  1  0  0  0  0
  9 14  1  0  0  0  0
  9 10  2  0  0  0  0
 10 11  1  0  0  0  0
 10 29  1  0  0  0  0
 11 12  2  0  0  0  0
 11 30  1  0  0  0  0
 12 13  1  0  0  0  0
 12 31  1  0  0  0  0
 13 14  2  0  0  0  0
 14 15  1  0  0  0  0
 15 19  1  0  0  0  0
 15 16  1  0  0  0  0
 16 17  1  0  0  0  0
 16 32  1  0  0  0  0
 16 33  1  0  0  0  0
 17 18  1  0  0  0  0
 17 34  1  0  0  0  0
 17 35  1  0  0  0  0
 18 19  1  0  0  0  0
 18 36  1  0  0  0  0
 18 37  1  0  0  0  0
 19 38  1  0  0  0  0
 19 39  1  0  0  0  0
M  END
> <s_m_source_file>
AV-unprocessed.smi

> <i_m_source_file_index>
317

> <i_lp_mmshare_version>
43012

> <i_f3d_flags>
0

> <s_epik_input>
W09IXVtDSDJdW0NAQEhdKFtDSDNdKVtOSF1DKD1PKVtOSF1jMVtjSF1bY0hdW2NIXW5jMU4yW0NIMl1bQ0gyXVtDSDJdW0NIMl0y

> <s_epik_cmdline>
J2VwaWtfcHl0aG9uJywgJy1waCcsICc3LjAnLCAnLXRuJywgJzgnLCAnLW1hJywgJzIwMCcsICctbWV0YWxfYmluZGluZycsICctaW1hZScsICc8aW5maWxlLm1hZT4nLCAnLW9tYWUnLCAnPG91dGZpbGUubWFlPic=

> <r_lp_tautomer_probability>
1

> <r_epik_Ionization_Penalty>
0.098371

> <r_epik_Ionization_Penalty_Charging>
0

> <r_epik_Ionization_Penalty_Neutral>
0.098371

> <r_epik_State_Penalty>
0.0879016

> <r_epik_Charging_Adjusted_Penalty>
0.0879016

> <i_epik_Tot_Q>
0

> <i_epik_Tot_abs_Q>
0

> <r_epik_Metal_State_Penalty>
0.0753294

> <b_epik_Metal_Only>
0

> <s_lp_Force_Field>
OPLS_2005

> <r_lp_Energy>
32.6275

> <b_lp_Chiralities_Consistent>
1

> <s_lp_Variant>
AV-unprocessed.smi:317-1

> <Gold.Version>
5.8.1

> <Gold.Id.Protein>
6NUR|6NUR_protein|mol2

> <Gold.PLP.Fitness>
41.9911

> <Gold.PLP.PLP>
-34.5980

> <Gold.PLP.part.hbond>
-3.9433

> <Gold.PLP.part.metal>
0.0000

> <Gold.PLP.part.buried>
-5.3648

> <Gold.PLP.part.nonpolar>
-25.5789

> <Gold.PLP.part.repulsive>
0.3468

> <Gold.PLP.ligand.clash>
0.0000

> <Gold.PLP.ligand.torsion>
0.5184

> <Gold.PLP.Chemscore.Hbond>
2.7000

> <Gold.PLP.Chemscore.CHOScore>
0.0000

> <Gold.PLP.Chemscore.Metal>
0.0000

> <Gold.Chemscore.Hbonds>
donor molecule, donor type, donor heavy atom, donor atom, acceptor molecule, acceptor atom, score
      L1  H     4    26       P1 10175  0.88
      L1  H     5    27       P1  8028  0.65
      L1  H     8    28       P1  8028  1.00

> <Gold.PLP.Chemscore.Internal.Correction>
0.3298

> <Gold.Rescore>
     Score         DG    S(hbond)    S(metal)    S(lipo)     H(rot)  DE(clash)    DE(int)     intcor
     14.03     -16.04       1.96        0.00      79.85       2.08       0.02       1.99       ----

> <Gold.Chemscore.Fitness>
14.0289

> <Gold.Chemscore.DG>
-16.0429

> <Gold.Chemscore.ZeroCoef>
-5.4800

> <Gold.Chemscore.Hbond>
1.9577

> <Gold.Chemscore.Metal>
0.0000

> <Gold.Chemscore.Lipo>
79.8461

> <Gold.Chemscore.Internal_Hbond>
0.0000

> <Gold.Chemscore.DEClash>
0.0230

> <Gold.Chemscore.DEInternal>
1.9911

> <Gold.Chemscore.Rot>
2.0773

> <Gold.Chemscore.Internal.Correction>
   9.000000E+99

> <Gold.Chemscore.Hbonds>
donor molecule, donor type, donor heavy atom, donor atom, acceptor molecule, acceptor atom, score
      L1  H     4    26       P1 10175  0.19
      L1  H     5    27       P1  8028  0.07
      L1  H     8    28       P1  8028  0.98

> <Gold.Chemscore.Hbond.Weighted>
-6.5388

> <Gold.Chemscore.Metal.Weighted>
-0.0000

> <Gold.Chemscore.Lipo.Weighted>
-9.3420

> <Gold.Chemscore.Internal_Hbond.Weighted>
0.0000

> <Gold.Chemscore.DEClash.Weighted>
0.0230

> <Gold.Chemscore.DEInternal.Weighted>
1.9911

> <Gold.Chemscore.Rot.Weighted>
5.3178

> <Gold.Chemscore.Internal.Correction.Weighted>
   9.000000E+99

> <Gold.Protein.RotatedTorsions>
[ 6907 6896 6895 6894 ] final  -92.47 input  -60.11 | X-H torsion
[ 7974 7965 7964 7962 ] final   94.24 input  175.53 | X-H torsion
[ 8008 7997 7996 7995 ] final  -97.59 input   59.86 | X-H torsion
[ 10167 10162 10161 10158 ] final  -32.75 input  -65.29 | X-H torsion
[ 10718 10713 10712 10709 ] final   67.24 input   66.30 | X-H torsion
[ 10763 10752 10751 10750 ] final -135.93 input  -60.55 | X-H torsion
[ 11005 11000 10999 10996 ] final  -72.21 input  -57.11 | X-H torsion

> <Gold.Protein.ActiveResidues>
 VAL166  LYS551  ARG553  GLY616  TRP617  ASP618  TYR619  PRO620  LYS621  CYS622 
 ASP623  PHE694  ASN695  SER759  ASP760  ASP761  ALA762  ILE779  LEU786  VAL792 
 PHE793  MET794  SER795  GLU796  ALA797  LYS798  CYS799  TRP800  GLU811  SER814 

> <Gold.Protein.RotatedAtoms>
  150.6907  134.2117  159.4361 H   0  0  0  0  0  0  0  0  0  0  0  0  # atno 6907 bound_to 6896
  152.0078  134.9890  160.0576 H   0  0  0  0  0  0  0  0  0  0  0  0  # atno 6908 bound_to 6896
  152.1517  133.4491  159.4854 H   0  0  0  0  0  0  0  0  0  0  0  0  # atno 6909 bound_to 6896
  145.4683  139.2283  143.2949 H   0  0  0  0  0  0  0  0  0  0  0  0  # atno 7974 bound_to 7965
  154.7898  140.0462  157.1192 H   0  0  0  0  0  0  0  0  0  0  0  0  # atno 8008 bound_to 7997
  154.9604  140.3076  155.5014 H   0  0  0  0  0  0  0  0  0  0  0  0  # atno 8009 bound_to 7997
  156.2948  140.2271  156.4689 H   0  0  0  0  0  0  0  0  0  0  0  0  # atno 8010 bound_to 7997
  140.7216  143.3671  151.1849 H   0  0  0  0  0  0  0  0  0  0  0  0  # atno 10167 bound_to 10162
  157.6218  130.9310  150.0216 H   0  0  0  0  0  0  0  0  0  0  0  0  # atno 10718 bound_to 10713
  154.8694  135.3688  154.4978 H   0  0  0  0  0  0  0  0  0  0  0  0  # atno 10763 bound_to 10752
  153.5621  135.7022  153.5547 H   0  0  0  0  0  0  0  0  0  0  0  0  # atno 10764 bound_to 10752
  153.3618  135.4044  155.1687 H   0  0  0  0  0  0  0  0  0  0  0  0  # atno 10765 bound_to 10752
  141.1605  133.6840  156.7024 H   0  0  0  0  0  0  0  0  0  0  0  0  # atno 11005 bound_to 11000
  146.2412  140.5458  142.8933 LP  0  0  0  0  0  0  0  0  0  0  0  0  # atno 17320 bound_to 7965
  144.7961  140.6125  143.6509 LP  0  0  0  0  0  0  0  0  0  0  0  0  # atno 17321 bound_to 7965
  139.7235  143.9185  152.2994 LP  0  0  0  0  0  0  0  0  0  0  0  0  # atno 17342 bound_to 10162
  139.8950  144.6944  150.8728 LP  0  0  0  0  0  0  0  0  0  0  0  0  # atno 17343 bound_to 10162
  156.1368  130.3642  149.9645 LP  0  0  0  0  0  0  0  0  0  0  0  0  # atno 17370 bound_to 10713
  156.7694  130.9180  151.3644 LP  0  0  0  0  0  0  0  0  0  0  0  0  # atno 17371 bound_to 10713
  140.2948  134.8211  157.4048 LP  0  0  0  0  0  0  0  0  0  0  0  0  # atno 17394 bound_to 11000
  140.1314  134.5090  155.8103 LP  0  0  0  0  0  0  0  0  0  0  0  0  # atno 17395 bound_to 11000

$$$$
