AV-unprocessed.smi:2875|AV-procd|sdf|11041|dock1
  -GOLD-   2272015503D 1   1.00000     0.00000
 Structure written by MMmdl.
 39 39  0  0  0  0  0  0  0  0  2 V2000
  151.6538  145.1662  160.3857 C   0  0  0  0  0  0  0  0  0  0  0  0
  150.7948  144.1013  159.6902 C   0  0  0  0  0  0  0  0  0  0  0  0
  151.4353  143.4929  158.4248 C   0  0  0  0  0  0  0  0  0  0  0  0
  151.9578  142.1241  158.6464 N   0  0  0  0  0  0  0  0  0  0  0  0
  151.5811  141.0740  157.7643 C   0  0  0  0  0  0  0  0  0  0  0  0
  150.7099  141.3464  156.7191 N   0  0  0  0  0  0  0  0  0  0  0  0
  152.0605  139.8158  157.9588 C   0  0  0  0  0  0  0  0  0  0  0  0
  151.7528  138.7547  157.0829 N   0  0  0  0  0  0  0  0  0  0  0  0
  151.1968  137.5284  157.6800 C   0  0  0  0  0  0  0  0  0  0  0  0
  149.9483  137.8150  158.5297 C   0  0  0  0  0  0  0  0  0  0  0  0
  149.5765  136.6379  159.2267 O   0  0  0  0  0  0  0  0  0  0  0  0
  148.2964  136.7390  159.8230 C   0  0  0  0  0  0  0  0  0  0  0  0
  152.0064  138.8217  155.7491 C   0  0  0  0  0  0  0  0  0  0  0  0
  151.5645  137.6712  154.8357 C   0  0  0  0  0  0  0  0  0  0  0  0
  152.5555  139.7930  155.2269 O   0  0  0  0  0  0  0  0  0  0  0  0
  152.9927  139.5772  159.0690 C   0  0  0  0  0  0  0  0  0  0  0  0
  153.4730  138.4572  159.2467 O   0  0  0  0  0  0  0  0  0  0  0  0
  153.2986  140.6271  159.8753 N   0  5  0  0  0  0  0  0  0  0  0  0
  152.8082  141.8857  159.6923 C   0  0  0  0  0  0  0  0  0  0  0  0
  153.1147  142.8130  160.4433 O   0  0  0  0  0  0  0  0  0  0  0  0
  151.1271  145.5884  161.2415 H   0  0  0  0  0  0  0  0  0  0  0  0
  151.8939  145.9843  159.7067 H   0  0  0  0  0  0  0  0  0  0  0  0
  152.5901  144.7451  160.7527 H   0  0  0  0  0  0  0  0  0  0  0  0
  150.5613  143.3104  160.4036 H   0  0  0  0  0  0  0  0  0  0  0  0
  149.8379  144.5465  159.4169 H   0  0  0  0  0  0  0  0  0  0  0  0
  150.6928  143.4782  157.6251 H   0  0  0  0  0  0  0  0  0  0  0  0
  152.1958  144.1713  158.0408 H   0  0  0  0  0  0  0  0  0  0  0  0
  150.3340  142.2707  156.5654 H   0  0  0  0  0  0  0  0  0  0  0  0
  150.3849  140.6197  156.0977 H   0  0  0  0  0  0  0  0  0  0  0  0
  150.9500  136.8135  156.8932 H   0  0  0  0  0  0  0  0  0  0  0  0
  151.9398  137.0263  158.3011 H   0  0  0  0  0  0  0  0  0  0  0  0
  150.1314  138.6360  159.2244 H   0  0  0  0  0  0  0  0  0  0  0  0
  149.1262  138.1185  157.8803 H   0  0  0  0  0  0  0  0  0  0  0  0
  148.0578  135.8078  160.3365 H   0  0  0  0  0  0  0  0  0  0  0  0
  147.5251  136.9196  159.0732 H   0  0  0  0  0  0  0  0  0  0  0  0
  148.2679  137.5448  160.5575 H   0  0  0  0  0  0  0  0  0  0  0  0
  150.5246  137.3989  155.0189 H   0  0  0  0  0  0  0  0  0  0  0  0
  152.1904  136.7923  154.9887 H   0  0  0  0  0  0  0  0  0  0  0  0
  151.6499  137.9606  153.7881 H   0  0  0  0  0  0  0  0  0  0  0  0
  1  2  1  0  0  0  0
  1 21  1  0  0  0  0
  1 22  1  0  0  0  0
  1 23  1  0  0  0  0
  2  3  1  0  0  0  0
  2 24  1  0  0  0  0
  2 25  1  0  0  0  0
  3  4  1  0  0  0  0
  3 26  1  0  0  0  0
  3 27  1  0  0  0  0
  4 19  1  0  0  0  0
  4  5  1  0  0  0  0
  5  6  1  0  0  0  0
  5  7  2  0  0  0  0
  6 28  1  0  0  0  0
  6 29  1  0  0  0  0
  7  8  1  0  0  0  0
  7 16  1  0  0  0  0
  8  9  1  0  0  0  0
  8 13  1  0  0  0  0
  9 10  1  0  0  0  0
  9 30  1  0  0  0  0
  9 31  1  0  0  0  0
 10 11  1  0  0  0  0
 10 32  1  0  0  0  0
 10 33  1  0  0  0  0
 11 12  1  0  0  0  0
 12 34  1  0  0  0  0
 12 35  1  0  0  0  0
 12 36  1  0  0  0  0
 13 14  1  0  0  0  0
 13 15  2  0  0  0  0
 14 37  1  0  0  0  0
 14 38  1  0  0  0  0
 14 39  1  0  0  0  0
 16 17  2  0  0  0  0
 16 18  1  0  0  0  0
 18 19  1  0  0  0  0
 19 20  2  0  0  0  0
M  CHG  1  18  -1
M  END
> <s_m_source_file>
AV-unprocessed.smi

> <i_m_source_file_index>
2875

> <i_lp_mmshare_version>
43012

> <i_f3d_flags>
0

> <s_epik_input>
W0NIM11bQ0gyXVtDSDJdbjFjKFtOSDJdKWMoYyg9TylbbkhdYzE9TylOKEMoPU8pW0NIM10pW0NIMl1bQ0gyXU9bQ0gzXQ==

> <s_epik_cmdline>
J2VwaWtfcHl0aG9uJywgJy1waCcsICc3LjAnLCAnLXRuJywgJzgnLCAnLW1hJywgJzIwMCcsICctbWV0YWxfYmluZGluZycsICctaW1hZScsICc8aW5maWxlLm1hZT4nLCAnLW9tYWUnLCAnPG91dGZpbGUubWFlPic=

> <r_lp_tautomer_probability>
1

> <r_epik_Ionization_Penalty>
7.11914

> <r_epik_Ionization_Penalty_Charging>
0.302695

> <r_epik_Ionization_Penalty_Neutral>
6.81644

> <r_epik_State_Penalty>
6.81644

> <r_epik_Charging_Adjusted_Penalty>
7.11913

> <i_epik_Tot_Q>
-1

> <i_epik_Tot_abs_Q>
1

> <r_epik_Metal_State_Penalty>
2.72963

> <b_epik_Metal_Only>
1

> <s_epik_Chemistry_Notes>
This compound has an imine and may undergo hydrolysis.

> <s_lp_Force_Field>
OPLS_2005

> <r_lp_Energy>
36.1064

> <b_lp_Chiralities_Consistent>
1

> <s_lp_Variant>
AV-unprocessed.smi:2875-2

> <Gold.Version>
5.8.1

> <Gold.Id.Protein>
6NUR|6NUR_protein|mol2

> <Gold.PLP.Fitness>
42.0276

> <Gold.PLP.PLP>
-35.2135

> <Gold.PLP.part.hbond>
-3.0000

> <Gold.PLP.part.metal>
0.0000

> <Gold.PLP.part.buried>
-6.0401

> <Gold.PLP.part.nonpolar>
-27.0018

> <Gold.PLP.part.repulsive>
0.0934

> <Gold.PLP.ligand.clash>
0.0219

> <Gold.PLP.ligand.torsion>
1.5317

> <Gold.PLP.Chemscore.Hbond>
2.5217

> <Gold.PLP.Chemscore.CHOScore>
0.0000

> <Gold.PLP.Chemscore.Metal>
0.0000

> <Gold.Chemscore.Hbonds>
donor molecule, donor type, donor heavy atom, donor atom, acceptor molecule, acceptor atom, score
      P1  H  6896  6907       L1    11  0.36
      P1  H  7989  7998       L1    15  0.34
      P1  H  7997  8008       L1    15  0.94

> <Gold.PLP.Chemscore.Internal.Correction>
2.3345

> <Gold.Rescore>
     Score         DG    S(hbond)    S(metal)    S(lipo)     H(rot)  DE(clash)    DE(int)     intcor
      8.04     -13.44       1.99        0.00      55.83       2.04       0.05       5.36       ----

> <Gold.Chemscore.Fitness>
8.0377

> <Gold.Chemscore.DG>
-13.4435

> <Gold.Chemscore.ZeroCoef>
-5.4800

> <Gold.Chemscore.Hbond>
1.9927

> <Gold.Chemscore.Metal>
0.0000

> <Gold.Chemscore.Lipo>
55.8348

> <Gold.Chemscore.Internal_Hbond>
0.0000

> <Gold.Chemscore.DEClash>
0.0462

> <Gold.Chemscore.DEInternal>
5.3596

> <Gold.Chemscore.Rot>
2.0409

> <Gold.Chemscore.Internal.Correction>
   9.000000E+99

> <Gold.Chemscore.Hbonds>
donor molecule, donor type, donor heavy atom, donor atom, acceptor molecule, acceptor atom, score
      P1  H  6896  6907       L1    11  0.36
      P1  H  7989  7998       L1    15  0.33
      P1  H  7997  8008       L1    15  0.83

> <Gold.Chemscore.Hbond.Weighted>
-6.6555

> <Gold.Chemscore.Metal.Weighted>
-0.0000

> <Gold.Chemscore.Lipo.Weighted>
-6.5327

> <Gold.Chemscore.Internal_Hbond.Weighted>
0.0000

> <Gold.Chemscore.DEClash.Weighted>
0.0462

> <Gold.Chemscore.DEInternal.Weighted>
5.3596

> <Gold.Chemscore.Rot.Weighted>
5.2246

> <Gold.Chemscore.Internal.Correction.Weighted>
   9.000000E+99

> <Gold.Protein.RotatedTorsions>
[ 6907 6896 6895 6894 ] final  -25.62 input  -60.11 | X-H torsion
[ 7974 7965 7964 7962 ] final   50.19 input  175.53 | X-H torsion
[ 8008 7997 7996 7995 ] final  -13.18 input   59.86 | X-H torsion
[ 10167 10162 10161 10158 ] final   29.68 input  -65.29 | X-H torsion
[ 10718 10713 10712 10709 ] final -149.45 input   66.30 | X-H torsion
[ 10763 10752 10751 10750 ] final  100.07 input  -60.55 | X-H torsion
[ 11005 11000 10999 10996 ] final -167.09 input  -57.11 | X-H torsion

> <Gold.Protein.ActiveResidues>
 VAL166  LYS551  ARG553  GLY616  TRP617  ASP618  TYR619  PRO620  LYS621  CYS622 
 ASP623  PHE694  ASN695  SER759  ASP760  ASP761  ALA762  ILE779  LEU786  VAL792 
 PHE793  MET794  SER795  GLU796  ALA797  LYS798  CYS799  TRP800  GLU811  SER814 

> <Gold.Protein.RotatedAtoms>
  151.1726  135.0325  159.8758 H   0  0  0  0  0  0  0  0  0  0  0  0  # atno 6907 bound_to 6896
  152.5448  134.1153  159.8386 H   0  0  0  0  0  0  0  0  0  0  0  0  # atno 6908 bound_to 6896
  151.1261  133.5023  159.2633 H   0  0  0  0  0  0  0  0  0  0  0  0  # atno 6909 bound_to 6896
  146.0036  139.4466  142.9999 H   0  0  0  0  0  0  0  0  0  0  0  0  # atno 7974 bound_to 7965
  154.5314  140.2256  155.8798 H   0  0  0  0  0  0  0  0  0  0  0  0  # atno 8008 bound_to 7997
  156.1767  140.3109  155.9036 H   0  0  0  0  0  0  0  0  0  0  0  0  # atno 8009 bound_to 7997
  155.3444  140.0452  157.3036 H   0  0  0  0  0  0  0  0  0  0  0  0  # atno 8010 bound_to 7997
  140.4745  144.0712  150.6246 H   0  0  0  0  0  0  0  0  0  0  0  0  # atno 10167 bound_to 10162
  156.4332  130.8086  151.2313 H   0  0  0  0  0  0  0  0  0  0  0  0  # atno 10718 bound_to 10713
  153.3094  135.4091  155.1322 H   0  0  0  0  0  0  0  0  0  0  0  0  # atno 10763 bound_to 10752
  154.8571  135.3560  154.5745 H   0  0  0  0  0  0  0  0  0  0  0  0  # atno 10764 bound_to 10752
  153.6173  135.7065  153.5382 H   0  0  0  0  0  0  0  0  0  0  0  0  # atno 10765 bound_to 10752
  140.5571  134.5370  157.5135 H   0  0  0  0  0  0  0  0  0  0  0  0  # atno 11005 bound_to 11000
  145.7449  140.9994  143.1281 LP  0  0  0  0  0  0  0  0  0  0  0  0  # atno 17320 bound_to 7965
  144.6928  139.9144  143.7465 LP  0  0  0  0  0  0  0  0  0  0  0  0  # atno 17321 bound_to 7965
  140.3936  143.2740  152.0031 LP  0  0  0  0  0  0  0  0  0  0  0  0  # atno 17342 bound_to 10162
  139.4823  144.6057  151.7526 LP  0  0  0  0  0  0  0  0  0  0  0  0  # atno 17343 bound_to 10162
  157.7508  131.0191  150.3655 LP  0  0  0  0  0  0  0  0  0  0  0  0  # atno 17370 bound_to 10713
  156.3997  130.3913  149.6969 LP  0  0  0  0  0  0  0  0  0  0  0  0  # atno 17371 bound_to 10713
  139.9426  134.7760  156.0641 LP  0  0  0  0  0  0  0  0  0  0  0  0  # atno 17394 bound_to 11000
  141.1137  133.6635  156.3040 LP  0  0  0  0  0  0  0  0  0  0  0  0  # atno 17395 bound_to 11000

$$$$
