AV-unprocessed.smi:2911|AV-procd|sdf|11177|dock1
  -GOLD-   2272016 73D 1   1.00000     0.00000
 Structure written by MMmdl.
 41 42  0  0  0  0  0  0  0  0  1 V2000
  145.2609  143.9277  162.1167 C   0  0  0  0  0  0  0  0  0  0  0  0
  146.0255  143.7157  160.8549 C   0  0  0  0  0  0  0  0  0  0  0  0
  147.3442  143.8620  160.8155 N   0  0  0  0  0  0  0  0  0  0  0  0
  147.6608  143.5798  159.4787 O   0  0  0  0  0  0  0  0  0  0  0  0
  146.4858  143.2736  158.8777 C   0  0  0  0  0  0  0  0  0  0  0  0
  146.4813  142.9597  157.4193 C   0  0  0  0  0  0  0  0  0  0  0  0
  147.5112  141.8812  157.0476 C   0  0  0  0  0  0  0  0  0  0  0  0
  148.8744  142.3274  157.3105 N   0  0  0  0  0  0  0  0  0  0  0  0
  149.8161  141.6111  157.9479 C   0  0  0  0  0  0  0  0  0  0  0  0
  149.6093  140.4652  158.3480 O   0  0  0  0  0  0  0  0  0  0  0  0
  151.0276  142.2221  157.9854 N   0  0  0  0  0  0  0  0  0  0  0  0
  151.1363  143.6887  158.0828 C   0  0  0  0  0  0  0  0  0  0  0  0
  151.2425  144.0866  159.5678 C   0  0  0  0  0  0  0  0  0  0  0  0
  152.4341  143.3865  160.2560 C   0  0  1  0  0  0  0  0  0  0  0  0
  152.4732  143.6822  161.7615 C   0  0  0  0  0  0  0  0  0  0  0  0
  152.4286  141.8685  159.9724 C   0  0  0  0  0  0  0  0  0  0  0  0
  152.2758  141.5878  158.4632 C   0  0  1  0  0  0  0  0  0  0  0  0
  152.4307  140.0908  158.1206 C   0  0  0  0  0  0  0  0  0  0  0  0
  145.4304  143.3590  159.6837 N   0  0  0  0  0  0  0  0  0  0  0  0
  145.1452  142.9831  162.6480 H   0  0  0  0  0  0  0  0  0  0  0  0
  144.2699  144.3272  161.8995 H   0  0  0  0  0  0  0  0  0  0  0  0
  145.7787  144.6320  162.7688 H   0  0  0  0  0  0  0  0  0  0  0  0
  145.4770  142.6398  157.1394 H   0  0  0  0  0  0  0  0  0  0  0  0
  146.6817  143.8780  156.8661 H   0  0  0  0  0  0  0  0  0  0  0  0
  147.3325  140.9810  157.6361 H   0  0  0  0  0  0  0  0  0  0  0  0
  147.4057  141.5943  155.9999 H   0  0  0  0  0  0  0  0  0  0  0  0
  149.1275  143.2450  156.9733 H   0  0  0  0  0  0  0  0  0  0  0  0
  152.0183  144.0290  157.5386 H   0  0  0  0  0  0  0  0  0  0  0  0
  150.2971  144.2149  157.6266 H   0  0  0  0  0  0  0  0  0  0  0  0
  151.3457  145.1688  159.6537 H   0  0  0  0  0  0  0  0  0  0  0  0
  150.3150  143.8244  160.0791 H   0  0  0  0  0  0  0  0  0  0  0  0
  153.3467  143.7951  159.8192 H   0  0  0  0  0  0  0  0  0  0  0  0
  151.5850  143.2979  162.2642 H   0  0  0  0  0  0  0  0  0  0  0  0
  152.5248  144.7548  161.9495 H   0  0  0  0  0  0  0  0  0  0  0  0
  153.3449  143.2231  162.2288 H   0  0  0  0  0  0  0  0  0  0  0  0
  153.3531  141.4236  160.3423 H   0  0  0  0  0  0  0  0  0  0  0  0
  151.6150  141.3897  160.5196 H   0  0  0  0  0  0  0  0  0  0  0  0
  153.1002  142.0833  157.9477 H   0  0  0  0  0  0  0  0  0  0  0  0
  153.4526  139.7619  158.3109 H   0  0  0  0  0  0  0  0  0  0  0  0
  152.2199  139.9009  157.0678 H   0  0  0  0  0  0  0  0  0  0  0  0
  151.7812  139.4537  158.7201 H   0  0  0  0  0  0  0  0  0  0  0  0
  1  2  1  0  0  0  0
  1 20  1  0  0  0  0
  1 21  1  0  0  0  0
  1 22  1  0  0  0  0
  2 19  1  0  0  0  0
  2  3  2  0  0  0  0
  3  4  1  0  0  0  0
  4  5  1  0  0  0  0
  5  6  1  0  0  0  0
  5 19  2  0  0  0  0
  6  7  1  0  0  0  0
  6 23  1  0  0  0  0
  6 24  1  0  0  0  0
  7  8  1  0  0  0  0
  7 25  1  0  0  0  0
  7 26  1  0  0  0  0
  8  9  1  0  0  0  0
  8 27  1  0  0  0  0
  9 10  2  0  0  0  0
  9 11  1  0  0  0  0
 11 17  1  0  0  0  0
 11 12  1  0  0  0  0
 12 13  1  0  0  0  0
 12 28  1  0  0  0  0
 12 29  1  0  0  0  0
 13 14  1  0  0  0  0
 13 30  1  0  0  0  0
 13 31  1  0  0  0  0
 14 15  1  0  0  0  0
 14 16  1  0  0  0  0
 14 32  1  0  0  0  0
 15 33  1  0  0  0  0
 15 34  1  0  0  0  0
 15 35  1  0  0  0  0
 16 17  1  0  0  0  0
 16 36  1  0  0  0  0
 16 37  1  0  0  0  0
 17 18  1  0  0  0  0
 17 38  1  0  0  0  0
 18 39  1  0  0  0  0
 18 40  1  0  0  0  0
 18 41  1  0  0  0  0
M  END
> <s_m_source_file>
AV-unprocessed.smi

> <i_m_source_file_index>
2911

> <i_lp_mmshare_version>
43012

> <i_f3d_flags>
0

> <s_epik_input>
W0NIM11jMW5vYyhuMSlbQ0gyXVtDSDJdW05IXUMoPU8pTjJbQ0gyXVtDSDJdW0NAQEhdKFtDSDNdKVtDSDJdW0NASF0yW0NIM10=

> <s_epik_cmdline>
J2VwaWtfcHl0aG9uJywgJy1waCcsICc3LjAnLCAnLXRuJywgJzgnLCAnLW1hJywgJzIwMCcsICctbWV0YWxfYmluZGluZycsICctaW1hZScsICc8aW5maWxlLm1hZT4nLCAnLW9tYWUnLCAnPG91dGZpbGUubWFlPic=

> <r_lp_tautomer_probability>
1

> <r_epik_Ionization_Penalty>
6.61671e-05

> <r_epik_Ionization_Penalty_Charging>
0

> <r_epik_Ionization_Penalty_Neutral>
6.61671e-05

> <r_epik_State_Penalty>
-0

> <r_epik_Charging_Adjusted_Penalty>
0

> <i_epik_Tot_Q>
0

> <i_epik_Tot_abs_Q>
0

> <r_epik_Metal_State_Penalty>
-0

> <b_epik_Metal_Only>
0

> <s_lp_Force_Field>
OPLS_2005

> <r_lp_Energy>
29.1944

> <b_lp_Chiralities_Consistent>
1

> <s_lp_Variant>
AV-unprocessed.smi:2911-1

> <Gold.Version>
5.8.1

> <Gold.Id.Protein>
6NUR|6NUR_protein|mol2

> <Gold.PLP.Fitness>
40.6313

> <Gold.PLP.PLP>
-35.9259

> <Gold.PLP.part.hbond>
-2.2710

> <Gold.PLP.part.metal>
0.0000

> <Gold.PLP.part.buried>
-5.5402

> <Gold.PLP.part.nonpolar>
-27.5453

> <Gold.PLP.part.repulsive>
0.2756

> <Gold.PLP.ligand.clash>
0.0000

> <Gold.PLP.ligand.torsion>
0.3780

> <Gold.PLP.Chemscore.Hbond>
1.6760

> <Gold.PLP.Chemscore.CHOScore>
0.0000

> <Gold.PLP.Chemscore.Metal>
0.0000

> <Gold.Chemscore.Hbonds>
donor molecule, donor type, donor heavy atom, donor atom, acceptor molecule, acceptor atom, score
      L1  H     8    27       P1  8028  0.99
      P1  H  6933  6944       L1     3  0.55

> <Gold.PLP.Chemscore.Internal.Correction>
0.4333

> <Gold.Rescore>
     Score         DG    S(hbond)    S(metal)    S(lipo)     H(rot)  DE(clash)    DE(int)     intcor
     14.39     -16.24       1.75        0.00      77.16       1.61       0.25       1.60       ----

> <Gold.Chemscore.Fitness>
14.3893

> <Gold.Chemscore.DG>
-16.2375

> <Gold.Chemscore.ZeroCoef>
-5.4800

> <Gold.Chemscore.Hbond>
1.7510

> <Gold.Chemscore.Metal>
0.0000

> <Gold.Chemscore.Lipo>
77.1603

> <Gold.Chemscore.Internal_Hbond>
0.0000

> <Gold.Chemscore.DEClash>
0.2488

> <Gold.Chemscore.DEInternal>
1.5994

> <Gold.Chemscore.Rot>
1.6088

> <Gold.Chemscore.Internal.Correction>
   9.000000E+99

> <Gold.Chemscore.Hbonds>
donor molecule, donor type, donor heavy atom, donor atom, acceptor molecule, acceptor atom, score
      L1  H     8    27       P1  8028  0.81
      P1  H  6933  6944       L1     3  0.03

> <Gold.Chemscore.Hbond.Weighted>
-5.8484

> <Gold.Chemscore.Metal.Weighted>
-0.0000

> <Gold.Chemscore.Lipo.Weighted>
-9.0278

> <Gold.Chemscore.Internal_Hbond.Weighted>
0.0000

> <Gold.Chemscore.DEClash.Weighted>
0.2488

> <Gold.Chemscore.DEInternal.Weighted>
1.5994

> <Gold.Chemscore.Rot.Weighted>
4.1186

> <Gold.Chemscore.Internal.Correction.Weighted>
   9.000000E+99

> <Gold.Protein.RotatedTorsions>
[ 6907 6896 6895 6894 ] final  -98.40 input  -60.11 | X-H torsion
[ 7974 7965 7964 7962 ] final  137.42 input  175.53 | X-H torsion
[ 8008 7997 7996 7995 ] final -169.90 input   59.86 | X-H torsion
[ 10167 10162 10161 10158 ] final    7.09 input  -65.29 | X-H torsion
[ 10718 10713 10712 10709 ] final    4.60 input   66.30 | X-H torsion
[ 10763 10752 10751 10750 ] final  166.67 input  -60.55 | X-H torsion
[ 11005 11000 10999 10996 ] final -143.43 input  -57.11 | X-H torsion

> <Gold.Protein.ActiveResidues>
 VAL166  LYS551  ARG553  GLY616  TRP617  ASP618  TYR619  PRO620  LYS621  CYS622 
 ASP623  PHE694  ASN695  SER759  ASP760  ASP761  ALA762  ILE779  LEU786  VAL792 
 PHE793  MET794  SER795  GLU796  ALA797  LYS798  CYS799  TRP800  GLU811  SER814 

> <Gold.Protein.RotatedAtoms>
  150.7045  134.1201  159.4031 H   0  0  0  0  0  0  0  0  0  0  0  0  # atno 6907 bound_to 6896
  151.9187  135.0305  160.0529 H   0  0  0  0  0  0  0  0  0  0  0  0  # atno 6908 bound_to 6896
  152.2274  133.4996  159.5233 H   0  0  0  0  0  0  0  0  0  0  0  0  # atno 6909 bound_to 6896
  144.9470  139.4863  143.5544 H   0  0  0  0  0  0  0  0  0  0  0  0  # atno 7974 bound_to 7965
  155.9111  140.1057  157.1278 H   0  0  0  0  0  0  0  0  0  0  0  0  # atno 8008 bound_to 7997
  154.4039  140.1274  156.4623 H   0  0  0  0  0  0  0  0  0  0  0  0  # atno 8009 bound_to 7997
  155.7309  140.3468  155.5061 H   0  0  0  0  0  0  0  0  0  0  0  0  # atno 8010 bound_to 7997
  140.6391  143.7816  150.7402 H   0  0  0  0  0  0  0  0  0  0  0  0  # atno 10167 bound_to 10162
  156.8951  130.5701  149.5649 H   0  0  0  0  0  0  0  0  0  0  0  0  # atno 10718 bound_to 10713
  154.3424  135.2754  155.2415 H   0  0  0  0  0  0  0  0  0  0  0  0  # atno 10763 bound_to 10752
  154.4680  135.5890  153.6305 H   0  0  0  0  0  0  0  0  0  0  0  0  # atno 10764 bound_to 10752
  152.9856  135.6081  154.3626 H   0  0  0  0  0  0  0  0  0  0  0  0  # atno 10765 bound_to 10752
  140.8126  134.2726  157.4934 H   0  0  0  0  0  0  0  0  0  0  0  0  # atno 11005 bound_to 11000
  146.3307  139.8528  142.8870 LP  0  0  0  0  0  0  0  0  0  0  0  0  # atno 17320 bound_to 7965
  145.2903  141.0165  143.3667 LP  0  0  0  0  0  0  0  0  0  0  0  0  # atno 17321 bound_to 7965
  140.1444  143.4413  152.2173 LP  0  0  0  0  0  0  0  0  0  0  0  0  # atno 17342 bound_to 10162
  139.5601  144.7399  151.4181 LP  0  0  0  0  0  0  0  0  0  0  0  0  # atno 17343 bound_to 10162
  156.0610  130.5662  150.9192 LP  0  0  0  0  0  0  0  0  0  0  0  0  # atno 17370 bound_to 10713
  157.6060  131.0939  150.8878 LP  0  0  0  0  0  0  0  0  0  0  0  0  # atno 17371 bound_to 10713
  139.8713  134.9491  156.4017 LP  0  0  0  0  0  0  0  0  0  0  0  0  # atno 17394 bound_to 11000
  140.9182  133.7664  155.9874 LP  0  0  0  0  0  0  0  0  0  0  0  0  # atno 17395 bound_to 11000

$$$$
