AV-unprocessed.smi:3226|AV-procd|sdf|12316|dock8
  -GOLD-   2272018163D 1   1.00000     0.00000
 Structure written by MMmdl.
 41 43  0  0  0  0  0  0  0  0  2 V2000
  146.3944  142.6839  154.2501 C   0  0  0  0  0  0  0  0  0  0  0  0
  146.8065  141.6527  153.1937 C   0  0  0  0  0  0  0  0  0  0  0  0
  148.0470  140.9047  153.5741 C   0  0  0  0  0  0  0  0  0  0  0  0
  149.1886  141.5072  153.9279 N   0  0  0  0  0  0  0  0  0  0  0  0
  150.0706  140.4891  154.2290 N   0  0  0  0  0  0  0  0  0  0  0  0
  149.3707  139.3726  154.0374 C   0  0  0  0  0  0  0  0  0  0  0  0
  148.1066  139.5569  153.6260 N   0  0  0  0  0  0  0  0  0  0  0  0
  147.0997  138.5512  153.3318 C   0  0  0  0  0  0  0  0  0  0  0  0
  146.6436  138.5907  151.8642 C   0  0  0  0  0  0  0  0  0  0  0  0
  146.6377  137.2442  151.2571 N   0  3  0  0  0  0  0  0  0  0  0  0
  145.5125  136.3938  151.6914 C   0  0  0  0  0  0  0  0  0  0  0  0
  145.4764  135.0716  150.9027 C   0  0  1  0  0  0  0  0  0  0  0  0
  146.5409  134.0272  151.3674 C   0  0  0  0  0  0  0  0  0  0  0  0
  145.6918  132.7747  151.6853 C   0  0  2  0  0  0  0  0  0  0  0  0
  145.0652  132.2876  150.3956 C   0  0  0  0  0  0  0  0  0  0  0  0
  144.1415  133.1827  150.0408 C   0  0  0  0  0  0  0  0  0  0  0  0
  144.1540  134.2809  151.0844 C   0  0  1  0  0  0  0  0  0  0  0  0
  144.4786  133.4482  152.3320 C   0  0  0  0  0  0  0  0  0  0  0  0
  145.4924  143.2146  153.9447 H   0  0  0  0  0  0  0  0  0  0  0  0
  147.1802  143.4241  154.4049 H   0  0  0  0  0  0  0  0  0  0  0  0
  146.1908  142.2061  155.2088 H   0  0  0  0  0  0  0  0  0  0  0  0
  145.9915  140.9513  153.0170 H   0  0  0  0  0  0  0  0  0  0  0  0
  146.9837  142.1569  152.2430 H   0  0  0  0  0  0  0  0  0  0  0  0
  149.7939  138.3918  154.1978 H   0  0  0  0  0  0  0  0  0  0  0  0
  147.5034  137.5685  153.5795 H   0  0  0  0  0  0  0  0  0  0  0  0
  146.2475  138.7081  153.9935 H   0  0  0  0  0  0  0  0  0  0  0  0
  145.6358  139.0047  151.8119 H   0  0  0  0  0  0  0  0  0  0  0  0
  147.2885  139.2497  151.2814 H   0  0  0  0  0  0  0  0  0  0  0  0
  146.5963  137.3439  150.2527 H   0  0  0  0  0  0  0  0  0  0  0  0
  145.5929  136.2071  152.7626 H   0  0  0  0  0  0  0  0  0  0  0  0
  144.5818  136.9400  151.5316 H   0  0  0  0  0  0  0  0  0  0  0  0
  145.6123  135.3011  149.8439 H   0  0  0  0  0  0  0  0  0  0  0  0
  147.2875  133.8302  150.5970 H   0  0  0  0  0  0  0  0  0  0  0  0
  147.0693  134.3629  152.2608 H   0  0  0  0  0  0  0  0  0  0  0  0
  146.1734  132.0011  152.2837 H   0  0  0  0  0  0  0  0  0  0  0  0
  145.3542  131.3900  149.8689 H   0  0  0  0  0  0  0  0  0  0  0  0
  143.5158  133.1744  149.1606 H   0  0  0  0  0  0  0  0  0  0  0  0
  143.2363  134.8674  151.1349 H   0  0  0  0  0  0  0  0  0  0  0  0
  143.6872  132.7412  152.5893 H   0  0  0  0  0  0  0  0  0  0  0  0
  144.7198  134.0371  153.2182 H   0  0  0  0  0  0  0  0  0  0  0  0
  147.5001  136.7779  151.4999 H   0  0  0  0  0  0  0  0  0  0  0  0
  1  2  1  0  0  0  0
  1 19  1  0  0  0  0
  1 20  1  0  0  0  0
  1 21  1  0  0  0  0
  2  3  1  0  0  0  0
  2 22  1  0  0  0  0
  2 23  1  0  0  0  0
  3  7  1  0  0  0  0
  3  4  2  0  0  0  0
  4  5  1  0  0  0  0
  5  6  2  0  0  0  0
  6  7  1  0  0  0  0
  6 24  1  0  0  0  0
  7  8  1  0  0  0  0
  8  9  1  0  0  0  0
  8 25  1  0  0  0  0
  8 26  1  0  0  0  0
  9 10  1  0  0  0  0
  9 27  1  0  0  0  0
  9 28  1  0  0  0  0
 10 11  1  0  0  0  0
 10 29  1  0  0  0  0
 10 41  1  0  0  0  0
 11 12  1  0  0  0  0
 11 30  1  0  0  0  0
 11 31  1  0  0  0  0
 12 17  1  0  0  0  0
 12 13  1  0  0  0  0
 12 32  1  0  0  0  0
 13 14  1  0  0  0  0
 13 33  1  0  0  0  0
 13 34  1  0  0  0  0
 14 18  1  0  0  0  0
 14 15  1  0  0  0  0
 14 35  1  0  0  0  0
 15 16  2  0  0  0  0
 15 36  1  0  0  0  0
 16 17  1  0  0  0  0
 16 37  1  0  0  0  0
 17 18  1  0  0  0  0
 17 38  1  0  0  0  0
 18 39  1  0  0  0  0
 18 40  1  0  0  0  0
M  CHG  1  10   1
M  END
> <s_m_source_file>
AV-unprocessed.smi

> <i_m_source_file_index>
3226

> <i_lp_mmshare_version>
43012

> <i_f3d_flags>
0

> <s_epik_input>
W0NIM11bQ0gyXWMxbm5bY0hdbjFbQ0gyXVtDSDJdW05IXVtDSDJdW0NASF0oW0NIMl1bQ0BASF0yMylbQ0BASF0oW0NIMl0zKVtDSF09W0NIXTI=

> <s_epik_cmdline>
J2VwaWtfcHl0aG9uJywgJy1waCcsICc3LjAnLCAnLXRuJywgJzgnLCAnLW1hJywgJzIwMCcsICctbWV0YWxfYmluZGluZycsICctaW1hZScsICc8aW5maWxlLm1hZT4nLCAnLW9tYWUnLCAnPG91dGZpbGUubWFlPic=

> <r_lp_tautomer_probability>
1

> <r_epik_Ionization_Penalty>
0.00175008

> <r_epik_Ionization_Penalty_Charging>
0.00173932

> <r_epik_Ionization_Penalty_Neutral>
1.07546e-05

> <r_epik_State_Penalty>
-0

> <r_epik_Charging_Adjusted_Penalty>
0.00173932

> <i_epik_Tot_Q>
1

> <i_epik_Tot_abs_Q>
1

> <r_epik_Metal_State_Penalty>
-0

> <b_epik_Metal_Only>
0

> <s_lp_Force_Field>
OPLS_2005

> <r_lp_Energy>
64.6894

> <b_lp_Chiralities_Consistent>
1

> <s_lp_Variant>
AV-unprocessed.smi:3226-4

> <Gold.Version>
5.8.1

> <Gold.Id.Protein>
6NUR|6NUR_protein|mol2

> <Gold.PLP.Fitness>
48.7043

> <Gold.PLP.PLP>
-39.2145

> <Gold.PLP.part.hbond>
-3.8666

> <Gold.PLP.part.metal>
0.0000

> <Gold.PLP.part.buried>
-2.5564

> <Gold.PLP.part.nonpolar>
-33.7315

> <Gold.PLP.part.repulsive>
0.5951

> <Gold.PLP.ligand.clash>
0.0000

> <Gold.PLP.ligand.torsion>
0.5587

> <Gold.PLP.Chemscore.Hbond>
3.5000

> <Gold.PLP.Chemscore.CHOScore>
0.0000

> <Gold.PLP.Chemscore.Metal>
0.0000

> <Gold.Chemscore.Hbonds>
donor molecule, donor type, donor heavy atom, donor atom, acceptor molecule, acceptor atom, score
      L1  H    10    41       P1  7948  2.00
      P1  H  7989  7998       L1     5  0.82
      P1  H  8011  8017       L1     4  0.70

> <Gold.PLP.Chemscore.Internal.Correction>
0.1072

> <Gold.Rescore>
     Score         DG    S(hbond)    S(metal)    S(lipo)     H(rot)  DE(clash)    DE(int)     intcor
     14.20     -15.21       1.65        0.00      81.26       2.06       0.36       0.65       ----

> <Gold.Chemscore.Fitness>
14.2040

> <Gold.Chemscore.DG>
-15.2132

> <Gold.Chemscore.ZeroCoef>
-5.4800

> <Gold.Chemscore.Hbond>
1.6483

> <Gold.Chemscore.Metal>
0.0000

> <Gold.Chemscore.Lipo>
81.2610

> <Gold.Chemscore.Internal_Hbond>
0.0000

> <Gold.Chemscore.DEClash>
0.3603

> <Gold.Chemscore.DEInternal>
0.6489

> <Gold.Chemscore.Rot>
2.0623

> <Gold.Chemscore.Internal.Correction>
   9.000000E+99

> <Gold.Chemscore.Hbonds>
donor molecule, donor type, donor heavy atom, donor atom, acceptor molecule, acceptor atom, score
      L1  H    10    41       P1  7948  0.96
      P1  H  7989  7998       L1     5  0.49
      P1  H  8011  8017       L1     4  0.24

> <Gold.Chemscore.Hbond.Weighted>
-5.5053

> <Gold.Chemscore.Metal.Weighted>
-0.0000

> <Gold.Chemscore.Lipo.Weighted>
-9.5075

> <Gold.Chemscore.Internal_Hbond.Weighted>
0.0000

> <Gold.Chemscore.DEClash.Weighted>
0.3603

> <Gold.Chemscore.DEInternal.Weighted>
0.6489

> <Gold.Chemscore.Rot.Weighted>
5.2796

> <Gold.Chemscore.Internal.Correction.Weighted>
   9.000000E+99

> <Gold.Protein.RotatedTorsions>
[ 6907 6896 6895 6894 ] final  -36.57 input  -60.11 | X-H torsion
[ 7974 7965 7964 7962 ] final  -82.63 input  175.53 | X-H torsion
[ 8008 7997 7996 7995 ] final  174.90 input   59.86 | X-H torsion
[ 10167 10162 10161 10158 ] final    0.53 input  -65.29 | X-H torsion
[ 10718 10713 10712 10709 ] final -168.96 input   66.30 | X-H torsion
[ 10763 10752 10751 10750 ] final   -6.65 input  -60.55 | X-H torsion
[ 11005 11000 10999 10996 ] final  -74.87 input  -57.11 | X-H torsion

> <Gold.Protein.ActiveResidues>
 VAL166  LYS551  ARG553  GLY616  TRP617  ASP618  TYR619  PRO620  LYS621  CYS622 
 ASP623  PHE694  ASN695  SER759  ASP760  ASP761  ALA762  ILE779  LEU786  VAL792 
 PHE793  MET794  SER795  GLU796  ALA797  LYS798  CYS799  TRP800  GLU811  SER814 

> <Gold.Protein.RotatedAtoms>
  151.0255  134.9500  159.8082 H   0  0  0  0  0  0  0  0  0  0  0  0  # atno 6907 bound_to 6896
  152.5334  134.2848  159.9031 H   0  0  0  0  0  0  0  0  0  0  0  0  # atno 6908 bound_to 6896
  151.2857  133.4147  159.2664 H   0  0  0  0  0  0  0  0  0  0  0  0  # atno 6909 bound_to 6896
  145.5307  140.9521  143.1605 H   0  0  0  0  0  0  0  0  0  0  0  0  # atno 7974 bound_to 7965
  156.0926  140.1422  156.9572 H   0  0  0  0  0  0  0  0  0  0  0  0  # atno 8008 bound_to 7997
  154.4651  140.0929  156.7045 H   0  0  0  0  0  0  0  0  0  0  0  0  # atno 8009 bound_to 7997
  155.4894  140.3447  155.4355 H   0  0  0  0  0  0  0  0  0  0  0  0  # atno 8010 bound_to 7997
  140.6724  143.7011  150.7951 H   0  0  0  0  0  0  0  0  0  0  0  0  # atno 10167 bound_to 10162
  156.7045  130.9209  151.3083 H   0  0  0  0  0  0  0  0  0  0  0  0  # atno 10718 bound_to 10713
  153.4154  135.7008  153.6330 H   0  0  0  0  0  0  0  0  0  0  0  0  # atno 10763 bound_to 10752
  153.4807  135.3694  155.2441 H   0  0  0  0  0  0  0  0  0  0  0  0  # atno 10764 bound_to 10752
  154.8719  135.4065  154.3513 H   0  0  0  0  0  0  0  0  0  0  0  0  # atno 10765 bound_to 10752
  141.1640  133.6926  156.7431 H   0  0  0  0  0  0  0  0  0  0  0  0  # atno 11005 bound_to 11000
  144.7627  139.6917  143.7227 LP  0  0  0  0  0  0  0  0  0  0  0  0  # atno 17320 bound_to 7965
  146.2046  139.5362  142.9721 LP  0  0  0  0  0  0  0  0  0  0  0  0  # atno 17321 bound_to 7965
  140.0698  143.5072  152.2585 LP  0  0  0  0  0  0  0  0  0  0  0  0  # atno 17342 bound_to 10162
  139.5999  144.7579  151.3196 LP  0  0  0  0  0  0  0  0  0  0  0  0  # atno 17343 bound_to 10162
  157.6960  130.9282  150.0646 LP  0  0  0  0  0  0  0  0  0  0  0  0  # atno 17370 bound_to 10713
  156.1705  130.3646  149.9172 LP  0  0  0  0  0  0  0  0  0  0  0  0  # atno 17371 bound_to 10713
  140.2660  134.8430  157.3803 LP  0  0  0  0  0  0  0  0  0  0  0  0  # atno 17394 bound_to 11000
  140.1566  134.4781  155.7923 LP  0  0  0  0  0  0  0  0  0  0  0  0  # atno 17395 bound_to 11000

$$$$
