AV-unprocessed.smi:1344|AV-procd|sdf|5509|dock10
  -GOLD-   22720 5 93D 1   1.00000     0.00000
 Structure written by MMmdl.
 32 34  0  0  0  0  0  0  0  0  1 V2000
  150.6617  144.3886  161.0935 O   0  0  0  0  0  0  0  0  0  0  0  0
  150.2506  144.8828  160.0435 C   0  0  0  0  0  0  0  0  0  0  0  0
  151.1438  144.8930  158.8016 C   0  0  0  0  0  0  0  0  0  0  0  0
  151.5564  143.4931  158.4489 C   0  0  0  0  0  0  0  0  0  0  0  0
  152.3815  142.6710  159.1768 C   0  0  0  0  0  0  0  0  0  0  0  0
  152.5976  141.1193  158.4141 S   0  0  0  0  0  0  0  0  0  0  0  0
  151.5389  141.6532  157.1054 C   0  0  0  0  0  0  0  0  0  0  0  0
  151.1447  140.8867  155.9692 N   0  0  0  0  0  0  0  0  0  0  0  0
  149.9325  141.1970  155.2179 C   0  0  0  0  0  0  0  0  0  0  0  0
  149.8828  140.1169  154.1416 C   0  0  0  0  0  0  0  0  0  0  0  0
  151.0801  139.3583  154.4172 N   0  0  0  0  0  0  0  0  0  0  0  0
  151.7806  139.8137  155.4584 C   0  0  0  0  0  0  0  0  0  0  0  0
  152.8317  139.3120  155.8525 O   0  0  0  0  0  0  0  0  0  0  0  0
  151.0912  142.9026  157.2682 N   0  0  0  0  0  0  0  0  0  0  0  0
  149.0323  145.4273  159.9040 N   0  0  0  0  0  0  0  0  0  0  0  0
  148.0329  145.5019  160.9191 C   0  0  0  0  0  0  0  0  0  0  0  0
  146.8239  144.6026  160.7772 C   0  0  0  0  0  0  0  0  0  0  0  0
  146.6876  146.0811  160.5388 C   0  0  0  0  0  0  0  0  0  0  0  0
  150.6120  145.3615  157.9722 H   0  0  0  0  0  0  0  0  0  0  0  0
  152.0187  145.5152  158.9953 H   0  0  0  0  0  0  0  0  0  0  0  0
  152.8704  142.8827  160.1163 H   0  0  0  0  0  0  0  0  0  0  0  0
  149.0552  141.1562  155.8654 H   0  0  0  0  0  0  0  0  0  0  0  0
  149.9963  142.1937  154.7789 H   0  0  0  0  0  0  0  0  0  0  0  0
  148.9994  139.4845  154.2361 H   0  0  0  0  0  0  0  0  0  0  0  0
  149.9152  140.5368  153.1357 H   0  0  0  0  0  0  0  0  0  0  0  0
  151.3538  138.5595  153.8634 H   0  0  0  0  0  0  0  0  0  0  0  0
  148.7886  145.8053  158.9997 H   0  0  0  0  0  0  0  0  0  0  0  0
  148.3671  145.6962  161.9373 H   0  0  0  0  0  0  0  0  0  0  0  0
  146.7755  143.9475  159.9090 H   0  0  0  0  0  0  0  0  0  0  0  0
  146.3896  144.1986  161.6895 H   0  0  0  0  0  0  0  0  0  0  0  0
  146.1628  146.6653  161.2919 H   0  0  0  0  0  0  0  0  0  0  0  0
  146.5479  146.4138  159.5118 H   0  0  0  0  0  0  0  0  0  0  0  0
  1  2  2  0  0  0  0
  2  3  1  0  0  0  0
  2 15  1  0  0  0  0
  3  4  1  0  0  0  0
  3 19  1  0  0  0  0
  3 20  1  0  0  0  0
  4 14  1  0  0  0  0
  4  5  2  0  0  0  0
  5  6  1  0  0  0  0
  5 21  1  0  0  0  0
  6  7  1  0  0  0  0
  7  8  1  0  0  0  0
  7 14  2  0  0  0  0
  8 12  1  0  0  0  0
  8  9  1  0  0  0  0
  9 10  1  0  0  0  0
  9 22  1  0  0  0  0
  9 23  1  0  0  0  0
 10 11  1  0  0  0  0
 10 24  1  0  0  0  0
 10 25  1  0  0  0  0
 11 12  1  0  0  0  0
 11 26  1  0  0  0  0
 12 13  2  0  0  0  0
 15 16  1  0  0  0  0
 15 27  1  0  0  0  0
 16 18  1  0  0  0  0
 16 17  1  0  0  0  0
 16 28  1  0  0  0  0
 17 18  1  0  0  0  0
 17 29  1  0  0  0  0
 17 30  1  0  0  0  0
 18 31  1  0  0  0  0
 18 32  1  0  0  0  0
M  END
> <s_m_source_file>
AV-unprocessed.smi

> <i_m_source_file_index>
1344

> <i_lp_mmshare_version>
43012

> <i_f3d_flags>
0

> <s_epik_input>
W0NIMl0xW0NIMl1bQ0hdMVtOSF1DKD1PKVtDSDJdYzJbY0hdc2MobjIpTjNbQ0gyXVtDSDJdW05IXUMzPU8=

> <s_epik_cmdline>
J2VwaWtfcHl0aG9uJywgJy1waCcsICc3LjAnLCAnLXRuJywgJzgnLCAnLW1hJywgJzIwMCcsICctbWV0YWxfYmluZGluZycsICctaW1hZScsICc8aW5maWxlLm1hZT4nLCAnLW9tYWUnLCAnPG91dGZpbGUubWFlPic=

> <r_lp_tautomer_probability>
1

> <r_epik_Ionization_Penalty>
0.000119825

> <r_epik_Ionization_Penalty_Charging>
0

> <r_epik_Ionization_Penalty_Neutral>
0.000119825

> <r_epik_State_Penalty>
-0

> <r_epik_Charging_Adjusted_Penalty>
0

> <i_epik_Tot_Q>
0

> <i_epik_Tot_abs_Q>
0

> <r_epik_Metal_State_Penalty>
-0

> <b_epik_Metal_Only>
0

> <s_lp_Force_Field>
OPLS_2005

> <r_lp_Energy>
42.6691

> <b_lp_Chiralities_Consistent>
1

> <s_lp_Variant>
AV-unprocessed.smi:1344-1

> <Gold.Version>
5.8.1

> <Gold.Id.Protein>
6NUR|6NUR_protein|mol2

> <Gold.PLP.Fitness>
44.7295

> <Gold.PLP.PLP>
-39.3579

> <Gold.PLP.part.hbond>
-2.1510

> <Gold.PLP.part.metal>
0.0000

> <Gold.PLP.part.buried>
-8.4125

> <Gold.PLP.part.nonpolar>
-29.8982

> <Gold.PLP.part.repulsive>
1.2173

> <Gold.PLP.ligand.clash>
0.0000

> <Gold.PLP.ligand.torsion>
0.3340

> <Gold.PLP.Chemscore.Hbond>
2.0000

> <Gold.PLP.Chemscore.CHOScore>
0.0000

> <Gold.PLP.Chemscore.Metal>
0.0000

> <Gold.Chemscore.Hbonds>
donor molecule, donor type, donor heavy atom, donor atom, acceptor molecule, acceptor atom, score
      L1  H    15    27       P1  8029  1.00
      P1  H  7997  8009       L1    13  1.00

> <Gold.PLP.Chemscore.Internal.Correction>
0.0395

> <Gold.Rescore>
     Score         DG    S(hbond)    S(metal)    S(lipo)     H(rot)  DE(clash)    DE(int)     intcor
     15.80     -16.21       1.99        0.00      70.11       1.61       0.07       0.34       ----

> <Gold.Chemscore.Fitness>
15.8020

> <Gold.Chemscore.DG>
-16.2109

> <Gold.Chemscore.ZeroCoef>
-5.4800

> <Gold.Chemscore.Hbond>
1.9885

> <Gold.Chemscore.Metal>
0.0000

> <Gold.Chemscore.Lipo>
70.1066

> <Gold.Chemscore.Internal_Hbond>
0.0000

> <Gold.Chemscore.DEClash>
0.0736

> <Gold.Chemscore.DEInternal>
0.3353

> <Gold.Chemscore.Rot>
1.6067

> <Gold.Chemscore.Internal.Correction>
   9.000000E+99

> <Gold.Chemscore.Hbonds>
donor molecule, donor type, donor heavy atom, donor atom, acceptor molecule, acceptor atom, score
      L1  H    15    27       P1  8029  0.99
      P1  H  7997  8009       L1    13  0.99

> <Gold.Chemscore.Hbond.Weighted>
-6.6416

> <Gold.Chemscore.Metal.Weighted>
-0.0000

> <Gold.Chemscore.Lipo.Weighted>
-8.2025

> <Gold.Chemscore.Internal_Hbond.Weighted>
0.0000

> <Gold.Chemscore.DEClash.Weighted>
0.0736

> <Gold.Chemscore.DEInternal.Weighted>
0.3353

> <Gold.Chemscore.Rot.Weighted>
4.1132

> <Gold.Chemscore.Internal.Correction.Weighted>
   9.000000E+99

> <Gold.Protein.RotatedTorsions>
[ 6907 6896 6895 6894 ] final  139.94 input  -60.11 | X-H torsion
[ 7974 7965 7964 7962 ] final  -64.43 input  175.53 | X-H torsion
[ 8008 7997 7996 7995 ] final -142.41 input   59.86 | X-H torsion
[ 10167 10162 10161 10158 ] final -131.28 input  -65.29 | X-H torsion
[ 10718 10713 10712 10709 ] final  -56.06 input   66.30 | X-H torsion
[ 10763 10752 10751 10750 ] final  -86.77 input  -60.55 | X-H torsion
[ 11005 11000 10999 10996 ] final  150.06 input  -57.11 | X-H torsion

> <Gold.Protein.ActiveResidues>
 VAL166  LYS551  ARG553  GLY616  TRP617  ASP618  TYR619  PRO620  LYS621  CYS622 
 ASP623  PHE694  ASN695  SER759  ASP760  ASP761  ALA762  ILE779  LEU786  VAL792 
 PHE793  MET794  SER795  GLU796  ALA797  LYS798  CYS799  TRP800  GLU811  SER814 

> <Gold.Protein.RotatedAtoms>
  152.2489  133.5198  159.5313 H   0  0  0  0  0  0  0  0  0  0  0  0  # atno 6907 bound_to 6896
  150.7087  134.0987  159.3967 H   0  0  0  0  0  0  0  0  0  0  0  0  # atno 6908 bound_to 6896
  151.8907  135.0417  160.0548 H   0  0  0  0  0  0  0  0  0  0  0  0  # atno 6909 bound_to 6896
  145.7668  140.8833  143.0401 H   0  0  0  0  0  0  0  0  0  0  0  0  # atno 7974 bound_to 7965
  155.4938  140.0570  157.2949 H   0  0  0  0  0  0  0  0  0  0  0  0  # atno 8008 bound_to 7997
  154.4613  140.1997  156.0188 H   0  0  0  0  0  0  0  0  0  0  0  0  # atno 8009 bound_to 7997
  156.0895  140.3235  155.7801 H   0  0  0  0  0  0  0  0  0  0  0  0  # atno 8010 bound_to 7997
  139.9205  143.6387  152.2554 H   0  0  0  0  0  0  0  0  0  0  0  0  # atno 10167 bound_to 10162
  156.1319  130.4159  150.0254 H   0  0  0  0  0  0  0  0  0  0  0  0  # atno 10718 bound_to 10713
  154.6261  135.5437  153.7629 H   0  0  0  0  0  0  0  0  0  0  0  0  # atno 10763 bound_to 10752
  153.0262  135.6424  154.1369 H   0  0  0  0  0  0  0  0  0  0  0  0  # atno 10764 bound_to 10752
  154.1301  135.2915  155.3167 H   0  0  0  0  0  0  0  0  0  0  0  0  # atno 10765 bound_to 10752
  140.1099  134.8931  157.1920 H   0  0  0  0  0  0  0  0  0  0  0  0  # atno 11005 bound_to 11000
  144.6820  139.9799  143.7483 LP  0  0  0  0  0  0  0  0  0  0  0  0  # atno 17320 bound_to 7965
  146.0210  139.3251  143.0813 LP  0  0  0  0  0  0  0  0  0  0  0  0  # atno 17321 bound_to 7965
  139.6865  144.7651  151.1514 LP  0  0  0  0  0  0  0  0  0  0  0  0  # atno 17342 bound_to 10162
  140.7663  143.5649  150.9058 LP  0  0  0  0  0  0  0  0  0  0  0  0  # atno 17343 bound_to 10162
  156.8163  130.9343  151.3642 LP  0  0  0  0  0  0  0  0  0  0  0  0  # atno 17370 bound_to 10713
  157.6496  130.8873  149.9606 LP  0  0  0  0  0  0  0  0  0  0  0  0  # atno 17371 bound_to 10713
  140.3106  134.3028  155.7268 LP  0  0  0  0  0  0  0  0  0  0  0  0  # atno 17394 bound_to 11000
  141.2127  133.7648  156.9770 LP  0  0  0  0  0  0  0  0  0  0  0  0  # atno 17395 bound_to 11000

$$$$
