AV-unprocessed.smi:2061|AV-procd|sdf|8389|dock5
  -GOLD-   2272011 73D 1   1.00000     0.00000
 Structure written by MMmdl.
 45 46  0  0  0  0  0  0  0  0  3 V2000
  151.7863  140.8542  158.1153 C   0  0  0  0  0  0  0  0  0  0  0  0
  151.3926  140.3440  156.7719 C   0  0  0  0  0  0  0  0  0  0  0  0
  150.1816  140.1421  156.1717 C   0  0  0  0  0  0  0  0  0  0  0  0
  150.5371  139.6330  154.8942 C   0  0  0  0  0  0  0  0  0  0  0  0
  149.5357  139.2847  153.9495 N   0  0  0  0  0  0  0  0  0  0  0  0
  148.2567  138.9301  154.1705 C   0  0  0  0  0  0  0  0  0  0  0  0
  147.8174  138.8604  155.3249 O   0  0  0  0  0  0  0  0  0  0  0  0
  147.5801  138.6907  153.0132 N   0  5  0  0  0  0  0  0  0  0  0  0
  146.1227  138.6119  152.8982 C   0  0  0  0  0  0  0  0  0  0  0  0
  145.7044  137.6928  151.7161 C   0  0  1  0  0  0  0  0  0  0  0  0
  146.1752  138.1948  150.3275 C   0  0  0  0  0  0  0  0  0  0  0  0
  146.0968  136.2743  151.9855 N   0  3  1  0  0  0  0  0  0  0  0  0
  145.7325  135.8064  153.3460 C   0  0  0  0  0  0  0  0  0  0  0  0
  146.3362  134.4144  153.6142 C   0  0  1  0  0  0  0  0  0  0  0  0
  145.9117  133.8529  154.9758 C   0  0  0  0  0  0  0  0  0  0  0  0
  145.8994  133.5079  152.6068 O   0  0  0  0  0  0  0  0  0  0  0  0
  146.3100  133.8983  151.3007 C   0  0  1  0  0  0  0  0  0  0  0  0
  145.8706  132.8092  150.3159 C   0  0  0  0  0  0  0  0  0  0  0  0
  145.6842  135.2650  150.9711 C   0  0  0  0  0  0  0  0  0  0  0  0
  151.8482  139.5370  154.7293 N   0  0  0  0  0  0  0  0  0  0  0  0
  152.4029  139.9928  155.9312 O   0  0  0  0  0  0  0  0  0  0  0  0
  150.9138  140.9734  158.7579 H   0  0  0  0  0  0  0  0  0  0  0  0
  152.2794  141.8226  158.0303 H   0  0  0  0  0  0  0  0  0  0  0  0
  152.4741  140.1645  158.6046 H   0  0  0  0  0  0  0  0  0  0  0  0
  149.2002  140.3262  156.5830 H   0  0  0  0  0  0  0  0  0  0  0  0
  149.8175  139.3238  152.9811 H   0  0  0  0  0  0  0  0  0  0  0  0
  145.6736  138.2339  153.8168 H   0  0  0  0  0  0  0  0  0  0  0  0
  145.6790  139.5982  152.7533 H   0  0  0  0  0  0  0  0  0  0  0  0
  144.6134  137.7078  151.6984 H   0  0  0  0  0  0  0  0  0  0  0  0
  145.7412  139.1649  150.0792 H   0  0  0  0  0  0  0  0  0  0  0  0
  145.8652  137.5082  149.5395 H   0  0  0  0  0  0  0  0  0  0  0  0
  147.2596  138.2990  150.2618 H   0  0  0  0  0  0  0  0  0  0  0  0
  146.1039  136.5087  154.0936 H   0  0  0  0  0  0  0  0  0  0  0  0
  144.6462  135.7762  153.4444 H   0  0  0  0  0  0  0  0  0  0  0  0
  147.4257  134.4774  153.5902 H   0  0  0  0  0  0  0  0  0  0  0  0
  146.2302  134.5073  155.7874 H   0  0  0  0  0  0  0  0  0  0  0  0
  146.3548  132.8715  155.1471 H   0  0  0  0  0  0  0  0  0  0  0  0
  144.8285  133.7444  155.0385 H   0  0  0  0  0  0  0  0  0  0  0  0
  147.3986  133.9742  151.2717 H   0  0  0  0  0  0  0  0  0  0  0  0
  146.1700  133.0568  149.2971 H   0  0  0  0  0  0  0  0  0  0  0  0
  144.7876  132.6822  150.3245 H   0  0  0  0  0  0  0  0  0  0  0  0
  146.3208  131.8494  150.5702 H   0  0  0  0  0  0  0  0  0  0  0  0
  144.5975  135.1714  150.9559 H   0  0  0  0  0  0  0  0  0  0  0  0
  145.9938  135.5761  149.9729 H   0  0  0  0  0  0  0  0  0  0  0  0
  147.1070  136.2864  151.9734 H   0  0  0  0  0  0  0  0  0  0  0  0
  1  2  1  0  0  0  0
  1 22  1  0  0  0  0
  1 23  1  0  0  0  0
  1 24  1  0  0  0  0
  2 21  1  0  0  0  0
  2  3  2  0  0  0  0
  3  4  1  0  0  0  0
  3 25  1  0  0  0  0
  4  5  1  0  0  0  0
  4 20  2  0  0  0  0
  5  6  1  0  0  0  0
  5 26  1  0  0  0  0
  6  7  2  0  0  0  0
  6  8  1  0  0  0  0
  8  9  1  0  0  0  0
  9 10  1  0  0  0  0
  9 27  1  0  0  0  0
  9 28  1  0  0  0  0
 10 11  1  0  0  0  0
 10 12  1  0  0  0  0
 10 29  1  0  0  0  0
 11 30  1  0  0  0  0
 11 31  1  0  0  0  0
 11 32  1  0  0  0  0
 12 19  1  0  0  0  0
 12 13  1  0  0  0  0
 12 45  1  0  0  0  0
 13 14  1  0  0  0  0
 13 33  1  0  0  0  0
 13 34  1  0  0  0  0
 14 15  1  0  0  0  0
 14 16  1  0  0  0  0
 14 35  1  0  0  0  0
 15 36  1  0  0  0  0
 15 37  1  0  0  0  0
 15 38  1  0  0  0  0
 16 17  1  0  0  0  0
 17 18  1  0  0  0  0
 17 19  1  0  0  0  0
 17 39  1  0  0  0  0
 18 40  1  0  0  0  0
 18 41  1  0  0  0  0
 18 42  1  0  0  0  0
 19 43  1  0  0  0  0
 19 44  1  0  0  0  0
 20 21  1  0  0  0  0
M  CHG  1   8  -1
M  CHG  1  12   1
M  END
> <s_m_source_file>
AV-unprocessed.smi

> <i_m_source_file_index>
2061

> <i_lp_mmshare_version>
43012

> <i_f3d_flags>
0

> <s_epik_input>
W0NIM11jMVtjSF1jKG5vMSlbTkhdQyg9TylbTkhdW0NIMl1bQ0BIXShbQ0gzXSlOMltDSDJdW0NAQEhdKFtDSDNdKU9bQ0BASF0oW0NIM10pW0NIMl0y

> <s_epik_cmdline>
J2VwaWtfcHl0aG9uJywgJy1waCcsICc3LjAnLCAnLXRuJywgJzgnLCAnLW1hJywgJzIwMCcsICctbWV0YWxfYmluZGluZycsICctaW1hZScsICc8aW5maWxlLm1hZT4nLCAnLW9tYWUnLCAnPG91dGZpbGUubWFlPic=

> <r_epik_Ionization_Penalty>
6.8073

> <r_epik_Ionization_Penalty_Charging>
6.80729

> <r_epik_Ionization_Penalty_Neutral>
5.65391e-06

> <r_epik_State_Penalty>
7.47323

> <r_epik_Charging_Adjusted_Penalty>
14.2805

> <i_epik_Tot_Q>
0

> <i_epik_Tot_abs_Q>
2

> <r_epik_Metal_State_Penalty>
3.40035

> <b_epik_Metal_Only>
1

> <s_lp_Force_Field>
OPLS_2005

> <r_lp_Energy>
16.6672

> <b_lp_Chiralities_Consistent>
1

> <s_lp_Variant>
AV-unprocessed.smi:2061-30

> <Gold.Version>
5.8.1

> <Gold.Id.Protein>
6NUR|6NUR_protein|mol2

> <Gold.PLP.Fitness>
37.2148

> <Gold.PLP.PLP>
-23.4058

> <Gold.PLP.part.hbond>
-4.0645

> <Gold.PLP.part.metal>
0.0000

> <Gold.PLP.part.buried>
2.7408

> <Gold.PLP.part.nonpolar>
-24.3964

> <Gold.PLP.part.repulsive>
1.6771

> <Gold.PLP.ligand.clash>
0.0000

> <Gold.PLP.ligand.torsion>
0.4380

> <Gold.PLP.Chemscore.Hbond>
4.8425

> <Gold.PLP.Chemscore.CHOScore>
0.0000

> <Gold.PLP.Chemscore.Metal>
0.0000

> <Gold.Chemscore.Hbonds>
donor molecule, donor type, donor heavy atom, donor atom, acceptor molecule, acceptor atom, score
      L1  H     5    26       P1  7957  1.00
      L1  H    12    45       P1  7948  2.00
      P1  H  7989  7998       L1    20  0.30
      P1  H  7997  8010       L1    21  0.94

> <Gold.PLP.Chemscore.Internal.Correction>
0.1574

> <Gold.Rescore>
     Score         DG    S(hbond)    S(metal)    S(lipo)     H(rot)  DE(clash)    DE(int)     intcor
     14.98     -19.15       2.92        0.00      67.59       1.56       2.41       1.77       ----

> <Gold.Chemscore.Fitness>
14.9758

> <Gold.Chemscore.DG>
-19.1518

> <Gold.Chemscore.ZeroCoef>
-5.4800

> <Gold.Chemscore.Hbond>
2.9174

> <Gold.Chemscore.Metal>
0.0000

> <Gold.Chemscore.Lipo>
67.5947

> <Gold.Chemscore.Internal_Hbond>
0.0000

> <Gold.Chemscore.DEClash>
2.4086

> <Gold.Chemscore.DEInternal>
1.7673

> <Gold.Chemscore.Rot>
1.5550

> <Gold.Chemscore.Internal.Correction>
   9.000000E+99

> <Gold.Chemscore.Hbonds>
donor molecule, donor type, donor heavy atom, donor atom, acceptor molecule, acceptor atom, score
      L1  H     5    26       P1  7957  0.94
      L1  H    12    45       P1  7948  1.00
      P1  H  7997  8010       L1    21  0.76

> <Gold.Chemscore.Hbond.Weighted>
-9.7441

> <Gold.Chemscore.Metal.Weighted>
-0.0000

> <Gold.Chemscore.Lipo.Weighted>
-7.9086

> <Gold.Chemscore.Internal_Hbond.Weighted>
0.0000

> <Gold.Chemscore.DEClash.Weighted>
2.4086

> <Gold.Chemscore.DEInternal.Weighted>
1.7673

> <Gold.Chemscore.Rot.Weighted>
3.9809

> <Gold.Chemscore.Internal.Correction.Weighted>
   9.000000E+99

> <Gold.Protein.RotatedTorsions>
[ 6907 6896 6895 6894 ] final  -33.24 input  -60.11 | X-H torsion
[ 7974 7965 7964 7962 ] final   -4.99 input  175.53 | X-H torsion
[ 8008 7997 7996 7995 ] final  103.24 input   59.86 | X-H torsion
[ 10167 10162 10161 10158 ] final -166.02 input  -65.29 | X-H torsion
[ 10718 10713 10712 10709 ] final   88.78 input   66.30 | X-H torsion
[ 10763 10752 10751 10750 ] final -131.61 input  -60.55 | X-H torsion
[ 11005 11000 10999 10996 ] final   81.64 input  -57.11 | X-H torsion

> <Gold.Protein.ActiveResidues>
 VAL166  LYS551  ARG553  GLY616  TRP617  ASP618  TYR619  PRO620  LYS621  CYS622 
 ASP623  PHE694  ASN695  SER759  ASP760  ASP761  ALA762  ILE779  LEU786  VAL792 
 PHE793  MET794  SER795  GLU796  ALA797  LYS798  CYS799  TRP800  GLU811  SER814 

> <Gold.Protein.RotatedAtoms>
  151.0682  134.9781  159.8294 H   0  0  0  0  0  0  0  0  0  0  0  0  # atno 6907 bound_to 6896
  152.5405  134.2332  159.8843 H   0  0  0  0  0  0  0  0  0  0  0  0  # atno 6908 bound_to 6896
  151.2355  133.4384  159.2639 H   0  0  0  0  0  0  0  0  0  0  0  0  # atno 6909 bound_to 6896
  146.2362  140.1954  142.8333 H   0  0  0  0  0  0  0  0  0  0  0  0  # atno 7974 bound_to 7965
  156.1466  140.3168  155.8580 H   0  0  0  0  0  0  0  0  0  0  0  0  # atno 8008 bound_to 7997
  155.4052  140.0502  157.3052 H   0  0  0  0  0  0  0  0  0  0  0  0  # atno 8009 bound_to 7997
  154.5021  140.2133  155.9336 H   0  0  0  0  0  0  0  0  0  0  0  0  # atno 8010 bound_to 7997
  139.6143  144.0752  152.1872 H   0  0  0  0  0  0  0  0  0  0  0  0  # atno 10167 bound_to 10162
  157.6951  131.0308  150.3325 H   0  0  0  0  0  0  0  0  0  0  0  0  # atno 10718 bound_to 10713
  154.8749  135.3824  154.4275 H   0  0  0  0  0  0  0  0  0  0  0  0  # atno 10763 bound_to 10752
  153.4972  135.7030  153.5857 H   0  0  0  0  0  0  0  0  0  0  0  0  # atno 10764 bound_to 10752
  153.4204  135.3903  155.2074 H   0  0  0  0  0  0  0  0  0  0  0  0  # atno 10765 bound_to 10752
  139.9091  134.8012  156.2069 H   0  0  0  0  0  0  0  0  0  0  0  0  # atno 11005 bound_to 11000
  144.9824  140.8472  143.5389 LP  0  0  0  0  0  0  0  0  0  0  0  0  # atno 17320 bound_to 7965
  145.1949  139.2282  143.5223 LP  0  0  0  0  0  0  0  0  0  0  0  0  # atno 17321 bound_to 7965
  140.0378  144.6031  150.7435 LP  0  0  0  0  0  0  0  0  0  0  0  0  # atno 17342 bound_to 10162
  140.7340  143.2724  151.3848 LP  0  0  0  0  0  0  0  0  0  0  0  0  # atno 17343 bound_to 10162
  156.3797  130.3878  149.7111 LP  0  0  0  0  0  0  0  0  0  0  0  0  # atno 17370 bound_to 10713
  156.4497  130.7901  151.2922 LP  0  0  0  0  0  0  0  0  0  0  0  0  # atno 17371 bound_to 10713
  141.0490  133.6898  156.1736 LP  0  0  0  0  0  0  0  0  0  0  0  0  # atno 17394 bound_to 11000
  140.6840  134.4737  157.5589 LP  0  0  0  0  0  0  0  0  0  0  0  0  # atno 17395 bound_to 11000

$$$$
