AV-unprocessed.smi:2226|AV-procd|sdf|9010|dock4
  -GOLD-   2272012213D 1   1.00000     0.00000
 Structure written by MMmdl.
 40 42  0  0  0  0  0  0  0  0  2 V2000
  150.4536  141.7078  156.3156 C   0  0  0  0  0  0  0  0  0  0  0  0
  150.9016  140.4608  155.6511 N   0  3  2  0  0  0  0  0  0  0  0  0
  149.8096  139.6149  155.1105 C   0  0  1  0  0  0  0  0  0  0  0  0
  150.4080  138.6143  154.0939 C   0  0  0  0  0  0  0  0  0  0  0  0
  151.5824  137.7848  154.6525 C   0  0  0  0  0  0  0  0  0  0  0  0
  152.5502  138.6339  155.5019 C   0  0  0  0  0  0  0  0  0  0  0  0
  151.8415  139.6334  156.4462 C   0  0  2  0  0  0  0  0  0  0  0  0
  151.1322  138.9874  157.6627 C   0  0  0  0  0  0  0  0  0  0  0  0
  149.8219  138.2397  157.3239 C   0  0  1  0  0  0  0  0  0  0  0  0
  149.0233  138.0985  158.5407 N   0  0  0  0  0  0  0  0  0  0  0  0
  148.7294  136.9545  159.1783 C   0  0  0  0  0  0  0  0  0  0  0  0
  149.1303  135.8602  158.7697 O   0  0  0  0  0  0  0  0  0  0  0  0
  147.9509  137.2275  160.2934 N   0  0  0  0  0  0  0  0  0  0  0  0
  147.3969  136.2533  160.9470 C   0  0  0  0  0  0  0  0  0  0  0  0
  146.5945  136.3404  162.0733 N   0  0  0  0  0  0  0  0  0  0  0  0
  146.2267  135.0735  162.4331 C   0  0  0  0  0  0  0  0  0  0  0  0
  146.7740  134.2227  161.5701 C   0  0  0  0  0  0  0  0  0  0  0  0
  147.4978  134.9142  160.6463 O   0  0  0  0  0  0  0  0  0  0  0  0
  148.9822  138.9684  156.2494 C   0  0  0  0  0  0  0  0  0  0  0  0
  149.8662  141.5115  157.2123 H   0  0  0  0  0  0  0  0  0  0  0  0
  149.8421  142.3019  155.6359 H   0  0  0  0  0  0  0  0  0  0  0  0
  151.3123  142.3156  156.6016 H   0  0  0  0  0  0  0  0  0  0  0  0
  149.1358  140.2616  154.5466 H   0  0  0  0  0  0  0  0  0  0  0  0
  149.6323  137.9519  153.7082 H   0  0  0  0  0  0  0  0  0  0  0  0
  150.7704  139.1793  153.2342 H   0  0  0  0  0  0  0  0  0  0  0  0
  151.2116  136.9414  155.2284 H   0  0  0  0  0  0  0  0  0  0  0  0
  152.1295  137.3291  153.8266 H   0  0  0  0  0  0  0  0  0  0  0  0
  153.2205  137.9849  156.0665 H   0  0  0  0  0  0  0  0  0  0  0  0
  153.1883  139.2016  154.8234 H   0  0  0  0  0  0  0  0  0  0  0  0
  152.6180  140.2932  156.8359 H   0  0  0  0  0  0  0  0  0  0  0  0
  151.8164  138.3144  158.1806 H   0  0  0  0  0  0  0  0  0  0  0  0
  150.9123  139.7781  158.3814 H   0  0  0  0  0  0  0  0  0  0  0  0
  150.0772  137.2524  156.9487 H   0  0  0  0  0  0  0  0  0  0  0  0
  148.6574  138.9515  158.9389 H   0  0  0  0  0  0  0  0  0  0  0  0
  146.3059  137.1685  162.5739 H   0  0  0  0  0  0  0  0  0  0  0  0
  145.5942  134.9117  163.2933 H   0  0  0  0  0  0  0  0  0  0  0  0
  146.7450  133.1467  161.4817 H   0  0  0  0  0  0  0  0  0  0  0  0
  148.4000  139.7559  156.7298 H   0  0  0  0  0  0  0  0  0  0  0  0
  148.2436  138.2825  155.8323 H   0  0  0  0  0  0  0  0  0  0  0  0
  151.4273  140.7734  154.8471 H   0  0  0  0  0  0  0  0  0  0  0  0
  1  2  1  0  0  0  0
  1 20  1  0  0  0  0
  1 21  1  0  0  0  0
  1 22  1  0  0  0  0
  2  7  1  0  0  0  0
  2  3  1  0  0  0  0
  2 40  1  0  0  0  0
  3 19  1  0  0  0  0
  3  4  1  0  0  0  0
  3 23  1  0  0  0  0
  4  5  1  0  0  0  0
  4 24  1  0  0  0  0
  4 25  1  0  0  0  0
  5  6  1  0  0  0  0
  5 26  1  0  0  0  0
  5 27  1  0  0  0  0
  6  7  1  0  0  0  0
  6 28  1  0  0  0  0
  6 29  1  0  0  0  0
  7  8  1  0  0  0  0
  7 30  1  0  0  0  0
  8  9  1  0  0  0  0
  8 31  1  0  0  0  0
  8 32  1  0  0  0  0
  9 10  1  0  0  0  0
  9 19  1  0  0  0  0
  9 33  1  0  0  0  0
 10 34  1  0  0  0  0
 10 11  1  0  0  0  0
 11 13  1  0  0  0  0
 11 12  2  0  0  0  0
 13 14  2  0  0  0  0
 14 18  1  0  0  0  0
 14 15  1  0  0  0  0
 15 35  1  0  0  0  0
 15 16  1  0  0  0  0
 16 36  1  0  0  0  0
 16 17  2  0  0  0  0
 17 37  1  0  0  0  0
 17 18  1  0  0  0  0
 19 38  1  0  0  0  0
 19 39  1  0  0  0  0
M  CHG  1   2   1
M  END
> <s_m_source_file>
AV-unprocessed.smi

> <i_m_source_file_index>
2226

> <i_lp_mmshare_version>
43012

> <i_f3d_flags>
0

> <s_epik_input>
W0NIMl0xW0NIMl1bQ0gyXVtDQEhdKE4oW0NIM10pW0NIXTEyKVtDSDJdW0NASF0oW0NIMl0yKVtOSF1DKD1PKVtOSF1jM25bY0hdW2NIXW8z

> <s_epik_cmdline>
J2VwaWtfcHl0aG9uJywgJy1waCcsICc3LjAnLCAnLXRuJywgJzgnLCAnLW1hJywgJzIwMCcsICctbWV0YWxfYmluZGluZycsICctaW1hZScsICc8aW5maWxlLm1hZT4nLCAnLW9tYWUnLCAnPG91dGZpbGUubWFlPic=

> <r_lp_tautomer_probability>
0.107061

> <r_epik_Ionization_Penalty>
1.08307

> <r_epik_Ionization_Penalty_Charging>
1.08272

> <r_epik_Ionization_Penalty_Neutral>
0.000345913

> <r_epik_State_Penalty>
2.5744

> <r_epik_Charging_Adjusted_Penalty>
3.65713

> <i_epik_Tot_Q>
1

> <i_epik_Tot_abs_Q>
1

> <r_epik_Metal_State_Penalty>
3.72133

> <b_epik_Metal_Only>
0

> <s_lp_Force_Field>
OPLS_2005

> <r_lp_Energy>
57.8706

> <b_lp_Chiralities_Consistent>
1

> <s_lp_Variant>
AV-unprocessed.smi:2226-10

> <Gold.Version>
5.8.1

> <Gold.Id.Protein>
6NUR|6NUR_protein|mol2

> <Gold.PLP.Fitness>
40.3656

> <Gold.PLP.PLP>
-33.9567

> <Gold.PLP.part.hbond>
-3.0000

> <Gold.PLP.part.metal>
0.0000

> <Gold.PLP.part.buried>
-5.5343

> <Gold.PLP.part.nonpolar>
-26.9657

> <Gold.PLP.part.repulsive>
0.4844

> <Gold.PLP.ligand.clash>
0.0000

> <Gold.PLP.ligand.torsion>
0.0502

> <Gold.PLP.Chemscore.Hbond>
2.1677

> <Gold.PLP.Chemscore.CHOScore>
0.0000

> <Gold.PLP.Chemscore.Metal>
0.0000

> <Gold.Chemscore.Hbonds>
donor molecule, donor type, donor heavy atom, donor atom, acceptor molecule, acceptor atom, score
      P1  H  6896  6907       L1    12  0.71
      P1  H  6931  6943       L1    13  0.42
      P1  H  6934  6947       L1    13  0.74

> <Gold.PLP.Chemscore.Internal.Correction>
0.0060

> <Gold.Rescore>
     Score         DG    S(hbond)    S(metal)    S(lipo)     H(rot)  DE(clash)    DE(int)     intcor
     15.64     -17.24       2.03        0.00      64.33       1.00       0.00       1.60       ----

> <Gold.Chemscore.Fitness>
15.6391

> <Gold.Chemscore.DG>
-17.2404

> <Gold.Chemscore.ZeroCoef>
-5.4800

> <Gold.Chemscore.Hbond>
2.0339

> <Gold.Chemscore.Metal>
0.0000

> <Gold.Chemscore.Lipo>
64.3338

> <Gold.Chemscore.Internal_Hbond>
0.0000

> <Gold.Chemscore.DEClash>
0.0029

> <Gold.Chemscore.DEInternal>
1.5984

> <Gold.Chemscore.Rot>
1.0000

> <Gold.Chemscore.Internal.Correction>
   9.000000E+99

> <Gold.Chemscore.Hbonds>
donor molecule, donor type, donor heavy atom, donor atom, acceptor molecule, acceptor atom, score
      P1  H  6896  6907       L1    12  0.71
      P1  H  6931  6943       L1    13  0.12
      P1  H  6934  6947       L1    13  0.54

> <Gold.Chemscore.Hbond.Weighted>
-6.7933

> <Gold.Chemscore.Metal.Weighted>
-0.0000

> <Gold.Chemscore.Lipo.Weighted>
-7.5271

> <Gold.Chemscore.Internal_Hbond.Weighted>
0.0000

> <Gold.Chemscore.DEClash.Weighted>
0.0029

> <Gold.Chemscore.DEInternal.Weighted>
1.5984

> <Gold.Chemscore.Rot.Weighted>
2.5600

> <Gold.Chemscore.Internal.Correction.Weighted>
   9.000000E+99

> <Gold.Protein.RotatedTorsions>
[ 6907 6896 6895 6894 ] final  -58.81 input  -60.11 | X-H torsion
[ 7974 7965 7964 7962 ] final  159.12 input  175.53 | X-H torsion
[ 8008 7997 7996 7995 ] final   22.40 input   59.86 | X-H torsion
[ 10167 10162 10161 10158 ] final -105.34 input  -65.29 | X-H torsion
[ 10718 10713 10712 10709 ] final   62.78 input   66.30 | X-H torsion
[ 10763 10752 10751 10750 ] final    3.77 input  -60.55 | X-H torsion
[ 11005 11000 10999 10996 ] final   66.98 input  -57.11 | X-H torsion

> <Gold.Protein.ActiveResidues>
 VAL166  LYS551  ARG553  GLY616  TRP617  ASP618  TYR619  PRO620  LYS621  CYS622 
 ASP623  PHE694  ASN695  SER759  ASP760  ASP761  ALA762  ILE779  LEU786  VAL792 
 PHE793  MET794  SER795  GLU796  ALA797  LYS798  CYS799  TRP800  GLU811  SER814 

> <Gold.Protein.RotatedAtoms>
  150.7978  134.7050  159.6571 H   0  0  0  0  0  0  0  0  0  0  0  0  # atno 6907 bound_to 6896
  152.4092  134.6151  160.0045 H   0  0  0  0  0  0  0  0  0  0  0  0  # atno 6908 bound_to 6896
  151.6399  133.3289  159.3164 H   0  0  0  0  0  0  0  0  0  0  0  0  # atno 6909 bound_to 6896
  144.7808  139.7573  143.6260 H   0  0  0  0  0  0  0  0  0  0  0  0  # atno 7974 bound_to 7965
  154.9652  140.3083  155.5013 H   0  0  0  0  0  0  0  0  0  0  0  0  # atno 8008 bound_to 7997
  156.2972  140.2294  156.4679 H   0  0  0  0  0  0  0  0  0  0  0  0  # atno 8009 bound_to 7997
  154.7928  140.0439  157.1202 H   0  0  0  0  0  0  0  0  0  0  0  0  # atno 8010 bound_to 7997
  140.1996  143.3828  152.1140 H   0  0  0  0  0  0  0  0  0  0  0  0  # atno 10167 bound_to 10162
  157.5925  130.9069  149.9632 H   0  0  0  0  0  0  0  0  0  0  0  0  # atno 10718 bound_to 10713
  153.2793  135.6939  153.7401 H   0  0  0  0  0  0  0  0  0  0  0  0  # atno 10763 bound_to 10752
  153.6395  135.3396  155.3068 H   0  0  0  0  0  0  0  0  0  0  0  0  # atno 10764 bound_to 10752
  154.8490  135.4428  154.1841 H   0  0  0  0  0  0  0  0  0  0  0  0  # atno 10765 bound_to 10752
  139.9799  134.6761  156.0283 H   0  0  0  0  0  0  0  0  0  0  0  0  # atno 11005 bound_to 11000
  146.2014  139.5311  142.9741 LP  0  0  0  0  0  0  0  0  0  0  0  0  # atno 17320 bound_to 7965
  145.6057  141.0348  143.1994 LP  0  0  0  0  0  0  0  0  0  0  0  0  # atno 17321 bound_to 7965
  139.5222  144.7056  151.5363 LP  0  0  0  0  0  0  0  0  0  0  0  0  # atno 17342 bound_to 10162
  140.6399  143.8909  150.6682 LP  0  0  0  0  0  0  0  0  0  0  0  0  # atno 17343 bound_to 10162
  156.0982  130.3658  150.0267 LP  0  0  0  0  0  0  0  0  0  0  0  0  # atno 17370 bound_to 10713
  156.8387  130.9418  151.3633 LP  0  0  0  0  0  0  0  0  0  0  0  0  # atno 17371 bound_to 10713
  141.1472  133.6554  156.3903 LP  0  0  0  0  0  0  0  0  0  0  0  0  # atno 17394 bound_to 11000
  140.5118  134.6387  157.5287 LP  0  0  0  0  0  0  0  0  0  0  0  0  # atno 17395 bound_to 11000

$$$$
