AV-unprocessed.smi:54|AV-procd|sdf|534|dock10
  -GOLD-   2262016413D 1   1.00000     0.00000
 Structure written by MMmdl.
 44 46  0  0  0  0  0  0  0  0  1 V2000
  152.4472  144.3020  160.1691 C   0  0  0  0  0  0  0  0  0  0  0  0
  152.2104  143.0054  160.9604 C   0  0  0  0  0  0  0  0  0  0  0  0
  153.1108  142.9387  162.2047 C   0  0  0  0  0  0  0  0  0  0  0  0
  152.4299  141.7799  160.0657 C   0  0  0  0  0  0  0  0  0  0  0  0
  153.3593  140.9937  160.2530 O   0  0  0  0  0  0  0  0  0  0  0  0
  151.4732  141.6190  158.9846 N   0  0  0  0  0  0  0  0  0  0  0  0
  151.4428  140.6409  158.0494 C   0  0  0  0  0  0  0  0  0  0  0  0
  150.6761  140.6915  156.9690 N   0  0  0  0  0  0  0  0  0  0  0  0
  150.7822  139.6057  156.1453 C   0  0  0  0  0  0  0  0  0  0  0  0
  151.5912  138.5053  156.3333 C   0  0  0  0  0  0  0  0  0  0  0  0
  151.4249  137.6053  155.2867 N   0  0  0  0  0  0  0  0  0  0  0  0
  150.5388  138.1740  154.5168 C   0  0  0  0  0  0  0  0  0  0  0  0
  150.0901  139.3923  154.9730 N   0  0  0  0  0  0  0  0  0  0  0  0
  149.0923  140.3349  154.3685 C   0  0  1  0  0  0  0  0  0  0  0  0
  148.6697  139.8089  153.1466 O   0  0  0  0  0  0  0  0  0  0  0  0
  147.3946  139.1973  153.3036 C   0  0  2  0  0  0  0  0  0  0  0  0
  146.6870  139.0226  151.9491 C   0  0  0  0  0  0  0  0  0  0  0  0
  147.3981  138.1036  151.1479 O   0  0  0  0  0  0  0  0  0  0  0  0
  146.7026  140.1397  154.2957 C   0  0  2  0  0  0  0  0  0  0  0  0
  146.2025  141.2893  153.6368 O   0  0  0  0  0  0  0  0  0  0  0  0
  147.8305  140.5163  155.2495 C   0  0  1  0  0  0  0  0  0  0  0  0
  147.7920  139.6745  156.3893 O   0  0  0  0  0  0  0  0  0  0  0  0
  152.4323  138.4386  157.4933 C   0  0  0  0  0  0  0  0  0  0  0  0
  153.2119  137.5460  157.8190 O   0  0  0  0  0  0  0  0  0  0  0  0
  152.2930  139.5666  158.3129 N   0  0  0  0  0  0  0  0  0  0  0  0
  149.6510  141.2577  154.2068 H   0  0  0  0  0  0  0  0  0  0  0  0
  147.5186  138.2268  153.7881 H   0  0  0  0  0  0  0  0  0  0  0  0
  145.8675  139.6527  154.8017 H   0  0  0  0  0  0  0  0  0  0  0  0
  147.7619  141.5525  155.5840 H   0  0  0  0  0  0  0  0  0  0  0  0
  151.8178  144.3442  159.2793 H   0  0  0  0  0  0  0  0  0  0  0  0
  153.4856  144.3922  159.8476 H   0  0  0  0  0  0  0  0  0  0  0  0
  152.2128  145.1769  160.7761 H   0  0  0  0  0  0  0  0  0  0  0  0
  151.1719  143.0011  161.2948 H   0  0  0  0  0  0  0  0  0  0  0  0
  152.9419  142.0205  162.7684 H   0  0  0  0  0  0  0  0  0  0  0  0
  152.9105  143.7747  162.8756 H   0  0  0  0  0  0  0  0  0  0  0  0
  154.1680  142.9770  161.9383 H   0  0  0  0  0  0  0  0  0  0  0  0
  150.7577  142.3281  158.9203 H   0  0  0  0  0  0  0  0  0  0  0  0
  150.1956  137.7173  153.6000 H   0  0  0  0  0  0  0  0  0  0  0  0
  145.6848  138.6198  152.0986 H   0  0  0  0  0  0  0  0  0  0  0  0
  146.5818  139.9748  151.4281 H   0  0  0  0  0  0  0  0  0  0  0  0
  147.8304  137.4831  151.7146 H   0  0  0  0  0  0  0  0  0  0  0  0
  145.4040  141.0548  153.1892 H   0  0  0  0  0  0  0  0  0  0  0  0
  147.6667  140.2157  157.1540 H   0  0  0  0  0  0  0  0  0  0  0  0
  152.8536  139.5849  159.1522 H   0  0  0  0  0  0  0  0  0  0  0  0
  1  2  1  0  0  0  0
  1 30  1  0  0  0  0
  1 31  1  0  0  0  0
  1 32  1  0  0  0  0
  2  3  1  0  0  0  0
  2  4  1  0  0  0  0
  2 33  1  0  0  0  0
  3 34  1  0  0  0  0
  3 35  1  0  0  0  0
  3 36  1  0  0  0  0
  4  5  2  0  0  0  0
  4  6  1  0  0  0  0
  6 37  1  0  0  0  0
  6  7  1  0  0  0  0
  7 25  1  0  0  0  0
  7  8  2  0  0  0  0
  8  9  1  0  0  0  0
  9 13  1  0  0  0  0
  9 10  2  0  0  0  0
 10 11  1  0  0  0  0
 10 23  1  0  0  0  0
 11 12  2  0  0  0  0
 12 13  1  0  0  0  0
 12 38  1  0  0  0  0
 13 14  1  0  0  0  0
 14 26  1  0  0  0  0
 14 21  1  0  0  0  0
 14 15  1  0  0  0  0
 15 16  1  0  0  0  0
 16 27  1  0  0  0  0
 16 17  1  0  0  0  0
 16 19  1  0  0  0  0
 17 18  1  0  0  0  0
 17 39  1  0  0  0  0
 17 40  1  0  0  0  0
 18 41  1  0  0  0  0
 19 28  1  0  0  0  0
 19 20  1  0  0  0  0
 19 21  1  0  0  0  0
 20 42  1  0  0  0  0
 21 29  1  0  0  0  0
 21 22  1  0  0  0  0
 22 43  1  0  0  0  0
 23 24  2  0  0  0  0
 23 25  1  0  0  0  0
 25 44  1  0  0  0  0
M  END
> <s_m_source_file>
AV-unprocessed.smi

> <i_m_source_file_index>
54

> <i_lp_mmshare_version>
43012

> <i_f3d_flags>
0

> <s_epik_input>
W0NIM11bQ0hdKFtDSDNdKUMoPU8pW05IXWMobjEpW25IXWMoPU8pYyhjMTIpbltjSF1uMltDQEBIXTNPW0NASF0oW0NIMl1bT0hdKVtDQEBIXShbT0hdKVtDQEhdM1tPSF0=

> <s_epik_cmdline>
J2VwaWtfcHl0aG9uJywgJy1waCcsICc3LjAnLCAnLXRuJywgJzgnLCAnLW1hJywgJzIwMCcsICctbWV0YWxfYmluZGluZycsICctaW1hZScsICc8aW5maWxlLm1hZT4nLCAnLW9tYWUnLCAnPG91dGZpbGUubWFlPic=

> <r_lp_tautomer_probability>
0.85571

> <r_epik_Ionization_Penalty>
0.0316551

> <r_epik_Ionization_Penalty_Charging>
0.0316043

> <r_epik_Ionization_Penalty_Neutral>
5.07097e-05

> <r_epik_State_Penalty>
3.15494e-07

> <r_epik_Charging_Adjusted_Penalty>
0.0316047

> <i_epik_Tot_Q>
0

> <i_epik_Tot_abs_Q>
0

> <r_epik_Metal_State_Penalty>
0.421206

> <b_epik_Metal_Only>
0

> <s_epik_Chemistry_Notes>
This compound contains an acetal/aminal-like group ( X-CH(R)-Y where X, Y are N, S, or O) that may be acid/base labile, releasing an aldehyde.

> <s_lp_Force_Field>
OPLS_2005

> <r_lp_Energy>
41.1485

> <b_lp_Chiralities_Consistent>
1

> <s_lp_Variant>
AV-unprocessed.smi:54-6

> <Gold.Version>
5.8.1

> <Gold.Id.Protein>
6NUR|6NUR_protein|mol2

> <Gold.PLP.Fitness>
46.3431

> <Gold.PLP.PLP>
-35.2358

> <Gold.PLP.part.hbond>
-3.8605

> <Gold.PLP.part.metal>
0.0000

> <Gold.PLP.part.buried>
-7.8253

> <Gold.PLP.part.nonpolar>
-30.2034

> <Gold.PLP.part.repulsive>
5.9670

> <Gold.PLP.ligand.clash>
0.0000

> <Gold.PLP.ligand.torsion>
0.2120

> <Gold.PLP.Chemscore.Hbond>
2.8713

> <Gold.PLP.Chemscore.CHOScore>
0.9586

> <Gold.PLP.Chemscore.Metal>
0.0000

> <Gold.Chemscore.Hbonds>
donor molecule, donor type, donor heavy atom, donor atom, acceptor molecule, acceptor atom, score
      L1  H    18    41       P1  7948  0.91
      L1  H    20    42       P1 10175  1.00
      P1  H  7954  7966       L1    18  0.85
      L1  C    12    38       P1  7948  0.93
      L1  C    12    38       P1  7949  0.03

> <Gold.PLP.Chemscore.Internal.Correction>
0.0417

> <Gold.Rescore>
     Score         DG    S(hbond)    S(metal)    S(lipo)     H(rot)  DE(clash)    DE(int)     intcor
      7.12      -9.65       2.23        0.00      60.64       4.05       1.41       1.12       ----

> <Gold.Chemscore.Fitness>
7.1175

> <Gold.Chemscore.DG>
-9.6452

> <Gold.Chemscore.ZeroCoef>
-5.4800

> <Gold.Chemscore.Hbond>
2.2266

> <Gold.Chemscore.Metal>
0.0000

> <Gold.Chemscore.Lipo>
60.6377

> <Gold.Chemscore.Internal_Hbond>
0.0000

> <Gold.Chemscore.DEClash>
1.4064

> <Gold.Chemscore.DEInternal>
1.1212

> <Gold.Chemscore.Rot>
4.0493

> <Gold.Chemscore.Internal.Correction>
   9.000000E+99

> <Gold.Chemscore.Hbonds>
donor molecule, donor type, donor heavy atom, donor atom, acceptor molecule, acceptor atom, score
      L1  H    18    41       P1  7948  0.89
      L1  H    20    42       P1 10175  0.34
      P1  H  7954  7966       L1    18  0.18

> <Gold.Chemscore.Hbond.Weighted>
-7.4368

> <Gold.Chemscore.Metal.Weighted>
-0.0000

> <Gold.Chemscore.Lipo.Weighted>
-7.0946

> <Gold.Chemscore.Internal_Hbond.Weighted>
0.0000

> <Gold.Chemscore.DEClash.Weighted>
1.4064

> <Gold.Chemscore.DEInternal.Weighted>
1.1212

> <Gold.Chemscore.Rot.Weighted>
10.3662

> <Gold.Chemscore.Internal.Correction.Weighted>
   9.000000E+99

> <Gold.Protein.RotatedTorsions>
[ 6907 6896 6895 6894 ] final -102.11 input  -60.11 | X-H torsion
[ 7974 7965 7964 7962 ] final  -73.67 input  175.53 | X-H torsion
[ 8008 7997 7996 7995 ] final  -47.62 input   59.86 | X-H torsion
[ 10167 10162 10161 10158 ] final  -74.63 input  -65.29 | X-H torsion
[ 10718 10713 10712 10709 ] final   81.85 input   66.30 | X-H torsion
[ 10763 10752 10751 10750 ] final  -65.34 input  -60.55 | X-H torsion
[ 11005 11000 10999 10996 ] final  108.75 input  -57.11 | X-H torsion

> <Gold.Protein.ActiveResidues>
 VAL166  LYS551  ARG553  GLY616  TRP617  ASP618  TYR619  PRO620  LYS621  CYS622 
 ASP623  PHE694  ASN695  SER759  ASP760  ASP761  ALA762  ILE779  LEU786  VAL792 
 PHE793  MET794  SER795  GLU796  ALA797  LYS798  CYS799  TRP800  GLU811  SER814 

> <Gold.Protein.RotatedAtoms>
  150.7182  134.0632  159.3838 H   0  0  0  0  0  0  0  0  0  0  0  0  # atno 6907 bound_to 6896
  151.8612  135.0521  160.0479 H   0  0  0  0  0  0  0  0  0  0  0  0  # atno 6908 bound_to 6896
  152.2715  133.5351  159.5479 H   0  0  0  0  0  0  0  0  0  0  0  0  # atno 6909 bound_to 6896
  145.6491  140.9288  143.0994 H   0  0  0  0  0  0  0  0  0  0  0  0  # atno 7974 bound_to 7965
  154.4019  140.1342  156.4206 H   0  0  0  0  0  0  0  0  0  0  0  0  # atno 8008 bound_to 7997
  155.7646  140.3485  155.5195 H   0  0  0  0  0  0  0  0  0  0  0  0  # atno 8009 bound_to 7997
  155.8825  140.0990  157.1465 H   0  0  0  0  0  0  0  0  0  0  0  0  # atno 8010 bound_to 7997
  140.5011  143.2361  151.7750 H   0  0  0  0  0  0  0  0  0  0  0  0  # atno 10167 bound_to 10162
  157.6843  131.0022  150.2287 H   0  0  0  0  0  0  0  0  0  0  0  0  # atno 10718 bound_to 10713
  154.3435  135.6151  153.5608 H   0  0  0  0  0  0  0  0  0  0  0  0  # atno 10763 bound_to 10752
  152.9802  135.5775  154.4825 H   0  0  0  0  0  0  0  0  0  0  0  0  # atno 10764 bound_to 10752
  154.4534  135.2853  155.1742 H   0  0  0  0  0  0  0  0  0  0  0  0  # atno 10765 bound_to 10752
  139.8849  134.9439  156.6020 H   0  0  0  0  0  0  0  0  0  0  0  0  # atno 11005 bound_to 11000
  144.7129  139.8304  143.7408 LP  0  0  0  0  0  0  0  0  0  0  0  0  # atno 17320 bound_to 7965
  146.1218  139.4237  143.0223 LP  0  0  0  0  0  0  0  0  0  0  0  0  # atno 17321 bound_to 7965
  139.4872  144.4520  151.9642 LP  0  0  0  0  0  0  0  0  0  0  0  0  # atno 17342 bound_to 10162
  140.3609  144.2973  150.5933 LP  0  0  0  0  0  0  0  0  0  0  0  0  # atno 17343 bound_to 10162
  156.2924  130.3747  149.7828 LP  0  0  0  0  0  0  0  0  0  0  0  0  # atno 17370 bound_to 10713
  156.5484  130.8331  151.3291 LP  0  0  0  0  0  0  0  0  0  0  0  0  # atno 17371 bound_to 10713
  140.7876  133.8608  155.8619 LP  0  0  0  0  0  0  0  0  0  0  0  0  # atno 17394 bound_to 11000
  140.9705  134.1537  157.4580 LP  0  0  0  0  0  0  0  0  0  0  0  0  # atno 17395 bound_to 11000

$$$$
