#       Name:                AV-unprocessed.smi:2062
#       Creating user name   scv26
#       Creation time:       Fri Mar 27 11:08:45 2020


#       File generated by GOLD software.
#

@<TRIPOS>MOLECULE
AV-unprocessed.smi:2062
    48    49     1
SMALL
NO_CHARGES


@<TRIPOS>ATOM
      1 ****        -5.2217   1.9470  -0.7821 C.3            1 S1                 0.0000
      2 ****        -4.0323   1.4035  -1.5896 C.3            1 S1                 0.0000
      3 ****        -4.4992   1.0017  -2.9995 C.3            1 S1                 0.0000
      4 ****        -3.3520   0.2265  -0.8512 C.3            1 S1                 0.0000
      5 ****        -1.8894   0.2683  -0.8057 N.3            1 S1                 0.0000
      6 ****        -1.2759   0.1232  -2.1230 C.3            1 S1                 0.0000
      7 ****         0.2604   0.1310  -2.0462 C.3            1 S1                 0.0000
      8 ****         0.6992  -0.8901  -1.1572 O.3            1 S1                 0.0000
      9 ****         0.1727  -0.7426   0.1595 C.3            1 S1                 0.0000
     10 ****         0.7243  -1.8797   1.0367 C.3            1 S1                 0.0000
     11 ****         2.1771  -1.8127   1.1544 N.am           1 S1                 0.0000
     12 ****         2.8451  -0.9868   1.9719 C.2            1 S1                 0.0000
     13 ****         2.2920  -0.2046   2.7449 O.2            1 S1                 0.0000
     14 ****         4.1727  -1.1280   1.8279 N.am           1 S1                 0.0000
     15 ****         5.1983  -0.4109   2.4925 C.2            1 S1                 0.0000
     16 ****         6.4711  -0.6863   2.2015 N.2            1 S1                 0.0000
     17 ****         7.3603   0.1066   2.9330 C.2            1 S1                 0.0000
     18 ****         6.7417   0.9878   3.7849 C.2            1 S1                 0.0000
     19 ****         5.0053   0.8590   3.7040 S.3            1 S1                 0.0000
     20 ****        -1.3663  -0.7686   0.0785 C.3            1 S1                 0.0000
     21 ****        -5.9848   1.1820  -0.6357 H              1 S1                 0.0000
     22 ****        -5.6895   2.7914  -1.2890 H              1 S1                 0.0000
     23 ****        -4.9035   2.2932   0.2018 H              1 S1                 0.0000
     24 ****        -3.3171   2.2219  -1.6850 H              1 S1                 0.0000
     25 ****        -5.2484   0.2105  -2.9568 H              1 S1                 0.0000
     26 ****        -3.6747   0.6405  -3.6132 H              1 S1                 0.0000
     27 ****        -4.9440   1.8502  -3.5201 H              1 S1                 0.0000
     28 ****        -3.7142   0.2229   0.1779 H              1 S1                 0.0000
     29 ****        -3.6866  -0.7234  -1.2715 H              1 S1                 0.0000
     30 ****        -1.6102  -0.8058  -2.5875 H              1 S1                 0.0000
     31 ****        -1.5919   0.9352  -2.7767 H              1 S1                 0.0000
     32 ****         0.6904  -0.0454  -3.0321 H              1 S1                 0.0000
     33 ****         0.6259   1.1012  -1.7057 H              1 S1                 0.0000
     34 ****         0.4921   0.2181   0.5676 H              1 S1                 0.0000
     35 ****         0.2724  -1.8471   2.0297 H              1 S1                 0.0000
     36 ****         0.4583  -2.8463   0.6080 H              1 S1                 0.0000
     37 ****         2.7098  -2.4211   0.5499 H              1 S1                 0.0000
     38 ****         4.4856  -1.8144   1.1574 H              1 S1                 0.0000
     39 ****         8.4221  -0.0224   2.7838 H              1 S1                 0.0000
     40 ****         7.2002   1.7025   4.4520 H              1 S1                 0.0000
     41 ****        -1.7796  -0.6401   1.0797 H              1 S1                 0.0000
     42 ****        -1.6947  -1.7495  -0.2697 H              1 S1                 0.0000
     43 ****        -1.6513   1.1730  -0.4524 LP             1 S1                 0.0000
     44 ****         1.6975  -0.8620  -1.1067 LP             1 S1                 0.0000
     45 ****         0.4085  -1.7755  -1.5198 LP             1 S1                 0.0000
     46 ****         1.2936  -0.1631   2.7848 LP             1 S1                 0.0000
     47 ****         2.8410   0.3894   3.3329 LP             1 S1                 0.0000
     48 ****         6.7555  -1.3784   1.5382 LP             1 S1                 0.0000
@<TRIPOS>BOND
    1    1    2 1     
    2    1   21 1     
    3    1   22 1     
    4    1   23 1     
    5    2    3 1     
    6    2    4 1     
    7    2   24 1     
    8    3   25 1     
    9    3   26 1     
   10    3   27 1     
   11    4    5 1     
   12    4   28 1     
   13    4   29 1     
   14    5   20 1     
   15    5    6 1     
   16    6    7 1     
   17    6   30 1     
   18    6   31 1     
   19    7    8 1     
   20    7   32 1     
   21    7   33 1     
   22    8    9 1     
   23    9   10 1     
   24    9   20 1     
   25    9   34 1     
   26   10   11 1     
   27   10   35 1     
   28   10   36 1     
   29   11   12 am    
   30   11   37 1     
   31   12   13 2     
   32   12   14 am    
   33   14   15 1     
   34   14   38 1     
   35   15   19 1     
   36   15   16 2     
   37   16   17 1     
   38   17   18 2     
   39   17   39 1     
   40   18   19 1     
   41   18   40 1     
   42   20   41 1     
   43   20   42 1     
   44    5   43 1     
   45    8   44 1     
   46    8   45 1     
   47   13   46 1     
   48   13   47 1     
   49   16   48 1     
@<TRIPOS>SUBSTRUCTURE
      1 S1             1
@<TRIPOS>SET
LONE_PAIRS      STATIC     ATOMS    <user>   **** ""
6 43 44 45 46 47 48
DONOR_HYDROGENS      STATIC     ATOMS    <user>   **** ""
2 37 38
ATOM$BLUE        STATIC     ATOMS    COLORGROUP SYSTEM
6 43 44 45 46 47 48
ATOM$RED        STATIC     ATOMS    COLORGROUP SYSTEM
2 37 38
