AV-unprocessed.smi:2581|AV-procd|sdf|10132|dock3
  -GOLD-   2272014143D 1   1.00000     0.00000
 Structure written by MMmdl.
 40 42  0  0  0  0  0  0  0  0  2 V2000
  150.8823  138.2007  157.4712 O   0  0  0  0  0  0  0  0  0  0  0  0
  150.8023  139.4210  157.3333 C   0  0  0  0  0  0  0  0  0  0  0  0
  151.5582  140.3626  158.1630 C   0  0  0  0  0  0  0  0  0  0  0  0
  151.5105  141.7112  158.0025 C   0  0  0  0  0  0  0  0  0  0  0  0
  152.2465  142.5856  158.8062 N   0  0  0  0  0  0  0  0  0  0  0  0
  152.0858  144.0375  158.8158 C   0  0  0  0  0  0  0  0  0  0  0  0
  151.5301  144.4989  160.1732 C   0  0  0  0  0  0  0  0  0  0  0  0
  152.4182  144.0825  161.2058 O   0  0  0  0  0  0  0  0  0  0  0  0
  152.5748  142.6670  161.2416 C   0  0  0  0  0  0  0  0  0  0  0  0
  153.1290  142.1682  159.8943 C   0  0  0  0  0  0  0  0  0  0  0  0
  150.6393  142.1821  156.9360 C   0  0  0  0  0  0  0  0  0  0  0  0
  149.9538  141.3884  156.1867 N   0  0  0  0  0  0  0  0  0  0  0  0
  150.0141  140.0196  156.3893 N   0  0  0  0  0  0  0  0  0  0  0  0
  149.1881  139.2217  155.4609 C   0  0  1  0  0  0  0  0  0  0  0  0
  147.6763  139.3323  155.7666 C   0  0  0  0  0  0  0  0  0  0  0  0
  146.8703  138.4986  154.7589 C   0  0  0  0  0  0  0  0  0  0  0  0
  147.2086  138.9084  153.3154 C   0  0  0  0  0  0  0  0  0  0  0  0
  148.6626  138.7972  153.0649 N   0  3  0  0  0  0  0  0  0  0  0  0
  149.4756  139.6118  153.9948 C   0  0  0  0  0  0  0  0  0  0  0  0
  152.1952  139.9351  158.9228 H   0  0  0  0  0  0  0  0  0  0  0  0
  153.0598  144.4969  158.6425 H   0  0  0  0  0  0  0  0  0  0  0  0
  151.4466  144.3790  158.0026 H   0  0  0  0  0  0  0  0  0  0  0  0
  151.4439  145.5851  160.1964 H   0  0  0  0  0  0  0  0  0  0  0  0
  150.5320  144.0928  160.3453 H   0  0  0  0  0  0  0  0  0  0  0  0
  153.2584  142.4068  162.0496 H   0  0  0  0  0  0  0  0  0  0  0  0
  151.6183  142.1920  161.4665 H   0  0  0  0  0  0  0  0  0  0  0  0
  153.2366  141.0854  159.9368 H   0  0  0  0  0  0  0  0  0  0  0  0
  154.1254  142.5766  159.7216 H   0  0  0  0  0  0  0  0  0  0  0  0
  150.5856  143.2620  156.8029 H   0  0  0  0  0  0  0  0  0  0  0  0
  149.4304  138.1624  155.5611 H   0  0  0  0  0  0  0  0  0  0  0  0
  147.4703  138.9922  156.7821 H   0  0  0  0  0  0  0  0  0  0  0  0
  147.3391  140.3679  155.7088 H   0  0  0  0  0  0  0  0  0  0  0  0
  147.0871  137.4392  154.9013 H   0  0  0  0  0  0  0  0  0  0  0  0
  145.8026  138.6229  154.9421 H   0  0  0  0  0  0  0  0  0  0  0  0
  146.6755  138.2735  152.6072 H   0  0  0  0  0  0  0  0  0  0  0  0
  146.8894  139.9345  153.1271 H   0  0  0  0  0  0  0  0  0  0  0  0
  148.9328  137.8294  153.1686 H   0  0  0  0  0  0  0  0  0  0  0  0
  149.2588  140.6668  153.8219 H   0  0  0  0  0  0  0  0  0  0  0  0
  150.5300  139.4609  153.7616 H   0  0  0  0  0  0  0  0  0  0  0  0
  148.8569  139.0897  152.1176 H   0  0  0  0  0  0  0  0  0  0  0  0
  1  2  2  0  0  0  0
  2 13  1  0  0  0  0
  2  3  1  0  0  0  0
  3  4  2  0  0  0  0
  3 20  1  0  0  0  0
  4  5  1  0  0  0  0
  4 11  1  0  0  0  0
  5 10  1  0  0  0  0
  5  6  1  0  0  0  0
  6  7  1  0  0  0  0
  6 21  1  0  0  0  0
  6 22  1  0  0  0  0
  7  8  1  0  0  0  0
  7 23  1  0  0  0  0
  7 24  1  0  0  0  0
  8  9  1  0  0  0  0
  9 10  1  0  0  0  0
  9 25  1  0  0  0  0
  9 26  1  0  0  0  0
 10 27  1  0  0  0  0
 10 28  1  0  0  0  0
 11 12  2  0  0  0  0
 11 29  1  0  0  0  0
 12 13  1  0  0  0  0
 13 14  1  0  0  0  0
 14 19  1  0  0  0  0
 14 15  1  0  0  0  0
 14 30  1  0  0  0  0
 15 16  1  0  0  0  0
 15 31  1  0  0  0  0
 15 32  1  0  0  0  0
 16 17  1  0  0  0  0
 16 33  1  0  0  0  0
 16 34  1  0  0  0  0
 17 18  1  0  0  0  0
 17 35  1  0  0  0  0
 17 36  1  0  0  0  0
 18 19  1  0  0  0  0
 18 37  1  0  0  0  0
 18 40  1  0  0  0  0
 19 38  1  0  0  0  0
 19 39  1  0  0  0  0
M  CHG  1  18   1
M  END
> <s_m_source_file>
AV-unprocessed.smi

> <i_m_source_file_index>
2581

> <i_lp_mmshare_version>
43012

> <i_f3d_flags>
0

> <s_epik_input>
W0NIMl0xW0NIMl1PW0NIMl1bQ0gyXU4xYyhbY0hdYzI9TylbY0hdbm4yW0NAQEhdM1tDSDJdW0NIMl1bQ0gyXVtOSF1bQ0gyXTM=

> <s_epik_cmdline>
J2VwaWtfcHl0aG9uJywgJy1waCcsICc3LjAnLCAnLXRuJywgJzgnLCAnLW1hJywgJzIwMCcsICctbWV0YWxfYmluZGluZycsICctaW1hZScsICc8aW5maWxlLm1hZT4nLCAnLW9tYWUnLCAnPG91dGZpbGUubWFlPic=

> <r_lp_tautomer_probability>
1

> <r_epik_Ionization_Penalty>
0.00140529

> <r_epik_Ionization_Penalty_Charging>
0.00140528

> <r_epik_Ionization_Penalty_Neutral>
1.0684e-08

> <r_epik_State_Penalty>
0.000937322

> <r_epik_Charging_Adjusted_Penalty>
0.00234261

> <i_epik_Tot_Q>
1

> <i_epik_Tot_abs_Q>
1

> <r_epik_Metal_State_Penalty>
-0

> <b_epik_Metal_Only>
0

> <s_lp_Force_Field>
OPLS_2005

> <r_lp_Energy>
43.4563

> <b_lp_Chiralities_Consistent>
1

> <s_lp_Variant>
AV-unprocessed.smi:2581-2

> <Gold.Version>
5.8.1

> <Gold.Id.Protein>
6NUR|6NUR_protein|mol2

> <Gold.PLP.Fitness>
42.6881

> <Gold.PLP.PLP>
-33.3112

> <Gold.PLP.part.hbond>
-1.7531

> <Gold.PLP.part.metal>
0.0000

> <Gold.PLP.part.buried>
-3.0304

> <Gold.PLP.part.nonpolar>
-29.3990

> <Gold.PLP.part.repulsive>
0.2850

> <Gold.PLP.ligand.clash>
0.0000

> <Gold.PLP.ligand.torsion>
0.2076

> <Gold.PLP.Chemscore.Hbond>
2.2480

> <Gold.PLP.Chemscore.CHOScore>
1.0000

> <Gold.PLP.Chemscore.Metal>
0.0000

> <Gold.Chemscore.Hbonds>
donor molecule, donor type, donor heavy atom, donor atom, acceptor molecule, acceptor atom, score
      L1  H    18    37       P1  7948  1.25
      L1  H    18    40       P1  7957  0.99
      L1  C    11    29       P1  8028  1.00

> <Gold.PLP.Chemscore.Internal.Correction>
0.0481

> <Gold.Rescore>
     Score         DG    S(hbond)    S(metal)    S(lipo)     H(rot)  DE(clash)    DE(int)     intcor
     16.45     -18.01       1.49        0.00      86.44       1.00       1.31       0.24       ----

> <Gold.Chemscore.Fitness>
16.4529

> <Gold.Chemscore.DG>
-18.0050

> <Gold.Chemscore.ZeroCoef>
-5.4800

> <Gold.Chemscore.Hbond>
1.4886

> <Gold.Chemscore.Metal>
0.0000

> <Gold.Chemscore.Lipo>
86.4364

> <Gold.Chemscore.Internal_Hbond>
0.0000

> <Gold.Chemscore.DEClash>
1.3092

> <Gold.Chemscore.DEInternal>
0.2430

> <Gold.Chemscore.Rot>
1.0000

> <Gold.Chemscore.Internal.Correction>
   9.000000E+99

> <Gold.Chemscore.Hbonds>
donor molecule, donor type, donor heavy atom, donor atom, acceptor molecule, acceptor atom, score
      L1  H    18    37       P1  7948  0.58
      L1  H    18    40       P1  7957  0.85

> <Gold.Chemscore.Hbond.Weighted>
-4.9720

> <Gold.Chemscore.Metal.Weighted>
-0.0000

> <Gold.Chemscore.Lipo.Weighted>
-10.1131

> <Gold.Chemscore.Internal_Hbond.Weighted>
0.0000

> <Gold.Chemscore.DEClash.Weighted>
1.3092

> <Gold.Chemscore.DEInternal.Weighted>
0.2430

> <Gold.Chemscore.Rot.Weighted>
2.5600

> <Gold.Chemscore.Internal.Correction.Weighted>
   9.000000E+99

> <Gold.Protein.RotatedTorsions>
[ 6907 6896 6895 6894 ] final  -73.68 input  -60.11 | X-H torsion
[ 7974 7965 7964 7962 ] final  -74.14 input  175.53 | X-H torsion
[ 8008 7997 7996 7995 ] final  -81.39 input   59.86 | X-H torsion
[ 10167 10162 10161 10158 ] final -168.20 input  -65.29 | X-H torsion
[ 10718 10713 10712 10709 ] final -149.28 input   66.30 | X-H torsion
[ 10763 10752 10751 10750 ] final    3.58 input  -60.55 | X-H torsion
[ 11005 11000 10999 10996 ] final -170.31 input  -57.11 | X-H torsion

> <Gold.Protein.ActiveResidues>
 VAL166  LYS551  ARG553  GLY616  TRP617  ASP618  TYR619  PRO620  LYS621  CYS622 
 ASP623  PHE694  ASN695  SER759  ASP760  ASP761  ALA762  ILE779  LEU786  VAL792 
 PHE793  MET794  SER795  GLU796  ALA797  LYS798  CYS799  TRP800  GLU811  SER814 

> <Gold.Protein.RotatedAtoms>
  150.7121  134.4980  159.5547 H   0  0  0  0  0  0  0  0  0  0  0  0  # atno 6907 bound_to 6896
  152.2584  134.8057  160.0444 H   0  0  0  0  0  0  0  0  0  0  0  0  # atno 6908 bound_to 6896
  151.8780  133.3454  159.3793 H   0  0  0  0  0  0  0  0  0  0  0  0  # atno 6909 bound_to 6896
  145.6430  140.9305  143.1026 H   0  0  0  0  0  0  0  0  0  0  0  0  # atno 7974 bound_to 7965
  154.5979  140.0648  156.9328 H   0  0  0  0  0  0  0  0  0  0  0  0  # atno 8008 bound_to 7997
  155.2183  140.3328  155.4301 H   0  0  0  0  0  0  0  0  0  0  0  0  # atno 8009 bound_to 7997
  156.2299  140.1836  156.7253 H   0  0  0  0  0  0  0  0  0  0  0  0  # atno 8010 bound_to 7997
  139.6000  144.1030  152.1732 H   0  0  0  0  0  0  0  0  0  0  0  0  # atno 10167 bound_to 10162
  156.4310  130.8075  151.2302 H   0  0  0  0  0  0  0  0  0  0  0  0  # atno 10718 bound_to 10713
  153.2816  135.6941  153.7380 H   0  0  0  0  0  0  0  0  0  0  0  0  # atno 10763 bound_to 10752
  153.6365  135.3401  155.3059 H   0  0  0  0  0  0  0  0  0  0  0  0  # atno 10764 bound_to 10752
  154.8497  135.4421  154.1871 H   0  0  0  0  0  0  0  0  0  0  0  0  # atno 10765 bound_to 10752
  140.5209  134.5710  157.5047 H   0  0  0  0  0  0  0  0  0  0  0  0  # atno 11005 bound_to 11000
  144.7150  139.8228  143.7401 LP  0  0  0  0  0  0  0  0  0  0  0  0  # atno 17320 bound_to 7965
  146.1266  139.4293  143.0195 LP  0  0  0  0  0  0  0  0  0  0  0  0  # atno 17321 bound_to 7965
  140.0624  144.5845  150.7253 LP  0  0  0  0  0  0  0  0  0  0  0  0  # atno 17342 bound_to 10162
  140.7242  143.2619  151.4176 LP  0  0  0  0  0  0  0  0  0  0  0  0  # atno 17343 bound_to 10162
  157.7508  131.0198  150.3683 LP  0  0  0  0  0  0  0  0  0  0  0  0  # atno 17370 bound_to 10713
  156.4020  130.3917  149.6953 LP  0  0  0  0  0  0  0  0  0  0  0  0  # atno 17371 bound_to 10713
  139.9606  134.7459  156.0245 LP  0  0  0  0  0  0  0  0  0  0  0  0  # atno 17394 bound_to 11000
  141.1334  133.6581  156.3527 LP  0  0  0  0  0  0  0  0  0  0  0  0  # atno 17395 bound_to 11000

$$$$
