AV-unprocessed.smi:2385|AV-procd|sdf|9465|dock7
  -GOLD-   2272013 93D 1   1.00000     0.00000
 Structure written by MMmdl.
 50 52  0  0  0  0  0  0  0  0  2 V2000
  154.0539  141.7084  160.7506 C   0  0  0  0  0  0  0  0  0  0  0  0
  153.0410  141.9243  159.6459 C   0  0  0  0  0  0  0  0  0  0  0  0
  152.6988  143.2209  159.2181 C   0  0  0  0  0  0  0  0  0  0  0  0
  151.7524  143.3670  158.1858 C   0  0  0  0  0  0  0  0  0  0  0  0
  151.1723  142.2167  157.6056 C   0  0  0  0  0  0  0  0  0  0  0  0
  150.2288  142.4744  156.5757 N   0  0  0  0  0  0  0  0  0  0  0  0
  149.6085  141.5896  155.7757 C   0  0  0  0  0  0  0  0  0  0  0  0
  149.7689  140.3693  155.7997 O   0  0  0  0  0  0  0  0  0  0  0  0
  148.7773  142.2074  154.9237 N   0  0  0  0  0  0  0  0  0  0  0  0
  147.9410  141.5439  153.9238 C   0  0  2  0  0  0  0  0  0  0  0  0
  147.0028  142.5332  153.2072 C   0  0  0  0  0  0  0  0  0  0  0  0
  145.9013  143.0622  154.1426 C   0  0  0  0  0  0  0  0  0  0  0  0
  145.1169  141.9531  154.7484 N   0  3  2  0  0  0  0  0  0  0  0  0
  143.9800  142.4625  155.5616 C   0  0  0  0  0  0  0  0  0  0  0  0
  143.4034  143.8015  155.0514 C   0  0  2  0  0  0  0  0  0  0  0  0
  144.1373  145.0071  155.6132 C   0  0  0  0  0  0  0  0  0  0  0  0
  143.1128  146.1170  155.4343 C   0  0  0  0  0  0  0  0  0  0  0  0
  141.8859  145.4937  155.7773 O   0  0  0  0  0  0  0  0  0  0  0  0
  141.9523  144.1063  155.4597 C   0  0  0  0  0  0  0  0  0  0  0  0
  145.9961  141.0057  155.4854 C   0  0  0  0  0  0  0  0  0  0  0  0
  147.1021  140.4350  154.5783 C   0  0  0  0  0  0  0  0  0  0  0  0
  151.5105  140.9712  158.0225 N   0  0  0  0  0  0  0  0  0  0  0  0
  152.4172  140.8317  159.0127 C   0  0  0  0  0  0  0  0  0  0  0  0
  154.1221  142.5859  161.3945 H   0  0  0  0  0  0  0  0  0  0  0  0
  155.0389  141.5174  160.3247 H   0  0  0  0  0  0  0  0  0  0  0  0
  153.7746  140.8551  161.3691 H   0  0  0  0  0  0  0  0  0  0  0  0
  153.1514  144.0909  159.6710 H   0  0  0  0  0  0  0  0  0  0  0  0
  151.4780  144.3555  157.8467 H   0  0  0  0  0  0  0  0  0  0  0  0
  149.9973  143.4466  156.4360 H   0  0  0  0  0  0  0  0  0  0  0  0
  148.7053  143.2126  154.9826 H   0  0  0  0  0  0  0  0  0  0  0  0
  148.5997  141.0824  153.1857 H   0  0  0  0  0  0  0  0  0  0  0  0
  147.5686  143.3658  152.7874 H   0  0  0  0  0  0  0  0  0  0  0  0
  146.5365  142.0311  152.3584 H   0  0  0  0  0  0  0  0  0  0  0  0
  146.3373  143.6757  154.9326 H   0  0  0  0  0  0  0  0  0  0  0  0
  145.2390  143.7120  153.5690 H   0  0  0  0  0  0  0  0  0  0  0  0
  143.2035  141.7022  155.6587 H   0  0  0  0  0  0  0  0  0  0  0  0
  144.3452  142.6419  156.5741 H   0  0  0  0  0  0  0  0  0  0  0  0
  143.4839  143.8457  153.9639 H   0  0  0  0  0  0  0  0  0  0  0  0
  144.3505  144.8682  156.6742 H   0  0  0  0  0  0  0  0  0  0  0  0
  145.0771  145.2129  155.1002 H   0  0  0  0  0  0  0  0  0  0  0  0
  143.3124  146.9851  156.0629 H   0  0  0  0  0  0  0  0  0  0  0  0
  143.0738  146.4448  154.3945 H   0  0  0  0  0  0  0  0  0  0  0  0
  141.2554  143.8758  154.6535 H   0  0  0  0  0  0  0  0  0  0  0  0
  141.6503  143.5390  156.3404 H   0  0  0  0  0  0  0  0  0  0  0  0
  146.4354  141.5099  156.3476 H   0  0  0  0  0  0  0  0  0  0  0  0
  145.4160  140.1722  155.8728 H   0  0  0  0  0  0  0  0  0  0  0  0
  146.6434  139.8255  153.7986 H   0  0  0  0  0  0  0  0  0  0  0  0
  147.7443  139.7621  155.1480 H   0  0  0  0  0  0  0  0  0  0  0  0
  152.6506  139.8187  159.3058 H   0  0  0  0  0  0  0  0  0  0  0  0
  144.7124  141.4434  153.9757 H   0  0  0  0  0  0  0  0  0  0  0  0
  1  2  1  0  0  0  0
  1 24  1  0  0  0  0
  1 25  1  0  0  0  0
  1 26  1  0  0  0  0
  2 23  1  0  0  0  0
  2  3  2  0  0  0  0
  3  4  1  0  0  0  0
  3 27  1  0  0  0  0
  4  5  2  0  0  0  0
  4 28  1  0  0  0  0
  5  6  1  0  0  0  0
  5 22  1  0  0  0  0
  6  7  1  0  0  0  0
  6 29  1  0  0  0  0
  7  8  2  0  0  0  0
  7  9  1  0  0  0  0
  9 10  1  0  0  0  0
  9 30  1  0  0  0  0
 10 21  1  0  0  0  0
 10 11  1  0  0  0  0
 10 31  1  0  0  0  0
 11 12  1  0  0  0  0
 11 32  1  0  0  0  0
 11 33  1  0  0  0  0
 12 13  1  0  0  0  0
 12 34  1  0  0  0  0
 12 35  1  0  0  0  0
 13 14  1  0  0  0  0
 13 20  1  0  0  0  0
 13 50  1  0  0  0  0
 14 15  1  0  0  0  0
 14 36  1  0  0  0  0
 14 37  1  0  0  0  0
 15 19  1  0  0  0  0
 15 16  1  0  0  0  0
 15 38  1  0  0  0  0
 16 17  1  0  0  0  0
 16 39  1  0  0  0  0
 16 40  1  0  0  0  0
 17 18  1  0  0  0  0
 17 41  1  0  0  0  0
 17 42  1  0  0  0  0
 18 19  1  0  0  0  0
 19 43  1  0  0  0  0
 19 44  1  0  0  0  0
 20 21  1  0  0  0  0
 20 45  1  0  0  0  0
 20 46  1  0  0  0  0
 21 47  1  0  0  0  0
 21 48  1  0  0  0  0
 22 23  2  0  0  0  0
 23 49  1  0  0  0  0
M  CHG  1  13   1
M  END
> <s_m_source_file>
AV-unprocessed.smi

> <i_m_source_file_index>
2385

> <i_lp_mmshare_version>
43012

> <i_f3d_flags>
0

> <s_epik_input>
W0NIM11jMVtjSF1bY0hdYyhuW2NIXTEpW05IXUMoPU8pW05IXVtDSF0yW0NIMl1bQ0gyXU4oW0NIMl1bQ0gyXTIpW0NIMl1bQ0BASF0zW0NIMl1bQ0gyXU9bQ0gyXTM=

> <s_epik_cmdline>
J2VwaWtfcHl0aG9uJywgJy1waCcsICc3LjAnLCAnLXRuJywgJzgnLCAnLW1hJywgJzIwMCcsICctbWV0YWxfYmluZGluZycsICctaW1hZScsICc8aW5maWxlLm1hZT4nLCAnLW9tYWUnLCAnPG91dGZpbGUubWFlPic=

> <r_epik_Ionization_Penalty>
0.00752367

> <r_epik_Ionization_Penalty_Charging>
0.00747775

> <r_epik_Ionization_Penalty_Neutral>
4.59207e-05

> <r_epik_State_Penalty>
0.00558817

> <r_epik_Charging_Adjusted_Penalty>
0.0130659

> <i_epik_Tot_Q>
1

> <i_epik_Tot_abs_Q>
1

> <r_epik_Metal_State_Penalty>
-0

> <b_epik_Metal_Only>
0

> <s_lp_Force_Field>
OPLS_2005

> <r_lp_Energy>
35.6171

> <b_lp_Chiralities_Consistent>
1

> <s_lp_Variant>
AV-unprocessed.smi:2385-3

> <Gold.Version>
5.8.1

> <Gold.Id.Protein>
6NUR|6NUR_protein|mol2

> <Gold.PLP.Fitness>
49.8782

> <Gold.PLP.PLP>
-39.1303

> <Gold.PLP.part.hbond>
-3.0000

> <Gold.PLP.part.metal>
0.0000

> <Gold.PLP.part.buried>
-7.1551

> <Gold.PLP.part.nonpolar>
-29.2934

> <Gold.PLP.part.repulsive>
0.3132

> <Gold.PLP.ligand.clash>
0.0000

> <Gold.PLP.ligand.torsion>
0.6281

> <Gold.PLP.Chemscore.Hbond>
3.9920

> <Gold.PLP.Chemscore.CHOScore>
0.0000

> <Gold.PLP.Chemscore.Metal>
0.0000

> <Gold.Chemscore.Hbonds>
donor molecule, donor type, donor heavy atom, donor atom, acceptor molecule, acceptor atom, score
      L1  H     6    29       P1  8028  0.99
      L1  H     9    30       P1  8028  1.00
      L1  H    13    50       P1 10175  1.98

> <Gold.PLP.Chemscore.Internal.Correction>
0.0281

> <Gold.Rescore>
     Score         DG    S(hbond)    S(metal)    S(lipo)     H(rot)  DE(clash)    DE(int)     intcor
     17.22     -23.10       2.79        0.00     101.70       1.41       1.97       3.91       ----

> <Gold.Chemscore.Fitness>
17.2200

> <Gold.Chemscore.DG>
-23.0973

> <Gold.Chemscore.ZeroCoef>
-5.4800

> <Gold.Chemscore.Hbond>
2.7893

> <Gold.Chemscore.Metal>
0.0000

> <Gold.Chemscore.Lipo>
101.7018

> <Gold.Chemscore.Internal_Hbond>
0.0000

> <Gold.Chemscore.DEClash>
1.9708

> <Gold.Chemscore.DEInternal>
3.9065

> <Gold.Chemscore.Rot>
1.4056

> <Gold.Chemscore.Internal.Correction>
   9.000000E+99

> <Gold.Chemscore.Hbonds>
donor molecule, donor type, donor heavy atom, donor atom, acceptor molecule, acceptor atom, score
      L1  H     6    29       P1  8028  0.94
      L1  H     9    30       P1  8028  0.99
      L1  H    13    50       P1 10175  0.28

> <Gold.Chemscore.Hbond.Weighted>
-9.3164

> <Gold.Chemscore.Metal.Weighted>
-0.0000

> <Gold.Chemscore.Lipo.Weighted>
-11.8991

> <Gold.Chemscore.Internal_Hbond.Weighted>
0.0000

> <Gold.Chemscore.DEClash.Weighted>
1.9708

> <Gold.Chemscore.DEInternal.Weighted>
3.9065

> <Gold.Chemscore.Rot.Weighted>
3.5982

> <Gold.Chemscore.Internal.Correction.Weighted>
   9.000000E+99

> <Gold.Protein.RotatedTorsions>
[ 6907 6896 6895 6894 ] final -100.40 input  -60.11 | X-H torsion
[ 7974 7965 7964 7962 ] final   90.79 input  175.53 | X-H torsion
[ 8008 7997 7996 7995 ] final  -92.46 input   59.86 | X-H torsion
[ 10167 10162 10161 10158 ] final -167.07 input  -65.29 | X-H torsion
[ 10718 10713 10712 10709 ] final  149.04 input   66.30 | X-H torsion
[ 10763 10752 10751 10750 ] final   -7.61 input  -60.55 | X-H torsion
[ 11005 11000 10999 10996 ] final  -18.36 input  -57.11 | X-H torsion

> <Gold.Protein.ActiveResidues>
 VAL166  LYS551  ARG553  GLY616  TRP617  ASP618  TYR619  PRO620  LYS621  CYS622 
 ASP623  PHE694  ASN695  SER759  ASP760  ASP761  ALA762  ILE779  LEU786  VAL792 
 PHE793  MET794  SER795  GLU796  ALA797  LYS798  CYS799  TRP800  GLU811  SER814 

> <Gold.Protein.RotatedAtoms>
  150.7115  134.0892  159.3925 H   0  0  0  0  0  0  0  0  0  0  0  0  # atno 6907 bound_to 6896
  151.8877  135.0426  160.0504 H   0  0  0  0  0  0  0  0  0  0  0  0  # atno 6908 bound_to 6896
  152.2516  133.5185  159.5365 H   0  0  0  0  0  0  0  0  0  0  0  0  # atno 6909 bound_to 6896
  145.5143  139.2277  143.2707 H   0  0  0  0  0  0  0  0  0  0  0  0  # atno 7974 bound_to 7965
  154.7235  140.0508  157.0661 H   0  0  0  0  0  0  0  0  0  0  0  0  # atno 8008 bound_to 7997
  155.0396  140.3167  155.4710 H   0  0  0  0  0  0  0  0  0  0  0  0  # atno 8009 bound_to 7997
  156.2823  140.2135  156.5520 H   0  0  0  0  0  0  0  0  0  0  0  0  # atno 8010 bound_to 7997
  139.6073  144.0886  152.1806 H   0  0  0  0  0  0  0  0  0  0  0  0  # atno 10167 bound_to 10162
  157.3011  131.0871  151.1389 H   0  0  0  0  0  0  0  0  0  0  0  0  # atno 10718 bound_to 10713
  153.4288  135.7011  153.6244 H   0  0  0  0  0  0  0  0  0  0  0  0  # atno 10763 bound_to 10752
  153.4668  135.3724  155.2369 H   0  0  0  0  0  0  0  0  0  0  0  0  # atno 10764 bound_to 10752
  154.8725  135.4033  154.3669 H   0  0  0  0  0  0  0  0  0  0  0  0  # atno 10765 bound_to 10752
  140.8260  133.8032  155.9709 H   0  0  0  0  0  0  0  0  0  0  0  0  # atno 11005 bound_to 11000
  146.2147  140.5952  142.9044 LP  0  0  0  0  0  0  0  0  0  0  0  0  # atno 17320 bound_to 7965
  144.7710  140.5638  143.6670 LP  0  0  0  0  0  0  0  0  0  0  0  0  # atno 17321 bound_to 7965
  140.0496  144.5943  150.7346 LP  0  0  0  0  0  0  0  0  0  0  0  0  # atno 17342 bound_to 10162
  140.7294  143.2672  151.4005 LP  0  0  0  0  0  0  0  0  0  0  0  0  # atno 17343 bound_to 10162
  157.2748  130.6722  149.6037 LP  0  0  0  0  0  0  0  0  0  0  0  0  # atno 17370 bound_to 10713
  155.9671  130.4468  150.5554 LP  0  0  0  0  0  0  0  0  0  0  0  0  # atno 17371 bound_to 10713
  140.9048  134.2333  157.5020 LP  0  0  0  0  0  0  0  0  0  0  0  0  # atno 17394 bound_to 11000
  139.8706  134.9723  156.4769 LP  0  0  0  0  0  0  0  0  0  0  0  0  # atno 17395 bound_to 11000

$$$$
