AV-unprocessed.smi:1738|AV-procd|sdf|7000|dock9
  -GOLD-   22720 8213D 1   1.00000     0.00000
 Structure written by MMmdl.
 46 48  0  0  0  0  0  0  0  0  2 V2000
  147.7664  128.2350  152.3507 C   0  0  0  0  0  0  0  0  0  0  0  0
  148.0556  128.5525  154.1389 S   0  0  0  0  0  0  0  0  0  0  0  0
  146.7935  128.3219  154.8588 O   0  0  0  0  0  0  0  0  0  0  0  0
  149.2647  127.8154  154.5382 O   0  0  0  0  0  0  0  0  0  0  0  0
  148.4161  130.3036  154.2067 C   0  0  0  0  0  0  0  0  0  0  0  0
  149.4213  130.7933  155.0643 C   0  0  0  0  0  0  0  0  0  0  0  0
  149.6950  132.1743  155.0471 C   0  0  0  0  0  0  0  0  0  0  0  0
  148.9637  133.0078  154.1639 C   0  0  0  0  0  0  0  0  0  0  0  0
  149.1338  134.4149  154.0399 N   0  0  0  0  0  0  0  0  0  0  0  0
  149.4894  135.3188  154.9692 C   0  0  0  0  0  0  0  0  0  0  0  0
  149.7079  135.0818  156.1562 O   0  0  0  0  0  0  0  0  0  0  0  0
  149.5779  136.5465  154.4371 N   0  0  0  0  0  0  0  0  0  0  0  0
  149.9643  137.7543  155.1649 C   0  0  1  0  0  0  0  0  0  0  0  0
  151.3638  138.2707  154.7811 C   0  0  0  0  0  0  0  0  0  0  0  0
  151.2168  139.7955  154.7567 C   0  0  0  0  0  0  0  0  0  0  0  0
  149.8405  139.9815  154.2830 N   0  3  2  0  0  0  0  0  0  0  0  0
  149.2413  141.3293  154.3522 C   0  0  0  0  0  0  0  0  0  0  0  0
  147.8829  141.2948  153.6186 C   0  0  0  0  0  0  0  0  0  0  0  0
  146.9686  140.1573  154.1288 C   0  0  0  0  0  0  0  0  0  0  0  0
  147.7007  138.7978  154.1584 C   0  0  0  0  0  0  0  0  0  0  0  0
  149.0151  138.9560  154.9435 C   0  0  1  0  0  0  0  0  0  0  0  0
  147.9843  132.4008  153.3482 C   0  0  0  0  0  0  0  0  0  0  0  0
  147.7136  131.0792  153.3546 N   0  0  0  0  0  0  0  0  0  0  0  0
  147.5438  127.1788  152.2011 H   0  0  0  0  0  0  0  0  0  0  0  0
  148.6584  128.5023  151.7847 H   0  0  0  0  0  0  0  0  0  0  0  0
  146.9244  128.8350  152.0061 H   0  0  0  0  0  0  0  0  0  0  0  0
  149.9693  130.1346  155.7215 H   0  0  0  0  0  0  0  0  0  0  0  0
  150.4546  132.5531  155.7113 H   0  0  0  0  0  0  0  0  0  0  0  0
  149.0059  134.7757  153.1057 H   0  0  0  0  0  0  0  0  0  0  0  0
  149.3783  136.6510  153.4530 H   0  0  0  0  0  0  0  0  0  0  0  0
  149.9814  137.5298  156.2335 H   0  0  0  0  0  0  0  0  0  0  0  0
  152.1396  137.9369  155.4709 H   0  0  0  0  0  0  0  0  0  0  0  0
  151.6369  137.9208  153.7844 H   0  0  0  0  0  0  0  0  0  0  0  0
  151.3207  140.2090  155.7612 H   0  0  0  0  0  0  0  0  0  0  0  0
  151.9441  140.2791  154.1042 H   0  0  0  0  0  0  0  0  0  0  0  0
  149.1166  141.6329  155.3926 H   0  0  0  0  0  0  0  0  0  0  0  0
  149.9055  142.0536  153.8799 H   0  0  0  0  0  0  0  0  0  0  0  0
  147.3774  142.2555  153.7212 H   0  0  0  0  0  0  0  0  0  0  0  0
  148.0586  141.1552  152.5512 H   0  0  0  0  0  0  0  0  0  0  0  0
  146.6232  140.4007  155.1343 H   0  0  0  0  0  0  0  0  0  0  0  0
  146.0757  140.0877  153.5070 H   0  0  0  0  0  0  0  0  0  0  0  0
  147.0626  138.0465  154.6241 H   0  0  0  0  0  0  0  0  0  0  0  0
  147.9031  138.4596  153.1415 H   0  0  0  0  0  0  0  0  0  0  0  0
  148.7633  139.3293  155.9387 H   0  0  0  0  0  0  0  0  0  0  0  0
  147.4004  132.9953  152.6607 H   0  0  0  0  0  0  0  0  0  0  0  0
  149.8610  139.7304  153.3048 H   0  0  0  0  0  0  0  0  0  0  0  0
  1  2  1  0  0  0  0
  1 24  1  0  0  0  0
  1 25  1  0  0  0  0
  1 26  1  0  0  0  0
  2  3  2  0  0  0  0
  2  4  2  0  0  0  0
  2  5  1  0  0  0  0
  5 23  1  0  0  0  0
  5  6  2  0  0  0  0
  6  7  1  0  0  0  0
  6 27  1  0  0  0  0
  7  8  2  0  0  0  0
  7 28  1  0  0  0  0
  8  9  1  0  0  0  0
  8 22  1  0  0  0  0
  9 10  1  0  0  0  0
  9 29  1  0  0  0  0
 10 11  2  0  0  0  0
 10 12  1  0  0  0  0
 12 13  1  0  0  0  0
 12 30  1  0  0  0  0
 13 21  1  0  0  0  0
 13 14  1  0  0  0  0
 13 31  1  0  0  0  0
 14 15  1  0  0  0  0
 14 32  1  0  0  0  0
 14 33  1  0  0  0  0
 15 16  1  0  0  0  0
 15 34  1  0  0  0  0
 15 35  1  0  0  0  0
 16 21  1  0  0  0  0
 16 17  1  0  0  0  0
 16 46  1  0  0  0  0
 17 18  1  0  0  0  0
 17 36  1  0  0  0  0
 17 37  1  0  0  0  0
 18 19  1  0  0  0  0
 18 38  1  0  0  0  0
 18 39  1  0  0  0  0
 19 20  1  0  0  0  0
 19 40  1  0  0  0  0
 19 41  1  0  0  0  0
 20 21  1  0  0  0  0
 20 42  1  0  0  0  0
 20 43  1  0  0  0  0
 21 44  1  0  0  0  0
 22 23  2  0  0  0  0
 22 45  1  0  0  0  0
M  CHG  1  16   1
M  END
> <s_m_source_file>
AV-unprocessed.smi

> <i_m_source_file_index>
1738

> <i_lp_mmshare_version>
43012

> <i_f3d_flags>
0

> <s_epik_input>
W0NIM11TKD1PKSg9TyljMVtjSF1bY0hdYyhbY0hdbjEpW05IXUMoPU8pW05IXVtDQEhdKFtDSDJdW0NIMl0yKVtDQEBIXShOMjMpW0NIMl1bQ0gyXVtDSDJdW0NIMl0z

> <s_epik_cmdline>
J2VwaWtfcHl0aG9uJywgJy1waCcsICc3LjAnLCAnLXRuJywgJzgnLCAnLW1hJywgJzIwMCcsICctbWV0YWxfYmluZGluZycsICctaW1hZScsICc8aW5maWxlLm1hZT4nLCAnLW9tYWUnLCAnPG91dGZpbGUubWFlPic=

> <r_epik_Ionization_Penalty>
0.00100042

> <r_epik_Ionization_Penalty_Charging>
0.000974069

> <r_epik_Ionization_Penalty_Neutral>
2.63543e-05

> <r_epik_State_Penalty>
0.000633842

> <r_epik_Charging_Adjusted_Penalty>
0.00160791

> <i_epik_Tot_Q>
1

> <i_epik_Tot_abs_Q>
1

> <r_epik_Metal_State_Penalty>
-0

> <b_epik_Metal_Only>
0

> <s_lp_Force_Field>
OPLS_2005

> <r_lp_Energy>
43.1339

> <b_lp_Chiralities_Consistent>
1

> <s_lp_Variant>
AV-unprocessed.smi:1738-4

> <Gold.Version>
5.8.1

> <Gold.Id.Protein>
6NUR|6NUR_protein|mol2

> <Gold.PLP.Fitness>
40.5122

> <Gold.PLP.PLP>
-34.9625

> <Gold.PLP.part.hbond>
-2.9067

> <Gold.PLP.part.metal>
0.0000

> <Gold.PLP.part.buried>
0.2195

> <Gold.PLP.part.nonpolar>
-32.6017

> <Gold.PLP.part.repulsive>
1.2204

> <Gold.PLP.ligand.clash>
0.0000

> <Gold.PLP.ligand.torsion>
1.4831

> <Gold.PLP.Chemscore.Hbond>
2.1650

> <Gold.PLP.Chemscore.CHOScore>
0.0000

> <Gold.PLP.Chemscore.Metal>
0.0000

> <Gold.Chemscore.Hbonds>
donor molecule, donor type, donor heavy atom, donor atom, acceptor molecule, acceptor atom, score
      L1  H     9    29       P1  7948  0.70
      L1  H    12    30       P1  7948  1.00
      L1  H    16    46       P1  7957  0.63

> <Gold.PLP.Chemscore.Internal.Correction>
2.0207

> <Gold.Rescore>
     Score         DG    S(hbond)    S(metal)    S(lipo)     H(rot)  DE(clash)    DE(int)     intcor
     15.31     -18.75       1.98        0.00      78.79       1.00       1.92       1.53       ----

> <Gold.Chemscore.Fitness>
15.3058

> <Gold.Chemscore.DG>
-18.7515

> <Gold.Chemscore.ZeroCoef>
-5.4800

> <Gold.Chemscore.Hbond>
1.9799

> <Gold.Chemscore.Metal>
0.0000

> <Gold.Chemscore.Lipo>
78.7904

> <Gold.Chemscore.Internal_Hbond>
0.0000

> <Gold.Chemscore.DEClash>
1.9178

> <Gold.Chemscore.DEInternal>
1.5279

> <Gold.Chemscore.Rot>
1.0000

> <Gold.Chemscore.Internal.Correction>
   9.000000E+99

> <Gold.Chemscore.Hbonds>
donor molecule, donor type, donor heavy atom, donor atom, acceptor molecule, acceptor atom, score
      L1  H     9    29       P1  7948  0.07
      L1  H    12    30       P1  7948  0.88
      L1  H    16    46       P1  7957  0.62

> <Gold.Chemscore.Hbond.Weighted>
-6.6130

> <Gold.Chemscore.Metal.Weighted>
-0.0000

> <Gold.Chemscore.Lipo.Weighted>
-9.2185

> <Gold.Chemscore.Internal_Hbond.Weighted>
0.0000

> <Gold.Chemscore.DEClash.Weighted>
1.9178

> <Gold.Chemscore.DEInternal.Weighted>
1.5279

> <Gold.Chemscore.Rot.Weighted>
2.5600

> <Gold.Chemscore.Internal.Correction.Weighted>
   9.000000E+99

> <Gold.Protein.RotatedTorsions>
[ 6907 6896 6895 6894 ] final   93.92 input  -60.11 | X-H torsion
[ 7974 7965 7964 7962 ] final   28.49 input  175.53 | X-H torsion
[ 8008 7997 7996 7995 ] final   23.17 input   59.86 | X-H torsion
[ 10167 10162 10161 10158 ] final  -58.60 input  -65.29 | X-H torsion
[ 10718 10713 10712 10709 ] final -160.24 input   66.30 | X-H torsion
[ 10763 10752 10751 10750 ] final  100.46 input  -60.55 | X-H torsion
[ 11005 11000 10999 10996 ] final   68.12 input  -57.11 | X-H torsion

> <Gold.Protein.ActiveResidues>
 VAL166  LYS551  ARG553  GLY616  TRP617  ASP618  TYR619  PRO620  LYS621  CYS622 
 ASP623  PHE694  ASN695  SER759  ASP760  ASP761  ALA762  ILE779  LEU786  VAL792 
 PHE793  MET794  SER795  GLU796  ALA797  LYS798  CYS799  TRP800  GLU811  SER814 

> <Gold.Protein.RotatedAtoms>
  152.5451  134.1273  159.8423 H   0  0  0  0  0  0  0  0  0  0  0  0  # atno 6907 bound_to 6896
  151.1322  133.5021  159.2606 H   0  0  0  0  0  0  0  0  0  0  0  0  # atno 6908 bound_to 6896
  151.1663  135.0307  159.8787 H   0  0  0  0  0  0  0  0  0  0  0  0  # atno 6909 bound_to 6896
  146.1726  139.7049  142.8957 H   0  0  0  0  0  0  0  0  0  0  0  0  # atno 7974 bound_to 7965
  154.9768  140.3097  155.4964 H   0  0  0  0  0  0  0  0  0  0  0  0  # atno 8008 bound_to 7997
  156.2958  140.2274  156.4804 H   0  0  0  0  0  0  0  0  0  0  0  0  # atno 8009 bound_to 7997
  154.7826  140.0445  157.1127 H   0  0  0  0  0  0  0  0  0  0  0  0  # atno 8010 bound_to 7997
  140.6187  143.2412  151.5533 H   0  0  0  0  0  0  0  0  0  0  0  0  # atno 10167 bound_to 10162
  156.5793  130.8722  151.2860 H   0  0  0  0  0  0  0  0  0  0  0  0  # atno 10718 bound_to 10713
  153.3142  135.4078  155.1362 H   0  0  0  0  0  0  0  0  0  0  0  0  # atno 10763 bound_to 10752
  154.8584  135.3572  154.5682 H   0  0  0  0  0  0  0  0  0  0  0  0  # atno 10764 bound_to 10752
  153.6113  135.7068  153.5404 H   0  0  0  0  0  0  0  0  0  0  0  0  # atno 10765 bound_to 10752
  139.9730  134.6869  156.0409 H   0  0  0  0  0  0  0  0  0  0  0  0  # atno 11005 bound_to 11000
  145.4300  141.0414  143.2916 LP  0  0  0  0  0  0  0  0  0  0  0  0  # atno 17320 bound_to 7965
  144.8186  139.5832  143.6997 LP  0  0  0  0  0  0  0  0  0  0  0  0  # atno 17321 bound_to 7965
  139.5420  144.2621  152.1370 LP  0  0  0  0  0  0  0  0  0  0  0  0  # atno 17342 bound_to 10162
  140.1836  144.4820  150.6515 LP  0  0  0  0  0  0  0  0  0  0  0  0  # atno 17343 bound_to 10162
  157.7330  130.9724  150.1956 LP  0  0  0  0  0  0  0  0  0  0  0  0  # atno 17370 bound_to 10713
  156.2645  130.3714  149.8095 LP  0  0  0  0  0  0  0  0  0  0  0  0  # atno 17371 bound_to 10713
  141.1408  133.6565  156.3726 LP  0  0  0  0  0  0  0  0  0  0  0  0  # atno 17394 bound_to 11000
  140.5254  134.6264  157.5332 LP  0  0  0  0  0  0  0  0  0  0  0  0  # atno 17395 bound_to 11000

$$$$
