#       Name:                AV-unprocessed.smi:2083
#       Creating user name   scv26
#       Creation time:       Fri Mar 27 11:19:57 2020


#       File generated by GOLD software.
#

@<TRIPOS>MOLECULE
AV-unprocessed.smi:2083
    50    51     1
SMALL
NO_CHARGES


@<TRIPOS>ATOM
      1 ****        -4.2394   6.9602   2.2562 C.3            1 S1                 0.0000
      2 ****        -3.6397   5.6265   1.9692 C.2            1 S1                 0.0000
      3 ****        -2.9383   5.1310   0.9063 C.2            1 S1                 0.0000
      4 ****        -2.6724   3.7914   1.2952 C.2            1 S1                 0.0000
      5 ****        -1.9476   2.9173   0.4453 N.am           1 S1                 0.0000
      6 ****        -1.6197   1.6354   0.6790 C.2            1 S1                 0.0000
      7 ****        -1.8911   1.0091   1.7038 O.2            1 S1                 0.0000
      8 ****        -0.9420   1.1087  -0.3519 N.am           1 S1                 0.0000
      9 ****        -0.4608  -0.2682  -0.4319 C.3            1 S1                 0.0000
     10 ****         1.0453  -0.3914  -0.0844 C.3            1 S1                 0.0000
     11 ****         1.3926   0.1188   1.3277 C.3            1 S1                 0.0000
     12 ****         1.5801  -1.7706  -0.2835 N.4            1 S1                 1.0000
     13 ****         0.8610  -2.8474   0.4504 C.3            1 S1                 0.0000
     14 ****         1.6442  -4.1669   0.3755 C.3            1 S1                 0.0000
     15 ****         1.8895  -4.5735  -1.0840 C.3            1 S1                 0.0000
     16 ****         2.5934  -3.4380  -1.8474 C.3            1 S1                 0.0000
     17 ****         2.8201  -3.8085  -3.3200 C.3            1 S1                 0.0000
     18 ****         1.7940  -2.1259  -1.7121 C.3            1 S1                 0.0000
     19 ****        -3.1675   3.4950   2.4871 N.2            1 S1                 0.0000
     20 ****        -3.7904   4.6697   2.9250 O.3            1 S1                 0.0000
     21 ****        -4.0157   7.6683   1.4579 H              1 S1                 0.0000
     22 ****        -3.8479   7.3672   3.1886 H              1 S1                 0.0000
     23 ****        -5.3230   6.8852   2.3475 H              1 S1                 0.0000
     24 ****        -2.6613   5.6467  -0.0010 H              1 S1                 0.0000
     25 ****        -1.6544   3.3096  -0.4370 H              1 S1                 0.0000
     26 ****        -0.7624   1.6993  -1.1509 H              1 S1                 0.0000
     27 ****        -1.0644  -0.9093   0.2116 H              1 S1                 0.0000
     28 ****        -0.6419  -0.6084  -1.4512 H              1 S1                 0.0000
     29 ****         1.5924   0.2569  -0.7704 H              1 S1                 0.0000
     30 ****         1.2112   1.1897   1.4181 H              1 S1                 0.0000
     31 ****         2.4460  -0.0452   1.5572 H              1 S1                 0.0000
     32 ****         0.8011  -0.3763   2.0978 H              1 S1                 0.0000
     33 ****         0.7239  -2.5738   1.4961 H              1 S1                 0.0000
     34 ****        -0.1327  -2.9929   0.0251 H              1 S1                 0.0000
     35 ****         2.5982  -4.0587   0.8934 H              1 S1                 0.0000
     36 ****         1.0975  -4.9549   0.8944 H              1 S1                 0.0000
     37 ****         2.4902  -5.4830  -1.1199 H              1 S1                 0.0000
     38 ****         0.9378  -4.8101  -1.5621 H              1 S1                 0.0000
     39 ****         3.5738  -3.2833  -1.3936 H              1 S1                 0.0000
     40 ****         1.8751  -3.9774  -3.8373 H              1 S1                 0.0000
     41 ****         3.4148  -4.7181  -3.4090 H              1 S1                 0.0000
     42 ****         3.3515  -3.0163  -3.8483 H              1 S1                 0.0000
     43 ****         0.8324  -2.2202  -2.2183 H              1 S1                 0.0000
     44 ****         2.3381  -1.3236  -2.2120 H              1 S1                 0.0000
     45 ****         2.5068  -1.7442   0.1176 H              1 S1                 0.0000
     46 ****        -2.3944   1.4551   2.4438 LP             1 S1                 0.0000
     47 ****        -1.6081   0.0544   1.7961 LP             1 S1                 0.0000
     48 ****        -3.1090   2.6212   2.9699 LP             1 S1                 0.0000
     49 ****        -4.7635   4.4975   3.0781 LP             1 S1                 0.0000
     50 ****        -3.3679   4.9767   3.7778 LP             1 S1                 0.0000
@<TRIPOS>BOND
    1    1    2 1     
    2    1   21 1     
    3    1   22 1     
    4    1   23 1     
    5    2   20 1     
    6    2    3 2     
    7    3    4 1     
    8    3   24 1     
    9    4    5 1     
   10    4   19 2     
   11    5    6 am    
   12    5   25 1     
   13    6    7 2     
   14    6    8 am    
   15    8    9 1     
   16    8   26 1     
   17    9   10 1     
   18    9   27 1     
   19    9   28 1     
   20   10   11 1     
   21   10   12 1     
   22   10   29 1     
   23   11   30 1     
   24   11   31 1     
   25   11   32 1     
   26   12   18 1     
   27   12   13 1     
   28   12   45 1     
   29   13   14 1     
   30   13   33 1     
   31   13   34 1     
   32   14   15 1     
   33   14   35 1     
   34   14   36 1     
   35   15   16 1     
   36   15   37 1     
   37   15   38 1     
   38   16   17 1     
   39   16   18 1     
   40   16   39 1     
   41   17   40 1     
   42   17   41 1     
   43   17   42 1     
   44   18   43 1     
   45   18   44 1     
   46   19   20 1     
   47    7   46 1     
   48    7   47 1     
   49   19   48 1     
   50   20   49 1     
   51   20   50 1     
@<TRIPOS>SUBSTRUCTURE
      1 S1             1
@<TRIPOS>SET
LONE_PAIRS      STATIC     ATOMS    <user>   **** ""
5 46 47 48 49 50
DONOR_HYDROGENS      STATIC     ATOMS    <user>   **** ""
3 25 26 45
ATOM$BLUE        STATIC     ATOMS    COLORGROUP SYSTEM
5 46 47 48 49 50
ATOM$RED        STATIC     ATOMS    COLORGROUP SYSTEM
3 25 26 45
