AV-unprocessed.smi:618|AV-procd|sdf|3077|dock10
  -GOLD-   22720 0 03D 1   1.00000     0.00000
 Structure written by MMmdl.
 41 43  0  0  0  0  0  0  0  0  2 V2000
  148.0900  135.8969  156.2540 O   0  0  0  0  0  0  0  0  0  0  0  0
  148.3787  136.0524  155.0683 C   0  0  0  0  0  0  0  0  0  0  0  0
  148.0432  135.1794  154.1079 N   0  0  0  0  0  0  0  0  0  0  0  0
  147.3119  133.9328  154.3208 C   0  0  0  0  0  0  0  0  0  0  0  0
  147.2932  133.0217  153.0763 C   0  0  1  0  0  0  0  0  0  0  0  0
  146.7299  131.6138  153.3469 C   0  0  0  0  0  0  0  0  0  0  0  0
  146.7303  130.7831  152.1163 N   0  3  1  0  0  0  0  0  0  0  0  0
  145.9274  129.5501  152.2737 C   0  0  0  0  0  0  0  0  0  0  0  0
  144.5426  129.8456  151.6682 C   0  0  0  0  0  0  0  0  0  0  0  0
  144.6455  131.2494  151.0605 C   0  0  0  0  0  0  0  0  0  0  0  0
  146.1523  131.4801  150.9464 C   0  0  1  0  0  0  0  0  0  0  0  0
  146.6060  132.9489  150.8224 C   0  0  0  0  0  0  0  0  0  0  0  0
  146.5020  133.6301  152.0640 O   0  0  0  0  0  0  0  0  0  0  0  0
  149.0495  137.0989  154.5566 N   0  0  0  0  0  0  0  0  0  0  0  0
  149.5835  138.2355  155.2240 C   0  0  0  0  0  0  0  0  0  0  0  0
  149.5168  138.4555  156.6219 C   0  0  0  0  0  0  0  0  0  0  0  0
  150.0989  139.6218  157.1551 C   0  0  0  0  0  0  0  0  0  0  0  0
  150.7308  140.5220  156.2758 C   0  0  0  0  0  0  0  0  0  0  0  0
  150.8120  140.3205  154.9441 N   0  0  0  0  0  0  0  0  0  0  0  0
  150.2517  139.2005  154.4401 C   0  0  0  0  0  0  0  0  0  0  0  0
  148.3125  135.3925  153.1586 H   0  0  0  0  0  0  0  0  0  0  0  0
  147.7174  133.3930  155.1783 H   0  0  0  0  0  0  0  0  0  0  0  0
  146.2887  134.1971  154.5885 H   0  0  0  0  0  0  0  0  0  0  0  0
  148.3209  132.9366  152.7178 H   0  0  0  0  0  0  0  0  0  0  0  0
  147.3186  131.1119  154.1154 H   0  0  0  0  0  0  0  0  0  0  0  0
  145.7107  131.6895  153.7290 H   0  0  0  0  0  0  0  0  0  0  0  0
  146.4110  128.7526  151.7084 H   0  0  0  0  0  0  0  0  0  0  0  0
  145.8678  129.2185  153.3116 H   0  0  0  0  0  0  0  0  0  0  0  0
  144.3020  129.1077  150.9019 H   0  0  0  0  0  0  0  0  0  0  0  0
  143.7556  129.8046  152.4221 H   0  0  0  0  0  0  0  0  0  0  0  0
  144.1346  131.3312  150.1006 H   0  0  0  0  0  0  0  0  0  0  0  0
  144.2012  131.9808  151.7373 H   0  0  0  0  0  0  0  0  0  0  0  0
  146.4941  130.9471  150.0572 H   0  0  0  0  0  0  0  0  0  0  0  0
  147.6386  132.9959  150.4730 H   0  0  0  0  0  0  0  0  0  0  0  0
  146.0035  133.4696  150.0779 H   0  0  0  0  0  0  0  0  0  0  0  0
  149.1546  137.1055  153.5527 H   0  0  0  0  0  0  0  0  0  0  0  0
  149.0469  137.7585  157.2970 H   0  0  0  0  0  0  0  0  0  0  0  0
  150.0639  139.8200  158.2161 H   0  0  0  0  0  0  0  0  0  0  0  0
  151.1874  141.4254  156.6523 H   0  0  0  0  0  0  0  0  0  0  0  0
  150.3389  139.0725  153.3709 H   0  0  0  0  0  0  0  0  0  0  0  0
  147.6895  130.5401  151.9129 H   0  0  0  0  0  0  0  0  0  0  0  0
  1  2  2  0  0  0  0
  2  3  1  0  0  0  0
  2 14  1  0  0  0  0
  3  4  1  0  0  0  0
  3 21  1  0  0  0  0
  4  5  1  0  0  0  0
  4 22  1  0  0  0  0
  4 23  1  0  0  0  0
  5 13  1  0  0  0  0
  5  6  1  0  0  0  0
  5 24  1  0  0  0  0
  6  7  1  0  0  0  0
  6 25  1  0  0  0  0
  6 26  1  0  0  0  0
  7 11  1  0  0  0  0
  7  8  1  0  0  0  0
  7 41  1  0  0  0  0
  8  9  1  0  0  0  0
  8 27  1  0  0  0  0
  8 28  1  0  0  0  0
  9 10  1  0  0  0  0
  9 29  1  0  0  0  0
  9 30  1  0  0  0  0
 10 11  1  0  0  0  0
 10 31  1  0  0  0  0
 10 32  1  0  0  0  0
 11 12  1  0  0  0  0
 11 33  1  0  0  0  0
 12 13  1  0  0  0  0
 12 34  1  0  0  0  0
 12 35  1  0  0  0  0
 14 15  1  0  0  0  0
 14 36  1  0  0  0  0
 15 20  1  0  0  0  0
 15 16  2  0  0  0  0
 16 17  1  0  0  0  0
 16 37  1  0  0  0  0
 17 18  2  0  0  0  0
 17 38  1  0  0  0  0
 18 19  1  0  0  0  0
 18 39  1  0  0  0  0
 19 20  2  0  0  0  0
 20 40  1  0  0  0  0
M  CHG  1   7   1
M  END
> <s_m_source_file>
AV-unprocessed.smi

> <i_m_source_file_index>
618

> <i_lp_mmshare_version>
43012

> <i_f3d_flags>
0

> <s_epik_input>
W2NIXTFuW2NIXVtjSF1bY0hdYzFbTkhdQyg9TylbTkhdW0NIMl1bQ0BIXShbQ0gyXTIpT1tDSDJdW0NAQEhdKE4yMylbQ0gyXVtDSDJdW0NIMl0z

> <s_epik_cmdline>
J2VwaWtfcHl0aG9uJywgJy1waCcsICc3LjAnLCAnLXRuJywgJzgnLCAnLW1hJywgJzIwMCcsICctbWV0YWxfYmluZGluZycsICctaW1hZScsICc8aW5maWxlLm1hZT4nLCAnLW9tYWUnLCAnPG91dGZpbGUubWFlPic=

> <r_epik_Ionization_Penalty>
0.111044

> <r_epik_Ionization_Penalty_Charging>
0.10673

> <r_epik_Ionization_Penalty_Neutral>
0.00431361

> <r_epik_State_Penalty>
0.0978747

> <r_epik_Charging_Adjusted_Penalty>
0.204605

> <i_epik_Tot_Q>
1

> <i_epik_Tot_abs_Q>
1

> <r_epik_Metal_State_Penalty>
0.0947591

> <b_epik_Metal_Only>
0

> <s_lp_Force_Field>
OPLS_2005

> <r_lp_Energy>
41.8914

> <b_lp_Chiralities_Consistent>
1

> <s_lp_Variant>
AV-unprocessed.smi:618-4

> <Gold.Version>
5.8.1

> <Gold.Id.Protein>
6NUR|6NUR_protein|mol2

> <Gold.PLP.Fitness>
42.8332

> <Gold.PLP.PLP>
-28.0912

> <Gold.PLP.part.hbond>
-3.7268

> <Gold.PLP.part.metal>
0.0000

> <Gold.PLP.part.buried>
-2.0833

> <Gold.PLP.part.nonpolar>
-23.5173

> <Gold.PLP.part.repulsive>
0.2650

> <Gold.PLP.ligand.clash>
0.0000

> <Gold.PLP.ligand.torsion>
0.0899

> <Gold.PLP.Chemscore.Hbond>
3.9753

> <Gold.PLP.Chemscore.CHOScore>
0.9984

> <Gold.PLP.Chemscore.Metal>
0.0000

> <Gold.Chemscore.Hbonds>
donor molecule, donor type, donor heavy atom, donor atom, acceptor molecule, acceptor atom, score
      L1  H     3    21       P1  7948  1.00
      L1  H     7    41       P1 10747  0.59
      L1  H    14    36       P1  7948  1.00
      P1  H  7989  7998       L1    19  0.95
      L1  C    20    40       P1  7957  1.00

> <Gold.PLP.Chemscore.Internal.Correction>
0.0007

> <Gold.Rescore>
     Score         DG    S(hbond)    S(metal)    S(lipo)     H(rot)  DE(clash)    DE(int)     intcor
     21.78     -24.45       3.52        0.00      89.23       1.27       1.43       1.24       ----

> <Gold.Chemscore.Fitness>
21.7769

> <Gold.Chemscore.DG>
-24.4465

> <Gold.Chemscore.ZeroCoef>
-5.4800

> <Gold.Chemscore.Hbond>
3.5228

> <Gold.Chemscore.Metal>
0.0000

> <Gold.Chemscore.Lipo>
89.2322

> <Gold.Chemscore.Internal_Hbond>
0.0000

> <Gold.Chemscore.DEClash>
1.4320

> <Gold.Chemscore.DEInternal>
1.2377

> <Gold.Chemscore.Rot>
1.2656

> <Gold.Chemscore.Internal.Correction>
   9.000000E+99

> <Gold.Chemscore.Hbonds>
donor molecule, donor type, donor heavy atom, donor atom, acceptor molecule, acceptor atom, score
      L1  H     3    21       P1  7948  0.99
      L1  H     7    41       P1 10747  0.58
      L1  H    14    36       P1  7948  0.95
      P1  H  7989  7998       L1    19  0.21

> <Gold.Chemscore.Hbond.Weighted>
-11.7662

> <Gold.Chemscore.Metal.Weighted>
-0.0000

> <Gold.Chemscore.Lipo.Weighted>
-10.4402

> <Gold.Chemscore.Internal_Hbond.Weighted>
0.0000

> <Gold.Chemscore.DEClash.Weighted>
1.4320

> <Gold.Chemscore.DEInternal.Weighted>
1.2377

> <Gold.Chemscore.Rot.Weighted>
3.2399

> <Gold.Chemscore.Internal.Correction.Weighted>
   9.000000E+99

> <Gold.Protein.RotatedTorsions>
[ 6907 6896 6895 6894 ] final -173.08 input  -60.11 | X-H torsion
[ 7974 7965 7964 7962 ] final   72.69 input  175.53 | X-H torsion
[ 8008 7997 7996 7995 ] final -151.50 input   59.86 | X-H torsion
[ 10167 10162 10161 10158 ] final  162.27 input  -65.29 | X-H torsion
[ 10718 10713 10712 10709 ] final -140.39 input   66.30 | X-H torsion
[ 10763 10752 10751 10750 ] final  173.20 input  -60.55 | X-H torsion
[ 11005 11000 10999 10996 ] final  -32.32 input  -57.11 | X-H torsion

> <Gold.Protein.ActiveResidues>
 VAL166  LYS551  ARG553  GLY616  TRP617  ASP618  TYR619  PRO620  LYS621  CYS622 
 ASP623  PHE694  ASN695  SER759  ASP760  ASP761  ALA762  ILE779  LEU786  VAL792 
 PHE793  MET794  SER795  GLU796  ALA797  LYS798  CYS799  TRP800  GLU811  SER814 

> <Gold.Protein.RotatedAtoms>
  151.5504  133.3418  159.2951 H   0  0  0  0  0  0  0  0  0  0  0  0  # atno 6907 bound_to 6896
  150.8482  134.7801  159.6998 H   0  0  0  0  0  0  0  0  0  0  0  0  # atno 6908 bound_to 6896
  152.4534  134.5351  159.9874 H   0  0  0  0  0  0  0  0  0  0  0  0  # atno 6909 bound_to 6896
  145.7502  139.2757  143.1436 H   0  0  0  0  0  0  0  0  0  0  0  0  # atno 7974 bound_to 7965
  155.6404  140.0701  157.2620 H   0  0  0  0  0  0  0  0  0  0  0  0  # atno 8008 bound_to 7997
  154.4185  140.1751  156.1616 H   0  0  0  0  0  0  0  0  0  0  0  0  # atno 8009 bound_to 7997
  155.9860  140.3349  155.6711 H   0  0  0  0  0  0  0  0  0  0  0  0  # atno 8010 bound_to 7997
  139.4858  144.4454  151.8898 H   0  0  0  0  0  0  0  0  0  0  0  0  # atno 10167 bound_to 10162
  156.3218  130.7538  151.1638 H   0  0  0  0  0  0  0  0  0  0  0  0  # atno 10718 bound_to 10713
  154.4368  135.2761  155.1875 H   0  0  0  0  0  0  0  0  0  0  0  0  # atno 10763 bound_to 10752
  154.3758  135.6098  153.5768 H   0  0  0  0  0  0  0  0  0  0  0  0  # atno 10764 bound_to 10752
  152.9839  135.5868  154.4689 H   0  0  0  0  0  0  0  0  0  0  0  0  # atno 10765 bound_to 10752
  140.9542  133.7202  156.1268 H   0  0  0  0  0  0  0  0  0  0  0  0  # atno 11005 bound_to 11000
  146.0364  140.8208  142.9850 LP  0  0  0  0  0  0  0  0  0  0  0  0  # atno 17320 bound_to 7965
  144.6851  140.2845  143.7287 LP  0  0  0  0  0  0  0  0  0  0  0  0  # atno 17321 bound_to 7965
  140.3908  144.2618  150.5900 LP  0  0  0  0  0  0  0  0  0  0  0  0  # atno 17342 bound_to 10162
  140.5148  143.2281  151.8480 LP  0  0  0  0  0  0  0  0  0  0  0  0  # atno 17343 bound_to 10162
  157.7413  131.0505  150.5105 LP  0  0  0  0  0  0  0  0  0  0  0  0  # atno 17370 bound_to 10713
  156.5258  130.4173  149.6227 LP  0  0  0  0  0  0  0  0  0  0  0  0  # atno 17371 bound_to 10713
  140.7559  134.3993  157.5534 LP  0  0  0  0  0  0  0  0  0  0  0  0  # atno 17394 bound_to 11000
  139.8857  134.8930  156.2627 LP  0  0  0  0  0  0  0  0  0  0  0  0  # atno 17395 bound_to 11000

$$$$
