#       Name:                AV-unprocessed.smi:1410
#       Creating user name   scv26
#       Creation time:       Fri Mar 27 05:36:44 2020


#       File generated by GOLD software.
#

@<TRIPOS>MOLECULE
AV-unprocessed.smi:1410
    45    46     1
SMALL
NO_CHARGES


@<TRIPOS>ATOM
      1 ****        -6.3451   2.8589   0.7791 N.am           1 S1                 0.0000
      2 ****        -5.0876   2.5405   1.0939 C.2            1 S1                 0.0000
      3 ****        -4.3353   3.3286   1.6639 O.2            1 S1                 0.0000
      4 ****        -4.6196   1.1278   0.7283 C.3            1 S1                 0.0000
      5 ****        -3.1405   1.0013   0.6693 N.4            1 S1                 1.0000
      6 ****        -2.5528   1.5933  -0.5626 C.3            1 S1                 0.0000
      7 ****        -1.0165   1.5648  -0.5117 C.3            1 S1                 0.0000
      8 ****        -0.4967   0.1331  -0.3071 C.3            1 S1                 0.0000
      9 ****         0.9581   0.1450  -0.1827 N.am           1 S1                 0.0000
     10 ****         1.7666  -0.8805  -0.4881 C.2            1 S1                 0.0000
     11 ****         1.3573  -1.9661  -0.8984 O.2            1 S1                 0.0000
     12 ****         3.0555  -0.5687  -0.2661 N.am           1 S1                 0.0000
     13 ****         4.2141  -1.3584  -0.5032 C.ar           1 S1                 0.0000
     14 ****         5.3989  -0.9986   0.1770 C.ar           1 S1                 0.0000
     15 ****         6.5791  -1.7384  -0.0411 C.ar           1 S1                 0.0000
     16 ****         6.5714  -2.7777  -0.9028 N.pl3          1 S1                 1.0000
     17 ****         5.4681  -3.1515  -1.5856 C.ar           1 S1                 0.0000
     18 ****         4.2583  -2.4495  -1.4087 C.ar           1 S1                 0.0000
     19 ****        -1.1484  -0.4771   0.9472 C.3            1 S1                 0.0000
     20 ****        -2.6829  -0.3971   0.8738 C.3            1 S1                 0.0000
     21 ****        -6.6995   3.7781   1.0029 H              1 S1                 0.0000
     22 ****        -6.9415   2.1844   0.3219 H              1 S1                 0.0000
     23 ****        -5.0135   0.4616   1.4969 H              1 S1                 0.0000
     24 ****        -5.0604   0.8102  -0.2184 H              1 S1                 0.0000
     25 ****        -2.9088   1.0457  -1.4369 H              1 S1                 0.0000
     26 ****        -2.8860   2.6245  -0.6819 H              1 S1                 0.0000
     27 ****        -0.6107   1.9826  -1.4338 H              1 S1                 0.0000
     28 ****        -0.6699   2.2079   0.2990 H              1 S1                 0.0000
     29 ****        -0.7793  -0.4595  -1.1798 H              1 S1                 0.0000
     30 ****         1.3788   0.9987   0.1549 H              1 S1                 0.0000
     31 ****         3.2260   0.3306   0.1598 H              1 S1                 0.0000
     32 ****         5.4072  -0.1654   0.8651 H              1 S1                 0.0000
     33 ****         7.5222  -1.5295   0.4427 H              1 S1                 0.0000
     34 ****         5.5869  -3.9914  -2.2544 H              1 S1                 0.0000
     35 ****         3.3956  -2.7548  -1.9805 H              1 S1                 0.0000
     36 ****        -0.8425  -1.5177   1.0634 H              1 S1                 0.0000
     37 ****        -0.8012   0.0480   1.8385 H              1 S1                 0.0000
     38 ****        -3.1039  -0.7911   1.7995 H              1 S1                 0.0000
     39 ****        -3.0549  -1.0255   0.0629 H              1 S1                 0.0000
     40 ****        -2.7846   1.5338   1.4507 H              1 S1                 0.0000
     41 ****         7.4364  -3.2994  -1.0481 H              1 S1                 0.0000
     42 ****        -4.6598   4.2426   1.9071 LP             1 S1                 0.0000
     43 ****        -3.3989   3.0554   1.8843 LP             1 S1                 0.0000
     44 ****         0.3762  -2.1174  -1.0191 LP             1 S1                 0.0000
     45 ****         2.0058  -2.6970  -1.1111 LP             1 S1                 0.0000
@<TRIPOS>BOND
    1    1    2 am    
    2    1   21 1     
    3    1   22 1     
    4    2    3 2     
    5    2    4 1     
    6    4    5 1     
    7    4   23 1     
    8    4   24 1     
    9    5   20 1     
   10    5    6 1     
   11    5   40 1     
   12    6    7 1     
   13    6   25 1     
   14    6   26 1     
   15    7    8 1     
   16    7   27 1     
   17    7   28 1     
   18    8    9 1     
   19    8   19 1     
   20    8   29 1     
   21    9   10 am    
   22    9   30 1     
   23   10   11 2     
   24   10   12 am    
   25   12   13 1     
   26   12   31 1     
   27   13   18 ar    
   28   13   14 ar    
   29   14   15 ar    
   30   14   32 1     
   31   15   16 ar    
   32   15   33 1     
   33   16   17 ar    
   34   16   41 1     
   35   17   18 ar    
   36   17   34 1     
   37   18   35 1     
   38   19   20 1     
   39   19   36 1     
   40   19   37 1     
   41   20   38 1     
   42   20   39 1     
   43    3   42 1     
   44    3   43 1     
   45   11   44 1     
   46   11   45 1     
@<TRIPOS>SUBSTRUCTURE
      1 S1             1
@<TRIPOS>SET
LONE_PAIRS      STATIC     ATOMS    <user>   **** ""
4 42 43 44 45
DONOR_HYDROGENS      STATIC     ATOMS    <user>   **** ""
6 21 22 40 30 31 41
ATOM$BLUE        STATIC     ATOMS    COLORGROUP SYSTEM
4 42 43 44 45
ATOM$RED        STATIC     ATOMS    COLORGROUP SYSTEM
6 21 22 40 30 31 41
