AV-unprocessed.smi:15|AV-procd|sdf|86|dock4
  -GOLD-   2262015223D 1   1.00000     0.00000
 Structure written by MMmdl.
 53 56  0  0  0  0  0  0  0  0  1 V2000
  151.1117  139.4096  155.0161 C   0  0  0  0  0  0  0  0  0  0  0  0
  150.3134  140.3802  155.8961 C   0  0  0  0  0  0  0  0  0  0  0  0
  150.8470  140.4836  157.2542 N   0  0  0  0  0  0  0  0  0  0  0  0
  151.9829  141.3638  157.5354 C   0  0  0  0  0  0  0  0  0  0  0  0
  151.6798  142.4189  158.6163 C   0  0  1  0  0  0  0  0  0  0  0  0
  152.8860  143.2778  158.9874 C   0  0  0  0  0  0  0  0  0  0  0  0
  152.2600  144.5535  159.5306 C   0  0  0  0  0  0  0  0  0  0  0  0
  150.8107  144.4952  159.0392 C   0  0  0  0  0  0  0  0  0  0  0  0
  150.7704  143.3984  158.1384 O   0  0  0  0  0  0  0  0  0  0  0  0
  150.8075  139.3658  158.0190 C   0  0  0  0  0  0  0  0  0  0  0  0
  151.9865  138.8963  158.5008 N   0  0  0  0  0  0  0  0  0  0  0  0
  152.0156  137.7852  159.2420 C   0  0  0  0  0  0  0  0  0  0  0  0
  151.0016  136.9986  159.6069 N   0  0  0  0  0  0  0  0  0  0  0  0
  149.8152  137.4598  159.1170 C   0  0  0  0  0  0  0  0  0  0  0  0
  149.6270  138.6266  158.3229 C   0  0  0  0  0  0  0  0  0  0  0  0
  148.2820  138.7609  157.9969 N   0  0  0  0  0  0  0  0  0  0  0  0
  147.7090  137.7390  158.5712 C   0  0  0  0  0  0  0  0  0  0  0  0
  148.5551  136.9080  159.2694 N   0  0  0  0  0  0  0  0  0  0  0  0
  148.1877  135.7002  159.9932 C   0  0  0  0  0  0  0  0  0  0  0  0
  147.2026  135.9575  161.1631 C   0  0  2  0  0  0  0  0  0  0  0  0
  147.6150  137.1424  161.8252 O   0  0  0  0  0  0  0  0  0  0  0  0
  147.1680  134.8334  162.1941 C   0  0  0  0  0  0  0  0  0  0  0  0
  145.7668  134.9475  162.7738 C   0  0  0  0  0  0  0  0  0  0  0  0
  144.9832  135.2387  161.6300 O   0  0  0  0  0  0  0  0  0  0  0  0
  145.7048  136.1296  160.7818 C   0  0  2  0  0  0  0  0  0  0  0  0
  145.3182  135.7957  159.3320 C   0  0  0  0  0  0  0  0  0  0  0  0
  150.7307  139.4182  153.9948 H   0  0  0  0  0  0  0  0  0  0  0  0
  151.0430  138.3839  155.3783 H   0  0  0  0  0  0  0  0  0  0  0  0
  152.1654  139.6873  154.9795 H   0  0  0  0  0  0  0  0  0  0  0  0
  150.3332  141.3638  155.4244 H   0  0  0  0  0  0  0  0  0  0  0  0
  149.2685  140.0722  155.9300 H   0  0  0  0  0  0  0  0  0  0  0  0
  152.8220  140.7496  157.8596 H   0  0  0  0  0  0  0  0  0  0  0  0
  152.3198  141.8540  156.6212 H   0  0  0  0  0  0  0  0  0  0  0  0
  151.2750  141.9560  159.5178 H   0  0  0  0  0  0  0  0  0  0  0  0
  153.5459  142.7887  159.7043 H   0  0  0  0  0  0  0  0  0  0  0  0
  153.4704  143.5102  158.0960 H   0  0  0  0  0  0  0  0  0  0  0  0
  152.2927  144.5810  160.6203 H   0  0  0  0  0  0  0  0  0  0  0  0
  152.7814  145.4349  159.1561 H   0  0  0  0  0  0  0  0  0  0  0  0
  150.1306  144.3025  159.8699 H   0  0  0  0  0  0  0  0  0  0  0  0
  150.4958  145.4160  158.5479 H   0  0  0  0  0  0  0  0  0  0  0  0
  152.9921  137.4805  159.5888 H   0  0  0  0  0  0  0  0  0  0  0  0
  146.6455  137.5619  158.5018 H   0  0  0  0  0  0  0  0  0  0  0  0
  147.7565  134.9957  159.2809 H   0  0  0  0  0  0  0  0  0  0  0  0
  149.1071  135.2435  160.3600 H   0  0  0  0  0  0  0  0  0  0  0  0
  147.3555  137.0834  162.7319 H   0  0  0  0  0  0  0  0  0  0  0  0
  147.2631  133.8666  161.6981 H   0  0  0  0  0  0  0  0  0  0  0  0
  147.9539  134.8995  162.9480 H   0  0  0  0  0  0  0  0  0  0  0  0
  145.4366  134.0330  163.2666 H   0  0  0  0  0  0  0  0  0  0  0  0
  145.7007  135.7705  163.4869 H   0  0  0  0  0  0  0  0  0  0  0  0
  145.3691  137.1449  161.0014 H   0  0  0  0  0  0  0  0  0  0  0  0
  145.8280  136.4471  158.6222 H   0  0  0  0  0  0  0  0  0  0  0  0
  144.2464  135.9260  159.1807 H   0  0  0  0  0  0  0  0  0  0  0  0
  145.5585  134.7623  159.0818 H   0  0  0  0  0  0  0  0  0  0  0  0
  1  2  1  0  0  0  0
  1 27  1  0  0  0  0
  1 28  1  0  0  0  0
  1 29  1  0  0  0  0
  2  3  1  0  0  0  0
  2 30  1  0  0  0  0
  2 31  1  0  0  0  0
  3  4  1  0  0  0  0
  3 10  1  0  0  0  0
  4  5  1  0  0  0  0
  4 32  1  0  0  0  0
  4 33  1  0  0  0  0
  5  9  1  0  0  0  0
  5  6  1  0  0  0  0
  5 34  1  0  0  0  0
  6  7  1  0  0  0  0
  6 35  1  0  0  0  0
  6 36  1  0  0  0  0
  7  8  1  0  0  0  0
  7 37  1  0  0  0  0
  7 38  1  0  0  0  0
  8  9  1  0  0  0  0
  8 39  1  0  0  0  0
  8 40  1  0  0  0  0
 10 15  1  0  0  0  0
 10 11  2  0  0  0  0
 11 12  1  0  0  0  0
 12 13  2  0  0  0  0
 12 41  1  0  0  0  0
 13 14  1  0  0  0  0
 14 18  1  0  0  0  0
 14 15  2  0  0  0  0
 15 16  1  0  0  0  0
 16 17  2  0  0  0  0
 17 18  1  0  0  0  0
 17 42  1  0  0  0  0
 18 19  1  0  0  0  0
 19 20  1  0  0  0  0
 19 43  1  0  0  0  0
 19 44  1  0  0  0  0
 20 25  1  0  0  0  0
 20 21  1  0  0  0  0
 20 22  1  0  0  0  0
 21 45  1  0  0  0  0
 22 23  1  0  0  0  0
 22 46  1  0  0  0  0
 22 47  1  0  0  0  0
 23 24  1  0  0  0  0
 23 48  1  0  0  0  0
 23 49  1  0  0  0  0
 24 25  1  0  0  0  0
 25 26  1  0  0  0  0
 25 50  1  0  0  0  0
 26 51  1  0  0  0  0
 26 52  1  0  0  0  0
 26 53  1  0  0  0  0
M  END
> <s_m_source_file>
AV-unprocessed.smi

> <i_m_source_file_index>
15

> <i_lp_mmshare_version>
43012

> <i_f3d_flags>
0

> <s_epik_input>
TzFbQ0gyXVtDSDJdW0NIMl1bQ0BIXTFbQ0gyXU4oW0NIMl1bQ0gzXSljKG5bY0hdbjIpYyhjMjMpbltjSF1uM1tDSDJdW0NAQF00KFtPSF0pW0NIMl1bQ0gyXU9bQ0BIXTRbQ0gzXQ==

> <s_epik_cmdline>
J2VwaWtfcHl0aG9uJywgJy1waCcsICc3LjAnLCAnLXRuJywgJzgnLCAnLW1hJywgJzIwMCcsICctbWV0YWxfYmluZGluZycsICctaW1hZScsICc8aW5maWxlLm1hZT4nLCAnLW9tYWUnLCAnPG91dGZpbGUubWFlPic=

> <r_lp_tautomer_probability>
1

> <r_epik_Ionization_Penalty>
0.00360814

> <r_epik_Ionization_Penalty_Charging>
0

> <r_epik_Ionization_Penalty_Neutral>
0.00360814

> <r_epik_State_Penalty>
0.00237482

> <r_epik_Charging_Adjusted_Penalty>
0.00237482

> <i_epik_Tot_Q>
0

> <i_epik_Tot_abs_Q>
0

> <r_epik_Metal_State_Penalty>
-0

> <b_epik_Metal_Only>
0

> <s_lp_Force_Field>
OPLS_2005

> <r_lp_Energy>
45.3604

> <b_lp_Chiralities_Consistent>
1

> <s_lp_Variant>
AV-unprocessed.smi:15-8

> <Gold.Version>
5.8.1

> <Gold.Id.Protein>
6NUR|6NUR_protein|mol2

> <Gold.PLP.Fitness>
50.5470

> <Gold.PLP.PLP>
-44.2955

> <Gold.PLP.part.hbond>
-3.0000

> <Gold.PLP.part.metal>
0.0000

> <Gold.PLP.part.buried>
-6.5147

> <Gold.PLP.part.nonpolar>
-34.8227

> <Gold.PLP.part.repulsive>
0.1576

> <Gold.PLP.ligand.clash>
0.0000

> <Gold.PLP.ligand.torsion>
1.3261

> <Gold.PLP.Chemscore.Hbond>
2.6441

> <Gold.PLP.Chemscore.CHOScore>
0.0000

> <Gold.PLP.Chemscore.Metal>
0.0000

> <Gold.Chemscore.Hbonds>
donor molecule, donor type, donor heavy atom, donor atom, acceptor molecule, acceptor atom, score
      P1  H  6896  6909       L1    13  1.00
      P1  H  6931  6943       L1    21  1.00
      P1  H  6934  6947       L1    21  0.56

> <Gold.PLP.Chemscore.Internal.Correction>
0.9716

> <Gold.Rescore>
     Score         DG    S(hbond)    S(metal)    S(lipo)     H(rot)  DE(clash)    DE(int)     intcor
     16.19     -17.51       2.03        0.00      98.29       2.44       0.08       1.24       ----

> <Gold.Chemscore.Fitness>
16.1923

> <Gold.Chemscore.DG>
-17.5104

> <Gold.Chemscore.ZeroCoef>
-5.4800

> <Gold.Chemscore.Hbond>
2.0315

> <Gold.Chemscore.Metal>
0.0000

> <Gold.Chemscore.Lipo>
98.2876

> <Gold.Chemscore.Internal_Hbond>
0.0000

> <Gold.Chemscore.DEClash>
0.0787

> <Gold.Chemscore.DEInternal>
1.2394

> <Gold.Chemscore.Rot>
2.4431

> <Gold.Chemscore.Internal.Correction>
   9.000000E+99

> <Gold.Chemscore.Hbonds>
donor molecule, donor type, donor heavy atom, donor atom, acceptor molecule, acceptor atom, score
      P1  H  6896  6909       L1    13  0.88
      P1  H  6931  6943       L1    21  0.33
      P1  H  6934  6947       L1    21  0.46

> <Gold.Chemscore.Hbond.Weighted>
-6.7852

> <Gold.Chemscore.Metal.Weighted>
-0.0000

> <Gold.Chemscore.Lipo.Weighted>
-11.4997

> <Gold.Chemscore.Internal_Hbond.Weighted>
0.0000

> <Gold.Chemscore.DEClash.Weighted>
0.0787

> <Gold.Chemscore.DEInternal.Weighted>
1.2394

> <Gold.Chemscore.Rot.Weighted>
6.2544

> <Gold.Chemscore.Internal.Correction.Weighted>
   9.000000E+99

> <Gold.Protein.RotatedTorsions>
[ 6907 6896 6895 6894 ] final   88.36 input  -60.11 | X-H torsion
[ 7974 7965 7964 7962 ] final   34.84 input  175.53 | X-H torsion
[ 8008 7997 7996 7995 ] final  136.65 input   59.86 | X-H torsion
[ 10167 10162 10161 10158 ] final   53.25 input  -65.29 | X-H torsion
[ 10718 10713 10712 10709 ] final  -99.90 input   66.30 | X-H torsion
[ 10763 10752 10751 10750 ] final  -52.50 input  -60.55 | X-H torsion
[ 11005 11000 10999 10996 ] final  -32.87 input  -57.11 | X-H torsion

> <Gold.Protein.ActiveResidues>
 VAL166  LYS551  ARG553  GLY616  TRP617  ASP618  TYR619  PRO620  LYS621  CYS622 
 ASP623  PHE694  ASN695  SER759  ASP760  ASP761  ALA762  ILE779  LEU786  VAL792 
 PHE793  MET794  SER795  GLU796  ALA797  LYS798  CYS799  TRP800  GLU811  SER814 

> <Gold.Protein.RotatedAtoms>
  152.5424  134.2133  159.8758 H   0  0  0  0  0  0  0  0  0  0  0  0  # atno 6907 bound_to 6896
  151.2114  133.4547  159.2606 H   0  0  0  0  0  0  0  0  0  0  0  0  # atno 6908 bound_to 6896
  151.0893  134.9919  159.8450 H   0  0  0  0  0  0  0  0  0  0  0  0  # atno 6909 bound_to 6896
  146.1325  139.6218  142.9217 H   0  0  0  0  0  0  0  0  0  0  0  0  # atno 7974 bound_to 7965
  156.3004  140.2439  156.3781 H   0  0  0  0  0  0  0  0  0  0  0  0  # atno 8008 bound_to 7997
  154.8727  140.0415  157.1754 H   0  0  0  0  0  0  0  0  0  0  0  0  # atno 8009 bound_to 7997
  154.8779  140.2945  155.5446 H   0  0  0  0  0  0  0  0  0  0  0  0  # atno 8010 bound_to 7997
  140.2428  144.3565  150.6374 H   0  0  0  0  0  0  0  0  0  0  0  0  # atno 10167 bound_to 10162
  156.0147  130.5303  150.6738 H   0  0  0  0  0  0  0  0  0  0  0  0  # atno 10718 bound_to 10713
  154.1438  135.6501  153.4948 H   0  0  0  0  0  0  0  0  0  0  0  0  # atno 10763 bound_to 10752
  153.0158  135.5321  154.6878 H   0  0  0  0  0  0  0  0  0  0  0  0  # atno 10764 bound_to 10752
  154.6147  135.2958  155.0364 H   0  0  0  0  0  0  0  0  0  0  0  0  # atno 10765 bound_to 10752
  140.9588  133.7177  156.1335 H   0  0  0  0  0  0  0  0  0  0  0  0  # atno 11005 bound_to 11000
  145.5230  141.0431  143.2425 LP  0  0  0  0  0  0  0  0  0  0  0  0  # atno 17320 bound_to 7965
  144.7705  139.6746  143.7197 LP  0  0  0  0  0  0  0  0  0  0  0  0  # atno 17321 bound_to 7965
  140.6101  143.2169  151.6904 LP  0  0  0  0  0  0  0  0  0  0  0  0  # atno 17342 bound_to 10162
  139.5072  144.3656  152.0520 LP  0  0  0  0  0  0  0  0  0  0  0  0  # atno 17343 bound_to 10162
  157.4455  131.0866  151.0900 LP  0  0  0  0  0  0  0  0  0  0  0  0  # atno 17370 bound_to 10713
  157.1431  130.6151  149.5561 LP  0  0  0  0  0  0  0  0  0  0  0  0  # atno 17371 bound_to 10713
  140.7498  134.4058  157.5543 LP  0  0  0  0  0  0  0  0  0  0  0  0  # atno 17394 bound_to 11000
  139.8871  134.8892  156.2548 LP  0  0  0  0  0  0  0  0  0  0  0  0  # atno 17395 bound_to 11000

$$$$
