#       Name:                AV-unprocessed.smi:2022
#       Creating user name   scv26
#       Creation time:       Fri Mar 27 10:44:15 2020


#       File generated by GOLD software.
#

@<TRIPOS>MOLECULE
AV-unprocessed.smi:2022
    41    42     1
SMALL
NO_CHARGES


@<TRIPOS>ATOM
      1 ****        -6.4827  -2.4405  -0.7881 C.3            1 S1                 0.0000
      2 ****        -5.1670  -1.7526  -0.6595 C.2            1 S1                 0.0000
      3 ****        -3.9182  -2.1919  -0.3205 C.2            1 S1                 0.0000
      4 ****        -3.1337  -1.0101  -0.3908 C.2            1 S1                 0.0000
      5 ****        -1.7462  -1.0408  -0.0993 N.am           1 S1                 0.0000
      6 ****        -0.8873  -0.0074  -0.0910 C.2            1 S1                 0.0000
      7 ****        -1.1780   1.1593  -0.3570 O.2            1 S1                 0.0000
      8 ****         0.3470  -0.4055   0.2501 N.am           1 S1                 0.0000
      9 ****         1.5135   0.4639   0.4026 C.3            1 S1                 0.0000
     10 ****         2.1344   0.7981  -0.9784 C.3            1 S1                 0.0000
     11 ****         3.6295   1.1799  -0.9751 C.3            1 S1                 0.0000
     12 ****         4.0205   2.3218  -0.0151 C.3            1 S1                 0.0000
     13 ****         3.6389   2.1412   1.4736 C.3            1 S1                 0.0000
     14 ****         3.4670   0.7496   1.8892 N.am           1 S1                 0.0000
     15 ****         2.4986  -0.0765   1.4572 C.2            1 S1                 0.0000
     16 ****         2.4089  -1.2322   1.8700 O.2            1 S1                 0.0000
     17 ****        -3.8389   0.0541  -0.7429 N.2            1 S1                 0.0000
     18 ****        -5.1460  -0.4164  -0.9164 O.3            1 S1                 0.0000
     19 ****        -6.3531  -3.5218  -0.8356 H              1 S1                 0.0000
     20 ****        -7.0006  -2.1230  -1.6933 H              1 S1                 0.0000
     21 ****        -7.1213  -2.2131   0.0656 H              1 S1                 0.0000
     22 ****        -3.6186  -3.1966  -0.0617 H              1 S1                 0.0000
     23 ****        -1.3691  -1.9455   0.1413 H              1 S1                 0.0000
     24 ****         0.4914  -1.3838   0.4540 H              1 S1                 0.0000
     25 ****         1.1357   1.3969   0.8233 H              1 S1                 0.0000
     26 ****         2.0174  -0.0584  -1.6441 H              1 S1                 0.0000
     27 ****         1.5600   1.6046  -1.4360 H              1 S1                 0.0000
     28 ****         4.2283   0.2968  -0.7477 H              1 S1                 0.0000
     29 ****         3.9188   1.4617  -1.9880 H              1 S1                 0.0000
     30 ****         5.1021   2.4465  -0.0783 H              1 S1                 0.0000
     31 ****         3.5988   3.2609  -0.3755 H              1 S1                 0.0000
     32 ****         4.4054   2.5948   2.1021 H              1 S1                 0.0000
     33 ****         2.7249   2.6936   1.6945 H              1 S1                 0.0000
     34 ****         4.1207   0.3928   2.5712 H              1 S1                 0.0000
     35 ****        -2.1176   1.3967  -0.6035 LP             1 S1                 0.0000
     36 ****        -0.4745   1.8693  -0.3265 LP             1 S1                 0.0000
     37 ****         1.6901  -1.8335   1.5209 LP             1 S1                 0.0000
     38 ****         3.0548  -1.5702   2.5545 LP             1 S1                 0.0000
     39 ****        -3.5092   0.9909  -0.8596 LP             1 S1                 0.0000
     40 ****        -5.7606   0.0572  -0.2855 LP             1 S1                 0.0000
     41 ****        -5.4414  -0.2500  -1.8572 LP             1 S1                 0.0000
@<TRIPOS>BOND
    1    1    2 1     
    2    1   19 1     
    3    1   20 1     
    4    1   21 1     
    5    2   18 1     
    6    2    3 2     
    7    3    4 1     
    8    3   22 1     
    9    4    5 1     
   10    4   17 2     
   11    5    6 am    
   12    5   23 1     
   13    6    7 2     
   14    6    8 am    
   15    8    9 1     
   16    8   24 1     
   17    9   15 1     
   18    9   10 1     
   19    9   25 1     
   20   10   11 1     
   21   10   26 1     
   22   10   27 1     
   23   11   12 1     
   24   11   28 1     
   25   11   29 1     
   26   12   13 1     
   27   12   30 1     
   28   12   31 1     
   29   13   14 1     
   30   13   32 1     
   31   13   33 1     
   32   14   15 am    
   33   14   34 1     
   34   15   16 2     
   35   17   18 1     
   36    7   35 1     
   37    7   36 1     
   38   16   37 1     
   39   16   38 1     
   40   17   39 1     
   41   18   40 1     
   42   18   41 1     
@<TRIPOS>SUBSTRUCTURE
      1 S1             1
@<TRIPOS>SET
LONE_PAIRS      STATIC     ATOMS    <user>   **** ""
7 35 36 37 38 39 40 41
DONOR_HYDROGENS      STATIC     ATOMS    <user>   **** ""
3 23 24 34
ATOM$BLUE        STATIC     ATOMS    COLORGROUP SYSTEM
7 35 36 37 38 39 40 41
ATOM$RED        STATIC     ATOMS    COLORGROUP SYSTEM
3 23 24 34
