AV-unprocessed.smi:2549|AV-procd|sdf|10010|dock2
  -GOLD-   2272014 53D 1   1.00000     0.00000
 Structure written by MMmdl.
 17 18  0  0  0  0  0  0  0  0  1 V2000
  153.9125  140.6861  160.0109 C   0  0  0  0  0  0  0  0  0  0  0  0
  153.4874  141.9371  160.3564 C   0  0  0  0  0  0  0  0  0  0  0  0
  152.7106  142.3173  159.2821 N   0  0  0  0  0  0  0  0  0  0  0  0
  151.9487  143.5223  159.1353 C   0  0  0  0  0  0  0  0  0  0  0  0
  150.4618  143.4820  158.7727 C   0  0  0  0  0  0  0  0  0  0  0  0
  150.6992  144.6904  158.0016 N   0  0  0  0  0  0  0  0  0  0  0  0
  152.1183  144.3986  157.8931 C   0  0  0  0  0  0  0  0  0  0  0  0
  152.6257  141.3335  158.3556 N   0  0  0  0  0  0  0  0  0  0  0  0
  153.3635  140.3529  158.7736 N   0  0  0  0  0  0  0  0  0  0  0  0
  154.5519  140.0008  160.5478 H   0  0  0  0  0  0  0  0  0  0  0  0
  153.6602  142.5568  161.2241 H   0  0  0  0  0  0  0  0  0  0  0  0
  152.1130  144.0999  160.0478 H   0  0  0  0  0  0  0  0  0  0  0  0
  150.1721  142.6419  158.1396 H   0  0  0  0  0  0  0  0  0  0  0  0
  149.7896  143.6200  159.6199 H   0  0  0  0  0  0  0  0  0  0  0  0
  150.2324  144.6734  157.1059 H   0  0  0  0  0  0  0  0  0  0  0  0
  152.7629  145.2656  158.0402 H   0  0  0  0  0  0  0  0  0  0  0  0
  152.3564  143.8484  156.9814 H   0  0  0  0  0  0  0  0  0  0  0  0
  1  9  1  0  0  0  0
  1  2  2  0  0  0  0
  1 10  1  0  0  0  0
  2  3  1  0  0  0  0
  2 11  1  0  0  0  0
  3  4  1  0  0  0  0
  3  8  1  0  0  0  0
  4  7  1  0  0  0  0
  4  5  1  0  0  0  0
  4 12  1  0  0  0  0
  5  6  1  0  0  0  0
  5 13  1  0  0  0  0
  5 14  1  0  0  0  0
  6  7  1  0  0  0  0
  6 15  1  0  0  0  0
  7 16  1  0  0  0  0
  7 17  1  0  0  0  0
  8  9  2  0  0  0  0
M  END
> <s_m_source_file>
AV-unprocessed.smi

> <i_m_source_file_index>
2549

> <i_lp_mmshare_version>
43012

> <i_f3d_flags>
0

> <s_epik_input>
bjFuW2NIXVtjSF1uMVtDSF0yW0NIMl1bTkhdW0NIMl0y

> <s_epik_cmdline>
J2VwaWtfcHl0aG9uJywgJy1waCcsICc3LjAnLCAnLXRuJywgJzgnLCAnLW1hJywgJzIwMCcsICctbWV0YWxfYmluZGluZycsICctaW1hZScsICc8aW5maWxlLm1hZT4nLCAnLW9tYWUnLCAnPG91dGZpbGUubWFlPic=

> <r_lp_tautomer_probability>
1

> <r_epik_Ionization_Penalty>
0.704768

> <r_epik_Ionization_Penalty_Charging>
0

> <r_epik_Ionization_Penalty_Neutral>
0.704768

> <r_epik_State_Penalty>
0.727806

> <r_epik_Charging_Adjusted_Penalty>
0.727806

> <i_epik_Tot_Q>
0

> <i_epik_Tot_abs_Q>
0

> <r_epik_Metal_State_Penalty>
0.727802

> <b_epik_Metal_Only>
0

> <s_lp_Force_Field>
OPLS_2005

> <r_lp_Energy>
13.9584

> <b_lp_Chiralities_Consistent>
1

> <s_lp_Variant>
AV-unprocessed.smi:2549-2

> <Gold.Version>
5.8.1

> <Gold.Id.Protein>
6NUR|6NUR_protein|mol2

> <Gold.PLP.Fitness>
28.1050

> <Gold.PLP.PLP>
-23.0614

> <Gold.PLP.part.hbond>
-2.6529

> <Gold.PLP.part.metal>
0.0000

> <Gold.PLP.part.buried>
-0.1411

> <Gold.PLP.part.nonpolar>
-19.0732

> <Gold.PLP.part.repulsive>
0.0000

> <Gold.PLP.ligand.clash>
0.0000

> <Gold.PLP.ligand.torsion>
0.1323

> <Gold.PLP.Chemscore.Hbond>
1.6880

> <Gold.PLP.Chemscore.CHOScore>
0.0000

> <Gold.PLP.Chemscore.Metal>
0.0000

> <Gold.Chemscore.Hbonds>
donor molecule, donor type, donor heavy atom, donor atom, acceptor molecule, acceptor atom, score
      L1  H     6    15       P1  8028  1.00
      P1  H  7997  8009       L1     9  0.65

> <Gold.PLP.Chemscore.Internal.Correction>
0.2443

> <Gold.Rescore>
     Score         DG    S(hbond)    S(metal)    S(lipo)     H(rot)  DE(clash)    DE(int)     intcor
     12.82     -13.13       1.25        0.00      51.59       1.00       0.19       0.12       ----

> <Gold.Chemscore.Fitness>
12.8184

> <Gold.Chemscore.DG>
-13.1345

> <Gold.Chemscore.ZeroCoef>
-5.4800

> <Gold.Chemscore.Hbond>
1.2512

> <Gold.Chemscore.Metal>
0.0000

> <Gold.Chemscore.Lipo>
51.5862

> <Gold.Chemscore.Internal_Hbond>
0.0000

> <Gold.Chemscore.DEClash>
0.1933

> <Gold.Chemscore.DEInternal>
0.1228

> <Gold.Chemscore.Rot>
1.0000

> <Gold.Chemscore.Internal.Correction>
   9.000000E+99

> <Gold.Chemscore.Hbonds>
donor molecule, donor type, donor heavy atom, donor atom, acceptor molecule, acceptor atom, score
      L1  H     6    15       P1  8028  0.50
      P1  H  7997  8009       L1     9  0.24

> <Gold.Chemscore.Hbond.Weighted>
-4.1790

> <Gold.Chemscore.Metal.Weighted>
-0.0000

> <Gold.Chemscore.Lipo.Weighted>
-6.0356

> <Gold.Chemscore.Internal_Hbond.Weighted>
0.0000

> <Gold.Chemscore.DEClash.Weighted>
0.1933

> <Gold.Chemscore.DEInternal.Weighted>
0.1228

> <Gold.Chemscore.Rot.Weighted>
2.5600

> <Gold.Chemscore.Internal.Correction.Weighted>
   9.000000E+99

> <Gold.Protein.RotatedTorsions>
[ 6907 6896 6895 6894 ] final -135.52 input  -60.11 | X-H torsion
[ 7974 7965 7964 7962 ] final   52.80 input  175.53 | X-H torsion
[ 8008 7997 7996 7995 ] final  142.99 input   59.86 | X-H torsion
[ 10167 10162 10161 10158 ] final  -87.17 input  -65.29 | X-H torsion
[ 10718 10713 10712 10709 ] final  141.18 input   66.30 | X-H torsion
[ 10763 10752 10751 10750 ] final  -97.52 input  -60.55 | X-H torsion
[ 11005 11000 10999 10996 ] final  144.11 input  -57.11 | X-H torsion

> <Gold.Protein.ActiveResidues>
 VAL166  LYS551  ARG553  GLY616  TRP617  ASP618  TYR619  PRO620  LYS621  CYS622 
 ASP623  PHE694  ASN695  SER759  ASP760  ASP761  ALA762  ILE779  LEU786  VAL792 
 PHE793  MET794  SER795  GLU796  ALA797  LYS798  CYS799  TRP800  GLU811  SER814 

> <Gold.Protein.RotatedAtoms>
  150.9989  133.6076  159.2697 H   0  0  0  0  0  0  0  0  0  0  0  0  # atno 6907 bound_to 6896
  151.3270  135.0831  159.9335 H   0  0  0  0  0  0  0  0  0  0  0  0  # atno 6908 bound_to 6896
  152.5268  133.9625  159.7778 H   0  0  0  0  0  0  0  0  0  0  0  0  # atno 6909 bound_to 6896
  145.9776  139.4210  143.0151 H   0  0  0  0  0  0  0  0  0  0  0  0  # atno 7974 bound_to 7965
  156.2939  140.2274  156.4818 H   0  0  0  0  0  0  0  0  0  0  0  0  # atno 8008 bound_to 7997
  154.7846  140.0458  157.1175 H   0  0  0  0  0  0  0  0  0  0  0  0  # atno 8009 bound_to 7997
  154.9718  140.3067  155.4988 H   0  0  0  0  0  0  0  0  0  0  0  0  # atno 8010 bound_to 7997
  140.3871  143.2722  151.9312 H   0  0  0  0  0  0  0  0  0  0  0  0  # atno 10167 bound_to 10162
  157.3949  131.1009  151.0610 H   0  0  0  0  0  0  0  0  0  0  0  0  # atno 10718 bound_to 10713
  154.7335  135.5043  153.9003 H   0  0  0  0  0  0  0  0  0  0  0  0  # atno 10763 bound_to 10752
  153.0973  135.6675  153.9748 H   0  0  0  0  0  0  0  0  0  0  0  0  # atno 10764 bound_to 10752
  153.9543  135.3054  155.3416 H   0  0  0  0  0  0  0  0  0  0  0  0  # atno 10765 bound_to 10752
  140.0606  134.9206  157.1178 H   0  0  0  0  0  0  0  0  0  0  0  0  # atno 11005 bound_to 11000
  145.7816  140.9854  143.1096 LP  0  0  0  0  0  0  0  0  0  0  0  0  # atno 17320 bound_to 7965
  144.6853  139.9571  143.7479 LP  0  0  0  0  0  0  0  0  0  0  0  0  # atno 17321 bound_to 7965
  139.4791  144.5763  151.8005 LP  0  0  0  0  0  0  0  0  0  0  0  0  # atno 17342 bound_to 10162
  140.4878  144.1355  150.5944 LP  0  0  0  0  0  0  0  0  0  0  0  0  # atno 17343 bound_to 10162
  157.1630  130.6234  149.5616 LP  0  0  0  0  0  0  0  0  0  0  0  0  # atno 17370 bound_to 10713
  155.9808  130.4811  150.6791 LP  0  0  0  0  0  0  0  0  0  0  0  0  # atno 17371 bound_to 10713
  140.3775  134.2323  155.7173 LP  0  0  0  0  0  0  0  0  0  0  0  0  # atno 17394 bound_to 11000
  141.1971  133.8066  157.0640 LP  0  0  0  0  0  0  0  0  0  0  0  0  # atno 17395 bound_to 11000

$$$$
