AV-unprocessed.smi:3348|AV-procd|sdf|12918|dock1
  -GOLD-   2272019333D 1   1.00000     0.00000
 Structure written by MMmdl.
 47 48  0  0  0  0  0  0  0  0  2 V2000
  149.1100  139.8380  154.4314 C   0  0  0  0  0  0  0  0  0  0  0  0
  148.4835  141.1986  154.7950 C   0  0  1  0  0  0  0  0  0  0  0  0
  147.3946  141.0719  155.8807 C   0  0  0  0  0  0  0  0  0  0  0  0
  146.3789  142.1054  155.7911 N   0  0  0  0  0  0  0  0  0  0  0  0
  145.4836  142.3453  154.7699 C   0  0  0  0  0  0  0  0  0  0  0  0
  144.7252  143.4191  155.1390 C   0  0  0  0  0  0  0  0  0  0  0  0
  145.2336  143.7674  156.4215 C   0  0  0  0  0  0  0  0  0  0  0  0
  146.2223  142.9779  156.8094 N   0  0  0  0  0  0  0  0  0  0  0  0
  149.5138  142.1585  155.2507 N   0  3  0  0  0  0  0  0  0  0  0  0
  150.1820  141.8179  156.5247 C   0  0  0  0  0  0  0  0  0  0  0  0
  151.2922  142.8235  156.8434 C   0  0  0  0  0  0  0  0  0  0  0  0
  151.6095  142.7159  158.2228 O   0  0  0  0  0  0  0  0  0  0  0  0
  152.7857  143.4124  158.6223 C   0  0  1  0  0  0  0  0  0  0  0  0
  152.5168  144.9301  158.7111 C   0  0  0  0  0  0  0  0  0  0  0  0
  151.4945  145.2625  159.8102 C   0  0  0  0  0  0  0  0  0  0  0  0
  151.9401  144.7051  161.1706 C   0  0  0  0  0  0  0  0  0  0  0  0
  152.2122  143.1941  161.0944 C   0  0  0  0  0  0  0  0  0  0  0  0
  153.2372  142.8578  159.9922 C   0  0  1  0  0  0  0  0  0  0  0  0
  153.5417  141.3525  159.9345 C   0  0  0  0  0  0  0  0  0  0  0  0
  148.3579  139.1356  154.0717 H   0  0  0  0  0  0  0  0  0  0  0  0
  149.5992  139.3849  155.2944 H   0  0  0  0  0  0  0  0  0  0  0  0
  149.8516  139.9313  153.6388 H   0  0  0  0  0  0  0  0  0  0  0  0
  148.0155  141.6142  153.9010 H   0  0  0  0  0  0  0  0  0  0  0  0
  146.9030  140.1001  155.8114 H   0  0  0  0  0  0  0  0  0  0  0  0
  147.8427  141.1230  156.8743 H   0  0  0  0  0  0  0  0  0  0  0  0
  145.4620  141.7418  153.8745 H   0  0  0  0  0  0  0  0  0  0  0  0
  143.9270  143.8842  154.5795 H   0  0  0  0  0  0  0  0  0  0  0  0
  144.9151  144.5641  157.0774 H   0  0  0  0  0  0  0  0  0  0  0  0
  150.2335  142.1882  154.5421 H   0  0  0  0  0  0  0  0  0  0  0  0
  149.4507  141.8240  157.3325 H   0  0  0  0  0  0  0  0  0  0  0  0
  150.5979  140.8108  156.4722 H   0  0  0  0  0  0  0  0  0  0  0  0
  152.1709  142.6278  156.2267 H   0  0  0  0  0  0  0  0  0  0  0  0
  150.9458  143.8303  156.6113 H   0  0  0  0  0  0  0  0  0  0  0  0
  153.5831  143.2281  157.9001 H   0  0  0  0  0  0  0  0  0  0  0  0
  153.4529  145.4458  158.9287 H   0  0  0  0  0  0  0  0  0  0  0  0
  152.1766  145.3256  157.7547 H   0  0  0  0  0  0  0  0  0  0  0  0
  151.3606  146.3424  159.8781 H   0  0  0  0  0  0  0  0  0  0  0  0
  150.5215  144.8475  159.5448 H   0  0  0  0  0  0  0  0  0  0  0  0
  152.8429  145.2222  161.4986 H   0  0  0  0  0  0  0  0  0  0  0  0
  151.1776  144.9082  161.9231 H   0  0  0  0  0  0  0  0  0  0  0  0
  152.5751  142.8418  162.0605 H   0  0  0  0  0  0  0  0  0  0  0  0
  151.2773  142.6643  160.9066 H   0  0  0  0  0  0  0  0  0  0  0  0
  154.1709  143.3584  160.2532 H   0  0  0  0  0  0  0  0  0  0  0  0
  152.6485  140.7717  159.7034 H   0  0  0  0  0  0  0  0  0  0  0  0
  153.9299  140.9957  160.8887 H   0  0  0  0  0  0  0  0  0  0  0  0
  154.2897  141.1322  159.1726 H   0  0  0  0  0  0  0  0  0  0  0  0
  149.1005  143.0771  155.3232 H   0  0  0  0  0  0  0  0  0  0  0  0
  1  2  1  0  0  0  0
  1 20  1  0  0  0  0
  1 21  1  0  0  0  0
  1 22  1  0  0  0  0
  2  3  1  0  0  0  0
  2  9  1  0  0  0  0
  2 23  1  0  0  0  0
  3  4  1  0  0  0  0
  3 24  1  0  0  0  0
  3 25  1  0  0  0  0
  4  8  1  0  0  0  0
  4  5  1  0  0  0  0
  5  6  2  0  0  0  0
  5 26  1  0  0  0  0
  6  7  1  0  0  0  0
  6 27  1  0  0  0  0
  7  8  2  0  0  0  0
  7 28  1  0  0  0  0
  9 10  1  0  0  0  0
  9 29  1  0  0  0  0
  9 47  1  0  0  0  0
 10 11  1  0  0  0  0
 10 30  1  0  0  0  0
 10 31  1  0  0  0  0
 11 12  1  0  0  0  0
 11 32  1  0  0  0  0
 11 33  1  0  0  0  0
 12 13  1  0  0  0  0
 13 18  1  0  0  0  0
 13 14  1  0  0  0  0
 13 34  1  0  0  0  0
 14 15  1  0  0  0  0
 14 35  1  0  0  0  0
 14 36  1  0  0  0  0
 15 16  1  0  0  0  0
 15 37  1  0  0  0  0
 15 38  1  0  0  0  0
 16 17  1  0  0  0  0
 16 39  1  0  0  0  0
 16 40  1  0  0  0  0
 17 18  1  0  0  0  0
 17 41  1  0  0  0  0
 17 42  1  0  0  0  0
 18 19  1  0  0  0  0
 18 43  1  0  0  0  0
 19 44  1  0  0  0  0
 19 45  1  0  0  0  0
 19 46  1  0  0  0  0
M  CHG  1   9   1
M  END
> <s_m_source_file>
AV-unprocessed.smi

> <i_m_source_file_index>
3348

> <i_lp_mmshare_version>
43012

> <i_f3d_flags>
0

> <s_epik_input>
bjFbY0hdW2NIXVtjSF1uMVtDSDJdW0NAQEhdKFtDSDNdKVtOSF1bQ0gyXVtDSDJdT1tDQEBIXTJbQ0gyXVtDSDJdW0NIMl1bQ0gyXVtDQEhdMltDSDNd

> <s_epik_cmdline>
J2VwaWtfcHl0aG9uJywgJy1waCcsICc3LjAnLCAnLXRuJywgJzgnLCAnLW1hJywgJzIwMCcsICctbWV0YWxfYmluZGluZycsICctaW1hZScsICc8aW5maWxlLm1hZT4nLCAnLW9tYWUnLCAnPG91dGZpbGUubWFlPic=

> <r_lp_tautomer_probability>
1

> <r_epik_Ionization_Penalty>
0.00925088

> <r_epik_Ionization_Penalty_Charging>
0.00924645

> <r_epik_Ionization_Penalty_Neutral>
4.42413e-06

> <r_epik_State_Penalty>
0.0070118

> <r_epik_Charging_Adjusted_Penalty>
0.0162583

> <i_epik_Tot_Q>
1

> <i_epik_Tot_abs_Q>
1

> <r_epik_Metal_State_Penalty>
0.00701222

> <b_epik_Metal_Only>
0

> <s_lp_Force_Field>
OPLS_2005

> <r_lp_Energy>
16.697

> <b_lp_Chiralities_Consistent>
1

> <s_lp_Variant>
AV-unprocessed.smi:3348-4

> <Gold.Version>
5.8.1

> <Gold.Id.Protein>
6NUR|6NUR_protein|mol2

> <Gold.PLP.Fitness>
51.7230

> <Gold.PLP.PLP>
-43.7060

> <Gold.PLP.part.hbond>
-1.0000

> <Gold.PLP.part.metal>
0.0000

> <Gold.PLP.part.buried>
-5.5223

> <Gold.PLP.part.nonpolar>
-38.2607

> <Gold.PLP.part.repulsive>
0.4058

> <Gold.PLP.ligand.clash>
0.0000

> <Gold.PLP.ligand.torsion>
0.5663

> <Gold.PLP.Chemscore.Hbond>
2.0000

> <Gold.PLP.Chemscore.CHOScore>
0.9825

> <Gold.PLP.Chemscore.Metal>
0.0000

> <Gold.Chemscore.Hbonds>
donor molecule, donor type, donor heavy atom, donor atom, acceptor molecule, acceptor atom, score
      L1  H     9    47       P1  8028  2.00
      L1  C     5    26       P1 10175  0.75

> <Gold.PLP.Chemscore.Internal.Correction>
0.2022

> <Gold.Rescore>
     Score         DG    S(hbond)    S(metal)    S(lipo)     H(rot)  DE(clash)    DE(int)     intcor
     18.80     -19.42       1.00        0.00     130.38       1.82       0.03       0.58       ----

> <Gold.Chemscore.Fitness>
18.8042

> <Gold.Chemscore.DG>
-19.4150

> <Gold.Chemscore.ZeroCoef>
-5.4800

> <Gold.Chemscore.Hbond>
0.9971

> <Gold.Chemscore.Metal>
0.0000

> <Gold.Chemscore.Lipo>
130.3809

> <Gold.Chemscore.Internal_Hbond>
0.0000

> <Gold.Chemscore.DEClash>
0.0284

> <Gold.Chemscore.DEInternal>
0.5824

> <Gold.Chemscore.Rot>
1.8163

> <Gold.Chemscore.Internal.Correction>
   9.000000E+99

> <Gold.Chemscore.Hbonds>
donor molecule, donor type, donor heavy atom, donor atom, acceptor molecule, acceptor atom, score
      L1  H     9    47       P1  8028  1.00

> <Gold.Chemscore.Hbond.Weighted>
-3.3302

> <Gold.Chemscore.Metal.Weighted>
-0.0000

> <Gold.Chemscore.Lipo.Weighted>
-15.2546

> <Gold.Chemscore.Internal_Hbond.Weighted>
0.0000

> <Gold.Chemscore.DEClash.Weighted>
0.0284

> <Gold.Chemscore.DEInternal.Weighted>
0.5824

> <Gold.Chemscore.Rot.Weighted>
4.6497

> <Gold.Chemscore.Internal.Correction.Weighted>
   9.000000E+99

> <Gold.Protein.RotatedTorsions>
[ 6907 6896 6895 6894 ] final   24.56 input  -60.11 | X-H torsion
[ 7974 7965 7964 7962 ] final  160.20 input  175.53 | X-H torsion
[ 8008 7997 7996 7995 ] final  138.20 input   59.86 | X-H torsion
[ 10167 10162 10161 10158 ] final  -74.04 input  -65.29 | X-H torsion
[ 10718 10713 10712 10709 ] final  114.61 input   66.30 | X-H torsion
[ 10763 10752 10751 10750 ] final   23.34 input  -60.55 | X-H torsion
[ 11005 11000 10999 10996 ] final  -42.26 input  -57.11 | X-H torsion

> <Gold.Protein.ActiveResidues>
 VAL166  LYS551  ARG553  GLY616  TRP617  ASP618  TYR619  PRO620  LYS621  CYS622 
 ASP623  PHE694  ASN695  SER759  ASP760  ASP761  ALA762  ILE779  LEU786  VAL792 
 PHE793  MET794  SER795  GLU796  ALA797  LYS798  CYS799  TRP800  GLU811  SER814 

> <Gold.Protein.RotatedAtoms>
  151.9593  135.0131  160.0546 H   0  0  0  0  0  0  0  0  0  0  0  0  # atno 6907 bound_to 6896
  152.1883  133.4750  159.5002 H   0  0  0  0  0  0  0  0  0  0  0  0  # atno 6908 bound_to 6896
  150.6930  134.1662  159.4238 H   0  0  0  0  0  0  0  0  0  0  0  0  # atno 6909 bound_to 6896
  144.7749  139.7724  143.6282 H   0  0  0  0  0  0  0  0  0  0  0  0  # atno 7974 bound_to 7965
  156.2998  140.2399  156.4035 H   0  0  0  0  0  0  0  0  0  0  0  0  # atno 8008 bound_to 7997
  154.8506  140.0424  157.1621 H   0  0  0  0  0  0  0  0  0  0  0  0  # atno 8009 bound_to 7997
  154.9003  140.2976  155.5325 H   0  0  0  0  0  0  0  0  0  0  0  0  # atno 8010 bound_to 7997
  140.5060  143.2353  151.7673 H   0  0  0  0  0  0  0  0  0  0  0  0  # atno 10167 bound_to 10162
  157.6271  131.1001  150.7211 H   0  0  0  0  0  0  0  0  0  0  0  0  # atno 10718 bound_to 10713
  153.0846  135.6629  153.9975 H   0  0  0  0  0  0  0  0  0  0  0  0  # atno 10763 bound_to 10752
  153.9588  135.2976  155.3436 H   0  0  0  0  0  0  0  0  0  0  0  0  # atno 10764 bound_to 10752
  154.7252  135.5147  153.8947 H   0  0  0  0  0  0  0  0  0  0  0  0  # atno 10765 bound_to 10752
  141.0303  133.6823  156.2570 H   0  0  0  0  0  0  0  0  0  0  0  0  # atno 11005 bound_to 11000
  146.1922  139.5169  142.9797 LP  0  0  0  0  0  0  0  0  0  0  0  0  # atno 17320 bound_to 7965
  145.6214  141.0322  143.1913 LP  0  0  0  0  0  0  0  0  0  0  0  0  # atno 17321 bound_to 7965
  139.4884  144.4457  151.9713 LP  0  0  0  0  0  0  0  0  0  0  0  0  # atno 17342 bound_to 10162
  140.3547  144.3046  150.5943 LP  0  0  0  0  0  0  0  0  0  0  0  0  # atno 17343 bound_to 10162
  156.7557  130.4783  149.5447 LP  0  0  0  0  0  0  0  0  0  0  0  0  # atno 17370 bound_to 10713
  156.1450  130.6270  151.0518 LP  0  0  0  0  0  0  0  0  0  0  0  0  # atno 17371 bound_to 10713
  140.6418  134.5158  157.5570 LP  0  0  0  0  0  0  0  0  0  0  0  0  # atno 17394 bound_to 11000
  139.9203  134.8162  156.1232 LP  0  0  0  0  0  0  0  0  0  0  0  0  # atno 17395 bound_to 11000

$$$$
