#       Name:                AV-unprocessed.smi:1500
#       Creating user name   scv26
#       Creation time:       Fri Mar 27 06:18:13 2020


#       File generated by GOLD software.
#

@<TRIPOS>MOLECULE
AV-unprocessed.smi:1500
    37    38     1
SMALL
NO_CHARGES


@<TRIPOS>ATOM
      1 ****        -4.7999   2.1528   1.2528 N.am           1 S1                 0.0000
      2 ****        -4.2259   1.5906   2.3197 C.2            1 S1                 0.0000
      3 ****        -3.9011   2.2416   3.3103 O.2            1 S1                 0.0000
      4 ****        -3.9758   0.0820   2.2655 C.3            1 S1                 0.0000
      5 ****        -2.5704  -0.2089   2.0419 N.pl3          1 S1                 0.0000
      6 ****        -1.8419  -0.0562   0.8778 C.2            1 S1                 0.0000
      7 ****        -0.5730  -0.4634   1.1781 C.2            1 S1                 0.0000
      8 ****         0.5775  -0.5086   0.3508 N.am           1 S1                 0.0000
      9 ****         0.6784  -0.1360  -0.9399 C.2            1 S1                 0.0000
     10 ****        -0.2595   0.3132  -1.5999 O.2            1 S1                 0.0000
     11 ****         1.9191  -0.2875  -1.4541 N.am           1 S1                 0.0000
     12 ****         3.0892  -0.8451  -0.7683 C.3            1 S1                 0.0000
     13 ****         4.1623  -1.0140  -1.8444 C.3            1 S1                 0.0000
     14 ****         3.7898   0.0106  -2.9060 C.3            1 S1                 0.0000
     15 ****         2.2662   0.0981  -2.8213 C.3            1 S1                 0.0000
     16 ****        -0.6054  -0.8562   2.5413 C.2            1 S1                 0.0000
     17 ****        -1.8157  -0.7017   3.0559 N.2            1 S1                 0.0000
     18 ****        -4.9825   3.1460   1.2486 H              1 S1                 0.0000
     19 ****        -5.0498   1.5866   0.4551 H              1 S1                 0.0000
     20 ****        -4.3006  -0.3744   3.2020 H              1 S1                 0.0000
     21 ****        -4.5587  -0.3778   1.4663 H              1 S1                 0.0000
     22 ****        -2.2871   0.3227  -0.0302 H              1 S1                 0.0000
     23 ****         1.4196  -0.8564   0.7860 H              1 S1                 0.0000
     24 ****         3.4227  -0.1407  -0.0048 H              1 S1                 0.0000
     25 ****         2.8706  -1.7975  -0.2828 H              1 S1                 0.0000
     26 ****         5.1729  -0.8759  -1.4594 H              1 S1                 0.0000
     27 ****         4.1005  -2.0169  -2.2688 H              1 S1                 0.0000
     28 ****         4.2267   0.9765  -2.6489 H              1 S1                 0.0000
     29 ****         4.1434  -0.2620  -3.9007 H              1 S1                 0.0000
     30 ****         1.8027  -0.6044  -3.5156 H              1 S1                 0.0000
     31 ****         1.9133   1.1009  -3.0680 H              1 S1                 0.0000
     32 ****         0.1909  -1.2395   3.1621 H              1 S1                 0.0000
     33 ****        -4.0646   3.2278   3.3361 LP             1 S1                 0.0000
     34 ****        -3.4733   1.7851   4.0904 LP             1 S1                 0.0000
     35 ****        -1.1608   0.4191  -1.1801 LP             1 S1                 0.0000
     36 ****        -0.1195   0.5721  -2.5557 LP             1 S1                 0.0000
     37 ****        -2.1098  -0.9044   3.9899 LP             1 S1                 0.0000
@<TRIPOS>BOND
    1    1    2 am    
    2    1   18 1     
    3    1   19 1     
    4    2    3 2     
    5    2    4 1     
    6    4    5 1     
    7    4   20 1     
    8    4   21 1     
    9    5   17 1     
   10    5    6 1     
   11    6    7 2     
   12    6   22 1     
   13    7    8 1     
   14    7   16 1     
   15    8    9 am    
   16    8   23 1     
   17    9   10 2     
   18    9   11 am    
   19   11   15 1     
   20   11   12 1     
   21   12   13 1     
   22   12   24 1     
   23   12   25 1     
   24   13   14 1     
   25   13   26 1     
   26   13   27 1     
   27   14   15 1     
   28   14   28 1     
   29   14   29 1     
   30   15   30 1     
   31   15   31 1     
   32   16   17 2     
   33   16   32 1     
   34    3   33 1     
   35    3   34 1     
   36   10   35 1     
   37   10   36 1     
   38   17   37 1     
@<TRIPOS>SUBSTRUCTURE
      1 S1             1
@<TRIPOS>SET
LONE_PAIRS      STATIC     ATOMS    <user>   **** ""
5 33 34 35 36 37
DONOR_HYDROGENS      STATIC     ATOMS    <user>   **** ""
3 18 19 23
ATOM$BLUE        STATIC     ATOMS    COLORGROUP SYSTEM
5 33 34 35 36 37
ATOM$RED        STATIC     ATOMS    COLORGROUP SYSTEM
3 18 19 23
