AV-unprocessed.smi:356|AV-procd|sdf|2409|dock5
  -GOLD-   2262022343D 1   1.00000     0.00000
 Structure written by MMmdl.
 41 43  0  0  0  0  0  0  0  0  1 V2000
  151.7804  139.0341  155.3676 C   0  0  0  0  0  0  0  0  0  0  0  0
  151.8870  140.0559  156.4548 C   0  0  0  0  0  0  0  0  0  0  0  0
  152.7389  139.9233  157.4720 N   0  0  0  0  0  0  0  0  0  0  0  0
  152.5022  141.0634  158.2158 C   0  0  0  0  0  0  0  0  0  0  0  0
  153.0887  141.5131  159.4205 C   0  0  0  0  0  0  0  0  0  0  0  0
  152.6775  142.7296  160.0041 C   0  0  0  0  0  0  0  0  0  0  0  0
  151.6763  143.5121  159.3934 C   0  0  0  0  0  0  0  0  0  0  0  0
  151.0790  143.0828  158.1926 C   0  0  0  0  0  0  0  0  0  0  0  0
  151.4931  141.8679  157.6144 C   0  0  0  0  0  0  0  0  0  0  0  0
  151.1204  141.1746  156.4676 N   0  0  0  0  0  0  0  0  0  0  0  0
  150.1094  141.5906  155.5044 C   0  0  0  0  0  0  0  0  0  0  0  0
  148.6735  141.3744  156.0210 C   0  0  1  0  0  0  0  0  0  0  0  0
  148.3911  142.3205  157.0331 O   0  0  0  0  0  0  0  0  0  0  0  0
  147.6375  141.5437  154.8922 C   0  0  0  0  0  0  0  0  0  0  0  0
  146.6552  142.6115  155.0895 N   0  0  0  0  0  0  0  0  0  0  0  0
  145.5742  142.2296  155.9971 C   0  0  0  0  0  0  0  0  0  0  0  0
  144.5388  143.3562  156.1629 C   0  0  0  0  0  0  0  0  0  0  0  0
  144.0256  143.7291  154.8885 O   0  0  0  0  0  0  0  0  0  0  0  0
  145.0451  144.1535  153.9901 C   0  0  0  0  0  0  0  0  0  0  0  0
  146.0761  143.0255  153.8154 C   0  0  0  0  0  0  0  0  0  0  0  0
  152.5284  138.2520  155.5026 H   0  0  0  0  0  0  0  0  0  0  0  0
  151.9417  139.4958  154.3936 H   0  0  0  0  0  0  0  0  0  0  0  0
  150.7933  138.5716  155.3815 H   0  0  0  0  0  0  0  0  0  0  0  0
  153.8563  140.9208  159.8962 H   0  0  0  0  0  0  0  0  0  0  0  0
  153.1325  143.0633  160.9251 H   0  0  0  0  0  0  0  0  0  0  0  0
  151.3673  144.4426  159.8468 H   0  0  0  0  0  0  0  0  0  0  0  0
  150.3126  143.6798  157.7213 H   0  0  0  0  0  0  0  0  0  0  0  0
  150.2672  142.6346  155.2340 H   0  0  0  0  0  0  0  0  0  0  0  0
  150.2634  141.0162  154.5900 H   0  0  0  0  0  0  0  0  0  0  0  0
  148.6113  140.3775  156.4554 H   0  0  0  0  0  0  0  0  0  0  0  0
  148.7104  143.1636  156.7479 H   0  0  0  0  0  0  0  0  0  0  0  0
  148.1813  141.7242  153.9635 H   0  0  0  0  0  0  0  0  0  0  0  0
  147.1108  140.5996  154.7455 H   0  0  0  0  0  0  0  0  0  0  0  0
  145.0752  141.3342  155.6232 H   0  0  0  0  0  0  0  0  0  0  0  0
  145.9699  141.9799  156.9804 H   0  0  0  0  0  0  0  0  0  0  0  0
  143.7153  143.0245  156.7955 H   0  0  0  0  0  0  0  0  0  0  0  0
  144.9871  144.2241  156.6492 H   0  0  0  0  0  0  0  0  0  0  0  0
  144.5928  144.4068  153.0311 H   0  0  0  0  0  0  0  0  0  0  0  0
  145.5224  145.0585  154.3696 H   0  0  0  0  0  0  0  0  0  0  0  0
  146.8650  143.3624  153.1420 H   0  0  0  0  0  0  0  0  0  0  0  0
  145.5973  142.1725  153.3317 H   0  0  0  0  0  0  0  0  0  0  0  0
  1  2  1  0  0  0  0
  1 21  1  0  0  0  0
  1 22  1  0  0  0  0
  1 23  1  0  0  0  0
  2 10  1  0  0  0  0
  2  3  2  0  0  0  0
  3  4  1  0  0  0  0
  4  9  2  0  0  0  0
  4  5  1  0  0  0  0
  5  6  2  0  0  0  0
  5 24  1  0  0  0  0
  6  7  1  0  0  0  0
  6 25  1  0  0  0  0
  7  8  2  0  0  0  0
  7 26  1  0  0  0  0
  8  9  1  0  0  0  0
  8 27  1  0  0  0  0
  9 10  1  0  0  0  0
 10 11  1  0  0  0  0
 11 12  1  0  0  0  0
 11 28  1  0  0  0  0
 11 29  1  0  0  0  0
 12 13  1  0  0  0  0
 12 14  1  0  0  0  0
 12 30  1  0  0  0  0
 13 31  1  0  0  0  0
 14 15  1  0  0  0  0
 14 32  1  0  0  0  0
 14 33  1  0  0  0  0
 15 20  1  0  0  0  0
 15 16  1  0  0  0  0
 16 17  1  0  0  0  0
 16 34  1  0  0  0  0
 16 35  1  0  0  0  0
 17 18  1  0  0  0  0
 17 36  1  0  0  0  0
 17 37  1  0  0  0  0
 18 19  1  0  0  0  0
 19 20  1  0  0  0  0
 19 38  1  0  0  0  0
 19 39  1  0  0  0  0
 20 40  1  0  0  0  0
 20 41  1  0  0  0  0
M  END
> <s_m_source_file>
AV-unprocessed.smi

> <i_m_source_file_index>
356

> <i_lp_mmshare_version>
43012

> <i_f3d_flags>
0

> <s_epik_input>
W2NIXTFbY0hdW2NIXVtjSF1jKGMxMiluKGMobjIpW0NIM10pW0NIMl1bQ0BIXShbT0hdKVtDSDJdTjNbQ0gyXVtDSDJdT1tDSDJdW0NIMl0z

> <s_epik_cmdline>
J2VwaWtfcHl0aG9uJywgJy1waCcsICc3LjAnLCAnLXRuJywgJzgnLCAnLW1hJywgJzIwMCcsICctbWV0YWxfYmluZGluZycsICctaW1hZScsICc8aW5maWxlLm1hZT4nLCAnLW9tYWUnLCAnPG91dGZpbGUubWFlPic=

> <r_epik_Ionization_Penalty>
0.355661

> <r_epik_Ionization_Penalty_Charging>
0

> <r_epik_Ionization_Penalty_Neutral>
0.355661

> <r_epik_State_Penalty>
0.325123

> <r_epik_Charging_Adjusted_Penalty>
0.325123

> <i_epik_Tot_Q>
0

> <i_epik_Tot_abs_Q>
0

> <r_epik_Metal_State_Penalty>
0.239925

> <b_epik_Metal_Only>
0

> <s_lp_Force_Field>
OPLS_2005

> <r_lp_Energy>
29.7319

> <b_lp_Chiralities_Consistent>
1

> <s_lp_Variant>
AV-unprocessed.smi:356-2

> <Gold.Version>
5.8.1

> <Gold.Id.Protein>
6NUR|6NUR_protein|mol2

> <Gold.PLP.Fitness>
44.3635

> <Gold.PLP.PLP>
-40.7876

> <Gold.PLP.part.hbond>
-2.0000

> <Gold.PLP.part.metal>
0.0000

> <Gold.PLP.part.buried>
-5.9016

> <Gold.PLP.part.nonpolar>
-32.5078

> <Gold.PLP.part.repulsive>
0.4926

> <Gold.PLP.ligand.clash>
0.0000

> <Gold.PLP.ligand.torsion>
1.2207

> <Gold.PLP.Chemscore.Hbond>
2.0000

> <Gold.PLP.Chemscore.CHOScore>
0.0000

> <Gold.PLP.Chemscore.Metal>
0.0000

> <Gold.Chemscore.Hbonds>
donor molecule, donor type, donor heavy atom, donor atom, acceptor molecule, acceptor atom, score
      L1  H    13    31       P1  8028  1.00
      P1  H  7997  8009       L1     3  0.95

> <Gold.PLP.Chemscore.Internal.Correction>
0.0174

> <Gold.Rescore>
     Score         DG    S(hbond)    S(metal)    S(lipo)     H(rot)  DE(clash)    DE(int)     intcor
     14.19     -16.56       1.20        0.00     103.97       1.99       0.02       2.35       ----

> <Gold.Chemscore.Fitness>
14.1946

> <Gold.Chemscore.DG>
-16.5631

> <Gold.Chemscore.ZeroCoef>
-5.4800

> <Gold.Chemscore.Hbond>
1.1986

> <Gold.Chemscore.Metal>
0.0000

> <Gold.Chemscore.Lipo>
103.9720

> <Gold.Chemscore.Internal_Hbond>
0.0000

> <Gold.Chemscore.DEClash>
0.0211

> <Gold.Chemscore.DEInternal>
2.3474

> <Gold.Chemscore.Rot>
1.9863

> <Gold.Chemscore.Internal.Correction>
   9.000000E+99

> <Gold.Chemscore.Hbonds>
donor molecule, donor type, donor heavy atom, donor atom, acceptor molecule, acceptor atom, score
      L1  H    13    31       P1  8028  0.78
      P1  H  7997  8009       L1     3  0.14

> <Gold.Chemscore.Hbond.Weighted>
-4.0034

> <Gold.Chemscore.Metal.Weighted>
-0.0000

> <Gold.Chemscore.Lipo.Weighted>
-12.1647

> <Gold.Chemscore.Internal_Hbond.Weighted>
0.0000

> <Gold.Chemscore.DEClash.Weighted>
0.0211

> <Gold.Chemscore.DEInternal.Weighted>
2.3474

> <Gold.Chemscore.Rot.Weighted>
5.0850

> <Gold.Chemscore.Internal.Correction.Weighted>
   9.000000E+99

> <Gold.Protein.RotatedTorsions>
[ 6907 6896 6895 6894 ] final  -42.86 input  -60.11 | X-H torsion
[ 7974 7965 7964 7962 ] final  -48.46 input  175.53 | X-H torsion
[ 8008 7997 7996 7995 ] final -172.62 input   59.86 | X-H torsion
[ 10167 10162 10161 10158 ] final  -91.38 input  -65.29 | X-H torsion
[ 10718 10713 10712 10709 ] final   51.67 input   66.30 | X-H torsion
[ 10763 10752 10751 10750 ] final -162.37 input  -60.55 | X-H torsion
[ 11005 11000 10999 10996 ] final -102.27 input  -57.11 | X-H torsion

> <Gold.Protein.ActiveResidues>
 VAL166  LYS551  ARG553  GLY616  TRP617  ASP618  TYR619  PRO620  LYS621  CYS622 
 ASP623  PHE694  ASN695  SER759  ASP760  ASP761  ALA762  ILE779  LEU786  VAL792 
 PHE793  MET794  SER795  GLU796  ALA797  LYS798  CYS799  TRP800  GLU811  SER814 

> <Gold.Protein.RotatedAtoms>
  150.9504  134.8905  159.7668 H   0  0  0  0  0  0  0  0  0  0  0  0  # atno 6907 bound_to 6896
  152.5117  134.3814  159.9362 H   0  0  0  0  0  0  0  0  0  0  0  0  # atno 6908 bound_to 6896
  151.3831  133.3774  159.2747 H   0  0  0  0  0  0  0  0  0  0  0  0  # atno 6909 bound_to 6896
  145.9510  140.7572  142.9505 H   0  0  0  0  0  0  0  0  0  0  0  0  # atno 7974 bound_to 7965
  155.9469  140.1119  157.1009 H   0  0  0  0  0  0  0  0  0  0  0  0  # atno 8008 bound_to 7997
  154.4101  140.1208  156.5067 H   0  0  0  0  0  0  0  0  0  0  0  0  # atno 8009 bound_to 7997
  155.6891  140.3472  155.4888 H   0  0  0  0  0  0  0  0  0  0  0  0  # atno 8010 bound_to 7997
  140.3454  143.2919  151.9787 H   0  0  0  0  0  0  0  0  0  0  0  0  # atno 10167 bound_to 10162
  157.5002  130.8433  149.8307 H   0  0  0  0  0  0  0  0  0  0  0  0  # atno 10718 bound_to 10713
  154.7220  135.3028  154.9032 H   0  0  0  0  0  0  0  0  0  0  0  0  # atno 10763 bound_to 10752
  153.9901  135.6720  153.4758 H   0  0  0  0  0  0  0  0  0  0  0  0  # atno 10764 bound_to 10752
  153.0842  135.4993  154.8481 H   0  0  0  0  0  0  0  0  0  0  0  0  # atno 10765 bound_to 10752
  141.1196  133.8545  157.1339 H   0  0  0  0  0  0  0  0  0  0  0  0  # atno 11005 bound_to 11000
  144.6796  140.2434  143.7341 LP  0  0  0  0  0  0  0  0  0  0  0  0  # atno 17320 bound_to 7965
  145.8171  139.2028  143.1959 LP  0  0  0  0  0  0  0  0  0  0  0  0  # atno 17321 bound_to 7965
  139.4834  144.6121  151.7414 LP  0  0  0  0  0  0  0  0  0  0  0  0  # atno 17342 bound_to 10162
  140.5269  144.0791  150.6040 LP  0  0  0  0  0  0  0  0  0  0  0  0  # atno 17343 bound_to 10162
  156.0225  130.3791  150.1921 LP  0  0  0  0  0  0  0  0  0  0  0  0  # atno 17370 bound_to 10713
  157.0110  130.9951  151.3366 LP  0  0  0  0  0  0  0  0  0  0  0  0  # atno 17371 bound_to 10713
  140.0143  134.9974  157.0461 LP  0  0  0  0  0  0  0  0  0  0  0  0  # atno 17394 bound_to 11000
  140.4546  134.1547  155.7185 LP  0  0  0  0  0  0  0  0  0  0  0  0  # atno 17395 bound_to 11000

$$$$
