#       Name:                AV-unprocessed.smi:2681
#       Creating user name   scv26
#       Creation time:       Fri Mar 27 14:40:12 2020


#       File generated by GOLD software.
#

@<TRIPOS>MOLECULE
AV-unprocessed.smi:2681
    47    48     1
SMALL
NO_CHARGES


@<TRIPOS>ATOM
      1 ****        -5.0721  -0.4342  -1.8340 N.1            1 S1                 0.0000
      2 ****        -4.1358  -0.9932  -1.4474 C.1            1 S1                 0.0000
      3 ****        -2.9563  -1.6968  -0.9609 C.ar           1 S1                 0.0000
      4 ****        -2.0050  -2.1696  -1.8891 C.ar           1 S1                 0.0000
      5 ****        -0.8545  -2.8363  -1.4216 C.ar           1 S1                 0.0000
      6 ****         0.1419  -3.3053  -2.3734 C.1            1 S1                 0.0000
      7 ****         0.9337  -3.6775  -3.1306 N.1            1 S1                 0.0000
      8 ****        -0.7133  -3.0050  -0.0237 C.ar           1 S1                 0.0000
      9 ****         0.6945  -3.8007   0.7009 S.3            1 S1                 0.0000
     10 ****         1.2591  -2.7262   2.0550 C.3            1 S1                 0.0000
     11 ****         1.8125  -1.3870   1.5482 C.3            1 S1                 0.0000
     12 ****         0.7507  -0.6068   1.0174 O.3            1 S1                 0.0000
     13 ****         1.1425   0.6077   0.3904 C.3            1 S1                 0.0000
     14 ****         1.5083   1.6450   1.4763 C.3            1 S1                 0.0000
     15 ****         1.4311   3.1300   1.0783 C.3            1 S1                 0.0000
     16 ****         1.9212   3.4626  -0.3398 C.3            1 S1                 0.0000
     17 ****         0.8144   3.3174  -1.3977 C.3            1 S1                 0.0000
     18 ****         0.4308   1.8687  -1.7319 C.3            1 S1                 0.0000
     19 ****        -0.0211   1.0222  -0.5294 C.3            1 S1                 0.0000
     20 ****        -1.6233  -2.5688   0.8738 N.ar           1 S1                 0.0000
     21 ****        -2.7179  -1.9236   0.4189 C.ar           1 S1                 0.0000
     22 ****        -3.6056  -1.4891   1.4051 N.pl3          1 S1                 0.0000
     23 ****        -2.1511  -2.0123  -2.9488 H              1 S1                 0.0000
     24 ****         0.4461  -2.5648   2.7632 H              1 S1                 0.0000
     25 ****         2.0423  -3.2597   2.5936 H              1 S1                 0.0000
     26 ****         2.2881  -0.8556   2.3726 H              1 S1                 0.0000
     27 ****         2.5768  -1.5663   0.7906 H              1 S1                 0.0000
     28 ****         2.0134   0.4108  -0.2371 H              1 S1                 0.0000
     29 ****         0.8608   1.5019   2.3424 H              1 S1                 0.0000
     30 ****         2.5181   1.4316   1.8279 H              1 S1                 0.0000
     31 ****         0.4084   3.4883   1.2016 H              1 S1                 0.0000
     32 ****         2.0203   3.6991   1.7983 H              1 S1                 0.0000
     33 ****         2.2493   4.5026  -0.3468 H              1 S1                 0.0000
     34 ****         2.7995   2.8712  -0.6014 H              1 S1                 0.0000
     35 ****        -0.0725   3.8674  -1.0808 H              1 S1                 0.0000
     36 ****         1.1461   3.8008  -2.3172 H              1 S1                 0.0000
     37 ****        -0.3790   1.8930  -2.4617 H              1 S1                 0.0000
     38 ****         1.2630   1.3758  -2.2360 H              1 S1                 0.0000
     39 ****        -0.4707   0.1166  -0.9360 H              1 S1                 0.0000
     40 ****        -0.8136   1.5171   0.0332 H              1 S1                 0.0000
     41 ****        -4.4552  -0.9945   1.1732 H              1 S1                 0.0000
     42 ****        -3.4254  -1.6577   2.3845 H              1 S1                 0.0000
     43 ****        -5.8814   0.0490  -2.1681 LP             1 S1                 0.0000
     44 ****         1.6180  -3.9991  -3.7850 LP             1 S1                 0.0000
     45 ****         0.1289  -0.3806   1.7672 LP             1 S1                 0.0000
     46 ****         0.2680  -1.1622   0.3402 LP             1 S1                 0.0000
     47 ****        -1.4891  -2.7204   1.8531 LP             1 S1                 0.0000
@<TRIPOS>BOND
    1    1    2 3     
    2    2    3 1     
    3    3   21 ar    
    4    3    4 ar    
    5    4    5 ar    
    6    4   23 1     
    7    5    6 1     
    8    5    8 ar    
    9    6    7 3     
   10    8    9 1     
   11    8   20 ar    
   12    9   10 1     
   13   10   11 1     
   14   10   24 1     
   15   10   25 1     
   16   11   12 1     
   17   11   26 1     
   18   11   27 1     
   19   12   13 1     
   20   13   19 1     
   21   13   14 1     
   22   13   28 1     
   23   14   15 1     
   24   14   29 1     
   25   14   30 1     
   26   15   16 1     
   27   15   31 1     
   28   15   32 1     
   29   16   17 1     
   30   16   33 1     
   31   16   34 1     
   32   17   18 1     
   33   17   35 1     
   34   17   36 1     
   35   18   19 1     
   36   18   37 1     
   37   18   38 1     
   38   19   39 1     
   39   19   40 1     
   40   20   21 ar    
   41   21   22 1     
   42   22   41 1     
   43   22   42 1     
   44    1   43 1     
   45    7   44 1     
   46   12   45 1     
   47   12   46 1     
   48   20   47 1     
@<TRIPOS>SUBSTRUCTURE
      1 S1             1
@<TRIPOS>SET
LONE_PAIRS      STATIC     ATOMS    <user>   **** ""
5 43 44 45 46 47
DONOR_HYDROGENS      STATIC     ATOMS    <user>   **** ""
2 41 42
ATOM$BLUE        STATIC     ATOMS    COLORGROUP SYSTEM
5 43 44 45 46 47
ATOM$RED        STATIC     ATOMS    COLORGROUP SYSTEM
2 41 42
