AV-unprocessed.smi:462|AV-procd|sdf|2632|dock2
  -GOLD-   2262023 43D 1   1.00000     0.00000
 Structure written by MMmdl.
 46 48  0  0  0  0  0  0  0  0  1 V2000
  154.3005  140.4758  161.1999 C   0  0  0  0  0  0  0  0  0  0  0  0
  153.3967  140.8021  160.1551 O   0  0  0  0  0  0  0  0  0  0  0  0
  152.6381  141.9484  160.2775 C   0  0  0  0  0  0  0  0  0  0  0  0
  152.6680  142.7940  161.4150 C   0  0  0  0  0  0  0  0  0  0  0  0
  151.8661  143.9489  161.4666 C   0  0  0  0  0  0  0  0  0  0  0  0
  151.0267  144.2711  160.3865 C   0  0  0  0  0  0  0  0  0  0  0  0
  150.9888  143.4390  159.2530 C   0  0  0  0  0  0  0  0  0  0  0  0
  151.7945  142.2744  159.1910 C   0  0  0  0  0  0  0  0  0  0  0  0
  151.8127  141.4134  158.1155 O   0  0  0  0  0  0  0  0  0  0  0  0
  150.8871  141.6137  157.0569 C   0  0  0  0  0  0  0  0  0  0  0  0
  151.5373  141.1592  155.7401 C   0  0  0  0  0  0  0  0  0  0  0  0
  150.6330  140.3540  154.9255 N   0  0  0  0  0  0  0  0  0  0  0  0
  150.8240  139.1267  154.3558 C   0  0  0  0  0  0  0  0  0  0  0  0
  152.1219  138.3388  154.4165 C   0  0  0  0  0  0  0  0  0  0  0  0
  153.3307  139.1948  153.9819 C   0  0  0  0  0  0  0  0  0  0  0  0
  152.3444  137.7774  155.8308 C   0  0  0  0  0  0  0  0  0  0  0  0
  152.1603  137.2480  153.5170 O   0  0  0  0  0  0  0  0  0  0  0  0
  149.8083  138.6991  153.5986 N   0  0  0  0  0  0  0  0  0  0  0  0
  148.8593  139.6875  153.7434 C   0  0  0  0  0  0  0  0  0  0  0  0
  147.5539  139.7915  153.2119 C   0  0  0  0  0  0  0  0  0  0  0  0
  146.7555  140.9186  153.4955 C   0  0  0  0  0  0  0  0  0  0  0  0
  147.2528  141.9568  154.3090 C   0  0  0  0  0  0  0  0  0  0  0  0
  148.5530  141.8729  154.8426 C   0  0  0  0  0  0  0  0  0  0  0  0
  149.3437  140.7410  154.5635 C   0  0  0  0  0  0  0  0  0  0  0  0
  154.8311  139.5597  160.9404 H   0  0  0  0  0  0  0  0  0  0  0  0
  153.7764  140.2986  162.1400 H   0  0  0  0  0  0  0  0  0  0  0  0
  155.0462  141.2591  161.3421 H   0  0  0  0  0  0  0  0  0  0  0  0
  153.2995  142.5784  162.2632 H   0  0  0  0  0  0  0  0  0  0  0  0
  151.8955  144.5881  162.3366 H   0  0  0  0  0  0  0  0  0  0  0  0
  150.4107  145.1574  160.4270 H   0  0  0  0  0  0  0  0  0  0  0  0
  150.3318  143.7152  158.4424 H   0  0  0  0  0  0  0  0  0  0  0  0
  149.9804  141.0349  157.2374 H   0  0  0  0  0  0  0  0  0  0  0  0
  150.6093  142.6664  156.9941 H   0  0  0  0  0  0  0  0  0  0  0  0
  151.8307  142.0348  155.1603 H   0  0  0  0  0  0  0  0  0  0  0  0
  152.4613  140.6137  155.9231 H   0  0  0  0  0  0  0  0  0  0  0  0
  153.4793  140.0484  154.6442 H   0  0  0  0  0  0  0  0  0  0  0  0
  153.2007  139.5815  152.9701 H   0  0  0  0  0  0  0  0  0  0  0  0
  154.2566  138.6183  153.9966 H   0  0  0  0  0  0  0  0  0  0  0  0
  152.3892  138.5797  156.5682 H   0  0  0  0  0  0  0  0  0  0  0  0
  153.2779  137.2174  155.8977 H   0  0  0  0  0  0  0  0  0  0  0  0
  151.5363  137.1072  156.1255 H   0  0  0  0  0  0  0  0  0  0  0  0
  151.9700  137.5691  152.6492 H   0  0  0  0  0  0  0  0  0  0  0  0
  147.1661  139.0013  152.5862 H   0  0  0  0  0  0  0  0  0  0  0  0
  145.7581  140.9870  153.0866 H   0  0  0  0  0  0  0  0  0  0  0  0
  146.6362  142.8172  154.5239 H   0  0  0  0  0  0  0  0  0  0  0  0
  148.9335  142.6665  155.4684 H   0  0  0  0  0  0  0  0  0  0  0  0
  1  2  1  0  0  0  0
  1 25  1  0  0  0  0
  1 26  1  0  0  0  0
  1 27  1  0  0  0  0
  2  3  1  0  0  0  0
  3  8  1  0  0  0  0
  3  4  2  0  0  0  0
  4  5  1  0  0  0  0
  4 28  1  0  0  0  0
  5  6  2  0  0  0  0
  5 29  1  0  0  0  0
  6  7  1  0  0  0  0
  6 30  1  0  0  0  0
  7  8  2  0  0  0  0
  7 31  1  0  0  0  0
  8  9  1  0  0  0  0
  9 10  1  0  0  0  0
 10 11  1  0  0  0  0
 10 32  1  0  0  0  0
 10 33  1  0  0  0  0
 11 12  1  0  0  0  0
 11 34  1  0  0  0  0
 11 35  1  0  0  0  0
 12 24  1  0  0  0  0
 12 13  1  0  0  0  0
 13 14  1  0  0  0  0
 13 18  2  0  0  0  0
 14 15  1  0  0  0  0
 14 16  1  0  0  0  0
 14 17  1  0  0  0  0
 15 36  1  0  0  0  0
 15 37  1  0  0  0  0
 15 38  1  0  0  0  0
 16 39  1  0  0  0  0
 16 40  1  0  0  0  0
 16 41  1  0  0  0  0
 17 42  1  0  0  0  0
 18 19  1  0  0  0  0
 19 24  2  0  0  0  0
 19 20  1  0  0  0  0
 20 21  2  0  0  0  0
 20 43  1  0  0  0  0
 21 22  1  0  0  0  0
 21 44  1  0  0  0  0
 22 23  2  0  0  0  0
 22 45  1  0  0  0  0
 23 24  1  0  0  0  0
 23 46  1  0  0  0  0
M  END
> <s_m_source_file>
AV-unprocessed.smi

> <i_m_source_file_index>
462

> <i_lp_mmshare_version>
43012

> <i_f3d_flags>
0

> <s_epik_input>
W0NIM11PYzFbY0hdW2NIXVtjSF1bY0hdYzFPW0NIMl1bQ0gyXW4oYyhuMilDKFtDSDNdKShbQ0gzXSlbT0hdKWMoYzIzKVtjSF1bY0hdW2NIXVtjSF0z

> <s_epik_cmdline>
J2VwaWtfcHl0aG9uJywgJy1waCcsICc3LjAnLCAnLXRuJywgJzgnLCAnLW1hJywgJzIwMCcsICctbWV0YWxfYmluZGluZycsICctaW1hZScsICc8aW5maWxlLm1hZT4nLCAnLW9tYWUnLCAnPG91dGZpbGUubWFlPic=

> <r_lp_tautomer_probability>
1

> <r_epik_Ionization_Penalty>
0.0665975

> <r_epik_Ionization_Penalty_Charging>
0

> <r_epik_Ionization_Penalty_Neutral>
0.0665975

> <r_epik_State_Penalty>
0.0581545

> <r_epik_Charging_Adjusted_Penalty>
0.0581545

> <i_epik_Tot_Q>
0

> <i_epik_Tot_abs_Q>
0

> <r_epik_Metal_State_Penalty>
6.11011e-05

> <b_epik_Metal_Only>
0

> <s_lp_Force_Field>
OPLS_2005

> <r_lp_Energy>
19.5197

> <b_lp_Chiralities_Consistent>
1

> <s_lp_Variant>
AV-unprocessed.smi:462-1

> <Gold.Version>
5.8.1

> <Gold.Id.Protein>
6NUR|6NUR_protein|mol2

> <Gold.PLP.Fitness>
57.6438

> <Gold.PLP.PLP>
-53.5811

> <Gold.PLP.part.hbond>
-2.0000

> <Gold.PLP.part.metal>
0.0000

> <Gold.PLP.part.buried>
-2.4445

> <Gold.PLP.part.nonpolar>
-48.9271

> <Gold.PLP.part.repulsive>
0.6527

> <Gold.PLP.ligand.clash>
0.0000

> <Gold.PLP.ligand.torsion>
0.8438

> <Gold.PLP.Chemscore.Hbond>
1.8447

> <Gold.PLP.Chemscore.CHOScore>
0.0000

> <Gold.PLP.Chemscore.Metal>
0.0000

> <Gold.Chemscore.Hbonds>
donor molecule, donor type, donor heavy atom, donor atom, acceptor molecule, acceptor atom, score
      L1  H    17    42       P1  7949  0.16
      P1  H 10752 10765       L1    17  0.27

> <Gold.PLP.Chemscore.Internal.Correction>
0.2160

> <Gold.Rescore>
     Score         DG    S(hbond)    S(metal)    S(lipo)     H(rot)  DE(clash)    DE(int)     intcor
     20.35     -22.25       1.46        0.00     151.08       2.25       1.07       0.83       ----

> <Gold.Chemscore.Fitness>
20.3526

> <Gold.Chemscore.DG>
-22.2536

> <Gold.Chemscore.ZeroCoef>
-5.4800

> <Gold.Chemscore.Hbond>
1.4575

> <Gold.Chemscore.Metal>
0.0000

> <Gold.Chemscore.Lipo>
151.0781

> <Gold.Chemscore.Internal_Hbond>
0.0000

> <Gold.Chemscore.DEClash>
1.0700

> <Gold.Chemscore.DEInternal>
0.8310

> <Gold.Chemscore.Rot>
2.2541

> <Gold.Chemscore.Internal.Correction>
   9.000000E+99

> <Gold.Chemscore.Hbonds>
donor molecule, donor type, donor heavy atom, donor atom, acceptor molecule, acceptor atom, score
      L1  H    17    42       P1  7949  0.16
      P1  H 10752 10765       L1    17  0.15

> <Gold.Chemscore.Hbond.Weighted>
-4.8679

> <Gold.Chemscore.Metal.Weighted>
-0.0000

> <Gold.Chemscore.Lipo.Weighted>
-17.6761

> <Gold.Chemscore.Internal_Hbond.Weighted>
0.0000

> <Gold.Chemscore.DEClash.Weighted>
1.0700

> <Gold.Chemscore.DEInternal.Weighted>
0.8310

> <Gold.Chemscore.Rot.Weighted>
5.7705

> <Gold.Chemscore.Internal.Correction.Weighted>
   9.000000E+99

> <Gold.Protein.RotatedTorsions>
[ 6907 6896 6895 6894 ] final   73.09 input  -60.11 | X-H torsion
[ 7974 7965 7964 7962 ] final -143.37 input  175.53 | X-H torsion
[ 8008 7997 7996 7995 ] final  -85.99 input   59.86 | X-H torsion
[ 10167 10162 10161 10158 ] final -165.80 input  -65.29 | X-H torsion
[ 10718 10713 10712 10709 ] final  -92.38 input   66.30 | X-H torsion
[ 10763 10752 10751 10750 ] final -176.09 input  -60.55 | X-H torsion
[ 11005 11000 10999 10996 ] final -140.23 input  -57.11 | X-H torsion

> <Gold.Protein.ActiveResidues>
 VAL166  LYS551  ARG553  GLY616  TRP617  ASP618  TYR619  PRO620  LYS621  CYS622 
 ASP623  PHE694  ASN695  SER759  ASP760  ASP761  ALA762  ILE779  LEU786  VAL792 
 PHE793  MET794  SER795  GLU796  ALA797  LYS798  CYS799  TRP800  GLU811  SER814 

> <Gold.Protein.RotatedAtoms>
  152.4904  134.4474  159.9562 H   0  0  0  0  0  0  0  0  0  0  0  0  # atno 6907 bound_to 6896
  151.4462  133.3624  159.2796 H   0  0  0  0  0  0  0  0  0  0  0  0  # atno 6908 bound_to 6896
  150.9053  134.8492  159.7448 H   0  0  0  0  0  0  0  0  0  0  0  0  # atno 6909 bound_to 6896
  144.8375  140.5843  143.5474 H   0  0  0  0  0  0  0  0  0  0  0  0  # atno 7974 bound_to 7965
  154.6469  140.0584  156.9910 H   0  0  0  0  0  0  0  0  0  0  0  0  # atno 8008 bound_to 7997
  155.1431  140.3267  155.4429 H   0  0  0  0  0  0  0  0  0  0  0  0  # atno 8009 bound_to 7997
  156.2558  140.1960  156.6546 H   0  0  0  0  0  0  0  0  0  0  0  0  # atno 8010 bound_to 7997
  139.6157  144.0724  152.1885 H   0  0  0  0  0  0  0  0  0  0  0  0  # atno 10167 bound_to 10162
  156.0002  130.4985  150.5617 H   0  0  0  0  0  0  0  0  0  0  0  0  # atno 10718 bound_to 10713
  154.5765  135.2832  155.0775 H   0  0  0  0  0  0  0  0  0  0  0  0  # atno 10763 bound_to 10752
  154.2128  135.6405  153.5124 H   0  0  0  0  0  0  0  0  0  0  0  0  # atno 10764 bound_to 10752
  153.0074  135.5496  154.6405 H   0  0  0  0  0  0  0  0  0  0  0  0  # atno 10765 bound_to 10752
  140.8442  134.2365  157.4794 H   0  0  0  0  0  0  0  0  0  0  0  0  # atno 11005 bound_to 11000
  145.4765  139.1499  143.3785 LP  0  0  0  0  0  0  0  0  0  0  0  0  # atno 17320 bound_to 7965
  146.2671  140.4899  142.8829 LP  0  0  0  0  0  0  0  0  0  0  0  0  # atno 17321 bound_to 7965
  140.0354  144.6049  150.7454 LP  0  0  0  0  0  0  0  0  0  0  0  0  # atno 17342 bound_to 10162
  140.7349  143.2735  151.3815 LP  0  0  0  0  0  0  0  0  0  0  0  0  # atno 17343 bound_to 10162
  157.3525  131.0736  151.1702 LP  0  0  0  0  0  0  0  0  0  0  0  0  # atno 17370 bound_to 10713
  157.2514  130.6615  149.5933 LP  0  0  0  0  0  0  0  0  0  0  0  0  # atno 17371 bound_to 10713
  139.8703  134.9651  156.4517 LP  0  0  0  0  0  0  0  0  0  0  0  0  # atno 17394 bound_to 11000
  140.8861  133.7882  155.9520 LP  0  0  0  0  0  0  0  0  0  0  0  0  # atno 17395 bound_to 11000

$$$$
