AV-unprocessed.smi:2007|AV-procd|sdf|8138|dock6
  -GOLD-   2272010373D 1   1.00000     0.00000
 Structure written by MMmdl.
 35 36  0  0  0  0  0  0  0  0  2 V2000
  147.3772  142.1102  155.1741 C   0  0  0  0  0  0  0  0  0  0  0  0
  148.6055  141.3971  155.7549 C   0  0  1  0  0  0  0  0  0  0  0  0
  149.3608  140.6085  154.6638 C   0  0  0  0  0  0  0  0  0  0  0  0
  150.2168  139.5207  155.1405 N   0  0  0  0  0  0  0  0  0  0  0  0
  150.4546  138.4983  154.1243 C   0  0  0  0  0  0  0  0  0  0  0  0
  151.3661  137.3746  154.6473 C   0  0  0  0  0  0  0  0  0  0  0  0
  152.5946  137.9292  155.1066 O   0  0  0  0  0  0  0  0  0  0  0  0
  152.4073  138.9000  156.1314 C   0  0  0  0  0  0  0  0  0  0  0  0
  151.4996  140.0286  155.6129 C   0  0  0  0  0  0  0  0  0  0  0  0
  149.4897  142.3915  156.3632 N   0  0  0  0  0  0  0  0  0  0  0  0
  150.2090  142.2484  157.4864 C   0  0  0  0  0  0  0  0  0  0  0  0
  150.1515  141.1990  158.1314 O   0  0  0  0  0  0  0  0  0  0  0  0
  150.9567  143.3336  157.7920 N   0  5  0  0  0  0  0  0  0  0  0  0
  151.5122  143.4454  159.0094 C   0  0  0  0  0  0  0  0  0  0  0  0
  152.1091  142.4241  159.6346 N   0  0  0  0  0  0  0  0  0  0  0  0
  152.6118  142.7605  160.8928 C   0  0  0  0  0  0  0  0  0  0  0  0
  152.3851  144.0666  161.2374 C   0  0  0  0  0  0  0  0  0  0  0  0
  151.5266  144.9177  159.9850 S   0  0  0  0  0  0  0  0  0  0  0  0
  146.6855  141.3966  154.7258 H   0  0  0  0  0  0  0  0  0  0  0  0
  147.6608  142.8287  154.4042 H   0  0  0  0  0  0  0  0  0  0  0  0
  146.8347  142.6509  155.9505 H   0  0  0  0  0  0  0  0  0  0  0  0
  148.2329  140.7019  156.5076 H   0  0  0  0  0  0  0  0  0  0  0  0
  148.6428  140.2134  153.9437 H   0  0  0  0  0  0  0  0  0  0  0  0
  149.9750  141.3192  154.1088 H   0  0  0  0  0  0  0  0  0  0  0  0
  149.5130  138.0569  153.8010 H   0  0  0  0  0  0  0  0  0  0  0  0
  150.9074  138.9514  153.2414 H   0  0  0  0  0  0  0  0  0  0  0  0
  150.8787  136.8298  155.4575 H   0  0  0  0  0  0  0  0  0  0  0  0
  151.5729  136.6542  153.8560 H   0  0  0  0  0  0  0  0  0  0  0  0
  151.9715  138.4287  157.0137 H   0  0  0  0  0  0  0  0  0  0  0  0
  153.3777  139.2993  156.4264 H   0  0  0  0  0  0  0  0  0  0  0  0
  152.0080  140.5584  154.8060 H   0  0  0  0  0  0  0  0  0  0  0  0
  151.3387  140.7546  156.4107 H   0  0  0  0  0  0  0  0  0  0  0  0
  149.5799  143.2705  155.8756 H   0  0  0  0  0  0  0  0  0  0  0  0
  153.1173  142.0053  161.4763 H   0  0  0  0  0  0  0  0  0  0  0  0
  152.6668  144.5773  162.1457 H   0  0  0  0  0  0  0  0  0  0  0  0
  1  2  1  0  0  0  0
  1 19  1  0  0  0  0
  1 20  1  0  0  0  0
  1 21  1  0  0  0  0
  2  3  1  0  0  0  0
  2 10  1  0  0  0  0
  2 22  1  0  0  0  0
  3  4  1  0  0  0  0
  3 23  1  0  0  0  0
  3 24  1  0  0  0  0
  4  9  1  0  0  0  0
  4  5  1  0  0  0  0
  5  6  1  0  0  0  0
  5 25  1  0  0  0  0
  5 26  1  0  0  0  0
  6  7  1  0  0  0  0
  6 27  1  0  0  0  0
  6 28  1  0  0  0  0
  7  8  1  0  0  0  0
  8  9  1  0  0  0  0
  8 29  1  0  0  0  0
  8 30  1  0  0  0  0
  9 31  1  0  0  0  0
  9 32  1  0  0  0  0
 10 11  1  0  0  0  0
 10 33  1  0  0  0  0
 11 12  2  0  0  0  0
 11 13  1  0  0  0  0
 13 14  1  0  0  0  0
 14 18  1  0  0  0  0
 14 15  2  0  0  0  0
 15 16  1  0  0  0  0
 16 17  2  0  0  0  0
 16 34  1  0  0  0  0
 17 18  1  0  0  0  0
 17 35  1  0  0  0  0
M  CHG  1  13  -1
M  END
> <s_m_source_file>
AV-unprocessed.smi

> <i_m_source_file_index>
2007

> <i_lp_mmshare_version>
43012

> <i_f3d_flags>
0

> <s_epik_input>
W0NIMl0xW0NIMl1PW0NIMl1bQ0gyXU4xW0NIMl1bQ0BASF0oW0NIM10pW05IXUMoPU8pW05IXWMybltjSF1bY0hdczI=

> <s_epik_cmdline>
J2VwaWtfcHl0aG9uJywgJy1waCcsICc3LjAnLCAnLXRuJywgJzgnLCAnLW1hJywgJzIwMCcsICctbWV0YWxfYmluZGluZycsICctaW1hZScsICc8aW5maWxlLm1hZT4nLCAnLW9tYWUnLCAnPG91dGZpbGUubWFlPic=

> <r_lp_tautomer_probability>
0.999

> <r_epik_Ionization_Penalty>
7.09127

> <r_epik_Ionization_Penalty_Charging>
5.74083

> <r_epik_Ionization_Penalty_Neutral>
1.35044

> <r_epik_State_Penalty>
5.95014

> <r_epik_Charging_Adjusted_Penalty>
11.691

> <i_epik_Tot_Q>
-1

> <i_epik_Tot_abs_Q>
1

> <r_epik_Metal_State_Penalty>
1.93831

> <b_epik_Metal_Only>
1

> <s_lp_Force_Field>
OPLS_2005

> <r_lp_Energy>
21.094

> <b_lp_Chiralities_Consistent>
1

> <s_lp_Variant>
AV-unprocessed.smi:2007-6

> <Gold.Version>
5.8.1

> <Gold.Id.Protein>
6NUR|6NUR_protein|mol2

> <Gold.PLP.Fitness>
36.4102

> <Gold.PLP.PLP>
-35.6351

> <Gold.PLP.part.hbond>
-1.5915

> <Gold.PLP.part.metal>
0.0000

> <Gold.PLP.part.buried>
-4.4484

> <Gold.PLP.part.nonpolar>
-30.4045

> <Gold.PLP.part.repulsive>
0.3266

> <Gold.PLP.ligand.clash>
0.0000

> <Gold.PLP.ligand.torsion>
1.1659

> <Gold.PLP.Chemscore.Hbond>
1.0000

> <Gold.PLP.Chemscore.CHOScore>
0.0000

> <Gold.PLP.Chemscore.Metal>
0.0000

> <Gold.Chemscore.Hbonds>
donor molecule, donor type, donor heavy atom, donor atom, acceptor molecule, acceptor atom, score
      L1  H    10    33       P1  8028  0.88

> <Gold.PLP.Chemscore.Internal.Correction>
0.1070

> <Gold.Rescore>
     Score         DG    S(hbond)    S(metal)    S(lipo)     H(rot)  DE(clash)    DE(int)     intcor
     11.89     -14.39       0.97        0.00      82.24       1.55       0.05       2.45       ----

> <Gold.Chemscore.Fitness>
11.8869

> <Gold.Chemscore.DG>
-14.3870

> <Gold.Chemscore.ZeroCoef>
-5.4800

> <Gold.Chemscore.Hbond>
0.9746

> <Gold.Chemscore.Metal>
0.0000

> <Gold.Chemscore.Lipo>
82.2442

> <Gold.Chemscore.Internal_Hbond>
0.0000

> <Gold.Chemscore.DEClash>
0.0484

> <Gold.Chemscore.DEInternal>
2.4518

> <Gold.Chemscore.Rot>
1.5510

> <Gold.Chemscore.Internal.Correction>
   9.000000E+99

> <Gold.Chemscore.Hbonds>
donor molecule, donor type, donor heavy atom, donor atom, acceptor molecule, acceptor atom, score
      L1  H    10    33       P1  8028  0.86

> <Gold.Chemscore.Hbond.Weighted>
-3.2550

> <Gold.Chemscore.Metal.Weighted>
-0.0000

> <Gold.Chemscore.Lipo.Weighted>
-9.6226

> <Gold.Chemscore.Internal_Hbond.Weighted>
0.0000

> <Gold.Chemscore.DEClash.Weighted>
0.0484

> <Gold.Chemscore.DEInternal.Weighted>
2.4518

> <Gold.Chemscore.Rot.Weighted>
3.9706

> <Gold.Chemscore.Internal.Correction.Weighted>
   9.000000E+99

> <Gold.Protein.RotatedTorsions>
[ 6907 6896 6895 6894 ] final  179.45 input  -60.11 | X-H torsion
[ 7974 7965 7964 7962 ] final   64.72 input  175.53 | X-H torsion
[ 8008 7997 7996 7995 ] final   72.50 input   59.86 | X-H torsion
[ 10167 10162 10161 10158 ] final   95.74 input  -65.29 | X-H torsion
[ 10718 10713 10712 10709 ] final -138.01 input   66.30 | X-H torsion
[ 10763 10752 10751 10750 ] final   63.71 input  -60.55 | X-H torsion
[ 11005 11000 10999 10996 ] final  -99.06 input  -57.11 | X-H torsion

> <Gold.Protein.ActiveResidues>
 VAL166  LYS551  ARG553  GLY616  TRP617  ASP618  TYR619  PRO620  LYS621  CYS622 
 ASP623  PHE694  ASN695  SER759  ASP760  ASP761  ALA762  ILE779  LEU786  VAL792 
 PHE793  MET794  SER795  GLU796  ALA797  LYS798  CYS799  TRP800  GLU811  SER814 

> <Gold.Protein.RotatedAtoms>
  151.6715  133.3314  159.3197 H   0  0  0  0  0  0  0  0  0  0  0  0  # atno 6907 bound_to 6896
  150.7865  134.6858  159.6479 H   0  0  0  0  0  0  0  0  0  0  0  0  # atno 6908 bound_to 6896
  152.3936  134.6405  160.0150 H   0  0  0  0  0  0  0  0  0  0  0  0  # atno 6909 bound_to 6896
  145.8469  139.3230  143.0898 H   0  0  0  0  0  0  0  0  0  0  0  0  # atno 7974 bound_to 7965
  155.7697  140.3484  155.5241 H   0  0  0  0  0  0  0  0  0  0  0  0  # atno 8008 bound_to 7997
  155.8833  140.1006  157.1491 H   0  0  0  0  0  0  0  0  0  0  0  0  # atno 8009 bound_to 7997
  154.4026  140.1318  156.4211 H   0  0  0  0  0  0  0  0  0  0  0  0  # atno 8010 bound_to 7997
  139.7960  144.6833  150.9828 H   0  0  0  0  0  0  0  0  0  0  0  0  # atno 10167 bound_to 10162
  156.2945  130.7394  151.1429 H   0  0  0  0  0  0  0  0  0  0  0  0  # atno 10718 bound_to 10713
  153.0028  135.5419  154.6395 H   0  0  0  0  0  0  0  0  0  0  0  0  # atno 10763 bound_to 10752
  154.5654  135.2837  155.0881 H   0  0  0  0  0  0  0  0  0  0  0  0  # atno 10764 bound_to 10752
  154.2068  135.6474  153.5156 H   0  0  0  0  0  0  0  0  0  0  0  0  # atno 10765 bound_to 10752
  141.1322  133.8293  157.0922 H   0  0  0  0  0  0  0  0  0  0  0  0  # atno 11005 bound_to 11000
  145.9402  140.8985  143.0312 LP  0  0  0  0  0  0  0  0  0  0  0  0  # atno 17320 bound_to 7965
  144.6731  140.1538  143.7428 LP  0  0  0  0  0  0  0  0  0  0  0  0  # atno 17321 bound_to 7965
  140.7820  143.4331  151.0664 LP  0  0  0  0  0  0  0  0  0  0  0  0  # atno 17342 bound_to 10162
  139.8005  143.8090  152.3162 LP  0  0  0  0  0  0  0  0  0  0  0  0  # atno 17343 bound_to 10162
  157.7351  131.0575  150.5485 LP  0  0  0  0  0  0  0  0  0  0  0  0  # atno 17370 bound_to 10713
  156.5606  130.4254  149.6065 LP  0  0  0  0  0  0  0  0  0  0  0  0  # atno 17371 bound_to 10713
  140.0385  134.9866  157.0917 LP  0  0  0  0  0  0  0  0  0  0  0  0  # atno 17394 bound_to 11000
  140.4172  134.1918  155.7164 LP  0  0  0  0  0  0  0  0  0  0  0  0  # atno 17395 bound_to 11000

$$$$
