AV-unprocessed.smi:2282|AV-procd|sdf|9197|dock9
  -GOLD-   2272012413D 1   1.00000     0.00000
 Structure written by MMmdl.
 32 33  0  0  0  0  0  0  0  0  1 V2000
  151.6905  145.1230  159.5704 C   0  0  0  0  0  0  0  0  0  0  0  0
  152.2451  143.7364  159.8388 C   0  0  0  0  0  0  0  0  0  0  0  0
  153.0006  143.6144  160.9520 N   0  0  0  0  0  0  0  0  0  0  0  0
  153.5253  142.4044  161.2334 C   0  0  0  0  0  0  0  0  0  0  0  0
  153.3203  141.2655  160.4315 C   0  0  0  0  0  0  0  0  0  0  0  0
  152.5155  141.3853  159.2734 C   0  0  0  0  0  0  0  0  0  0  0  0
  152.2624  140.3050  158.3832 N   0  0  0  0  0  0  0  0  0  0  0  0
  153.0642  139.2743  158.0586 C   0  0  0  0  0  0  0  0  0  0  0  0
  154.1969  139.0991  158.5087 O   0  0  0  0  0  0  0  0  0  0  0  0
  152.4778  138.2705  157.0590 C   0  0  2  0  0  0  0  0  0  0  0  0
  153.2928  138.1299  155.7601 C   0  0  0  0  0  0  0  0  0  0  0  0
  152.4236  138.8053  154.7185 C   0  0  0  0  0  0  0  0  0  0  0  0
  151.0246  138.5490  155.2670 C   0  0  2  0  0  0  0  0  0  0  0  0
  149.9525  139.4948  154.7162 C   0  0  0  0  0  0  0  0  0  0  0  0
  151.1907  138.7422  156.6636 O   0  0  0  0  0  0  0  0  0  0  0  0
  151.9770  142.6567  158.9645 C   0  0  0  0  0  0  0  0  0  0  0  0
  151.0041  142.8866  157.5498 Cl  0  0  0  0  0  0  0  0  0  0  0  0
  150.6011  145.0964  159.5424 H   0  0  0  0  0  0  0  0  0  0  0  0
  152.0519  145.4967  158.6122 H   0  0  0  0  0  0  0  0  0  0  0  0
  151.9903  145.8321  160.3430 H   0  0  0  0  0  0  0  0  0  0  0  0
  154.1345  142.3428  162.1229 H   0  0  0  0  0  0  0  0  0  0  0  0
  153.7918  140.3362  160.7108 H   0  0  0  0  0  0  0  0  0  0  0  0
  151.3288  140.2737  157.9998 H   0  0  0  0  0  0  0  0  0  0  0  0
  152.3684  137.2914  157.5287 H   0  0  0  0  0  0  0  0  0  0  0  0
  154.2906  138.5682  155.8084 H   0  0  0  0  0  0  0  0  0  0  0  0
  153.4140  137.0738  155.5158 H   0  0  0  0  0  0  0  0  0  0  0  0
  152.6348  139.8754  154.6951 H   0  0  0  0  0  0  0  0  0  0  0  0
  152.5696  138.4044  153.7152 H   0  0  0  0  0  0  0  0  0  0  0  0
  150.7399  137.5106  155.0890 H   0  0  0  0  0  0  0  0  0  0  0  0
  149.8417  139.3743  153.6385 H   0  0  0  0  0  0  0  0  0  0  0  0
  150.2055  140.5370  154.9134 H   0  0  0  0  0  0  0  0  0  0  0  0
  148.9843  139.2951  155.1755 H   0  0  0  0  0  0  0  0  0  0  0  0
  1  2  1  0  0  0  0
  1 18  1  0  0  0  0
  1 19  1  0  0  0  0
  1 20  1  0  0  0  0
  2 16  1  0  0  0  0
  2  3  2  0  0  0  0
  3  4  1  0  0  0  0
  4  5  2  0  0  0  0
  4 21  1  0  0  0  0
  5  6  1  0  0  0  0
  5 22  1  0  0  0  0
  6  7  1  0  0  0  0
  6 16  2  0  0  0  0
  7  8  1  0  0  0  0
  7 23  1  0  0  0  0
  8  9  2  0  0  0  0
  8 10  1  0  0  0  0
 10 15  1  0  0  0  0
 10 11  1  0  0  0  0
 10 24  1  0  0  0  0
 11 12  1  0  0  0  0
 11 25  1  0  0  0  0
 11 26  1  0  0  0  0
 12 13  1  0  0  0  0
 12 27  1  0  0  0  0
 12 28  1  0  0  0  0
 13 14  1  0  0  0  0
 13 15  1  0  0  0  0
 13 29  1  0  0  0  0
 14 30  1  0  0  0  0
 14 31  1  0  0  0  0
 14 32  1  0  0  0  0
 16 17  1  0  0  0  0
M  END
> <s_m_source_file>
AV-unprocessed.smi

> <i_m_source_file_index>
2282

> <i_lp_mmshare_version>
43012

> <i_f3d_flags>
0

> <s_epik_input>
W0NIM11jMW5bY0hdW2NIXWMoYzFDbClbTkhdQyg9TylbQ0BASF0yW0NIMl1bQ0gyXVtDQEhdKE8yKVtDSDNd

> <s_epik_cmdline>
J2VwaWtfcHl0aG9uJywgJy1waCcsICc3LjAnLCAnLXRuJywgJzgnLCAnLW1hJywgJzIwMCcsICctbWV0YWxfYmluZGluZycsICctaW1hZScsICc8aW5maWxlLm1hZT4nLCAnLW9tYWUnLCAnPG91dGZpbGUubWFlPic=

> <r_epik_Ionization_Penalty>
0.00037231

> <r_epik_Ionization_Penalty_Charging>
0

> <r_epik_Ionization_Penalty_Neutral>
0.00037231

> <r_epik_State_Penalty>
0.000225113

> <r_epik_Charging_Adjusted_Penalty>
0.000225113

> <i_epik_Tot_Q>
0

> <i_epik_Tot_abs_Q>
0

> <r_epik_Metal_State_Penalty>
-0

> <b_epik_Metal_Only>
0

> <s_lp_Force_Field>
OPLS_2005

> <r_lp_Energy>
23.9667

> <b_lp_Chiralities_Consistent>
1

> <s_lp_Variant>
AV-unprocessed.smi:2282-3

> <Gold.Version>
5.8.1

> <Gold.Id.Protein>
6NUR|6NUR_protein|mol2

> <Gold.PLP.Fitness>
37.3156

> <Gold.PLP.PLP>
-34.7764

> <Gold.PLP.part.hbond>
-1.0000

> <Gold.PLP.part.metal>
0.0000

> <Gold.PLP.part.buried>
-1.1401

> <Gold.PLP.part.nonpolar>
-32.3531

> <Gold.PLP.part.repulsive>
0.1612

> <Gold.PLP.ligand.clash>
0.0000

> <Gold.PLP.ligand.torsion>
0.2342

> <Gold.PLP.Chemscore.Hbond>
1.0000

> <Gold.PLP.Chemscore.CHOScore>
0.0000

> <Gold.PLP.Chemscore.Metal>
0.0000

> <Gold.Chemscore.Hbonds>
donor molecule, donor type, donor heavy atom, donor atom, acceptor molecule, acceptor atom, score
      P1  H  7997  8010       L1     9  0.95

> <Gold.PLP.Chemscore.Internal.Correction>
0.0077

> <Gold.Rescore>
     Score         DG    S(hbond)    S(metal)    S(lipo)     H(rot)  DE(clash)    DE(int)     intcor
     16.38     -17.34       0.54        0.00     107.75       1.00       0.03       0.94       ----

> <Gold.Chemscore.Fitness>
16.3808

> <Gold.Chemscore.DG>
-17.3435

> <Gold.Chemscore.ZeroCoef>
-5.4800

> <Gold.Chemscore.Hbond>
0.5439

> <Gold.Chemscore.Metal>
0.0000

> <Gold.Chemscore.Lipo>
107.7513

> <Gold.Chemscore.Internal_Hbond>
0.0000

> <Gold.Chemscore.DEClash>
0.0264

> <Gold.Chemscore.DEInternal>
0.9362

> <Gold.Chemscore.Rot>
1.0000

> <Gold.Chemscore.Internal.Correction>
   9.000000E+99

> <Gold.Chemscore.Hbonds>
donor molecule, donor type, donor heavy atom, donor atom, acceptor molecule, acceptor atom, score
      P1  H  7997  8010       L1     9  0.21

> <Gold.Chemscore.Hbond.Weighted>
-1.8166

> <Gold.Chemscore.Metal.Weighted>
-0.0000

> <Gold.Chemscore.Lipo.Weighted>
-12.6069

> <Gold.Chemscore.Internal_Hbond.Weighted>
0.0000

> <Gold.Chemscore.DEClash.Weighted>
0.0264

> <Gold.Chemscore.DEInternal.Weighted>
0.9362

> <Gold.Chemscore.Rot.Weighted>
2.5600

> <Gold.Chemscore.Internal.Correction.Weighted>
   9.000000E+99

> <Gold.Protein.RotatedTorsions>
[ 6907 6896 6895 6894 ] final  -54.80 input  -60.11 | X-H torsion
[ 7974 7965 7964 7962 ] final   16.23 input  175.53 | X-H torsion
[ 8008 7997 7996 7995 ] final   -1.27 input   59.86 | X-H torsion
[ 10167 10162 10161 10158 ] final   -8.19 input  -65.29 | X-H torsion
[ 10718 10713 10712 10709 ] final   53.90 input   66.30 | X-H torsion
[ 10763 10752 10751 10750 ] final -168.95 input  -60.55 | X-H torsion
[ 11005 11000 10999 10996 ] final  -88.89 input  -57.11 | X-H torsion

> <Gold.Protein.ActiveResidues>
 VAL166  LYS551  ARG553  GLY616  TRP617  ASP618  TYR619  PRO620  LYS621  CYS622 
 ASP623  PHE694  ASN695  SER759  ASP760  ASP761  ALA762  ILE779  LEU786  VAL792 
 PHE793  MET794  SER795  GLU796  ALA797  LYS798  CYS799  TRP800  GLU811  SER814 

> <Gold.Protein.RotatedAtoms>
  150.8306  134.7557  159.6850 H   0  0  0  0  0  0  0  0  0  0  0  0  # atno 6907 bound_to 6896
  152.4411  134.5585  159.9897 H   0  0  0  0  0  0  0  0  0  0  0  0  # atno 6908 bound_to 6896
  151.5747  133.3348  159.3032 H   0  0  0  0  0  0  0  0  0  0  0  0  # atno 6909 bound_to 6896
  146.2255  139.8778  142.8576 H   0  0  0  0  0  0  0  0  0  0  0  0  # atno 7974 bound_to 7965
  154.6487  140.2563  155.7238 H   0  0  0  0  0  0  0  0  0  0  0  0  # atno 8008 bound_to 7997
  156.2564  140.2872  156.0832 H   0  0  0  0  0  0  0  0  0  0  0  0  # atno 8009 bound_to 7997
  155.1484  140.0381  157.2805 H   0  0  0  0  0  0  0  0  0  0  0  0  # atno 8010 bound_to 7997
  140.7051  143.5997  150.8811 H   0  0  0  0  0  0  0  0  0  0  0  0  # atno 10167 bound_to 10162
  157.5209  130.8564  149.8557 H   0  0  0  0  0  0  0  0  0  0  0  0  # atno 10718 bound_to 10713
  154.6574  135.2920  154.9910 H   0  0  0  0  0  0  0  0  0  0  0  0  # atno 10763 bound_to 10752
  154.0981  135.6581  153.4867 H   0  0  0  0  0  0  0  0  0  0  0  0  # atno 10764 bound_to 10752
  153.0410  135.5236  154.7510 H   0  0  0  0  0  0  0  0  0  0  0  0  # atno 10765 bound_to 10752
  141.1594  133.7597  156.9516 H   0  0  0  0  0  0  0  0  0  0  0  0  # atno 11005 bound_to 11000
  145.2543  141.0055  143.3863 LP  0  0  0  0  0  0  0  0  0  0  0  0  # atno 17320 bound_to 7965
  144.9350  139.4255  143.6477 LP  0  0  0  0  0  0  0  0  0  0  0  0  # atno 17321 bound_to 7965
  139.9721  143.6045  152.2970 LP  0  0  0  0  0  0  0  0  0  0  0  0  # atno 17342 bound_to 10162
  139.6636  144.7662  151.1917 LP  0  0  0  0  0  0  0  0  0  0  0  0  # atno 17343 bound_to 10162
  156.0353  130.3753  150.1578 LP  0  0  0  0  0  0  0  0  0  0  0  0  # atno 17370 bound_to 10713
  156.9766  130.9851  151.3447 LP  0  0  0  0  0  0  0  0  0  0  0  0  # atno 17371 bound_to 10713
  140.1253  134.9390  157.2262 LP  0  0  0  0  0  0  0  0  0  0  0  0  # atno 17394 bound_to 11000
  140.3020  134.3121  155.7287 LP  0  0  0  0  0  0  0  0  0  0  0  0  # atno 17395 bound_to 11000

$$$$
