AV-unprocessed.smi:121|AV-procd|sdf|1139|dock10
  -GOLD-   2262018273D 1   1.00000     0.00000
 Structure written by MMmdl.
 37 39  0  0  0  0  0  0  0  0  1 V2000
  151.6559  139.8261  154.5874 N   0  0  0  0  0  0  0  0  0  0  0  0
  150.5429  139.5160  154.5267 C   0  0  0  0  0  0  0  0  0  0  0  0
  149.1449  139.1259  154.4506 C   0  0  0  0  0  0  0  0  0  0  0  0
  148.1703  140.0627  154.0524 C   0  0  0  0  0  0  0  0  0  0  0  0
  146.8166  139.6823  153.9859 C   0  0  0  0  0  0  0  0  0  0  0  0
  146.4362  138.3672  154.3151 C   0  0  0  0  0  0  0  0  0  0  0  0
  147.4043  137.4197  154.7084 C   0  0  0  0  0  0  0  0  0  0  0  0
  146.9488  136.0067  155.0626 C   0  0  0  0  0  0  0  0  0  0  0  0
  147.1957  134.9827  154.0588 N   0  0  0  0  0  0  0  0  0  0  0  0
  148.2328  134.0545  154.3200 C   0  0  0  0  0  0  0  0  0  0  0  0
  148.9159  134.1084  155.3443 O   0  0  0  0  0  0  0  0  0  0  0  0
  148.4085  133.0375  153.2894 C   0  0  0  0  0  0  0  0  0  0  0  0
  149.3790  132.1178  153.4233 F   0  0  0  0  0  0  0  0  0  0  0  0
  147.6102  133.0012  152.2005 C   0  0  0  0  0  0  0  0  0  0  0  0
  146.5830  133.9064  151.9855 N   0  0  0  0  0  0  0  0  0  0  0  0
  145.6866  133.8331  150.7668 C   0  0  2  0  0  0  0  0  0  0  0  0
  144.2221  133.5954  151.1844 C   0  0  0  0  0  0  0  0  0  0  0  0
  143.8237  132.3950  150.3489 C   0  0  0  0  0  0  0  0  0  0  0  0
  145.1532  131.6772  150.1723 C   0  0  0  0  0  0  0  0  0  0  0  0
  146.0619  132.7503  149.9635 O   0  0  0  0  0  0  0  0  0  0  0  0
  146.3566  134.9408  152.9197 C   0  0  0  0  0  0  0  0  0  0  0  0
  145.4469  135.7556  152.7470 O   0  0  0  0  0  0  0  0  0  0  0  0
  148.7625  137.8091  154.7778 C   0  0  0  0  0  0  0  0  0  0  0  0
  148.4539  141.0741  153.7988 H   0  0  0  0  0  0  0  0  0  0  0  0
  146.0688  140.4001  153.6825 H   0  0  0  0  0  0  0  0  0  0  0  0
  145.3946  138.0855  154.2622 H   0  0  0  0  0  0  0  0  0  0  0  0
  147.4128  135.6921  155.9978 H   0  0  0  0  0  0  0  0  0  0  0  0
  145.8778  135.9910  155.2735 H   0  0  0  0  0  0  0  0  0  0  0  0
  147.7986  132.2221  151.4784 H   0  0  0  0  0  0  0  0  0  0  0  0
  145.8522  134.7654  150.2233 H   0  0  0  0  0  0  0  0  0  0  0  0
  144.1649  133.3542  152.2473 H   0  0  0  0  0  0  0  0  0  0  0  0
  143.6110  134.4768  150.9881 H   0  0  0  0  0  0  0  0  0  0  0  0
  143.0636  131.7753  150.8255 H   0  0  0  0  0  0  0  0  0  0  0  0
  143.4437  132.7214  149.3800 H   0  0  0  0  0  0  0  0  0  0  0  0
  145.4193  131.1262  151.0756 H   0  0  0  0  0  0  0  0  0  0  0  0
  145.1512  130.9826  149.3323 H   0  0  0  0  0  0  0  0  0  0  0  0
  149.5199  137.1027  155.0841 H   0  0  0  0  0  0  0  0  0  0  0  0
  1  2  3  0  0  0  0
  2  3  1  0  0  0  0
  3 23  1  0  0  0  0
  3  4  2  0  0  0  0
  4  5  1  0  0  0  0
  4 24  1  0  0  0  0
  5  6  2  0  0  0  0
  5 25  1  0  0  0  0
  6  7  1  0  0  0  0
  6 26  1  0  0  0  0
  7  8  1  0  0  0  0
  7 23  2  0  0  0  0
  8  9  1  0  0  0  0
  8 27  1  0  0  0  0
  8 28  1  0  0  0  0
  9 21  1  0  0  0  0
  9 10  1  0  0  0  0
 10 11  2  0  0  0  0
 10 12  1  0  0  0  0
 12 13  1  0  0  0  0
 12 14  2  0  0  0  0
 14 15  1  0  0  0  0
 14 29  1  0  0  0  0
 15 16  1  0  0  0  0
 15 21  1  0  0  0  0
 16 20  1  0  0  0  0
 16 17  1  0  0  0  0
 16 30  1  0  0  0  0
 17 18  1  0  0  0  0
 17 31  1  0  0  0  0
 17 32  1  0  0  0  0
 18 19  1  0  0  0  0
 18 33  1  0  0  0  0
 18 34  1  0  0  0  0
 19 20  1  0  0  0  0
 19 35  1  0  0  0  0
 19 36  1  0  0  0  0
 21 22  2  0  0  0  0
 23 37  1  0  0  0  0
M  END
> <s_m_source_file>
AV-unprocessed.smi

> <i_m_source_file_index>
121

> <i_lp_mmshare_version>
43012

> <i_f3d_flags>
0

> <s_epik_input>
TiNDYzFbY0hdW2NIXVtjSF1jKFtjSF0xKVtDSDJdbjJjKD1PKWMoRilbY0hdbihjMj1PKVtDQEBIXTNbQ0gyXVtDSDJdW0NIMl1PMw==

> <s_epik_cmdline>
J2VwaWtfcHl0aG9uJywgJy1waCcsICc3LjAnLCAnLXRuJywgJzgnLCAnLW1hJywgJzIwMCcsICctbWV0YWxfYmluZGluZycsICctaW1hZScsICc8aW5maWxlLm1hZT4nLCAnLW9tYWUnLCAnPG91dGZpbGUubWFlPic=

> <r_lp_tautomer_probability>
1

> <r_epik_Ionization_Penalty>
1.69864e-08

> <r_epik_Ionization_Penalty_Charging>
1.69802e-08

> <r_epik_Ionization_Penalty_Neutral>
6.20402e-12

> <r_epik_State_Penalty>
-0

> <r_epik_Charging_Adjusted_Penalty>
1.69802e-08

> <i_epik_Tot_Q>
0

> <i_epik_Tot_abs_Q>
0

> <r_epik_Metal_State_Penalty>
-0

> <b_epik_Metal_Only>
0

> <s_epik_Chemistry_Notes>
This compound contains an acetal/aminal-like group ( X-CH(R)-Y where X, Y are N, S, or O) that may be acid/base labile, releasing an aldehyde.

> <s_lp_Force_Field>
OPLS_2005

> <r_lp_Energy>
32.9852

> <b_lp_Chiralities_Consistent>
1

> <s_lp_Variant>
AV-unprocessed.smi:121-1

> <Gold.Version>
5.8.1

> <Gold.Id.Protein>
6NUR|6NUR_protein|mol2

> <Gold.PLP.Fitness>
39.5042

> <Gold.PLP.PLP>
-34.3073

> <Gold.PLP.part.hbond>
-1.0000

> <Gold.PLP.part.metal>
0.0000

> <Gold.PLP.part.buried>
-3.7070

> <Gold.PLP.part.nonpolar>
-30.4363

> <Gold.PLP.part.repulsive>
0.4010

> <Gold.PLP.ligand.clash>
0.0000

> <Gold.PLP.ligand.torsion>
0.4061

> <Gold.PLP.Chemscore.Hbond>
1.0000

> <Gold.PLP.Chemscore.CHOScore>
1.0000

> <Gold.PLP.Chemscore.Metal>
0.0000

> <Gold.Chemscore.Hbonds>
donor molecule, donor type, donor heavy atom, donor atom, acceptor molecule, acceptor atom, score
      P1  H  7989  7998       L1     1  0.88
      L1  C    14    29       P1 10747  1.00

> <Gold.PLP.Chemscore.Internal.Correction>
0.0092

> <Gold.Rescore>
     Score         DG    S(hbond)    S(metal)    S(lipo)     H(rot)  DE(clash)    DE(int)     intcor
      7.44      -8.96       0.00        0.00      64.50       1.59       0.04       1.48       ----

> <Gold.Chemscore.Fitness>
7.4449

> <Gold.Chemscore.DG>
-8.9621

> <Gold.Chemscore.ZeroCoef>
-5.4800

> <Gold.Chemscore.Hbond>
0.0002

> <Gold.Chemscore.Metal>
0.0000

> <Gold.Chemscore.Lipo>
64.5047

> <Gold.Chemscore.Internal_Hbond>
0.0000

> <Gold.Chemscore.DEClash>
0.0410

> <Gold.Chemscore.DEInternal>
1.4761

> <Gold.Chemscore.Rot>
1.5882

> <Gold.Chemscore.Internal.Correction>
   9.000000E+99

> <Gold.Chemscore.Hbonds>
donor molecule, donor type, donor heavy atom, donor atom, acceptor molecule, acceptor atom, score
      P1  H  7989  7998       L1     1  0.19

> <Gold.Chemscore.Hbond.Weighted>
-0.0008

> <Gold.Chemscore.Metal.Weighted>
-0.0000

> <Gold.Chemscore.Lipo.Weighted>
-7.5471

> <Gold.Chemscore.Internal_Hbond.Weighted>
0.0000

> <Gold.Chemscore.DEClash.Weighted>
0.0410

> <Gold.Chemscore.DEInternal.Weighted>
1.4761

> <Gold.Chemscore.Rot.Weighted>
4.0657

> <Gold.Chemscore.Internal.Correction.Weighted>
   9.000000E+99

> <Gold.Protein.RotatedTorsions>
[ 6907 6896 6895 6894 ] final -156.06 input  -60.11 | X-H torsion
[ 7974 7965 7964 7962 ] final -116.43 input  175.53 | X-H torsion
[ 8008 7997 7996 7995 ] final  -79.42 input   59.86 | X-H torsion
[ 10167 10162 10161 10158 ] final -132.45 input  -65.29 | X-H torsion
[ 10718 10713 10712 10709 ] final  -66.59 input   66.30 | X-H torsion
[ 10763 10752 10751 10750 ] final   61.77 input  -60.55 | X-H torsion
[ 11005 11000 10999 10996 ] final -135.40 input  -57.11 | X-H torsion

> <Gold.Protein.ActiveResidues>
 VAL166  LYS551  ARG553  GLY616  TRP617  ASP618  TYR619  PRO620  LYS621  CYS622 
 ASP623  PHE694  ASN695  SER759  ASP760  ASP761  ALA762  ILE779  LEU786  VAL792 
 PHE793  MET794  SER795  GLU796  ALA797  LYS798  CYS799  TRP800  GLU811  SER814 

> <Gold.Protein.RotatedAtoms>
  151.2819  133.4206  159.2627 H   0  0  0  0  0  0  0  0  0  0  0  0  # atno 6907 bound_to 6896
  151.0353  134.9569  159.8143 H   0  0  0  0  0  0  0  0  0  0  0  0  # atno 6908 bound_to 6896
  152.5354  134.2779  159.9049 H   0  0  0  0  0  0  0  0  0  0  0  0  # atno 6909 bound_to 6896
  145.0968  140.8526  143.3949 H   0  0  0  0  0  0  0  0  0  0  0  0  # atno 7974 bound_to 7965
  154.5783  140.0678  156.9067 H   0  0  0  0  0  0  0  0  0  0  0  0  # atno 8008 bound_to 7997
  155.2508  140.3351  155.4264 H   0  0  0  0  0  0  0  0  0  0  0  0  # atno 8009 bound_to 7997
  156.2170  140.1783  156.7550 H   0  0  0  0  0  0  0  0  0  0  0  0  # atno 8010 bound_to 7997
  139.9084  143.6523  152.2580 H   0  0  0  0  0  0  0  0  0  0  0  0  # atno 10167 bound_to 10162
  156.0604  130.4264  150.1732 H   0  0  0  0  0  0  0  0  0  0  0  0  # atno 10718 bound_to 10713
  152.9961  135.5489  154.6086 H   0  0  0  0  0  0  0  0  0  0  0  0  # atno 10763 bound_to 10752
  154.5412  135.2820  155.1096 H   0  0  0  0  0  0  0  0  0  0  0  0  # atno 10764 bound_to 10752
  154.2372  135.6423  153.5248 H   0  0  0  0  0  0  0  0  0  0  0  0  # atno 10765 bound_to 10752
  140.8902  134.1821  157.4533 H   0  0  0  0  0  0  0  0  0  0  0  0  # atno 11005 bound_to 11000
  145.1001  139.2828  143.5690 LP  0  0  0  0  0  0  0  0  0  0  0  0  # atno 17320 bound_to 7965
  146.3530  140.0565  142.8632 LP  0  0  0  0  0  0  0  0  0  0  0  0  # atno 17321 bound_to 7965
  139.6964  144.7641  151.1349 LP  0  0  0  0  0  0  0  0  0  0  0  0  # atno 17342 bound_to 10162
  140.7691  143.5518  150.9196 LP  0  0  0  0  0  0  0  0  0  0  0  0  # atno 17343 bound_to 10162
  156.9801  130.9861  151.3439 LP  0  0  0  0  0  0  0  0  0  0  0  0  # atno 17370 bound_to 10713
  157.5607  130.8244  149.8262 LP  0  0  0  0  0  0  0  0  0  0  0  0  # atno 17371 bound_to 10713
  139.8729  134.9855  156.5284 LP  0  0  0  0  0  0  0  0  0  0  0  0  # atno 17394 bound_to 11000
  140.8356  133.8245  155.9026 LP  0  0  0  0  0  0  0  0  0  0  0  0  # atno 17395 bound_to 11000

$$$$
