AV-unprocessed.smi:1817|AV-procd|sdf|7370|dock6
  -GOLD-   22720 9 33D 1   1.00000     0.00000
 Structure written by MMmdl.
 43 44  0  0  0  0  0  0  0  0  2 V2000
  143.6601  132.8248  150.5584 C   0  0  0  0  0  0  0  0  0  0  0  0
  143.9773  134.0606  151.4127 C   0  0  0  0  0  0  0  0  0  0  0  0
  145.2442  134.6852  151.0246 N   0  0  0  0  0  0  0  0  0  0  0  0
  145.5735  135.9178  151.7449 C   0  0  0  0  0  0  0  0  0  0  0  0
  145.9245  135.6607  153.2256 C   0  0  0  0  0  0  0  0  0  0  0  0
  147.0599  134.7061  153.3460 N   0  3  0  0  0  0  0  0  0  0  0  0
  147.5394  134.4375  154.7406 C   0  0  2  0  0  0  0  0  0  0  0  0
  148.8273  133.5856  154.8070 C   0  0  0  0  0  0  0  0  0  0  0  0
  146.4378  133.7800  155.6126 C   0  0  0  0  0  0  0  0  0  0  0  0
  146.7893  133.7083  157.0302 N   0  0  0  0  0  0  0  0  0  0  0  0
  146.8333  134.7443  157.8801 C   0  0  0  0  0  0  0  0  0  0  0  0
  146.5531  135.8978  157.5554 O   0  0  0  0  0  0  0  0  0  0  0  0
  147.2084  134.3513  159.1077 N   0  0  0  0  0  0  0  0  0  0  0  0
  147.3497  135.1472  160.2720 C   0  0  0  0  0  0  0  0  0  0  0  0
  147.5320  136.4633  160.1140 N   0  0  0  0  0  0  0  0  0  0  0  0
  147.6582  137.1206  161.3315 N   0  0  0  0  0  0  0  0  0  0  0  0
  147.5656  136.2736  162.3612 C   0  0  0  0  0  0  0  0  0  0  0  0
  147.3185  134.5863  161.9464 S   0  0  0  0  0  0  0  0  0  0  0  0
  146.7334  133.4594  152.6028 C   0  0  0  0  0  0  0  0  0  0  0  0
  146.3795  133.7682  151.1338 C   0  0  0  0  0  0  0  0  0  0  0  0
  142.7853  132.3063  150.9511 H   0  0  0  0  0  0  0  0  0  0  0  0
  144.4902  132.1177  150.5613 H   0  0  0  0  0  0  0  0  0  0  0  0
  143.4398  133.0866  149.5239 H   0  0  0  0  0  0  0  0  0  0  0  0
  143.1493  134.7673  151.3728 H   0  0  0  0  0  0  0  0  0  0  0  0
  144.0577  133.7381  152.4515 H   0  0  0  0  0  0  0  0  0  0  0  0
  146.4261  136.3848  151.2499 H   0  0  0  0  0  0  0  0  0  0  0  0
  144.7575  136.6352  151.6674 H   0  0  0  0  0  0  0  0  0  0  0  0
  146.1925  136.6245  153.6567 H   0  0  0  0  0  0  0  0  0  0  0  0
  145.0615  135.2934  153.7817 H   0  0  0  0  0  0  0  0  0  0  0  0
  147.7869  135.4006  155.1897 H   0  0  0  0  0  0  0  0  0  0  0  0
  149.0879  133.3557  155.8406 H   0  0  0  0  0  0  0  0  0  0  0  0
  149.6846  134.1095  154.3837 H   0  0  0  0  0  0  0  0  0  0  0  0
  148.7139  132.6370  154.2806 H   0  0  0  0  0  0  0  0  0  0  0  0
  145.5242  134.3704  155.5383 H   0  0  0  0  0  0  0  0  0  0  0  0
  146.1625  132.7925  155.2427 H   0  0  0  0  0  0  0  0  0  0  0  0
  147.0371  132.7962  157.3865 H   0  0  0  0  0  0  0  0  0  0  0  0
  147.4152  133.3706  159.2272 H   0  0  0  0  0  0  0  0  0  0  0  0
  147.6450  136.6451  163.3720 H   0  0  0  0  0  0  0  0  0  0  0  0
  147.5835  132.7798  152.6067 H   0  0  0  0  0  0  0  0  0  0  0  0
  145.9188  132.9298  153.0982 H   0  0  0  0  0  0  0  0  0  0  0  0
  146.1598  132.8457  150.5947 H   0  0  0  0  0  0  0  0  0  0  0  0
  147.2418  134.2148  150.6367 H   0  0  0  0  0  0  0  0  0  0  0  0
  147.8337  135.1371  152.8600 H   0  0  0  0  0  0  0  0  0  0  0  0
  1  2  1  0  0  0  0
  1 21  1  0  0  0  0
  1 22  1  0  0  0  0
  1 23  1  0  0  0  0
  2  3  1  0  0  0  0
  2 24  1  0  0  0  0
  2 25  1  0  0  0  0
  3 20  1  0  0  0  0
  3  4  1  0  0  0  0
  4  5  1  0  0  0  0
  4 26  1  0  0  0  0
  4 27  1  0  0  0  0
  5  6  1  0  0  0  0
  5 28  1  0  0  0  0
  5 29  1  0  0  0  0
  6  7  1  0  0  0  0
  6 19  1  0  0  0  0
  6 43  1  0  0  0  0
  7  8  1  0  0  0  0
  7  9  1  0  0  0  0
  7 30  1  0  0  0  0
  8 31  1  0  0  0  0
  8 32  1  0  0  0  0
  8 33  1  0  0  0  0
  9 10  1  0  0  0  0
  9 34  1  0  0  0  0
  9 35  1  0  0  0  0
 10 11  1  0  0  0  0
 10 36  1  0  0  0  0
 11 12  2  0  0  0  0
 11 13  1  0  0  0  0
 13 14  1  0  0  0  0
 13 37  1  0  0  0  0
 14 18  1  0  0  0  0
 14 15  2  0  0  0  0
 15 16  1  0  0  0  0
 16 17  2  0  0  0  0
 17 18  1  0  0  0  0
 17 38  1  0  0  0  0
 19 20  1  0  0  0  0
 19 39  1  0  0  0  0
 19 40  1  0  0  0  0
 20 41  1  0  0  0  0
 20 42  1  0  0  0  0
M  CHG  1   6   1
M  END
> <s_m_source_file>
AV-unprocessed.smi

> <i_m_source_file_index>
1817

> <i_lp_mmshare_version>
43012

> <i_f3d_flags>
0

> <s_epik_input>
W0NIM11bQ0gyXU4xW0NIMl1bQ0gyXU4oW0NIMl1bQ0gyXTEpW0NASF0oW0NIM10pW0NIMl1bTkhdQyg9TylbTkhdYzJubltjSF1zMg==

> <s_epik_cmdline>
J2VwaWtfcHl0aG9uJywgJy1waCcsICc3LjAnLCAnLXRuJywgJzgnLCAnLW1hJywgJzIwMCcsICctbWV0YWxfYmluZGluZycsICctaW1hZScsICc8aW5maWxlLm1hZT4nLCAnLW9tYWUnLCAnPG91dGZpbGUubWFlPic=

> <r_epik_Ionization_Penalty>
0.153808

> <r_epik_Ionization_Penalty_Charging>
0.148467

> <r_epik_Ionization_Penalty_Neutral>
0.00534086

> <r_epik_State_Penalty>
0.974087

> <r_epik_Charging_Adjusted_Penalty>
1.12255

> <i_epik_Tot_Q>
1

> <i_epik_Tot_abs_Q>
1

> <r_epik_Metal_State_Penalty>
1.30894

> <b_epik_Metal_Only>
0

> <s_lp_Force_Field>
OPLS_2005

> <r_lp_Energy>
26.4186

> <b_lp_Chiralities_Consistent>
1

> <s_lp_Variant>
AV-unprocessed.smi:1817-3

> <Gold.Version>
5.8.1

> <Gold.Id.Protein>
6NUR|6NUR_protein|mol2

> <Gold.PLP.Fitness>
40.4030

> <Gold.PLP.PLP>
-29.0796

> <Gold.PLP.part.hbond>
-3.0000

> <Gold.PLP.part.metal>
0.0000

> <Gold.PLP.part.buried>
-5.6243

> <Gold.PLP.part.nonpolar>
-21.1016

> <Gold.PLP.part.repulsive>
0.2243

> <Gold.PLP.ligand.clash>
0.0000

> <Gold.PLP.ligand.torsion>
0.2207

> <Gold.PLP.Chemscore.Hbond>
3.8960

> <Gold.PLP.Chemscore.CHOScore>
0.0000

> <Gold.PLP.Chemscore.Metal>
0.0000

> <Gold.Chemscore.Hbonds>
donor molecule, donor type, donor heavy atom, donor atom, acceptor molecule, acceptor atom, score
      L1  H     6    43       P1  7948  2.00
      P1  H  6931  6943       L1    16  0.99
      P1  H  6934  6947       L1    16  0.85

> <Gold.PLP.Chemscore.Internal.Correction>
0.0769

> <Gold.Rescore>
     Score         DG    S(hbond)    S(metal)    S(lipo)     H(rot)  DE(clash)    DE(int)     intcor
     13.23     -14.85       2.20        0.00      59.18       1.92       0.00       1.63       ----

> <Gold.Chemscore.Fitness>
13.2256

> <Gold.Chemscore.DG>
-14.8506

> <Gold.Chemscore.ZeroCoef>
-5.4800

> <Gold.Chemscore.Hbond>
2.2038

> <Gold.Chemscore.Metal>
0.0000

> <Gold.Chemscore.Lipo>
59.1791

> <Gold.Chemscore.Internal_Hbond>
0.0000

> <Gold.Chemscore.DEClash>
0.0000

> <Gold.Chemscore.DEInternal>
1.6250

> <Gold.Chemscore.Rot>
1.9196

> <Gold.Chemscore.Internal.Correction>
   9.000000E+99

> <Gold.Chemscore.Hbonds>
donor molecule, donor type, donor heavy atom, donor atom, acceptor molecule, acceptor atom, score
      L1  H     6    43       P1  7948  1.00
      P1  H  6931  6943       L1    16  0.28
      P1  H  6934  6947       L1    16  0.40

> <Gold.Chemscore.Hbond.Weighted>
-7.3608

> <Gold.Chemscore.Metal.Weighted>
-0.0000

> <Gold.Chemscore.Lipo.Weighted>
-6.9239

> <Gold.Chemscore.Internal_Hbond.Weighted>
0.0000

> <Gold.Chemscore.DEClash.Weighted>
0.0000

> <Gold.Chemscore.DEInternal.Weighted>
1.6250

> <Gold.Chemscore.Rot.Weighted>
4.9141

> <Gold.Chemscore.Internal.Correction.Weighted>
   9.000000E+99

> <Gold.Protein.RotatedTorsions>
[ 6907 6896 6895 6894 ] final  161.03 input  -60.11 | X-H torsion
[ 7974 7965 7964 7962 ] final -145.91 input  175.53 | X-H torsion
[ 8008 7997 7996 7995 ] final   22.18 input   59.86 | X-H torsion
[ 10167 10162 10161 10158 ] final  -19.50 input  -65.29 | X-H torsion
[ 10718 10713 10712 10709 ] final   89.30 input   66.30 | X-H torsion
[ 10763 10752 10751 10750 ] final  -78.80 input  -60.55 | X-H torsion
[ 11005 11000 10999 10996 ] final  -78.68 input  -57.11 | X-H torsion

> <Gold.Protein.ActiveResidues>
 VAL166  LYS551  ARG553  GLY616  TRP617  ASP618  TYR619  PRO620  LYS621  CYS622 
 ASP623  PHE694  ASN695  SER759  ASP760  ASP761  ALA762  ILE779  LEU786  VAL792 
 PHE793  MET794  SER795  GLU796  ALA797  LYS798  CYS799  TRP800  GLU811  SER814 

> <Gold.Protein.RotatedAtoms>
  151.9617  133.3697  159.4037 H   0  0  0  0  0  0  0  0  0  0  0  0  # atno 6907 bound_to 6896
  150.6963  134.4234  159.5224 H   0  0  0  0  0  0  0  0  0  0  0  0  # atno 6908 bound_to 6896
  152.1923  134.8661  160.0567 H   0  0  0  0  0  0  0  0  0  0  0  0  # atno 6909 bound_to 6896
  144.8195  140.5523  143.5588 H   0  0  0  0  0  0  0  0  0  0  0  0  # atno 7974 bound_to 7965
  154.9618  140.3079  155.5027 H   0  0  0  0  0  0  0  0  0  0  0  0  # atno 8008 bound_to 7997
  156.2976  140.2300  156.4642 H   0  0  0  0  0  0  0  0  0  0  0  0  # atno 8009 bound_to 7997
  154.7958  140.0437  157.1224 H   0  0  0  0  0  0  0  0  0  0  0  0  # atno 8010 bound_to 7997
  140.7269  143.4813  151.0114 H   0  0  0  0  0  0  0  0  0  0  0  0  # atno 10167 bound_to 10162
  157.6954  131.0328  150.3405 H   0  0  0  0  0  0  0  0  0  0  0  0  # atno 10718 bound_to 10713
  154.5305  135.5717  153.6755 H   0  0  0  0  0  0  0  0  0  0  0  0  # atno 10763 bound_to 10752
  152.9938  135.6203  154.2635 H   0  0  0  0  0  0  0  0  0  0  0  0  # atno 10764 bound_to 10752
  154.2561  135.2857  155.2776 H   0  0  0  0  0  0  0  0  0  0  0  0  # atno 10765 bound_to 10752
  141.1665  133.7073  156.8008 H   0  0  0  0  0  0  0  0  0  0  0  0  # atno 11005 bound_to 11000
  145.5138  139.1478  143.3590 LP  0  0  0  0  0  0  0  0  0  0  0  0  # atno 17320 bound_to 7965
  146.2500  140.5278  142.8897 LP  0  0  0  0  0  0  0  0  0  0  0  0  # atno 17321 bound_to 7965
  139.8512  143.7436  152.3178 LP  0  0  0  0  0  0  0  0  0  0  0  0  # atno 17342 bound_to 10162
  139.7619  144.7504  151.0351 LP  0  0  0  0  0  0  0  0  0  0  0  0  # atno 17343 bound_to 10162
  156.3866  130.3890  149.7061 LP  0  0  0  0  0  0  0  0  0  0  0  0  # atno 17370 bound_to 10713
  156.4425  130.7868  151.2889 LP  0  0  0  0  0  0  0  0  0  0  0  0  # atno 17371 bound_to 10713
  140.2257  134.8723  157.3424 LP  0  0  0  0  0  0  0  0  0  0  0  0  # atno 17394 bound_to 11000
  140.1942  134.4335  155.7699 LP  0  0  0  0  0  0  0  0  0  0  0  0  # atno 17395 bound_to 11000

$$$$
