AV-unprocessed.smi:276|AV-procd|sdf|2071|dock4
  -GOLD-   2262021333D 1   1.00000     0.00000
 Structure written by MMmdl.
 57 61  0  0  0  0  0  0  0  0  1 V2000
  144.2358  134.6049  162.1005 C   0  0  0  0  0  0  0  0  0  0  0  0
  145.3754  134.0378  161.4787 O   0  0  0  0  0  0  0  0  0  0  0  0
  146.5756  134.2759  162.2013 C   0  0  1  0  0  0  0  0  0  0  0  0
  147.7895  133.5606  161.5887 C   0  0  0  0  0  0  0  0  0  0  0  0
  148.0685  134.8151  160.7371 C   0  0  1  0  0  0  0  0  0  0  0  0
  147.4750  134.7006  159.3971 N   0  0  0  0  0  0  0  0  0  0  0  0
  147.3505  133.3486  158.8620 C   0  0  0  0  0  0  0  0  0  0  0  0
  147.9831  135.5232  158.4532 C   0  0  0  0  0  0  0  0  0  0  0  0
  147.3621  135.5351  157.2474 N   0  0  0  0  0  0  0  0  0  0  0  0
  147.8035  136.3402  156.2765 C   0  0  0  0  0  0  0  0  0  0  0  0
  148.8315  137.1915  156.2997 N   0  0  0  0  0  0  0  0  0  0  0  0
  149.4678  137.1674  157.5062 C   0  0  0  0  0  0  0  0  0  0  0  0
  149.1189  136.3646  158.6283 C   0  0  0  0  0  0  0  0  0  0  0  0
  150.0008  136.6059  159.6754 N   0  0  0  0  0  0  0  0  0  0  0  0
  150.8140  137.5114  159.2051 C   0  0  0  0  0  0  0  0  0  0  0  0
  150.5637  137.9080  157.9117 N   0  0  0  0  0  0  0  0  0  0  0  0
  151.3032  138.9016  157.1523 C   0  0  0  0  0  0  0  0  0  0  0  0
  150.6524  139.2035  155.7826 C   0  0  2  0  0  0  0  0  0  0  0  0
  151.6914  139.3116  154.8265 O   0  0  0  0  0  0  0  0  0  0  0  0
  149.8517  140.5263  155.7392 C   0  0  2  0  0  0  0  0  0  0  0  0
  150.6434  141.7911  156.1192 C   0  0  0  0  0  0  0  0  0  0  0  0
  150.3551  141.9593  157.5932 C   0  0  0  0  0  0  0  0  0  0  0  0
  148.9041  141.5137  157.6557 C   0  0  0  0  0  0  0  0  0  0  0  0
  148.8290  140.4325  156.7362 O   0  0  0  0  0  0  0  0  0  0  0  0
  147.2339  135.6021  161.7835 C   0  0  0  0  0  0  0  0  0  0  0  0
  147.9616  136.4200  162.8649 C   0  0  0  0  0  0  0  0  0  0  0  0
  146.7303  137.3259  162.9392 C   0  0  0  0  0  0  0  0  0  0  0  0
  146.3969  136.8709  161.5178 C   0  0  0  0  0  0  0  0  0  0  0  0
  143.3510  134.3973  161.4992 H   0  0  0  0  0  0  0  0  0  0  0  0
  144.3350  135.6874  162.1888 H   0  0  0  0  0  0  0  0  0  0  0  0
  144.0715  134.1871  163.0940 H   0  0  0  0  0  0  0  0  0  0  0  0
  146.4697  134.1578  163.2809 H   0  0  0  0  0  0  0  0  0  0  0  0
  148.5750  133.3819  162.3247 H   0  0  0  0  0  0  0  0  0  0  0  0
  147.5572  132.6465  161.0438 H   0  0  0  0  0  0  0  0  0  0  0  0
  149.1257  135.0801  160.7336 H   0  0  0  0  0  0  0  0  0  0  0  0
  147.1621  133.3468  157.7869 H   0  0  0  0  0  0  0  0  0  0  0  0
  146.5191  132.8265  159.3344 H   0  0  0  0  0  0  0  0  0  0  0  0
  148.2611  132.7773  159.0457 H   0  0  0  0  0  0  0  0  0  0  0  0
  147.2517  136.2984  155.3491 H   0  0  0  0  0  0  0  0  0  0  0  0
  151.6214  137.9210  159.7944 H   0  0  0  0  0  0  0  0  0  0  0  0
  151.3589  139.7984  157.7675 H   0  0  0  0  0  0  0  0  0  0  0  0
  152.3271  138.5501  157.0184 H   0  0  0  0  0  0  0  0  0  0  0  0
  150.0072  138.3708  155.4996 H   0  0  0  0  0  0  0  0  0  0  0  0
  152.5154  139.1426  155.2574 H   0  0  0  0  0  0  0  0  0  0  0  0
  149.4022  140.6610  154.7539 H   0  0  0  0  0  0  0  0  0  0  0  0
  151.7085  141.7559  155.9011 H   0  0  0  0  0  0  0  0  0  0  0  0
  150.2365  142.6460  155.5769 H   0  0  0  0  0  0  0  0  0  0  0  0
  150.9847  141.2913  158.1825 H   0  0  0  0  0  0  0  0  0  0  0  0
  150.5046  142.9796  157.9474 H   0  0  0  0  0  0  0  0  0  0  0  0
  148.5972  141.2109  158.6570 H   0  0  0  0  0  0  0  0  0  0  0  0
  148.2416  142.3126  157.3199 H   0  0  0  0  0  0  0  0  0  0  0  0
  148.1866  135.8784  163.7843 H   0  0  0  0  0  0  0  0  0  0  0  0
  148.8416  136.9382  162.4798 H   0  0  0  0  0  0  0  0  0  0  0  0
  145.9983  136.9878  163.6744 H   0  0  0  0  0  0  0  0  0  0  0  0
  146.9493  138.3892  163.0402 H   0  0  0  0  0  0  0  0  0  0  0  0
  146.8303  137.5450  160.7795 H   0  0  0  0  0  0  0  0  0  0  0  0
  145.3370  136.6988  161.3294 H   0  0  0  0  0  0  0  0  0  0  0  0
  1  2  1  0  0  0  0
  1 29  1  0  0  0  0
  1 30  1  0  0  0  0
  1 31  1  0  0  0  0
  2  3  1  0  0  0  0
  3 25  1  0  0  0  0
  3  4  1  0  0  0  0
  3 32  1  0  0  0  0
  4  5  1  0  0  0  0
  4 33  1  0  0  0  0
  4 34  1  0  0  0  0
  5  6  1  0  0  0  0
  5 25  1  0  0  0  0
  5 35  1  0  0  0  0
  6  7  1  0  0  0  0
  6  8  1  0  0  0  0
  7 36  1  0  0  0  0
  7 37  1  0  0  0  0
  7 38  1  0  0  0  0
  8 13  1  0  0  0  0
  8  9  2  0  0  0  0
  9 10  1  0  0  0  0
 10 11  2  0  0  0  0
 10 39  1  0  0  0  0
 11 12  1  0  0  0  0
 12 16  1  0  0  0  0
 12 13  2  0  0  0  0
 13 14  1  0  0  0  0
 14 15  2  0  0  0  0
 15 16  1  0  0  0  0
 15 40  1  0  0  0  0
 16 17  1  0  0  0  0
 17 18  1  0  0  0  0
 17 41  1  0  0  0  0
 17 42  1  0  0  0  0
 18 19  1  0  0  0  0
 18 20  1  0  0  0  0
 18 43  1  0  0  0  0
 19 44  1  0  0  0  0
 20 24  1  0  0  0  0
 20 21  1  0  0  0  0
 20 45  1  0  0  0  0
 21 22  1  0  0  0  0
 21 46  1  0  0  0  0
 21 47  1  0  0  0  0
 22 23  1  0  0  0  0
 22 48  1  0  0  0  0
 22 49  1  0  0  0  0
 23 24  1  0  0  0  0
 23 50  1  0  0  0  0
 23 51  1  0  0  0  0
 25 28  1  0  0  0  0
 25 26  1  0  0  0  0
 26 27  1  0  0  0  0
 26 52  1  0  0  0  0
 26 53  1  0  0  0  0
 27 28  1  0  0  0  0
 27 54  1  0  0  0  0
 27 55  1  0  0  0  0
 28 56  1  0  0  0  0
 28 57  1  0  0  0  0
M  END
> <s_m_source_file>
AV-unprocessed.smi

> <i_m_source_file_index>
276

> <i_lp_mmshare_version>
43012

> <i_f3d_flags>
0

> <s_epik_input>
W0NIMl0xW0NIMl1bQ0gyXUMxMltDQEhdKE9bQ0gzXSlbQ0gyXVtDQEhdMk4oW0NIM10pYyhuW2NIXW4zKWMoYzM0KW5bY0hdbjRbQ0gyXVtDQEhdKFtPSF0pW0NAQEhdNVtDSDJdW0NIMl1bQ0gyXU81

> <s_epik_cmdline>
J2VwaWtfcHl0aG9uJywgJy1waCcsICc3LjAnLCAnLXRuJywgJzgnLCAnLW1hJywgJzIwMCcsICctbWV0YWxfYmluZGluZycsICctaW1hZScsICc8aW5maWxlLm1hZT4nLCAnLW9tYWUnLCAnPG91dGZpbGUubWFlPic=

> <r_lp_tautomer_probability>
1

> <r_epik_Ionization_Penalty>
0.00204117

> <r_epik_Ionization_Penalty_Charging>
0

> <r_epik_Ionization_Penalty_Neutral>
0.00204117

> <r_epik_State_Penalty>
0.00127401

> <r_epik_Charging_Adjusted_Penalty>
0.00127401

> <i_epik_Tot_Q>
0

> <i_epik_Tot_abs_Q>
0

> <r_epik_Metal_State_Penalty>
-0

> <b_epik_Metal_Only>
0

> <s_lp_Force_Field>
OPLS_2005

> <r_lp_Energy>
58.0583

> <b_lp_Chiralities_Consistent>
1

> <s_lp_Variant>
AV-unprocessed.smi:276-2

> <Gold.Version>
5.8.1

> <Gold.Id.Protein>
6NUR|6NUR_protein|mol2

> <Gold.PLP.Fitness>
41.6175

> <Gold.PLP.PLP>
-38.4365

> <Gold.PLP.part.hbond>
-2.0000

> <Gold.PLP.part.metal>
0.0000

> <Gold.PLP.part.buried>
-6.3484

> <Gold.PLP.part.nonpolar>
-30.8397

> <Gold.PLP.part.repulsive>
0.0652

> <Gold.PLP.ligand.clash>
0.0000

> <Gold.PLP.ligand.torsion>
1.8560

> <Gold.PLP.Chemscore.Hbond>
2.0000

> <Gold.PLP.Chemscore.CHOScore>
0.0000

> <Gold.PLP.Chemscore.Metal>
0.0000

> <Gold.Chemscore.Hbonds>
donor molecule, donor type, donor heavy atom, donor atom, acceptor molecule, acceptor atom, score
      P1  H  6896  6909       L1    14  0.90
      P1  H  7989  7998       L1    19  0.98

> <Gold.PLP.Chemscore.Internal.Correction>
0.8930

> <Gold.Rescore>
     Score         DG    S(hbond)    S(metal)    S(lipo)     H(rot)  DE(clash)    DE(int)     intcor
     10.93     -15.55       1.66        0.00      98.27       2.72       0.05       4.57       ----

> <Gold.Chemscore.Fitness>
10.9318

> <Gold.Chemscore.DG>
-15.5546

> <Gold.Chemscore.ZeroCoef>
-5.4800

> <Gold.Chemscore.Hbond>
1.6567

> <Gold.Chemscore.Metal>
0.0000

> <Gold.Chemscore.Lipo>
98.2672

> <Gold.Chemscore.Internal_Hbond>
0.0000

> <Gold.Chemscore.DEClash>
0.0517

> <Gold.Chemscore.DEInternal>
4.5710

> <Gold.Chemscore.Rot>
2.7172

> <Gold.Chemscore.Internal.Correction>
   9.000000E+99

> <Gold.Chemscore.Hbonds>
donor molecule, donor type, donor heavy atom, donor atom, acceptor molecule, acceptor atom, score
      P1  H  6896  6909       L1    14  0.14
      P1  H  7989  7998       L1    19  0.81

> <Gold.Chemscore.Hbond.Weighted>
-5.5333

> <Gold.Chemscore.Metal.Weighted>
-0.0000

> <Gold.Chemscore.Lipo.Weighted>
-11.4973

> <Gold.Chemscore.Internal_Hbond.Weighted>
0.0000

> <Gold.Chemscore.DEClash.Weighted>
0.0517

> <Gold.Chemscore.DEInternal.Weighted>
4.5710

> <Gold.Chemscore.Rot.Weighted>
6.9560

> <Gold.Chemscore.Internal.Correction.Weighted>
   9.000000E+99

> <Gold.Protein.RotatedTorsions>
[ 6907 6896 6895 6894 ] final   70.54 input  -60.11 | X-H torsion
[ 7974 7965 7964 7962 ] final -178.09 input  175.53 | X-H torsion
[ 8008 7997 7996 7995 ] final  -87.76 input   59.86 | X-H torsion
[ 10167 10162 10161 10158 ] final   72.91 input  -65.29 | X-H torsion
[ 10718 10713 10712 10709 ] final  -92.39 input   66.30 | X-H torsion
[ 10763 10752 10751 10750 ] final -165.71 input  -60.55 | X-H torsion
[ 11005 11000 10999 10996 ] final  122.94 input  -57.11 | X-H torsion

> <Gold.Protein.ActiveResidues>
 VAL166  LYS551  ARG553  GLY616  TRP617  ASP618  TYR619  PRO620  LYS621  CYS622 
 ASP623  PHE694  ASN695  SER759  ASP760  ASP761  ALA762  ILE779  LEU786  VAL792 
 PHE793  MET794  SER795  GLU796  ALA797  LYS798  CYS799  TRP800  GLU811  SER814 

> <Gold.Protein.RotatedAtoms>
  152.4755  134.4854  159.9678 H   0  0  0  0  0  0  0  0  0  0  0  0  # atno 6907 bound_to 6896
  151.4871  133.3527  159.2855 H   0  0  0  0  0  0  0  0  0  0  0  0  # atno 6908 bound_to 6896
  150.8791  134.8206  159.7273 H   0  0  0  0  0  0  0  0  0  0  0  0  # atno 6909 bound_to 6896
  144.7129  140.0921  143.6421 H   0  0  0  0  0  0  0  0  0  0  0  0  # atno 7974 bound_to 7965
  154.6670  140.0562  157.0124 H   0  0  0  0  0  0  0  0  0  0  0  0  # atno 8008 bound_to 7997
  155.1145  140.3241  155.4494 H   0  0  0  0  0  0  0  0  0  0  0  0  # atno 8009 bound_to 7997
  156.2642  140.2008  156.6268 H   0  0  0  0  0  0  0  0  0  0  0  0  # atno 8010 bound_to 7997
  140.0301  144.5472  150.7513 H   0  0  0  0  0  0  0  0  0  0  0  0  # atno 10167 bound_to 10162
  156.0002  130.4985  150.5618 H   0  0  0  0  0  0  0  0  0  0  0  0  # atno 10718 bound_to 10713
  154.6905  135.2970  154.9486 H   0  0  0  0  0  0  0  0  0  0  0  0  # atno 10763 bound_to 10752
  154.0451  135.6652  153.4798 H   0  0  0  0  0  0  0  0  0  0  0  0  # atno 10764 bound_to 10752
  153.0609  135.5116  154.7995 H   0  0  0  0  0  0  0  0  0  0  0  0  # atno 10765 bound_to 10752
  139.9290  134.9641  156.8184 H   0  0  0  0  0  0  0  0  0  0  0  0  # atno 11005 bound_to 11000
  145.9611  139.2801  143.1155 LP  0  0  0  0  0  0  0  0  0  0  0  0  # atno 17320 bound_to 7965
  145.9219  140.9109  143.0400 LP  0  0  0  0  0  0  0  0  0  0  0  0  # atno 17321 bound_to 7965
  140.7305  143.2684  151.3967 LP  0  0  0  0  0  0  0  0  0  0  0  0  # atno 17342 bound_to 10162
  139.6081  144.1154  152.2271 LP  0  0  0  0  0  0  0  0  0  0  0  0  # atno 17343 bound_to 10162
  157.3526  131.0736  151.1701 LP  0  0  0  0  0  0  0  0  0  0  0  0  # atno 17370 bound_to 10713
  157.2512  130.6615  149.5932 LP  0  0  0  0  0  0  0  0  0  0  0  0  # atno 17371 bound_to 10713
  140.6254  133.9955  155.7637 LP  0  0  0  0  0  0  0  0  0  0  0  0  # atno 17394 bound_to 11000
  141.0867  133.9980  157.3302 LP  0  0  0  0  0  0  0  0  0  0  0  0  # atno 17395 bound_to 11000

$$$$
