AV-unprocessed.smi:1671|AV-procd|sdf|6700|dock10
  -GOLD-   22720 7433D 1   1.00000     0.00000
 Structure written by MMmdl.
 44 45  0  0  0  0  0  0  0  0  1 V2000
  157.5962  136.4779  151.6426 C   0  0  0  0  0  0  0  0  0  0  0  0
  157.5470  135.8743  153.3522 S   0  0  0  0  0  0  0  0  0  0  0  0
  157.1326  137.4012  154.2474 C   0  0  1  0  0  0  0  0  0  0  0  0
  155.9856  138.1380  153.5382 C   0  0  0  0  0  0  0  0  0  0  0  0
  156.7894  137.1286  155.7170 C   0  0  0  0  0  0  0  0  0  0  0  0
  155.8708  136.3628  156.0109 O   0  0  0  0  0  0  0  0  0  0  0  0
  157.5403  137.7595  156.6336 N   0  0  0  0  0  0  0  0  0  0  0  0
  157.3769  137.6323  158.0780 C   0  0  0  0  0  0  0  0  0  0  0  0
  156.5847  138.7603  158.7242 C   0  0  0  0  0  0  0  0  0  0  0  0
  157.1096  140.0621  158.8656 C   0  0  0  0  0  0  0  0  0  0  0  0
  156.3211  141.0545  159.4782 C   0  0  0  0  0  0  0  0  0  0  0  0
  155.0246  140.7217  159.9379 C   0  0  0  0  0  0  0  0  0  0  0  0
  154.2139  141.7016  160.5515 N   0  0  0  0  0  0  0  0  0  0  0  0
  153.9000  141.5421  161.9701 C   0  0  0  0  0  0  0  0  0  0  0  0
  153.2719  142.8296  162.5275 C   0  0  0  0  0  0  0  0  0  0  0  0
  152.1362  143.1857  161.7462 O   0  0  0  0  0  0  0  0  0  0  0  0
  152.4798  143.4481  160.3885 C   0  0  2  0  0  0  0  0  0  0  0  0
  151.2173  143.9103  159.6537 C   0  0  0  0  0  0  0  0  0  0  0  0
  153.0819  142.1763  159.7597 C   0  0  0  0  0  0  0  0  0  0  0  0
  154.5305  139.4652  159.8132 N   0  0  0  0  0  0  0  0  0  0  0  0
  155.2900  138.5181  159.2241 C   0  0  0  0  0  0  0  0  0  0  0  0
  157.7730  135.6477  150.9592 H   0  0  0  0  0  0  0  0  0  0  0  0
  158.3975  137.2048  151.5117 H   0  0  0  0  0  0  0  0  0  0  0  0
  156.6498  136.9483  151.3760 H   0  0  0  0  0  0  0  0  0  0  0  0
  158.0111  138.0474  154.2079 H   0  0  0  0  0  0  0  0  0  0  0  0
  155.7154  139.0541  154.0648 H   0  0  0  0  0  0  0  0  0  0  0  0
  155.0917  137.5168  153.4682 H   0  0  0  0  0  0  0  0  0  0  0  0
  156.2719  138.4170  152.5238 H   0  0  0  0  0  0  0  0  0  0  0  0
  158.2769  138.3686  156.3081 H   0  0  0  0  0  0  0  0  0  0  0  0
  156.9107  136.6732  158.3103 H   0  0  0  0  0  0  0  0  0  0  0  0
  158.3684  137.6099  158.5305 H   0  0  0  0  0  0  0  0  0  0  0  0
  158.1024  140.3044  158.5160 H   0  0  0  0  0  0  0  0  0  0  0  0
  156.7245  142.0485  159.6007 H   0  0  0  0  0  0  0  0  0  0  0  0
  153.2102  140.7062  162.0957 H   0  0  0  0  0  0  0  0  0  0  0  0
  154.8037  141.3084  162.5344 H   0  0  0  0  0  0  0  0  0  0  0  0
  152.9589  142.6776  163.5603 H   0  0  0  0  0  0  0  0  0  0  0  0
  153.9959  143.6460  162.5313 H   0  0  0  0  0  0  0  0  0  0  0  0
  153.2142  144.2552  160.3555 H   0  0  0  0  0  0  0  0  0  0  0  0
  151.4318  144.1345  158.6085 H   0  0  0  0  0  0  0  0  0  0  0  0
  150.8093  144.8125  160.1101 H   0  0  0  0  0  0  0  0  0  0  0  0
  150.4423  143.1437  159.6801 H   0  0  0  0  0  0  0  0  0  0  0  0
  153.3719  142.3928  158.7327 H   0  0  0  0  0  0  0  0  0  0  0  0
  152.3307  141.3863  159.7159 H   0  0  0  0  0  0  0  0  0  0  0  0
  154.8471  137.5359  159.1488 H   0  0  0  0  0  0  0  0  0  0  0  0
  1  2  1  0  0  0  0
  1 22  1  0  0  0  0
  1 23  1  0  0  0  0
  1 24  1  0  0  0  0
  2  3  1  0  0  0  0
  3  4  1  0  0  0  0
  3  5  1  0  0  0  0
  3 25  1  0  0  0  0
  4 26  1  0  0  0  0
  4 27  1  0  0  0  0
  4 28  1  0  0  0  0
  5  6  2  0  0  0  0
  5  7  1  0  0  0  0
  7  8  1  0  0  0  0
  7 29  1  0  0  0  0
  8  9  1  0  0  0  0
  8 30  1  0  0  0  0
  8 31  1  0  0  0  0
  9 21  1  0  0  0  0
  9 10  2  0  0  0  0
 10 11  1  0  0  0  0
 10 32  1  0  0  0  0
 11 12  2  0  0  0  0
 11 33  1  0  0  0  0
 12 13  1  0  0  0  0
 12 20  1  0  0  0  0
 13 19  1  0  0  0  0
 13 14  1  0  0  0  0
 14 15  1  0  0  0  0
 14 34  1  0  0  0  0
 14 35  1  0  0  0  0
 15 16  1  0  0  0  0
 15 36  1  0  0  0  0
 15 37  1  0  0  0  0
 16 17  1  0  0  0  0
 17 18  1  0  0  0  0
 17 19  1  0  0  0  0
 17 38  1  0  0  0  0
 18 39  1  0  0  0  0
 18 40  1  0  0  0  0
 18 41  1  0  0  0  0
 19 42  1  0  0  0  0
 19 43  1  0  0  0  0
 20 21  2  0  0  0  0
 21 44  1  0  0  0  0
M  END
> <s_m_source_file>
AV-unprocessed.smi

> <i_m_source_file_index>
1671

> <i_lp_mmshare_version>
43012

> <i_f3d_flags>
0

> <s_epik_input>
W0NIM11TW0NASF0oW0NIM10pQyg9TylbTkhdW0NIMl1jMVtjSF1bY0hdYyhuW2NIXTEpTjJbQ0gyXVtDSDJdT1tDQEBIXShbQ0gzXSlbQ0gyXTI=

> <s_epik_cmdline>
J2VwaWtfcHl0aG9uJywgJy1waCcsICc3LjAnLCAnLXRuJywgJzgnLCAnLW1hJywgJzIwMCcsICctbWV0YWxfYmluZGluZycsICctaW1hZScsICc8aW5maWxlLm1hZT4nLCAnLW9tYWUnLCAnPG91dGZpbGUubWFlPic=

> <r_lp_tautomer_probability>
1

> <r_epik_Ionization_Penalty>
0.00480033

> <r_epik_Ionization_Penalty_Charging>
0

> <r_epik_Ionization_Penalty_Neutral>
0.00480033

> <r_epik_State_Penalty>
0.00347981

> <r_epik_Charging_Adjusted_Penalty>
0.00347981

> <i_epik_Tot_Q>
0

> <i_epik_Tot_abs_Q>
0

> <r_epik_Metal_State_Penalty>
-0

> <b_epik_Metal_Only>
0

> <s_lp_Force_Field>
OPLS_2005

> <r_lp_Energy>
15.0592

> <b_lp_Chiralities_Consistent>
1

> <s_lp_Variant>
AV-unprocessed.smi:1671-4

> <Gold.Version>
5.8.1

> <Gold.Id.Protein>
6NUR|6NUR_protein|mol2

> <Gold.PLP.Fitness>
43.5594

> <Gold.PLP.PLP>
-41.2873

> <Gold.PLP.part.hbond>
-2.0000

> <Gold.PLP.part.metal>
0.0000

> <Gold.PLP.part.buried>
-5.5111

> <Gold.PLP.part.nonpolar>
-34.7779

> <Gold.PLP.part.repulsive>
0.2044

> <Gold.PLP.ligand.clash>
0.0000

> <Gold.PLP.ligand.torsion>
0.5521

> <Gold.PLP.Chemscore.Hbond>
1.0000

> <Gold.PLP.Chemscore.CHOScore>
0.0000

> <Gold.PLP.Chemscore.Metal>
0.0000

> <Gold.Chemscore.Hbonds>
donor molecule, donor type, donor heavy atom, donor atom, acceptor molecule, acceptor atom, score
      P1  H 10752 10764       L1     6  0.99

> <Gold.PLP.Chemscore.Internal.Correction>
0.3763

> <Gold.Rescore>
     Score         DG    S(hbond)    S(metal)    S(lipo)     H(rot)  DE(clash)    DE(int)     intcor
     18.24     -20.40       1.55        0.00     118.76       1.63       1.40       0.76       ----

> <Gold.Chemscore.Fitness>
18.2434

> <Gold.Chemscore.DG>
-20.4017

> <Gold.Chemscore.ZeroCoef>
-5.4800

> <Gold.Chemscore.Hbond>
1.5545

> <Gold.Chemscore.Metal>
0.0000

> <Gold.Chemscore.Lipo>
118.7634

> <Gold.Chemscore.Internal_Hbond>
0.0000

> <Gold.Chemscore.DEClash>
1.3956

> <Gold.Chemscore.DEInternal>
0.7627

> <Gold.Chemscore.Rot>
1.6272

> <Gold.Chemscore.Internal.Correction>
   9.000000E+99

> <Gold.Chemscore.Hbonds>
donor molecule, donor type, donor heavy atom, donor atom, acceptor molecule, acceptor atom, score
      P1  H 10752 10764       L1     6  0.94

> <Gold.Chemscore.Hbond.Weighted>
-5.1921

> <Gold.Chemscore.Metal.Weighted>
-0.0000

> <Gold.Chemscore.Lipo.Weighted>
-13.8953

> <Gold.Chemscore.Internal_Hbond.Weighted>
0.0000

> <Gold.Chemscore.DEClash.Weighted>
1.3956

> <Gold.Chemscore.DEInternal.Weighted>
0.7627

> <Gold.Chemscore.Rot.Weighted>
4.1657

> <Gold.Chemscore.Internal.Correction.Weighted>
   9.000000E+99

> <Gold.Protein.RotatedTorsions>
[ 6907 6896 6895 6894 ] final -140.85 input  -60.11 | X-H torsion
[ 7974 7965 7964 7962 ] final  163.07 input  175.53 | X-H torsion
[ 8008 7997 7996 7995 ] final -169.72 input   59.86 | X-H torsion
[ 10167 10162 10161 10158 ] final   -8.37 input  -65.29 | X-H torsion
[ 10718 10713 10712 10709 ] final   27.33 input   66.30 | X-H torsion
[ 10763 10752 10751 10750 ] final   85.00 input  -60.55 | X-H torsion
[ 11005 11000 10999 10996 ] final -146.69 input  -57.11 | X-H torsion

> <Gold.Protein.ActiveResidues>
 VAL166  LYS551  ARG553  GLY616  TRP617  ASP618  TYR619  PRO620  LYS621  CYS622 
 ASP623  PHE694  ASN695  SER759  ASP760  ASP761  ALA762  ILE779  LEU786  VAL792 
 PHE793  MET794  SER795  GLU796  ALA797  LYS798  CYS799  TRP800  GLU811  SER814 

> <Gold.Protein.RotatedAtoms>
  151.0661  133.5504  159.2630 H   0  0  0  0  0  0  0  0  0  0  0  0  # atno 6907 bound_to 6896
  151.2461  135.0605  159.9053 H   0  0  0  0  0  0  0  0  0  0  0  0  # atno 6908 bound_to 6896
  152.5405  134.0429  159.8129 H   0  0  0  0  0  0  0  0  0  0  0  0  # atno 6909 bound_to 6896
  144.7607  139.8130  143.6334 H   0  0  0  0  0  0  0  0  0  0  0  0  # atno 7974 bound_to 7965
  155.9088  140.1053  157.1295 H   0  0  0  0  0  0  0  0  0  0  0  0  # atno 8008 bound_to 7997
  154.4036  140.1278  156.4595 H   0  0  0  0  0  0  0  0  0  0  0  0  # atno 8009 bound_to 7997
  155.7335  140.3468  155.5073 H   0  0  0  0  0  0  0  0  0  0  0  0  # atno 8010 bound_to 7997
  140.7057  143.5976  150.8830 H   0  0  0  0  0  0  0  0  0  0  0  0  # atno 10167 bound_to 10162
  157.2188  130.6969  149.6261 H   0  0  0  0  0  0  0  0  0  0  0  0  # atno 10718 bound_to 10713
  153.1434  135.4633  154.9529 H   0  0  0  0  0  0  0  0  0  0  0  0  # atno 10763 bound_to 10752
  154.7766  135.3175  154.8082 H   0  0  0  0  0  0  0  0  0  0  0  0  # atno 10764 bound_to 10752
  153.8600  135.6913  153.4838 H   0  0  0  0  0  0  0  0  0  0  0  0  # atno 10765 bound_to 10752
  140.7793  134.3097  157.5050 H   0  0  0  0  0  0  0  0  0  0  0  0  # atno 11005 bound_to 11000
  146.1666  139.4800  142.9954 LP  0  0  0  0  0  0  0  0  0  0  0  0  # atno 17320 bound_to 7965
  145.6630  141.0236  143.1699 LP  0  0  0  0  0  0  0  0  0  0  0  0  # atno 17321 bound_to 7965
  139.9701  143.6067  152.2976 LP  0  0  0  0  0  0  0  0  0  0  0  0  # atno 17342 bound_to 10162
  139.6650  144.7662  151.1890 LP  0  0  0  0  0  0  0  0  0  0  0  0  # atno 17343 bound_to 10162
  155.9684  130.4527  150.5783 LP  0  0  0  0  0  0  0  0  0  0  0  0  # atno 17370 bound_to 10713
  157.3597  131.0748  151.1646 LP  0  0  0  0  0  0  0  0  0  0  0  0  # atno 17371 bound_to 10713
  139.8744  134.9309  156.3513 LP  0  0  0  0  0  0  0  0  0  0  0  0  # atno 17394 bound_to 11000
  140.9498  133.7459  156.0256 LP  0  0  0  0  0  0  0  0  0  0  0  0  # atno 17395 bound_to 11000

$$$$
