#       Name:                AV-unprocessed.smi:2059
#       Creating user name   scv26
#       Creation time:       Fri Mar 27 11:01:58 2020


#       File generated by GOLD software.
#

@<TRIPOS>MOLECULE
AV-unprocessed.smi:2059
    35    36     1
SMALL
NO_CHARGES


@<TRIPOS>ATOM
      1 ****        -3.8400  -3.0390   0.6800 C.3            1 S1                 0.0000
      2 ****        -2.4928  -2.8567   0.0687 C.2            1 S1                 0.0000
      3 ****        -1.2286  -2.8806   0.5855 C.2            1 S1                 0.0000
      4 ****        -0.4084  -2.6351  -0.5492 C.2            1 S1                 0.0000
      5 ****         0.9348  -2.5705  -0.5499 N.pl3          1 S1                -1.0000
      6 ****         1.6177  -1.4196  -0.3100 C.2            1 S1                 0.0000
      7 ****         2.8461  -1.3592  -0.2724 O.2            1 S1                 0.0000
      8 ****         0.9042  -0.2954  -0.1060 N.am           1 S1                 0.0000
      9 ****         1.4460   1.0296   0.1772 C.3            1 S1                 0.0000
     10 ****         0.3607   1.9508   0.7637 C.3            1 S1                 0.0000
     11 ****         0.8613   3.3992   0.7086 C.3            1 S1                 0.0000
     12 ****         1.9510   3.5030  -0.7620 S.o2           1 S1                 0.0000
     13 ****         1.2343   4.1700  -1.8598 O.2            1 S1                 0.0000
     14 ****         3.2809   3.9654  -0.3366 O.2            1 S1                 0.0000
     15 ****         2.0038   1.7013  -1.0878 C.3            1 S1                 0.0000
     16 ****        -1.1124  -2.4848  -1.6588 N.2            1 S1                 0.0000
     17 ****        -2.4505  -2.6201  -1.2702 O.3            1 S1                 0.0000
     18 ****        -4.0005  -4.0825   0.9513 H              1 S1                 0.0000
     19 ****        -4.6294  -2.7444  -0.0119 H              1 S1                 0.0000
     20 ****        -3.9398  -2.4356   1.5822 H              1 S1                 0.0000
     21 ****        -0.9352  -3.0468   1.6111 H              1 S1                 0.0000
     22 ****        -0.1013  -0.3740  -0.1491 H              1 S1                 0.0000
     23 ****         2.2473   0.9467   0.9138 H              1 S1                 0.0000
     24 ****        -0.5421   1.8716   0.1559 H              1 S1                 0.0000
     25 ****         0.0866   1.6600   1.7783 H              1 S1                 0.0000
     26 ****         0.0530   4.1264   0.6324 H              1 S1                 0.0000
     27 ****         1.4611   3.6336   1.5882 H              1 S1                 0.0000
     28 ****         3.0218   1.3889  -1.3213 H              1 S1                 0.0000
     29 ****         1.3715   1.4989  -1.9530 H              1 S1                 0.0000
     30 ****         1.4537  -3.4051  -0.7348 LP             1 S1                 0.0000
     31 ****         3.3920  -2.1835  -0.4225 LP             1 S1                 0.0000
     32 ****         3.2984  -0.4859  -0.0917 LP             1 S1                 0.0000
     33 ****        -0.7631  -2.3114  -2.5796 LP             1 S1                 0.0000
     34 ****        -2.9486  -1.7786  -1.4793 LP             1 S1                 0.0000
     35 ****        -2.8679  -3.3852  -1.7606 LP             1 S1                 0.0000
@<TRIPOS>BOND
    1    1    2 1     
    2    1   18 1     
    3    1   19 1     
    4    1   20 1     
    5    2   17 1     
    6    2    3 2     
    7    3    4 1     
    8    3   21 1     
    9    4    5 1     
   10    4   16 2     
   11    5    6 1     
   12    6    7 2     
   13    6    8 am    
   14    8    9 1     
   15    8   22 1     
   16    9   15 1     
   17    9   10 1     
   18    9   23 1     
   19   10   11 1     
   20   10   24 1     
   21   10   25 1     
   22   11   12 1     
   23   11   26 1     
   24   11   27 1     
   25   12   13 2     
   26   12   14 2     
   27   12   15 1     
   28   15   28 1     
   29   15   29 1     
   30   16   17 1     
   31    5   30 1     
   32    7   31 1     
   33    7   32 1     
   34   16   33 1     
   35   17   34 1     
   36   17   35 1     
@<TRIPOS>SUBSTRUCTURE
      1 S1             1
@<TRIPOS>SET
LONE_PAIRS      STATIC     ATOMS    <user>   **** ""
8 30 31 32 13 14 33 34 35
DONOR_HYDROGENS      STATIC     ATOMS    <user>   **** ""
1 22
ATOM$BLUE        STATIC     ATOMS    COLORGROUP SYSTEM
8 30 31 32 13 14 33 34 35
ATOM$RED        STATIC     ATOMS    COLORGROUP SYSTEM
1 22
