#       Name:                AV-unprocessed.smi:2694
#       Creating user name   scv26
#       Creation time:       Fri Mar 27 14:43:53 2020


#       File generated by GOLD software.
#

@<TRIPOS>MOLECULE
AV-unprocessed.smi:2694
    49    51     1
SMALL
NO_CHARGES


@<TRIPOS>ATOM
      1 ****         1.4682   2.4522  -2.4177 O.2            1 S1                 0.0000
      2 ****         0.4916   1.8906  -1.9217 C.2            1 S1                 0.0000
      3 ****        -0.3023   2.4910  -0.8495 C.2            1 S1                 0.0000
      4 ****        -1.3685   1.8387  -0.3266 C.2            1 S1                 0.0000
      5 ****        -2.1991   2.4096   0.8148 C.3            1 S1                 0.0000
      6 ****        -1.4519   3.2640   1.8532 C.3            1 S1                 0.0000
      7 ****        -2.3117   2.5951   2.9312 C.3            1 S1                 0.0000
      8 ****        -2.5138   1.4295   1.9571 C.3            1 S1                 0.0000
      9 ****        -1.7330   0.5748  -0.8033 N.2            1 S1                 0.0000
     10 ****        -1.0496   0.0238  -1.7547 C.2            1 S1                 0.0000
     11 ****         0.0716   0.6571  -2.3269 N.am           1 S1                 0.0000
     12 ****         0.7818  -0.0813  -3.3862 C.3            1 S1                 0.0000
     13 ****         2.0841  -0.7570  -2.8937 C.3            1 S1                 0.0000
     14 ****         2.6798  -1.4129  -3.9939 O.3            1 S1                 0.0000
     15 ****         1.8759  -1.7860  -1.7674 C.3            1 S1                 0.0000
     16 ****         1.7369  -1.0911  -0.5351 O.3            1 S1                 0.0000
     17 ****         1.3067  -1.7856   0.5753 C.ar           1 S1                 0.0000
     18 ****         1.0842  -3.1859   0.5963 C.ar           1 S1                 0.0000
     19 ****         0.6278  -3.8191   1.7687 C.ar           1 S1                 0.0000
     20 ****         0.3916  -3.0655   2.9327 C.ar           1 S1                 0.0000
     21 ****         0.6189  -1.6774   2.9253 C.ar           1 S1                 0.0000
     22 ****         1.0776  -1.0425   1.7548 C.ar           1 S1                 0.0000
     23 ****         1.3623   0.6602   1.7772 Cl             1 S1                 0.0000
     24 ****        -0.0203   3.4635  -0.4735 H              1 S1                 0.0000
     25 ****        -3.0985   2.9090   0.4498 H              1 S1                 0.0000
     26 ****        -0.3950   3.0131   1.9542 H              1 S1                 0.0000
     27 ****        -1.6022   4.3391   1.7523 H              1 S1                 0.0000
     28 ****        -1.7784   2.3380   3.8468 H              1 S1                 0.0000
     29 ****        -3.2340   3.1407   3.1368 H              1 S1                 0.0000
     30 ****        -3.5228   1.0170   1.9404 H              1 S1                 0.0000
     31 ****        -1.7611   0.6483   2.0803 H              1 S1                 0.0000
     32 ****        -1.2924  -0.9599  -2.1598 H              1 S1                 0.0000
     33 ****         0.1329  -0.8327  -3.8409 H              1 S1                 0.0000
     34 ****         1.0156   0.6053  -4.2023 H              1 S1                 0.0000
     35 ****         2.7950  -0.0001  -2.5598 H              1 S1                 0.0000
     36 ****         2.0878  -2.0810  -4.3040 H              1 S1                 0.0000
     37 ****         1.0022  -2.3994  -1.9929 H              1 S1                 0.0000
     38 ****         2.7407  -2.4471  -1.6900 H              1 S1                 0.0000
     39 ****         1.2588  -3.7993  -0.2742 H              1 S1                 0.0000
     40 ****         0.4590  -4.8858   1.7741 H              1 S1                 0.0000
     41 ****         0.0408  -3.5517   3.8310 H              1 S1                 0.0000
     42 ****         0.4422  -1.0988   3.8201 H              1 S1                 0.0000
     43 ****         1.9863   2.0039  -3.1461 LP             1 S1                 0.0000
     44 ****         1.7435   3.3568  -2.0922 LP             1 S1                 0.0000
     45 ****        -2.5194   0.0983  -0.4101 LP             1 S1                 0.0000
     46 ****         3.5418  -1.8325  -3.7094 LP             1 S1                 0.0000
     47 ****         2.8554  -0.7531  -4.7245 LP             1 S1                 0.0000
     48 ****         1.0844  -0.3490  -0.6883 LP             1 S1                 0.0000
     49 ****         2.6327  -0.7065  -0.3121 LP             1 S1                 0.0000
@<TRIPOS>BOND
    1    1    2 2     
    2    2   11 am    
    3    2    3 1     
    4    3    4 2     
    5    3   24 1     
    6    4    5 1     
    7    4    9 1     
    8    5    8 1     
    9    5    6 1     
   10    5   25 1     
   11    6    7 1     
   12    6   26 1     
   13    6   27 1     
   14    7    8 1     
   15    7   28 1     
   16    7   29 1     
   17    8   30 1     
   18    8   31 1     
   19    9   10 2     
   20   10   11 1     
   21   10   32 1     
   22   11   12 1     
   23   12   13 1     
   24   12   33 1     
   25   12   34 1     
   26   13   14 1     
   27   13   15 1     
   28   13   35 1     
   29   14   36 1     
   30   15   16 1     
   31   15   37 1     
   32   15   38 1     
   33   16   17 1     
   34   17   22 ar    
   35   17   18 ar    
   36   18   19 ar    
   37   18   39 1     
   38   19   20 ar    
   39   19   40 1     
   40   20   21 ar    
   41   20   41 1     
   42   21   22 ar    
   43   21   42 1     
   44   22   23 1     
   45    1   43 1     
   46    1   44 1     
   47    9   45 1     
   48   14   46 1     
   49   14   47 1     
   50   16   48 1     
   51   16   49 1     
@<TRIPOS>SUBSTRUCTURE
      1 S1             1
@<TRIPOS>SET
LONE_PAIRS      STATIC     ATOMS    <user>   **** ""
7 43 44 45 46 47 48 49
DONOR_HYDROGENS      STATIC     ATOMS    <user>   **** ""
1 36
ATOM$BLUE        STATIC     ATOMS    COLORGROUP SYSTEM
7 43 44 45 46 47 48 49
ATOM$RED        STATIC     ATOMS    COLORGROUP SYSTEM
1 36
