#       Name:                AV-unprocessed.smi:290
#       Creating user name   scv26
#       Creation time:       Thu Mar 26 22:11:45 2020


#       File generated by GOLD software.
#

@<TRIPOS>MOLECULE
AV-unprocessed.smi:290
    68    71     1
SMALL
NO_CHARGES


@<TRIPOS>ATOM
      1 ****        -2.9417  -1.1796   3.1017 C.3            1 S1                 0.0000
      2 ****        -4.2228  -1.2097   2.2522 C.3            1 S1                 0.0000
      3 ****        -5.3531  -1.5017   3.0605 O.3            1 S1                 0.0000
      4 ****        -6.3988  -1.8842   2.1855 C.3            1 S1                 0.0000
      5 ****        -5.6961  -2.8160   1.2054 C.3            1 S1                 0.0000
      6 ****        -4.2803  -2.2407   1.0943 C.3            1 S1                 0.0000
      7 ****        -3.3582  -3.2998   1.2916 O.3            1 S1                 0.0000
      8 ****        -4.0146  -1.6170  -0.2982 C.3            1 S1                 0.0000
      9 ****        -2.7032  -0.9975  -0.4221 N.pl3          1 S1                 0.0000
     10 ****        -1.5166  -1.6336  -0.7033 C.2            1 S1                 0.0000
     11 ****        -0.4704  -0.8567  -0.7584 N.2            1 S1                 0.0000
     12 ****        -0.9700   0.4193  -0.5186 C.ar           1 S1                 0.0000
     13 ****        -0.3978   1.7251  -0.4389 C.ar           1 S1                 0.0000
     14 ****         0.9161   2.0205  -0.6256 N.pl3          1 S1                 0.0000
     15 ****         1.5332   3.1808  -0.0089 C.3            1 S1                 0.0000
     16 ****         2.9834   2.7679   0.2027 C.3            1 S1                 0.0000
     17 ****         3.2789   1.8137  -0.9669 C.3            1 S1                 0.0000
     18 ****         4.4208   0.8911  -0.6708 N.4            1 S1                 1.0000
     19 ****         5.6959   1.6369  -0.5036 C.3            1 S1                 0.0000
     20 ****         4.5554  -0.2512  -1.6208 C.3            1 S1                 0.0000
     21 ****         5.5923  -1.3081  -1.1942 C.3            1 S1                 0.0000
     22 ****         5.2335  -1.8703   0.0505 O.3            1 S1                 0.0000
     23 ****         1.9076   1.1289  -1.2199 C.3            1 S1                 0.0000
     24 ****         1.6142   0.9304  -2.7237 C.3            1 S1                 0.0000
     25 ****        -1.2386   2.7542  -0.1554 N.ar           1 S1                 0.0000
     26 ****        -2.5442   2.5381   0.0227 C.ar           1 S1                 0.0000
     27 ****        -3.2120   1.3860  -0.0333 N.ar           1 S1                 0.0000
     28 ****        -2.3773   0.3427  -0.3032 C.ar           1 S1                 0.0000
     29 ****         3.5345   2.4178  -1.8397 H              1 S1                 0.0000
     30 ****         1.8730   0.1819  -0.6826 H              1 S1                 0.0000
     31 ****        -2.0657  -0.9704   2.4875 H              1 S1                 0.0000
     32 ****        -2.7778  -2.1270   3.6157 H              1 S1                 0.0000
     33 ****        -3.0037  -0.4017   3.8628 H              1 S1                 0.0000
     34 ****        -4.3946  -0.2100   1.8521 H              1 S1                 0.0000
     35 ****        -7.2156  -2.3706   2.7191 H              1 S1                 0.0000
     36 ****        -6.7939  -1.0043   1.6750 H              1 S1                 0.0000
     37 ****        -5.6791  -3.8222   1.6282 H              1 S1                 0.0000
     38 ****        -6.2180  -2.8765   0.2497 H              1 S1                 0.0000
     39 ****        -2.4896  -2.9322   1.3455 H              1 S1                 0.0000
     40 ****        -4.1047  -2.3773  -1.0753 H              1 S1                 0.0000
     41 ****        -4.7720  -0.8650  -0.5228 H              1 S1                 0.0000
     42 ****        -1.4504  -2.7006  -0.8607 H              1 S1                 0.0000
     43 ****         1.4623   4.0275  -0.6925 H              1 S1                 0.0000
     44 ****         1.0617   3.4574   0.9351 H              1 S1                 0.0000
     45 ****         3.6470   3.6321   0.2372 H              1 S1                 0.0000
     46 ****         3.0711   2.2366   1.1518 H              1 S1                 0.0000
     47 ****         6.0302   2.0541  -1.4543 H              1 S1                 0.0000
     48 ****         6.4876   1.0016  -0.1105 H              1 S1                 0.0000
     49 ****         5.5995   2.4563   0.2073 H              1 S1                 0.0000
     50 ****         3.6075  -0.7778  -1.7129 H              1 S1                 0.0000
     51 ****         4.8020   0.1320  -2.6119 H              1 S1                 0.0000
     52 ****         5.6148  -2.1107  -1.9319 H              1 S1                 0.0000
     53 ****         6.6054  -0.9107  -1.1501 H              1 S1                 0.0000
     54 ****         5.8536  -2.5517   0.2638 H              1 S1                 0.0000
     55 ****         2.3565   0.3045  -3.2152 H              1 S1                 0.0000
     56 ****         1.6021   1.8867  -3.2478 H              1 S1                 0.0000
     57 ****         0.6443   0.4628  -2.8892 H              1 S1                 0.0000
     58 ****        -3.1384   3.4134   0.2399 H              1 S1                 0.0000
     59 ****         4.2129   0.4733   0.2252 H              1 S1                 0.0000
     60 ****        -5.6207  -0.6918   3.5824 LP             1 S1                 0.0000
     61 ****        -5.1413  -2.2491   3.6902 LP             1 S1                 0.0000
     62 ****        -3.4077  -3.9383   0.5236 LP             1 S1                 0.0000
     63 ****        -3.5742  -3.7821   2.1406 LP             1 S1                 0.0000
     64 ****         0.4784  -1.1194  -0.9338 LP             1 S1                 0.0000
     65 ****         4.3136  -2.2581  -0.0076 LP             1 S1                 0.0000
     66 ****         5.2532  -1.1635   0.7576 LP             1 S1                 0.0000
     67 ****        -0.8758   3.6830  -0.0794 LP             1 S1                 0.0000
     68 ****        -4.1985   1.2983   0.1049 LP             1 S1                 0.0000
@<TRIPOS>BOND
    1    1    2 1     
    2    1   31 1     
    3    1   32 1     
    4    1   33 1     
    5    2    6 1     
    6    2    3 1     
    7    2   34 1     
    8    3    4 1     
    9    4    5 1     
   10    4   35 1     
   11    4   36 1     
   12    5    6 1     
   13    5   37 1     
   14    5   38 1     
   15    6    7 1     
   16    6    8 1     
   17    7   39 1     
   18    8    9 1     
   19    8   40 1     
   20    8   41 1     
   21    9   28 1     
   22    9   10 1     
   23   10   11 2     
   24   10   42 1     
   25   11   12 1     
   26   12   28 ar    
   27   12   13 ar    
   28   13   14 1     
   29   13   25 ar    
   30   14   23 1     
   31   14   15 1     
   32   15   16 1     
   33   15   43 1     
   34   15   44 1     
   35   16   17 1     
   36   16   45 1     
   37   16   46 1     
   38   17   29 1     
   39   17   18 1     
   40   17   23 1     
   41   18   19 1     
   42   18   20 1     
   43   18   59 1     
   44   19   47 1     
   45   19   48 1     
   46   19   49 1     
   47   20   21 1     
   48   20   50 1     
   49   20   51 1     
   50   21   22 1     
   51   21   52 1     
   52   21   53 1     
   53   22   54 1     
   54   23   30 1     
   55   23   24 1     
   56   24   55 1     
   57   24   56 1     
   58   24   57 1     
   59   25   26 ar    
   60   26   27 ar    
   61   26   58 1     
   62   27   28 ar    
   63    3   60 1     
   64    3   61 1     
   65    7   62 1     
   66    7   63 1     
   67   11   64 1     
   68   22   65 1     
   69   22   66 1     
   70   25   67 1     
   71   27   68 1     
@<TRIPOS>SUBSTRUCTURE
      1 S1             1
@<TRIPOS>SET
LONE_PAIRS      STATIC     ATOMS    <user>   **** ""
9 60 61 62 63 64 65 66 67 68
DONOR_HYDROGENS      STATIC     ATOMS    <user>   **** ""
3 39 59 54
ATOM$BLUE        STATIC     ATOMS    COLORGROUP SYSTEM
9 60 61 62 63 64 65 66 67 68
ATOM$RED        STATIC     ATOMS    COLORGROUP SYSTEM
3 39 59 54
