AV-unprocessed.smi:1952|AV-procd|sdf|7884|dock6
  -GOLD-   2272010 33D 1   1.00000     0.00000
 Structure written by MMmdl.
 39 40  0  0  0  0  0  0  0  0  1 V2000
  143.9890  132.4269  149.6066 C   0  0  0  0  0  0  0  0  0  0  0  0
  144.3966  133.4332  150.6274 C   0  0  0  0  0  0  0  0  0  0  0  0
  145.5551  134.1263  150.8395 C   0  0  0  0  0  0  0  0  0  0  0  0
  145.2534  134.9108  151.9844 C   0  0  0  0  0  0  0  0  0  0  0  0
  146.2188  135.7892  152.5388 N   0  0  0  0  0  0  0  0  0  0  0  0
  146.0087  136.7991  153.4001 C   0  0  0  0  0  0  0  0  0  0  0  0
  144.9111  137.1271  153.8516 O   0  0  0  0  0  0  0  0  0  0  0  0
  147.1578  137.4196  153.7081 N   0  0  0  0  0  0  0  0  0  0  0  0
  147.2948  138.5798  154.5876 C   0  0  1  0  0  0  0  0  0  0  0  0
  147.5293  138.0932  156.0238 C   0  0  0  0  0  0  0  0  0  0  0  0
  148.4553  139.4790  154.1088 C   0  0  0  0  0  0  0  0  0  0  0  0
  149.6930  139.3831  154.8841 N   0  0  0  0  0  0  0  0  0  0  0  0
  150.7534  138.6757  154.1690 C   0  0  0  0  0  0  0  0  0  0  0  0
  152.0478  138.5982  154.9967 C   0  0  0  0  0  0  0  0  0  0  0  0
  152.4653  139.9114  155.3565 O   0  0  0  0  0  0  0  0  0  0  0  0
  151.4741  140.6197  156.0934 C   0  0  0  0  0  0  0  0  0  0  0  0
  150.1802  140.7037  155.2657 C   0  0  0  0  0  0  0  0  0  0  0  0
  144.0220  134.7147  152.4304 N   0  0  0  0  0  0  0  0  0  0  0  0
  143.4669  133.7664  151.5632 O   0  0  0  0  0  0  0  0  0  0  0  0
  144.7677  132.2965  148.8549 H   0  0  0  0  0  0  0  0  0  0  0  0
  143.0772  132.7397  149.0975 H   0  0  0  0  0  0  0  0  0  0  0  0
  143.8028  131.4587  150.0718 H   0  0  0  0  0  0  0  0  0  0  0  0
  146.4691  134.0775  150.2665 H   0  0  0  0  0  0  0  0  0  0  0  0
  147.1715  135.6343  152.2450 H   0  0  0  0  0  0  0  0  0  0  0  0
  148.0067  137.0757  153.2841 H   0  0  0  0  0  0  0  0  0  0  0  0
  146.3677  139.1535  154.6016 H   0  0  0  0  0  0  0  0  0  0  0  0
  147.6099  138.9342  156.7130 H   0  0  0  0  0  0  0  0  0  0  0  0
  148.4473  137.5096  156.1027 H   0  0  0  0  0  0  0  0  0  0  0  0
  146.7050  137.4666  156.3662 H   0  0  0  0  0  0  0  0  0  0  0  0
  148.6696  139.2648  153.0606 H   0  0  0  0  0  0  0  0  0  0  0  0
  148.1046  140.5121  154.1321 H   0  0  0  0  0  0  0  0  0  0  0  0
  150.4392  137.6624  153.9228 H   0  0  0  0  0  0  0  0  0  0  0  0
  150.9602  139.1767  153.2221 H   0  0  0  0  0  0  0  0  0  0  0  0
  151.8952  137.9976  155.8950 H   0  0  0  0  0  0  0  0  0  0  0  0
  152.8384  138.1174  154.4202 H   0  0  0  0  0  0  0  0  0  0  0  0
  151.2918  140.1192  157.0457 H   0  0  0  0  0  0  0  0  0  0  0  0
  151.8445  141.6192  156.3218 H   0  0  0  0  0  0  0  0  0  0  0  0
  150.3613  141.3039  154.3726 H   0  0  0  0  0  0  0  0  0  0  0  0
  149.4180  141.2270  155.8442 H   0  0  0  0  0  0  0  0  0  0  0  0
  1  2  1  0  0  0  0
  1 20  1  0  0  0  0
  1 21  1  0  0  0  0
  1 22  1  0  0  0  0
  2 19  1  0  0  0  0
  2  3  2  0  0  0  0
  3  4  1  0  0  0  0
  3 23  1  0  0  0  0
  4  5  1  0  0  0  0
  4 18  2  0  0  0  0
  5  6  1  0  0  0  0
  5 24  1  0  0  0  0
  6  7  2  0  0  0  0
  6  8  1  0  0  0  0
  8  9  1  0  0  0  0
  8 25  1  0  0  0  0
  9 10  1  0  0  0  0
  9 11  1  0  0  0  0
  9 26  1  0  0  0  0
 10 27  1  0  0  0  0
 10 28  1  0  0  0  0
 10 29  1  0  0  0  0
 11 12  1  0  0  0  0
 11 30  1  0  0  0  0
 11 31  1  0  0  0  0
 12 17  1  0  0  0  0
 12 13  1  0  0  0  0
 13 14  1  0  0  0  0
 13 32  1  0  0  0  0
 13 33  1  0  0  0  0
 14 15  1  0  0  0  0
 14 34  1  0  0  0  0
 14 35  1  0  0  0  0
 15 16  1  0  0  0  0
 16 17  1  0  0  0  0
 16 36  1  0  0  0  0
 16 37  1  0  0  0  0
 17 38  1  0  0  0  0
 17 39  1  0  0  0  0
 18 19  1  0  0  0  0
M  END
> <s_m_source_file>
AV-unprocessed.smi

> <i_m_source_file_index>
1952

> <i_lp_mmshare_version>
43012

> <i_f3d_flags>
0

> <s_epik_input>
W0NIM11jMVtjSF1jKG5vMSlbTkhdQyg9TylbTkhdW0NASF0oW0NIM10pW0NIMl1OMltDSDJdW0NIMl1PW0NIMl1bQ0gyXTI=

> <s_epik_cmdline>
J2VwaWtfcHl0aG9uJywgJy1waCcsICc3LjAnLCAnLXRuJywgJzgnLCAnLW1hJywgJzIwMCcsICctbWV0YWxfYmluZGluZycsICctaW1hZScsICc8aW5maWxlLm1hZT4nLCAnLW9tYWUnLCAnPG91dGZpbGUubWFlPic=

> <r_epik_Ionization_Penalty>
0.214075

> <r_epik_Ionization_Penalty_Charging>
0

> <r_epik_Ionization_Penalty_Neutral>
0.214075

> <r_epik_State_Penalty>
0.204211

> <r_epik_Charging_Adjusted_Penalty>
0.204211

> <i_epik_Tot_Q>
0

> <i_epik_Tot_abs_Q>
0

> <r_epik_Metal_State_Penalty>
0.218782

> <b_epik_Metal_Only>
0

> <s_lp_Force_Field>
OPLS_2005

> <r_lp_Energy>
23.1471

> <b_lp_Chiralities_Consistent>
1

> <s_lp_Variant>
AV-unprocessed.smi:1952-2

> <Gold.Version>
5.8.1

> <Gold.Id.Protein>
6NUR|6NUR_protein|mol2

> <Gold.PLP.Fitness>
35.4935

> <Gold.PLP.PLP>
-29.5607

> <Gold.PLP.part.hbond>
-3.9761

> <Gold.PLP.part.metal>
0.0000

> <Gold.PLP.part.buried>
-5.0275

> <Gold.PLP.part.nonpolar>
-20.7401

> <Gold.PLP.part.repulsive>
0.4772

> <Gold.PLP.ligand.clash>
0.0000

> <Gold.PLP.ligand.torsion>
1.7267

> <Gold.PLP.Chemscore.Hbond>
3.1208

> <Gold.PLP.Chemscore.CHOScore>
0.0000

> <Gold.PLP.Chemscore.Metal>
0.0000

> <Gold.Chemscore.Hbonds>
donor molecule, donor type, donor heavy atom, donor atom, acceptor molecule, acceptor atom, score
      L1  H     5    24       P1  7948  1.00
      L1  H     8    25       P1  7948  1.00
      P1  H  7989  7998       L1    15  0.10
      P1  H  7997  8008       L1    15  0.94

> <Gold.PLP.Chemscore.Internal.Correction>
0.0236

> <Gold.Rescore>
     Score         DG    S(hbond)    S(metal)    S(lipo)     H(rot)  DE(clash)    DE(int)     intcor
     15.46     -18.36       2.90        0.00      61.31       1.56       0.01       2.88       ----

> <Gold.Chemscore.Fitness>
15.4643

> <Gold.Chemscore.DG>
-18.3557

> <Gold.Chemscore.ZeroCoef>
-5.4800

> <Gold.Chemscore.Hbond>
2.9029

> <Gold.Chemscore.Metal>
0.0000

> <Gold.Chemscore.Lipo>
61.3065

> <Gold.Chemscore.Internal_Hbond>
0.0000

> <Gold.Chemscore.DEClash>
0.0098

> <Gold.Chemscore.DEInternal>
2.8816

> <Gold.Chemscore.Rot>
1.5597

> <Gold.Chemscore.Internal.Correction>
   9.000000E+99

> <Gold.Chemscore.Hbonds>
donor molecule, donor type, donor heavy atom, donor atom, acceptor molecule, acceptor atom, score
      L1  H     5    24       P1  7948  0.97
      L1  H     8    25       P1  7948  0.96
      P1  H  7997  8008       L1    15  0.77

> <Gold.Chemscore.Hbond.Weighted>
-9.6957

> <Gold.Chemscore.Metal.Weighted>
-0.0000

> <Gold.Chemscore.Lipo.Weighted>
-7.1729

> <Gold.Chemscore.Internal_Hbond.Weighted>
0.0000

> <Gold.Chemscore.DEClash.Weighted>
0.0098

> <Gold.Chemscore.DEInternal.Weighted>
2.8816

> <Gold.Chemscore.Rot.Weighted>
3.9928

> <Gold.Chemscore.Internal.Correction.Weighted>
   9.000000E+99

> <Gold.Protein.RotatedTorsions>
[ 6907 6896 6895 6894 ] final   52.15 input  -60.11 | X-H torsion
[ 7974 7965 7964 7962 ] final   60.28 input  175.53 | X-H torsion
[ 8008 7997 7996 7995 ] final  -27.95 input   59.86 | X-H torsion
[ 10167 10162 10161 10158 ] final -128.86 input  -65.29 | X-H torsion
[ 10718 10713 10712 10709 ] final  167.20 input   66.30 | X-H torsion
[ 10763 10752 10751 10750 ] final   71.01 input  -60.55 | X-H torsion
[ 11005 11000 10999 10996 ] final  -80.23 input  -57.11 | X-H torsion

> <Gold.Protein.ActiveResidues>
 VAL166  LYS551  ARG553  GLY616  TRP617  ASP618  TYR619  PRO620  LYS621  CYS622 
 ASP623  PHE694  ASN695  SER759  ASP760  ASP761  ALA762  ILE779  LEU786  VAL792 
 PHE793  MET794  SER795  GLU796  ALA797  LYS798  CYS799  TRP800  GLU811  SER814 

> <Gold.Protein.RotatedAtoms>
  152.3202  134.7390  160.0315 H   0  0  0  0  0  0  0  0  0  0  0  0  # atno 6907 bound_to 6896
  151.7841  133.3347  159.3488 H   0  0  0  0  0  0  0  0  0  0  0  0  # atno 6908 bound_to 6896
  150.7366  134.5835  159.5995 H   0  0  0  0  0  0  0  0  0  0  0  0  # atno 6909 bound_to 6896
  145.8977  139.3558  143.0611 H   0  0  0  0  0  0  0  0  0  0  0  0  # atno 7974 bound_to 7965
  154.4354  140.1858  156.1013 H   0  0  0  0  0  0  0  0  0  0  0  0  # atno 8008 bound_to 7997
  156.0290  140.3332  155.7093 H   0  0  0  0  0  0  0  0  0  0  0  0  # atno 8009 bound_to 7997
  155.5867  140.0627  157.2760 H   0  0  0  0  0  0  0  0  0  0  0  0  # atno 8010 bound_to 7997
  139.9458  143.6111  152.2490 H   0  0  0  0  0  0  0  0  0  0  0  0  # atno 10167 bound_to 10162
  157.0550  131.0324  151.2667 H   0  0  0  0  0  0  0  0  0  0  0  0  # atno 10718 bound_to 10713
  153.0374  135.5153  154.7528 H   0  0  0  0  0  0  0  0  0  0  0  0  # atno 10763 bound_to 10752
  154.6493  135.2923  155.0009 H   0  0  0  0  0  0  0  0  0  0  0  0  # atno 10764 bound_to 10752
  154.0899  135.6652  153.4903 H   0  0  0  0  0  0  0  0  0  0  0  0  # atno 10765 bound_to 10752
  141.1668  133.7141  156.8242 H   0  0  0  0  0  0  0  0  0  0  0  0  # atno 11005 bound_to 11000
  145.8829  140.9351  143.0592 LP  0  0  0  0  0  0  0  0  0  0  0  0  # atno 17320 bound_to 7965
  144.6734  140.0804  143.7469 LP  0  0  0  0  0  0  0  0  0  0  0  0  # atno 17321 bound_to 7965
  139.6667  144.7662  151.1859 LP  0  0  0  0  0  0  0  0  0  0  0  0  # atno 17342 bound_to 10162
  140.7597  143.5926  150.8780 LP  0  0  0  0  0  0  0  0  0  0  0  0  # atno 17343 bound_to 10162
  157.5000  130.7874  149.7595 LP  0  0  0  0  0  0  0  0  0  0  0  0  # atno 17370 bound_to 10713
  155.9996  130.3888  150.2659 LP  0  0  0  0  0  0  0  0  0  0  0  0  # atno 17371 bound_to 10713
  140.2097  134.8836  157.3261 LP  0  0  0  0  0  0  0  0  0  0  0  0  # atno 17394 bound_to 11000
  140.2100  134.4151  155.7618 LP  0  0  0  0  0  0  0  0  0  0  0  0  # atno 17395 bound_to 11000

$$$$
