#       Name:                AV-unprocessed.smi:1464
#       Creating user name   scv26
#       Creation time:       Fri Mar 27 06:02:40 2020


#       File generated by GOLD software.
#

@<TRIPOS>MOLECULE
AV-unprocessed.smi:1464
    48    49     1
SMALL
NO_CHARGES


@<TRIPOS>ATOM
      1 ****        -4.3680  -1.2170  -0.5556 C.3            1 S1                 0.0000
      2 ****        -3.4295  -0.0953  -0.0801 C.3            1 S1                 0.0000
      3 ****        -4.0004   0.6470   1.1454 C.3            1 S1                 0.0000
      4 ****        -3.1080   1.8297   1.5540 C.3            1 S1                 0.0000
      5 ****        -1.6556   1.3877   1.7877 C.3            1 S1                 0.0000
      6 ****        -1.0912   0.6514   0.5575 C.3            1 S1                 0.0000
      7 ****         0.3012   0.2791   0.7982 N.am           1 S1                 0.0000
      8 ****         1.2253   0.0679  -0.1515 C.2            1 S1                 0.0000
      9 ****         0.9860   0.1524  -1.3571 O.2            1 S1                 0.0000
     10 ****         2.6243  -0.3215   0.3476 C.3            1 S1                 0.0000
     11 ****         3.6914  -0.0277  -0.6201 N.am           1 S1                 0.0000
     12 ****         4.1137  -1.1285  -1.3503 N.2            1 S1                 0.0000
     13 ****         5.0378  -0.9951  -2.2407 C.2            1 S1                 0.0000
     14 ****         5.4228  -2.1098  -2.9441 O.3            1 S1                 0.0000
     15 ****         5.6535   0.2889  -2.4945 C.2            1 S1                 0.0000
     16 ****         5.2387   1.3545  -1.7749 C.2            1 S1                 0.0000
     17 ****         4.1920   1.2387  -0.7579 C.2            1 S1                 0.0000
     18 ****         3.7959   2.1916  -0.0869 O.2            1 S1                 0.0000
     19 ****        -1.9714  -0.5676   0.1652 C.3            1 S1                 0.0000
     20 ****        -1.8626  -1.7438   1.1637 C.3            1 S1                 0.0000
     21 ****         4.8825  -2.8121  -2.6161 H              1 S1                 0.0000
     22 ****        -4.5623  -1.9445   0.2324 H              1 S1                 0.0000
     23 ****        -3.9464  -1.7482  -1.4092 H              1 S1                 0.0000
     24 ****        -5.3312  -0.8109  -0.8657 H              1 S1                 0.0000
     25 ****        -3.3899   0.6276  -0.8967 H              1 S1                 0.0000
     26 ****        -5.0033   1.0132   0.9229 H              1 S1                 0.0000
     27 ****        -4.1083  -0.0398   1.9853 H              1 S1                 0.0000
     28 ****        -3.1338   2.5904   0.7726 H              1 S1                 0.0000
     29 ****        -3.5035   2.3003   2.4545 H              1 S1                 0.0000
     30 ****        -1.0434   2.2626   2.0103 H              1 S1                 0.0000
     31 ****        -1.6045   0.7482   2.6695 H              1 S1                 0.0000
     32 ****        -1.1054   1.3611  -0.2725 H              1 S1                 0.0000
     33 ****         0.5838   0.1802   1.7625 H              1 S1                 0.0000
     34 ****         2.8303   0.1848   1.2926 H              1 S1                 0.0000
     35 ****         2.6123  -1.3871   0.5839 H              1 S1                 0.0000
     36 ****         6.4259   0.3829  -3.2435 H              1 S1                 0.0000
     37 ****         5.6898   2.3194  -1.9542 H              1 S1                 0.0000
     38 ****        -1.5957  -0.9421  -0.7882 H              1 S1                 0.0000
     39 ****        -2.2379  -1.4798   2.1517 H              1 S1                 0.0000
     40 ****        -0.8309  -2.0743   1.2829 H              1 S1                 0.0000
     41 ****        -2.4230  -2.6126   0.8202 H              1 S1                 0.0000
     42 ****         0.0656   0.3885  -1.6688 LP             1 S1                 0.0000
     43 ****         1.7121  -0.0152  -2.0240 LP             1 S1                 0.0000
     44 ****         3.7022  -2.0252  -1.1868 LP             1 S1                 0.0000
     45 ****         6.3897  -2.3081  -2.7838 LP             1 S1                 0.0000
     46 ****         5.2676  -1.9768  -3.9230 LP             1 S1                 0.0000
     47 ****         3.0770   2.0582   0.5954 LP             1 S1                 0.0000
     48 ****         4.1929   3.0991  -0.2241 LP             1 S1                 0.0000
@<TRIPOS>BOND
    1    1    2 1     
    2    1   22 1     
    3    1   23 1     
    4    1   24 1     
    5    2   19 1     
    6    2    3 1     
    7    2   25 1     
    8    3    4 1     
    9    3   26 1     
   10    3   27 1     
   11    4    5 1     
   12    4   28 1     
   13    4   29 1     
   14    5    6 1     
   15    5   30 1     
   16    5   31 1     
   17    6    7 1     
   18    6   19 1     
   19    6   32 1     
   20    7    8 am    
   21    7   33 1     
   22    8    9 2     
   23    8   10 1     
   24   10   34 1     
   25   10   35 1     
   26   10   11 1     
   27   11   12 1     
   28   11   17 am    
   29   12   13 2     
   30   13   14 1     
   31   13   15 1     
   32   14   21 1     
   33   15   36 1     
   34   15   16 2     
   35   16   37 1     
   36   16   17 1     
   37   17   18 2     
   38   19   20 1     
   39   19   38 1     
   40   20   39 1     
   41   20   40 1     
   42   20   41 1     
   43    9   42 1     
   44    9   43 1     
   45   12   44 1     
   46   14   45 1     
   47   14   46 1     
   48   18   47 1     
   49   18   48 1     
@<TRIPOS>SUBSTRUCTURE
      1 S1             1
@<TRIPOS>SET
LONE_PAIRS      STATIC     ATOMS    <user>   **** ""
7 42 43 44 45 46 47 48
DONOR_HYDROGENS      STATIC     ATOMS    <user>   **** ""
2 33 21
ATOM$BLUE        STATIC     ATOMS    COLORGROUP SYSTEM
7 42 43 44 45 46 47 48
ATOM$RED        STATIC     ATOMS    COLORGROUP SYSTEM
2 33 21
