AV-unprocessed.smi:2039|AV-procd|sdf|8283|dock5
  -GOLD-   2272010553D 1   1.00000     0.00000
 Structure written by MMmdl.
 33 34  0  0  0  0  0  0  0  0  1 V2000
  152.6396  132.6141  157.3880 C   0  0  0  0  0  0  0  0  0  0  0  0
  151.7191  133.3014  156.4380 C   0  0  0  0  0  0  0  0  0  0  0  0
  151.6595  134.6335  156.3202 N   0  0  0  0  0  0  0  0  0  0  0  0
  150.7292  135.0368  155.3725 N   0  0  0  0  0  0  0  0  0  0  0  0
  150.1127  133.9929  154.8013 C   0  0  0  0  0  0  0  0  0  0  0  0
  149.1138  134.1173  153.7996 N   0  0  0  0  0  0  0  0  0  0  0  0
  148.2402  133.1878  153.3738 C   0  0  0  0  0  0  0  0  0  0  0  0
  148.1575  132.0374  153.8050 O   0  0  0  0  0  0  0  0  0  0  0  0
  147.4502  133.6730  152.4047 N   0  0  0  0  0  0  0  0  0  0  0  0
  146.3964  132.9266  151.7234 C   0  0  2  0  0  0  0  0  0  0  0  0
  146.7014  132.8621  150.2159 C   0  0  0  0  0  0  0  0  0  0  0  0
  145.5937  132.1200  149.4477 C   0  0  0  0  0  0  0  0  0  0  0  0
  144.2007  132.7254  149.7037 C   0  0  2  0  0  0  0  0  0  0  0  0
  144.1043  133.9949  149.0885 O   0  0  0  0  0  0  0  0  0  0  0  0
  143.9021  132.8435  151.2104 C   0  0  0  0  0  0  0  0  0  0  0  0
  145.0201  133.5759  151.9733 C   0  0  0  0  0  0  0  0  0  0  0  0
  150.6248  132.4170  155.3816 S   0  0  0  0  0  0  0  0  0  0  0  0
  153.1890  133.3412  157.9871 H   0  0  0  0  0  0  0  0  0  0  0  0
  153.3550  132.0037  156.8368 H   0  0  0  0  0  0  0  0  0  0  0  0
  152.0703  131.9694  158.0576 H   0  0  0  0  0  0  0  0  0  0  0  0
  149.0592  135.0210  153.3535 H   0  0  0  0  0  0  0  0  0  0  0  0
  147.5873  134.6298  152.1135 H   0  0  0  0  0  0  0  0  0  0  0  0
  146.3801  131.9049  152.1083 H   0  0  0  0  0  0  0  0  0  0  0  0
  146.8078  133.8715  149.8157 H   0  0  0  0  0  0  0  0  0  0  0  0
  147.6568  132.3636  150.0490 H   0  0  0  0  0  0  0  0  0  0  0  0
  145.8146  132.1171  148.3797 H   0  0  0  0  0  0  0  0  0  0  0  0
  145.5890  131.0746  149.7590 H   0  0  0  0  0  0  0  0  0  0  0  0
  143.4457  132.0899  149.2395 H   0  0  0  0  0  0  0  0  0  0  0  0
  144.8270  134.0931  148.4876 H   0  0  0  0  0  0  0  0  0  0  0  0
  142.9476  133.3466  151.3695 H   0  0  0  0  0  0  0  0  0  0  0  0
  143.7895  131.8424  151.6286 H   0  0  0  0  0  0  0  0  0  0  0  0
  144.7911  133.5735  153.0397 H   0  0  0  0  0  0  0  0  0  0  0  0
  145.0448  134.6229  151.6677 H   0  0  0  0  0  0  0  0  0  0  0  0
  1  2  1  0  0  0  0
  1 18  1  0  0  0  0
  1 19  1  0  0  0  0
  1 20  1  0  0  0  0
  2 17  1  0  0  0  0
  2  3  2  0  0  0  0
  3  4  1  0  0  0  0
  4  5  2  0  0  0  0
  5  6  1  0  0  0  0
  5 17  1  0  0  0  0
  6  7  1  0  0  0  0
  6 21  1  0  0  0  0
  7  8  2  0  0  0  0
  7  9  1  0  0  0  0
  9 10  1  0  0  0  0
  9 22  1  0  0  0  0
 10 16  1  0  0  0  0
 10 11  1  0  0  0  0
 10 23  1  0  0  0  0
 11 12  1  0  0  0  0
 11 24  1  0  0  0  0
 11 25  1  0  0  0  0
 12 13  1  0  0  0  0
 12 26  1  0  0  0  0
 12 27  1  0  0  0  0
 13 14  1  0  0  0  0
 13 15  1  0  0  0  0
 13 28  1  0  0  0  0
 14 29  1  0  0  0  0
 15 16  1  0  0  0  0
 15 30  1  0  0  0  0
 15 31  1  0  0  0  0
 16 32  1  0  0  0  0
 16 33  1  0  0  0  0
M  END
> <s_m_source_file>
AV-unprocessed.smi

> <i_m_source_file_index>
2039

> <i_lp_mmshare_version>
43012

> <i_f3d_flags>
0

> <s_epik_input>
W0NIM11jMW5uYyhzMSlbTkhdQyg9TylbTkhdW0NAQEhdMltDSDJdW0NIMl1bQ0BASF0oW09IXSlbQ0gyXVtDSDJdMg==

> <s_epik_cmdline>
J2VwaWtfcHl0aG9uJywgJy1waCcsICc3LjAnLCAnLXRuJywgJzgnLCAnLW1hJywgJzIwMCcsICctbWV0YWxfYmluZGluZycsICctaW1hZScsICc8aW5maWxlLm1hZT4nLCAnLW9tYWUnLCAnPG91dGZpbGUubWFlPic=

> <r_lp_tautomer_probability>
1

> <r_epik_Ionization_Penalty>
0.000385244

> <r_epik_Ionization_Penalty_Charging>
0

> <r_epik_Ionization_Penalty_Neutral>
0.000385244

> <r_epik_State_Penalty>
-0

> <r_epik_Charging_Adjusted_Penalty>
0

> <i_epik_Tot_Q>
0

> <i_epik_Tot_abs_Q>
0

> <r_epik_Metal_State_Penalty>
0.189642

> <b_epik_Metal_Only>
0

> <s_lp_Force_Field>
OPLS_2005

> <r_lp_Energy>
9.23932

> <b_lp_Chiralities_Consistent>
1

> <s_lp_Variant>
AV-unprocessed.smi:2039-2

> <Gold.Version>
5.8.1

> <Gold.Id.Protein>
6NUR|6NUR_protein|mol2

> <Gold.PLP.Fitness>
38.2619

> <Gold.PLP.PLP>
-28.5562

> <Gold.PLP.part.hbond>
-4.9263

> <Gold.PLP.part.metal>
0.0000

> <Gold.PLP.part.buried>
-0.2680

> <Gold.PLP.part.nonpolar>
-20.1938

> <Gold.PLP.part.repulsive>
0.2057

> <Gold.PLP.ligand.clash>
0.0000

> <Gold.PLP.ligand.torsion>
0.0580

> <Gold.PLP.Chemscore.Hbond>
3.2729

> <Gold.PLP.Chemscore.CHOScore>
0.0000

> <Gold.PLP.Chemscore.Metal>
0.0000

> <Gold.Chemscore.Hbonds>
donor molecule, donor type, donor heavy atom, donor atom, acceptor molecule, acceptor atom, score
      L1  H     6    21       P1  7948  0.95
      L1  H     9    22       P1  7948  0.83
      L1  H    14    29       P1  7921  1.00
      P1  H 10752 10765       L1     3  0.39

> <Gold.PLP.Chemscore.Internal.Correction>
0.0030

> <Gold.Rescore>
     Score         DG    S(hbond)    S(metal)    S(lipo)     H(rot)  DE(clash)    DE(int)     intcor
     13.74     -16.51       2.18        0.00      64.77       1.50       1.54       1.23       ----

> <Gold.Chemscore.Fitness>
13.7418

> <Gold.Chemscore.DG>
-16.5108

> <Gold.Chemscore.ZeroCoef>
-5.4800

> <Gold.Chemscore.Hbond>
2.1836

> <Gold.Chemscore.Metal>
0.0000

> <Gold.Chemscore.Lipo>
64.7743

> <Gold.Chemscore.Internal_Hbond>
0.0000

> <Gold.Chemscore.DEClash>
1.5365

> <Gold.Chemscore.DEInternal>
1.2324

> <Gold.Chemscore.Rot>
1.5004

> <Gold.Chemscore.Internal.Correction>
   9.000000E+99

> <Gold.Chemscore.Hbonds>
donor molecule, donor type, donor heavy atom, donor atom, acceptor molecule, acceptor atom, score
      L1  H     6    21       P1  7948  0.21
      L1  H     9    22       P1  7948  0.51
      L1  H    14    29       P1  7921  1.00
      P1  H 10752 10765       L1     3  0.04

> <Gold.Chemscore.Hbond.Weighted>
-7.2931

> <Gold.Chemscore.Metal.Weighted>
-0.0000

> <Gold.Chemscore.Lipo.Weighted>
-7.5786

> <Gold.Chemscore.Internal_Hbond.Weighted>
0.0000

> <Gold.Chemscore.DEClash.Weighted>
1.5365

> <Gold.Chemscore.DEInternal.Weighted>
1.2324

> <Gold.Chemscore.Rot.Weighted>
3.8409

> <Gold.Chemscore.Internal.Correction.Weighted>
   9.000000E+99

> <Gold.Protein.RotatedTorsions>
[ 6907 6896 6895 6894 ] final   23.85 input  -60.11 | X-H torsion
[ 7974 7965 7964 7962 ] final  132.94 input  175.53 | X-H torsion
[ 8008 7997 7996 7995 ] final  132.92 input   59.86 | X-H torsion
[ 10167 10162 10161 10158 ] final   95.20 input  -65.29 | X-H torsion
[ 10718 10713 10712 10709 ] final   -6.06 input   66.30 | X-H torsion
[ 10763 10752 10751 10750 ] final -132.34 input  -60.55 | X-H torsion
[ 11005 11000 10999 10996 ] final -142.31 input  -57.11 | X-H torsion

> <Gold.Protein.ActiveResidues>
 VAL166  LYS551  ARG553  GLY616  TRP617  ASP618  TYR619  PRO620  LYS621  CYS622 
 ASP623  PHE694  ASN695  SER759  ASP760  ASP761  ALA762  ILE779  LEU786  VAL792 
 PHE793  MET794  SER795  GLU796  ALA797  LYS798  CYS799  TRP800  GLU811  SER814 

> <Gold.Protein.RotatedAtoms>
  151.9486  135.0180  160.0540 H   0  0  0  0  0  0  0  0  0  0  0  0  # atno 6907 bound_to 6896
  152.1973  133.4811  159.5048 H   0  0  0  0  0  0  0  0  0  0  0  0  # atno 6908 bound_to 6896
  150.6947  134.1553  159.4198 H   0  0  0  0  0  0  0  0  0  0  0  0  # atno 6909 bound_to 6896
  144.9916  139.4401  143.5336 H   0  0  0  0  0  0  0  0  0  0  0  0  # atno 7974 bound_to 7965
  156.2987  140.2534  156.3169 H   0  0  0  0  0  0  0  0  0  0  0  0  # atno 8008 bound_to 7997
  154.9273  140.0399  157.2048 H   0  0  0  0  0  0  0  0  0  0  0  0  # atno 8009 bound_to 7997
  154.8253  140.2867  155.5763 H   0  0  0  0  0  0  0  0  0  0  0  0  # atno 8010 bound_to 7997
  139.8011  144.6813  150.9764 H   0  0  0  0  0  0  0  0  0  0  0  0  # atno 10167 bound_to 10162
  156.7375  130.5199  149.5831 H   0  0  0  0  0  0  0  0  0  0  0  0  # atno 10718 bound_to 10713
  154.8744  135.3801  154.4394 H   0  0  0  0  0  0  0  0  0  0  0  0  # atno 10763 bound_to 10752
  153.5080  135.7030  153.5801 H   0  0  0  0  0  0  0  0  0  0  0  0  # atno 10764 bound_to 10752
  153.4103  135.3926  155.2012 H   0  0  0  0  0  0  0  0  0  0  0  0  # atno 10765 bound_to 10752
  140.8238  134.2599  157.4888 H   0  0  0  0  0  0  0  0  0  0  0  0  # atno 11005 bound_to 11000
  146.3432  139.9251  142.8761 LP  0  0  0  0  0  0  0  0  0  0  0  0  # atno 17320 bound_to 7965
  145.2278  140.9961  143.4008 LP  0  0  0  0  0  0  0  0  0  0  0  0  # atno 17321 bound_to 7965
  140.7820  143.4281  151.0737 LP  0  0  0  0  0  0  0  0  0  0  0  0  # atno 17342 bound_to 10162
  139.7953  143.8161  152.3157 LP  0  0  0  0  0  0  0  0  0  0  0  0  # atno 17343 bound_to 10162
  156.1487  130.6295  151.0566 LP  0  0  0  0  0  0  0  0  0  0  0  0  # atno 17370 bound_to 10713
  157.6833  131.0832  150.7312 LP  0  0  0  0  0  0  0  0  0  0  0  0  # atno 17371 bound_to 10713
  139.8707  134.9549  156.4192 LP  0  0  0  0  0  0  0  0  0  0  0  0  # atno 17394 bound_to 11000
  140.9071  133.7738  155.9747 LP  0  0  0  0  0  0  0  0  0  0  0  0  # atno 17395 bound_to 11000

$$$$
