#       Name:                AV-unprocessed.smi:1796
#       Creating user name   scv26
#       Creation time:       Fri Mar 27 08:50:33 2020


#       File generated by GOLD software.
#

@<TRIPOS>MOLECULE
AV-unprocessed.smi:1796
    47    48     1
SMALL
NO_CHARGES


@<TRIPOS>ATOM
      1 ****        -4.9299  -1.4114  -1.8540 C.3            1 S1                 0.0000
      2 ****        -3.4491  -1.1785  -2.1619 C.2            1 S1                 0.0000
      3 ****        -2.8350  -2.0679  -2.7515 O.2            1 S1                 0.0000
      4 ****        -2.8669  -0.0166  -1.7785 N.am           1 S1                 0.0000
      5 ****        -3.5213   1.0482  -1.0066 C.3            1 S1                 0.0000
      6 ****        -2.9197   1.0746   0.4100 C.3            1 S1                 0.0000
      7 ****        -1.3900   1.2497   0.3564 C.3            1 S1                 0.0000
      8 ****        -0.7311   0.2277  -0.5991 C.3            1 S1                 0.0000
      9 ****         0.7714   0.4991  -0.7427 C.2            1 S1                 0.0000
     10 ****         1.1678   1.5395  -1.2690 O.2            1 S1                 0.0000
     11 ****         1.5937  -0.4463  -0.2636 N.am           1 S1                 0.0000
     12 ****         3.0528  -0.3737  -0.2350 C.3            1 S1                 0.0000
     13 ****         3.6304  -1.0962  -1.4608 C.3            1 S1                 0.0000
     14 ****         3.5847  -0.9719   1.0816 C.3            1 S1                 0.0000
     15 ****         3.1243  -0.2346   2.2458 N.pl3          1 S1                 0.0000
     16 ****         3.6140   0.9478   2.7595 C.2            1 S1                 0.0000
     17 ****         2.8546   1.2621   3.8499 C.2            1 S1                 0.0000
     18 ****         1.9131   0.1976   3.9247 C.2            1 S1                 0.0000
     19 ****         2.0778  -0.6973   2.9642 N.2            1 S1                 0.0000
     20 ****        -1.4369   0.2550  -1.9736 C.3            1 S1                 0.0000
     21 ****        -5.1158  -1.3559  -0.7811 H              1 S1                 0.0000
     22 ****        -5.2412  -2.3998  -2.1938 H              1 S1                 0.0000
     23 ****        -5.5511  -0.6734  -2.3622 H              1 S1                 0.0000
     24 ****        -3.3493   2.0051  -1.5018 H              1 S1                 0.0000
     25 ****        -4.6036   0.9438  -0.9472 H              1 S1                 0.0000
     26 ****        -3.3668   1.8796   0.9940 H              1 S1                 0.0000
     27 ****        -3.1634   0.1451   0.9264 H              1 S1                 0.0000
     28 ****        -1.1656   2.2653   0.0259 H              1 S1                 0.0000
     29 ****        -0.9722   1.1538   1.3594 H              1 S1                 0.0000
     30 ****        -0.8615  -0.7692  -0.1729 H              1 S1                 0.0000
     31 ****         1.1745  -1.2654   0.1528 H              1 S1                 0.0000
     32 ****         3.3706   0.6698  -0.2787 H              1 S1                 0.0000
     33 ****         4.7194  -1.0447  -1.4688 H              1 S1                 0.0000
     34 ****         3.2738  -0.6456  -2.3877 H              1 S1                 0.0000
     35 ****         3.3466  -2.1491  -1.4713 H              1 S1                 0.0000
     36 ****         3.2876  -2.0177   1.1781 H              1 S1                 0.0000
     37 ****         4.6752  -0.9569   1.0860 H              1 S1                 0.0000
     38 ****         4.4498   1.4626   2.3088 H              1 S1                 0.0000
     39 ****         2.9549   2.1222   4.4952 H              1 S1                 0.0000
     40 ****         1.1205   0.0495   4.6432 H              1 S1                 0.0000
     41 ****        -0.9654  -0.4567  -2.6535 H              1 S1                 0.0000
     42 ****        -1.3233   1.2323  -2.4462 H              1 S1                 0.0000
     43 ****        -3.3050  -2.9107  -3.0139 LP             1 S1                 0.0000
     44 ****        -1.8661  -1.9476  -2.9680 LP             1 S1                 0.0000
     45 ****         0.5089   2.2123  -1.6052 LP             1 S1                 0.0000
     46 ****         2.1487   1.7115  -1.3602 LP             1 S1                 0.0000
     47 ****         1.5468  -1.5297   2.8055 LP             1 S1                 0.0000
@<TRIPOS>BOND
    1    1    2 1     
    2    1   21 1     
    3    1   22 1     
    4    1   23 1     
    5    2    3 2     
    6    2    4 am    
    7    4   20 1     
    8    4    5 1     
    9    5    6 1     
   10    5   24 1     
   11    5   25 1     
   12    6    7 1     
   13    6   26 1     
   14    6   27 1     
   15    7    8 1     
   16    7   28 1     
   17    7   29 1     
   18    8    9 1     
   19    8   20 1     
   20    8   30 1     
   21    9   10 2     
   22    9   11 am    
   23   11   12 1     
   24   11   31 1     
   25   12   13 1     
   26   12   14 1     
   27   12   32 1     
   28   13   33 1     
   29   13   34 1     
   30   13   35 1     
   31   14   15 1     
   32   14   36 1     
   33   14   37 1     
   34   15   19 1     
   35   15   16 1     
   36   16   17 2     
   37   16   38 1     
   38   17   18 1     
   39   17   39 1     
   40   18   19 2     
   41   18   40 1     
   42   20   41 1     
   43   20   42 1     
   44    3   43 1     
   45    3   44 1     
   46   10   45 1     
   47   10   46 1     
   48   19   47 1     
@<TRIPOS>SUBSTRUCTURE
      1 S1             1
@<TRIPOS>SET
LONE_PAIRS      STATIC     ATOMS    <user>   **** ""
5 43 44 45 46 47
DONOR_HYDROGENS      STATIC     ATOMS    <user>   **** ""
1 31
ATOM$BLUE        STATIC     ATOMS    COLORGROUP SYSTEM
5 43 44 45 46 47
ATOM$RED        STATIC     ATOMS    COLORGROUP SYSTEM
1 31
