#       Name:                AV-unprocessed.smi:1651
#       Creating user name   scv26
#       Creation time:       Fri Mar 27 07:34:05 2020


#       File generated by GOLD software.
#

@<TRIPOS>MOLECULE
AV-unprocessed.smi:1651
    46    48     1
SMALL
NO_CHARGES


@<TRIPOS>ATOM
      1 ****         3.1289  -0.6784  -0.3123 O.2            1 S1                 0.0000
      2 ****         2.5967  -1.7864  -0.3755 C.2            1 S1                 0.0000
      3 ****         3.2836  -2.9373  -0.3792 N.am           1 S1                 0.0000
      4 ****         4.7345  -3.0421  -0.2923 C.3            1 S1                 0.0000
      5 ****         5.3103  -2.8260   1.0946 C.3            1 S1                 0.0000
      6 ****         5.8592  -1.4813   1.5145 C.3            1 S1                 0.0000
      7 ****         6.7983  -2.6389   1.2803 C.3            1 S1                 0.0000
      8 ****         1.2740  -2.0087  -0.4668 N.am           1 S1                 0.0000
      9 ****         0.2133  -1.0624  -0.4606 C.ar           1 S1                 0.0000
     10 ****        -1.0507  -1.4882  -0.9182 C.ar           1 S1                 0.0000
     11 ****        -2.1384  -0.5910  -0.9155 C.ar           1 S1                 0.0000
     12 ****        -1.9607   0.7336  -0.4421 C.ar           1 S1                 0.0000
     13 ****        -2.9887   1.7030  -0.4048 N.3            1 S1                 0.0000
     14 ****        -4.2692   1.3657  -1.0305 C.3            1 S1                 0.0000
     15 ****        -5.1269   2.6195  -1.2731 C.3            1 S1                 0.0000
     16 ****        -5.2905   3.4376   0.0149 C.3            1 S1                 0.0000
     17 ****        -3.9097   3.7860   0.5873 C.3            1 S1                 0.0000
     18 ****        -3.0661   2.5197   0.8112 C.3            1 S1                 0.0000
     19 ****        -0.7292   1.0910  -0.0032 N.pl3          1 S1                 1.0000
     20 ****         0.3399   0.2662   0.0095 C.ar           1 S1                 0.0000
     21 ****         2.7681  -3.8033  -0.4401 H              1 S1                 0.0000
     22 ****         5.0110  -4.0441  -0.6207 H              1 S1                 0.0000
     23 ****         5.2013  -2.3513  -0.9970 H              1 S1                 0.0000
     24 ****         4.8156  -3.4088   1.8697 H              1 S1                 0.0000
     25 ****         5.8574  -0.6798   0.7784 H              1 S1                 0.0000
     26 ****         5.6895  -1.1696   2.5430 H              1 S1                 0.0000
     27 ****         7.2578  -3.0979   2.1534 H              1 S1                 0.0000
     28 ****         7.4209  -2.6056   0.3884 H              1 S1                 0.0000
     29 ****         0.9953  -2.9712  -0.5893 H              1 S1                 0.0000
     30 ****        -1.1911  -2.4986  -1.2736 H              1 S1                 0.0000
     31 ****        -3.0954  -0.9450  -1.2676 H              1 S1                 0.0000
     32 ****        -4.1038   0.8744  -1.9898 H              1 S1                 0.0000
     33 ****        -4.8048   0.6627  -0.3910 H              1 S1                 0.0000
     34 ****        -4.6587   3.2385  -2.0399 H              1 S1                 0.0000
     35 ****        -6.1044   2.3328  -1.6618 H              1 S1                 0.0000
     36 ****        -5.8566   4.3478  -0.1854 H              1 S1                 0.0000
     37 ****        -5.8629   2.8662   0.7468 H              1 S1                 0.0000
     38 ****        -3.3886   4.4551  -0.0990 H              1 S1                 0.0000
     39 ****        -4.0197   4.3302   1.5256 H              1 S1                 0.0000
     40 ****        -3.5061   1.9165   1.6065 H              1 S1                 0.0000
     41 ****        -2.0782   2.8226   1.1579 H              1 S1                 0.0000
     42 ****         1.2428   0.7047   0.4065 H              1 S1                 0.0000
     43 ****        -0.5998   2.0433   0.3393 H              1 S1                 0.0000
     44 ****         4.1248  -0.6043  -0.2601 LP             1 S1                 0.0000
     45 ****         2.5655   0.1477  -0.3131 LP             1 S1                 0.0000
     46 ****        -2.6298   2.3484  -1.0790 LP             1 S1                 0.0000
@<TRIPOS>BOND
    1    1    2 2     
    2    2    3 am    
    3    2    8 am    
    4    3    4 1     
    5    3   21 1     
    6    4    5 1     
    7    4   22 1     
    8    4   23 1     
    9    5    7 1     
   10    5    6 1     
   11    5   24 1     
   12    6    7 1     
   13    6   25 1     
   14    6   26 1     
   15    7   27 1     
   16    7   28 1     
   17    8    9 1     
   18    8   29 1     
   19    9   20 ar    
   20    9   10 ar    
   21   10   11 ar    
   22   10   30 1     
   23   11   12 ar    
   24   11   31 1     
   25   12   13 1     
   26   12   19 ar    
   27   13   18 1     
   28   13   14 1     
   29   14   15 1     
   30   14   32 1     
   31   14   33 1     
   32   15   16 1     
   33   15   34 1     
   34   15   35 1     
   35   16   17 1     
   36   16   36 1     
   37   16   37 1     
   38   17   18 1     
   39   17   38 1     
   40   17   39 1     
   41   18   40 1     
   42   18   41 1     
   43   19   20 ar    
   44   19   43 1     
   45   20   42 1     
   46    1   44 1     
   47    1   45 1     
   48   13   46 1     
@<TRIPOS>SUBSTRUCTURE
      1 S1             1
@<TRIPOS>SET
LONE_PAIRS      STATIC     ATOMS    <user>   **** ""
3 44 45 46
DONOR_HYDROGENS      STATIC     ATOMS    <user>   **** ""
3 21 29 43
ATOM$BLUE        STATIC     ATOMS    COLORGROUP SYSTEM
3 44 45 46
ATOM$RED        STATIC     ATOMS    COLORGROUP SYSTEM
3 21 29 43
