AV-unprocessed.smi:1369|AV-procd|sdf|5579|dock2
  -GOLD-   22720 5173D 1   1.00000     0.00000
 Structure written by MMmdl.
 39 41  0  0  0  0  0  0  0  0  1 V2000
  156.0251  140.9267  170.2597 C   0  0  0  0  0  0  0  0  0  0  0  0
  155.6905  142.1862  169.4681 C   0  0  0  0  0  0  0  0  0  0  0  0
  155.4547  143.2332  170.0693 O   0  0  0  0  0  0  0  0  0  0  0  0
  155.6553  142.0391  168.1312 N   0  0  0  0  0  0  0  0  0  0  0  0
  155.3792  143.0167  167.1339 C   0  0  0  0  0  0  0  0  0  0  0  0
  155.0144  144.3487  167.4486 C   0  0  0  0  0  0  0  0  0  0  0  0
  154.7763  145.2823  166.4240 C   0  0  0  0  0  0  0  0  0  0  0  0
  154.9109  144.8977  165.0792 C   0  0  0  0  0  0  0  0  0  0  0  0
  155.2895  143.5815  164.7575 C   0  0  0  0  0  0  0  0  0  0  0  0
  155.5326  142.6300  165.7806 C   0  0  0  0  0  0  0  0  0  0  0  0
  155.9078  141.3255  165.5324 O   0  0  0  0  0  0  0  0  0  0  0  0
  156.0067  140.8892  164.1835 C   0  0  0  0  0  0  0  0  0  0  0  0
  154.5978  140.5666  163.6675 C   0  0  0  0  0  0  0  0  0  0  0  0
  154.5178  140.7115  162.2167 N   0  0  0  0  0  0  0  0  0  0  0  0
  155.1566  139.8874  161.2865 C   0  0  0  0  0  0  0  0  0  0  0  0
  155.8938  138.9273  161.5028 O   0  0  0  0  0  0  0  0  0  0  0  0
  154.8028  140.3457  160.0436 O   0  0  0  0  0  0  0  0  0  0  0  0
  153.9647  141.4124  160.1880 C   0  0  0  0  0  0  0  0  0  0  0  0
  153.3439  142.1964  159.2012 C   0  0  0  0  0  0  0  0  0  0  0  0
  152.5085  143.2537  159.6318 C   0  0  0  0  0  0  0  0  0  0  0  0
  152.3098  143.5043  161.0136 C   0  0  0  0  0  0  0  0  0  0  0  0
  152.9400  142.7005  161.9910 C   0  0  0  0  0  0  0  0  0  0  0  0
  153.7671  141.6620  161.5294 C   0  0  0  0  0  0  0  0  0  0  0  0
  156.9223  140.4505  169.8633 H   0  0  0  0  0  0  0  0  0  0  0  0
  155.2003  140.2163  170.2043 H   0  0  0  0  0  0  0  0  0  0  0  0
  156.2019  141.1634  171.3094 H   0  0  0  0  0  0  0  0  0  0  0  0
  155.7713  141.0967  167.7874 H   0  0  0  0  0  0  0  0  0  0  0  0
  154.9255  144.6821  168.4709 H   0  0  0  0  0  0  0  0  0  0  0  0
  154.4962  146.2957  166.6710 H   0  0  0  0  0  0  0  0  0  0  0  0
  154.7288  145.6147  164.2921 H   0  0  0  0  0  0  0  0  0  0  0  0
  155.3858  143.3262  163.7134 H   0  0  0  0  0  0  0  0  0  0  0  0
  156.4446  141.6769  163.5690 H   0  0  0  0  0  0  0  0  0  0  0  0
  156.6441  140.0066  164.1070 H   0  0  0  0  0  0  0  0  0  0  0  0
  154.3113  139.5562  163.9599 H   0  0  0  0  0  0  0  0  0  0  0  0
  153.8728  141.2346  164.1346 H   0  0  0  0  0  0  0  0  0  0  0  0
  153.4993  141.9985  158.1509 H   0  0  0  0  0  0  0  0  0  0  0  0
  152.0158  143.8768  158.8999 H   0  0  0  0  0  0  0  0  0  0  0  0
  151.6678  144.3161  161.3225 H   0  0  0  0  0  0  0  0  0  0  0  0
  152.7888  142.8805  163.0452 H   0  0  0  0  0  0  0  0  0  0  0  0
  1  2  1  0  0  0  0
  1 24  1  0  0  0  0
  1 25  1  0  0  0  0
  1 26  1  0  0  0  0
  2  3  2  0  0  0  0
  2  4  1  0  0  0  0
  4  5  1  0  0  0  0
  4 27  1  0  0  0  0
  5 10  1  0  0  0  0
  5  6  2  0  0  0  0
  6  7  1  0  0  0  0
  6 28  1  0  0  0  0
  7  8  2  0  0  0  0
  7 29  1  0  0  0  0
  8  9  1  0  0  0  0
  8 30  1  0  0  0  0
  9 10  2  0  0  0  0
  9 31  1  0  0  0  0
 10 11  1  0  0  0  0
 11 12  1  0  0  0  0
 12 13  1  0  0  0  0
 12 32  1  0  0  0  0
 12 33  1  0  0  0  0
 13 14  1  0  0  0  0
 13 34  1  0  0  0  0
 13 35  1  0  0  0  0
 14 23  1  0  0  0  0
 14 15  1  0  0  0  0
 15 16  2  0  0  0  0
 15 17  1  0  0  0  0
 17 18  1  0  0  0  0
 18 23  2  0  0  0  0
 18 19  1  0  0  0  0
 19 20  2  0  0  0  0
 19 36  1  0  0  0  0
 20 21  1  0  0  0  0
 20 37  1  0  0  0  0
 21 22  2  0  0  0  0
 21 38  1  0  0  0  0
 22 23  1  0  0  0  0
 22 39  1  0  0  0  0
M  END
> <s_m_source_file>
AV-unprocessed.smi

> <i_m_source_file_index>
1369

> <i_lp_mmshare_version>
43012

> <i_f3d_flags>
0

> <s_epik_input>
W0NIM11DKD1PKVtOSF1jMVtjSF1bY0hdW2NIXVtjSF1jMU9bQ0gyXVtDSDJdbihjKD1PKW8yKWMoYzIzKVtjSF1bY0hdW2NIXVtjSF0z

> <s_epik_cmdline>
J2VwaWtfcHl0aG9uJywgJy1waCcsICc3LjAnLCAnLXRuJywgJzgnLCAnLW1hJywgJzIwMCcsICctbWV0YWxfYmluZGluZycsICctaW1hZScsICc8aW5maWxlLm1hZT4nLCAnLW9tYWUnLCAnPG91dGZpbGUubWFlPic=

> <r_lp_tautomer_probability>
1

> <r_epik_Ionization_Penalty>
9.24277e-08

> <r_epik_Ionization_Penalty_Charging>
1.02615e-14

> <r_epik_Ionization_Penalty_Neutral>
9.24277e-08

> <r_epik_State_Penalty>
-0

> <r_epik_Charging_Adjusted_Penalty>
1.02615e-14

> <i_epik_Tot_Q>
0

> <i_epik_Tot_abs_Q>
0

> <r_epik_Metal_State_Penalty>
-0

> <b_epik_Metal_Only>
0

> <s_lp_Force_Field>
OPLS_2005

> <r_lp_Energy>
36.4772

> <b_lp_Chiralities_Consistent>
1

> <s_lp_Variant>
AV-unprocessed.smi:1369-1

> <Gold.Version>
5.8.1

> <Gold.Id.Protein>
6NUR|6NUR_protein|mol2

> <Gold.PLP.Fitness>
45.9296

> <Gold.PLP.PLP>
-46.4958

> <Gold.PLP.part.hbond>
0.0000

> <Gold.PLP.part.metal>
0.0000

> <Gold.PLP.part.buried>
-3.4338

> <Gold.PLP.part.nonpolar>
-43.1901

> <Gold.PLP.part.repulsive>
0.2819

> <Gold.PLP.ligand.clash>
0.0000

> <Gold.PLP.ligand.torsion>
0.3082

> <Gold.PLP.Chemscore.Hbond>
0.0000

> <Gold.PLP.Chemscore.CHOScore>
0.0000

> <Gold.PLP.Chemscore.Metal>
0.0000

> <Gold.PLP.Chemscore.Internal.Correction>
0.0501

> <Gold.Rescore>
     Score         DG    S(hbond)    S(metal)    S(lipo)     H(rot)  DE(clash)    DE(int)     intcor
     14.36     -16.72       0.00        0.00     133.27       1.70       0.85       1.51       ----

> <Gold.Chemscore.Fitness>
14.3617

> <Gold.Chemscore.DG>
-16.7158

> <Gold.Chemscore.ZeroCoef>
-5.4800

> <Gold.Chemscore.Hbond>
0.0000

> <Gold.Chemscore.Metal>
0.0000

> <Gold.Chemscore.Lipo>
133.2706

> <Gold.Chemscore.Internal_Hbond>
0.0000

> <Gold.Chemscore.DEClash>
0.8458

> <Gold.Chemscore.DEInternal>
1.5083

> <Gold.Chemscore.Rot>
1.7019

> <Gold.Chemscore.Internal.Correction>
   9.000000E+99

> <Gold.Chemscore.Hbond.Weighted>
-0.0000

> <Gold.Chemscore.Metal.Weighted>
-0.0000

> <Gold.Chemscore.Lipo.Weighted>
-15.5927

> <Gold.Chemscore.Internal_Hbond.Weighted>
0.0000

> <Gold.Chemscore.DEClash.Weighted>
0.8458

> <Gold.Chemscore.DEInternal.Weighted>
1.5083

> <Gold.Chemscore.Rot.Weighted>
4.3569

> <Gold.Chemscore.Internal.Correction.Weighted>
   9.000000E+99

> <Gold.Protein.RotatedTorsions>
[ 6907 6896 6895 6894 ] final   86.93 input  -60.11 | X-H torsion
[ 7974 7965 7964 7962 ] final   41.99 input  175.53 | X-H torsion
[ 8008 7997 7996 7995 ] final  172.74 input   59.86 | X-H torsion
[ 10167 10162 10161 10158 ] final  108.24 input  -65.29 | X-H torsion
[ 10718 10713 10712 10709 ] final   74.78 input   66.30 | X-H torsion
[ 10763 10752 10751 10750 ] final  -67.35 input  -60.55 | X-H torsion
[ 11005 11000 10999 10996 ] final  -38.79 input  -57.11 | X-H torsion

> <Gold.Protein.ActiveResidues>
 VAL166  LYS551  ARG553  GLY616  TRP617  ASP618  TYR619  PRO620  LYS621  CYS622 
 ASP623  PHE694  ASN695  SER759  ASP760  ASP761  ALA762  ILE779  LEU786  VAL792 
 PHE793  MET794  SER795  GLU796  ALA797  LYS798  CYS799  TRP800  GLU811  SER814 

> <Gold.Protein.RotatedAtoms>
  152.5403  134.2355  159.8841 H   0  0  0  0  0  0  0  0  0  0  0  0  # atno 6907 bound_to 6896
  151.2325  133.4436  159.2612 H   0  0  0  0  0  0  0  0  0  0  0  0  # atno 6908 bound_to 6896
  151.0702  134.9807  159.8361 H   0  0  0  0  0  0  0  0  0  0  0  0  # atno 6909 bound_to 6896
  146.0777  139.5351  142.9557 H   0  0  0  0  0  0  0  0  0  0  0  0  # atno 7974 bound_to 7965
  156.1145  140.1478  156.9292 H   0  0  0  0  0  0  0  0  0  0  0  0  # atno 8008 bound_to 7997
  154.4790  140.0885  156.7375 H   0  0  0  0  0  0  0  0  0  0  0  0  # atno 8009 bound_to 7997
  155.4538  140.3436  155.4306 H   0  0  0  0  0  0  0  0  0  0  0  0  # atno 8010 bound_to 7997
  139.6862  144.7113  151.1427 H   0  0  0  0  0  0  0  0  0  0  0  0  # atno 10167 bound_to 10162
  157.6607  130.9694  150.1260 H   0  0  0  0  0  0  0  0  0  0  0  0  # atno 10718 bound_to 10713
  154.3732  135.6090  153.5751 H   0  0  0  0  0  0  0  0  0  0  0  0  # atno 10763 bound_to 10752
  152.9789  135.5843  154.4498 H   0  0  0  0  0  0  0  0  0  0  0  0  # atno 10764 bound_to 10752
  154.4255  135.2846  155.1925 H   0  0  0  0  0  0  0  0  0  0  0  0  # atno 10765 bound_to 10752
  141.0054  133.6934  156.2100 H   0  0  0  0  0  0  0  0  0  0  0  0  # atno 11005 bound_to 11000
  145.6275  141.0310  143.1881 LP  0  0  0  0  0  0  0  0  0  0  0  0  # atno 17320 bound_to 7965
  144.7272  139.7837  143.7360 LP  0  0  0  0  0  0  0  0  0  0  0  0  # atno 17321 bound_to 7965
  140.7668  143.5625  150.9083 LP  0  0  0  0  0  0  0  0  0  0  0  0  # atno 17342 bound_to 10162
  139.9300  143.6504  152.3078 LP  0  0  0  0  0  0  0  0  0  0  0  0  # atno 17343 bound_to 10162
  156.2119  130.3667  149.8660 LP  0  0  0  0  0  0  0  0  0  0  0  0  # atno 17370 bound_to 10713
  156.6536  130.8754  151.3535 LP  0  0  0  0  0  0  0  0  0  0  0  0  # atno 17371 bound_to 10713
  140.6822  134.4755  157.5589 LP  0  0  0  0  0  0  0  0  0  0  0  0  # atno 17394 bound_to 11000
  139.9060  134.8447  156.1704 LP  0  0  0  0  0  0  0  0  0  0  0  0  # atno 17395 bound_to 11000

$$$$
