AV-unprocessed.smi:370|AV-procd|sdf|2438|dock10
  -GOLD-   2262022383D 1   1.00000     0.00000
 Structure written by MMmdl.
 41 42  0  0  0  0  0  0  0  0  2 V2000
  144.9633  134.0363  162.9088 C   0  0  0  0  0  0  0  0  0  0  0  0
  145.9771  134.7838  162.1122 C   0  0  0  0  0  0  0  0  0  0  0  0
  146.2648  136.1137  161.9918 C   0  0  0  0  0  0  0  0  0  0  0  0
  147.3539  136.1294  161.0780 C   0  0  0  0  0  0  0  0  0  0  0  0
  147.9943  137.2207  160.6310 N   0  5  0  0  0  0  0  0  0  0  0  0
  148.9880  137.0999  159.7205 C   0  0  0  0  0  0  0  0  0  0  0  0
  149.6923  136.1048  159.5342 O   0  0  0  0  0  0  0  0  0  0  0  0
  149.1796  138.1981  158.9783 N   0  0  0  0  0  0  0  0  0  0  0  0
  150.1807  138.3375  157.9243 C   0  0  0  0  0  0  0  0  0  0  0  0
  151.5322  138.8923  158.4584 C   0  0  0  0  0  0  0  0  0  0  0  0
  151.9766  137.9695  159.6190 C   0  0  0  0  0  0  0  0  0  0  0  0
  152.5585  138.7162  157.3101 C   0  0  0  0  0  0  0  0  0  0  0  0
  151.4224  140.3227  158.8612 N   0  0  0  0  0  0  0  0  0  0  0  0
  151.0582  141.2441  157.7789 C   0  0  0  0  0  0  0  0  0  0  0  0
  150.8433  142.6793  158.2885 C   0  0  0  0  0  0  0  0  0  0  0  0
  152.0141  143.1315  158.9580 O   0  0  0  0  0  0  0  0  0  0  0  0
  152.3647  142.2979  160.0559 C   0  0  0  0  0  0  0  0  0  0  0  0
  152.5949  140.8598  159.5616 C   0  0  0  0  0  0  0  0  0  0  0  0
  147.6841  134.9171  160.6646 N   0  0  0  0  0  0  0  0  0  0  0  0
  146.8109  134.0478  161.3290 O   0  0  0  0  0  0  0  0  0  0  0  0
  143.9564  134.3769  162.6677 H   0  0  0  0  0  0  0  0  0  0  0  0
  145.1256  134.1871  163.9761 H   0  0  0  0  0  0  0  0  0  0  0  0
  145.0150  132.9659  162.7074 H   0  0  0  0  0  0  0  0  0  0  0  0
  145.7794  136.9435  162.4834 H   0  0  0  0  0  0  0  0  0  0  0  0
  148.5892  138.9971  159.1580 H   0  0  0  0  0  0  0  0  0  0  0  0
  150.3177  137.3770  157.4264 H   0  0  0  0  0  0  0  0  0  0  0  0
  149.7795  139.0023  157.1571 H   0  0  0  0  0  0  0  0  0  0  0  0
  152.0489  136.9329  159.2876 H   0  0  0  0  0  0  0  0  0  0  0  0
  151.2709  137.9844  160.4492 H   0  0  0  0  0  0  0  0  0  0  0  0
  152.9565  138.2410  160.0110 H   0  0  0  0  0  0  0  0  0  0  0  0
  152.5219  137.7097  156.8918 H   0  0  0  0  0  0  0  0  0  0  0  0
  153.5845  138.8681  157.6445 H   0  0  0  0  0  0  0  0  0  0  0  0
  152.3714  139.4137  156.4927 H   0  0  0  0  0  0  0  0  0  0  0  0
  151.8362  141.2564  157.0158 H   0  0  0  0  0  0  0  0  0  0  0  0
  150.1390  140.9258  157.2903 H   0  0  0  0  0  0  0  0  0  0  0  0
  150.6286  143.3486  157.4553 H   0  0  0  0  0  0  0  0  0  0  0  0
  149.9879  142.7246  158.9644 H   0  0  0  0  0  0  0  0  0  0  0  0
  153.2690  142.6868  160.5241 H   0  0  0  0  0  0  0  0  0  0  0  0
  151.5766  142.3252  160.8101 H   0  0  0  0  0  0  0  0  0  0  0  0
  152.8434  140.2503  160.4283 H   0  0  0  0  0  0  0  0  0  0  0  0
  153.4648  140.8483  158.9051 H   0  0  0  0  0  0  0  0  0  0  0  0
  1  2  1  0  0  0  0
  1 21  1  0  0  0  0
  1 22  1  0  0  0  0
  1 23  1  0  0  0  0
  2 20  1  0  0  0  0
  2  3  2  0  0  0  0
  3  4  1  0  0  0  0
  3 24  1  0  0  0  0
  4  5  1  0  0  0  0
  4 19  2  0  0  0  0
  5  6  1  0  0  0  0
  6  7  2  0  0  0  0
  6  8  1  0  0  0  0
  8  9  1  0  0  0  0
  8 25  1  0  0  0  0
  9 10  1  0  0  0  0
  9 26  1  0  0  0  0
  9 27  1  0  0  0  0
 10 11  1  0  0  0  0
 10 12  1  0  0  0  0
 10 13  1  0  0  0  0
 11 28  1  0  0  0  0
 11 29  1  0  0  0  0
 11 30  1  0  0  0  0
 12 31  1  0  0  0  0
 12 32  1  0  0  0  0
 12 33  1  0  0  0  0
 13 18  1  0  0  0  0
 13 14  1  0  0  0  0
 14 15  1  0  0  0  0
 14 34  1  0  0  0  0
 14 35  1  0  0  0  0
 15 16  1  0  0  0  0
 15 36  1  0  0  0  0
 15 37  1  0  0  0  0
 16 17  1  0  0  0  0
 17 18  1  0  0  0  0
 17 38  1  0  0  0  0
 17 39  1  0  0  0  0
 18 40  1  0  0  0  0
 18 41  1  0  0  0  0
 19 20  1  0  0  0  0
M  CHG  1   5  -1
M  END
> <s_m_source_file>
AV-unprocessed.smi

> <i_m_source_file_index>
370

> <i_lp_mmshare_version>
43012

> <i_f3d_flags>
0

> <s_epik_input>
W0NIM11jMVtjSF1jKG5vMSlbTkhdQyg9TylbTkhdW0NIMl1DKFtDSDNdKShbQ0gzXSlOMltDSDJdW0NIMl1PW0NIMl1bQ0gyXTI=

> <s_epik_cmdline>
J2VwaWtfcHl0aG9uJywgJy1waCcsICc3LjAnLCAnLXRuJywgJzgnLCAnLW1hJywgJzIwMCcsICctbWV0YWxfYmluZGluZycsICctaW1hZScsICc8aW5maWxlLm1hZT4nLCAnLW9tYWUnLCAnPG91dGZpbGUubWFlPic=

> <r_epik_Ionization_Penalty>
6.88367

> <r_epik_Ionization_Penalty_Charging>
6.57198

> <r_epik_Ionization_Penalty_Neutral>
0.311685

> <r_epik_State_Penalty>
6.77619

> <r_epik_Charging_Adjusted_Penalty>
13.3482

> <i_epik_Tot_Q>
-1

> <i_epik_Tot_abs_Q>
1

> <r_epik_Metal_State_Penalty>
2.70533

> <b_epik_Metal_Only>
1

> <s_lp_Force_Field>
OPLS_2005

> <r_lp_Energy>
34.5841

> <b_lp_Chiralities_Consistent>
1

> <s_lp_Variant>
AV-unprocessed.smi:370-3

> <Gold.Version>
5.8.1

> <Gold.Id.Protein>
6NUR|6NUR_protein|mol2

> <Gold.PLP.Fitness>
41.0499

> <Gold.PLP.PLP>
-29.9315

> <Gold.PLP.part.hbond>
-3.0000

> <Gold.PLP.part.metal>
0.0000

> <Gold.PLP.part.buried>
-5.6000

> <Gold.PLP.part.nonpolar>
-22.2297

> <Gold.PLP.part.repulsive>
0.2261

> <Gold.PLP.ligand.clash>
0.0000

> <Gold.PLP.ligand.torsion>
0.4605

> <Gold.PLP.Chemscore.Hbond>
3.9948

> <Gold.PLP.Chemscore.CHOScore>
0.0000

> <Gold.PLP.Chemscore.Metal>
0.0000

> <Gold.Chemscore.Hbonds>
donor molecule, donor type, donor heavy atom, donor atom, acceptor molecule, acceptor atom, score
      P1  H  6896  6907       L1     7  1.00
      P1  H  6931  6943       L1     5  1.18
      P1  H  6934  6947       L1     5  1.50

> <Gold.PLP.Chemscore.Internal.Correction>
0.0550

> <Gold.Rescore>
     Score         DG    S(hbond)    S(metal)    S(lipo)     H(rot)  DE(clash)    DE(int)     intcor
     13.70     -15.76       1.76        0.00      71.06       1.53       0.05       2.01       ----

> <Gold.Chemscore.Fitness>
13.7008

> <Gold.Chemscore.DG>
-15.7644

> <Gold.Chemscore.ZeroCoef>
-5.4800

> <Gold.Chemscore.Hbond>
1.7602

> <Gold.Chemscore.Metal>
0.0000

> <Gold.Chemscore.Lipo>
71.0627

> <Gold.Chemscore.Internal_Hbond>
0.0000

> <Gold.Chemscore.DEClash>
0.0528

> <Gold.Chemscore.DEInternal>
2.0108

> <Gold.Chemscore.Rot>
1.5269

> <Gold.Chemscore.Internal.Correction>
   9.000000E+99

> <Gold.Chemscore.Hbonds>
donor molecule, donor type, donor heavy atom, donor atom, acceptor molecule, acceptor atom, score
      P1  H  6896  6907       L1     7  1.00
      P1  H  6931  6943       L1     5  0.07
      P1  H  6934  6947       L1     5  0.69

> <Gold.Chemscore.Hbond.Weighted>
-5.8790

> <Gold.Chemscore.Metal.Weighted>
-0.0000

> <Gold.Chemscore.Lipo.Weighted>
-8.3143

> <Gold.Chemscore.Internal_Hbond.Weighted>
0.0000

> <Gold.Chemscore.DEClash.Weighted>
0.0528

> <Gold.Chemscore.DEInternal.Weighted>
2.0108

> <Gold.Chemscore.Rot.Weighted>
3.9090

> <Gold.Chemscore.Internal.Correction.Weighted>
   9.000000E+99

> <Gold.Protein.RotatedTorsions>
[ 6907 6896 6895 6894 ] final  -55.46 input  -60.11 | X-H torsion
[ 7974 7965 7964 7962 ] final   87.12 input  175.53 | X-H torsion
[ 8008 7997 7996 7995 ] final -171.39 input   59.86 | X-H torsion
[ 10167 10162 10161 10158 ] final  -56.25 input  -65.29 | X-H torsion
[ 10718 10713 10712 10709 ] final   80.04 input   66.30 | X-H torsion
[ 10763 10752 10751 10750 ] final   98.12 input  -60.55 | X-H torsion
[ 11005 11000 10999 10996 ] final  -69.04 input  -57.11 | X-H torsion

> <Gold.Protein.ActiveResidues>
 VAL166  LYS551  ARG553  GLY616  TRP617  ASP618  TYR619  PRO620  LYS621  CYS622 
 ASP623  PHE694  ASN695  SER759  ASP760  ASP761  ALA762  ILE779  LEU786  VAL792 
 PHE793  MET794  SER795  GLU796  ALA797  LYS798  CYS799  TRP800  GLU811  SER814 

> <Gold.Protein.RotatedAtoms>
  150.8250  134.7476  159.6804 H   0  0  0  0  0  0  0  0  0  0  0  0  # atno 6907 bound_to 6896
  152.4362  134.5679  159.9922 H   0  0  0  0  0  0  0  0  0  0  0  0  # atno 6908 bound_to 6896
  151.5853  133.3335  159.3052 H   0  0  0  0  0  0  0  0  0  0  0  0  # atno 6909 bound_to 6896
  145.5633  139.2306  143.2447 H   0  0  0  0  0  0  0  0  0  0  0  0  # atno 7974 bound_to 7965
  155.9309  140.1091  157.1133 H   0  0  0  0  0  0  0  0  0  0  0  0  # atno 8008 bound_to 7997
  154.4070  140.1238  156.4867 H   0  0  0  0  0  0  0  0  0  0  0  0  # atno 8009 bound_to 7997
  155.7081  140.3471  155.4964 H   0  0  0  0  0  0  0  0  0  0  0  0  # atno 8010 bound_to 7997
  140.6328  143.2467  151.5197 H   0  0  0  0  0  0  0  0  0  0  0  0  # atno 10167 bound_to 10162
  157.6795  130.9941  150.2021 H   0  0  0  0  0  0  0  0  0  0  0  0  # atno 10718 bound_to 10713
  153.2852  135.4159  155.1116 H   0  0  0  0  0  0  0  0  0  0  0  0  # atno 10763 bound_to 10752
  154.8502  135.3505  154.6057 H   0  0  0  0  0  0  0  0  0  0  0  0  # atno 10764 bound_to 10752
  153.6478  135.7054  153.5277 H   0  0  0  0  0  0  0  0  0  0  0  0  # atno 10765 bound_to 10752
  141.1545  133.6755  156.6538 H   0  0  0  0  0  0  0  0  0  0  0  0  # atno 11005 bound_to 11000
  146.1836  140.6458  142.9178 LP  0  0  0  0  0  0  0  0  0  0  0  0  # atno 17320 bound_to 7965
  144.7473  140.5100  143.6827 LP  0  0  0  0  0  0  0  0  0  0  0  0  # atno 17321 bound_to 7965
  139.5541  144.2321  152.1581 LP  0  0  0  0  0  0  0  0  0  0  0  0  # atno 17342 bound_to 10162
  140.1570  144.5062  150.6654 LP  0  0  0  0  0  0  0  0  0  0  0  0  # atno 17343 bound_to 10162
  156.2710  130.3722  149.8032 LP  0  0  0  0  0  0  0  0  0  0  0  0  # atno 17370 bound_to 10713
  156.5749  130.8440  151.3367 LP  0  0  0  0  0  0  0  0  0  0  0  0  # atno 17371 bound_to 10713
  140.3300  134.7937  157.4319 LP  0  0  0  0  0  0  0  0  0  0  0  0  # atno 17394 bound_to 11000
  140.1025  134.5454  155.8340 LP  0  0  0  0  0  0  0  0  0  0  0  0  # atno 17395 bound_to 11000

$$$$
