#       Name:                AV-unprocessed.smi:1032
#       Creating user name   scv26
#       Creation time:       Fri Mar 27 02:46:34 2020


#       File generated by GOLD software.
#

@<TRIPOS>MOLECULE
AV-unprocessed.smi:1032
    51    52     1
SMALL
NO_CHARGES


@<TRIPOS>ATOM
      1 ****        -4.6781   2.8458  -2.8193 C.3            1 S1                 0.0000
      2 ****        -3.9472   3.1540  -1.5008 C.3            1 S1                 0.0000
      3 ****        -2.4157   3.0655  -1.6323 C.3            1 S1                 0.0000
      4 ****        -1.9199   1.6108  -1.7192 C.3            1 S1                 0.0000
      5 ****        -2.3942   0.8109  -0.5590 N.4            1 S1                 1.0000
      6 ****        -1.8357  -0.5655  -0.5265 C.3            1 S1                 0.0000
      7 ****        -0.3938  -0.6063   0.0199 C.3            1 S1                 0.0000
      8 ****        -0.4538  -0.1911   1.3705 O.3            1 S1                 0.0000
      9 ****         0.1880  -2.0342  -0.0265 C.3            1 S1                 0.0000
     10 ****         1.6473  -2.0308  -0.0223 N.am           1 S1                 0.0000
     11 ****         2.4142  -2.0108   1.0772 C.2            1 S1                 0.0000
     12 ****         1.9568  -1.9688   2.2190 O.2            1 S1                 0.0000
     13 ****         3.7205  -2.0173   0.7598 N.am           1 S1                 0.0000
     14 ****         4.8459  -2.0420   1.6280 C.ar           1 S1                 0.0000
     15 ****         6.0894  -1.6329   1.1032 C.ar           1 S1                 0.0000
     16 ****         7.2241  -1.6688   1.9381 C.ar           1 S1                 0.0000
     17 ****         7.1879  -2.0856   3.2213 N.ar           1 S1                 0.0000
     18 ****         5.9996  -2.4897   3.7180 C.ar           1 S1                 0.0000
     19 ****         4.8054  -2.4924   2.9697 C.ar           1 S1                 0.0000
     20 ****        -3.8759   0.8222  -0.4559 C.3            1 S1                 0.0000
     21 ****        -4.4144   2.2594  -0.3384 C.3            1 S1                 0.0000
     22 ****        -4.4946   1.8290  -3.1654 H              1 S1                 0.0000
     23 ****        -4.3589   3.5254  -3.6098 H              1 S1                 0.0000
     24 ****        -5.7558   2.9648  -2.7039 H              1 S1                 0.0000
     25 ****        -4.1970   4.1846  -1.2446 H              1 S1                 0.0000
     26 ****        -2.0779   3.6294  -2.5027 H              1 S1                 0.0000
     27 ****        -1.9550   3.5429  -0.7664 H              1 S1                 0.0000
     28 ****        -2.2592   1.1483  -2.6469 H              1 S1                 0.0000
     29 ****        -0.8310   1.6137  -1.7553 H              1 S1                 0.0000
     30 ****        -2.4588  -1.2052   0.1012 H              1 S1                 0.0000
     31 ****        -1.8814  -0.9929  -1.5293 H              1 S1                 0.0000
     32 ****         0.2495   0.0712  -0.5419 H              1 S1                 0.0000
     33 ****         0.4022  -0.3025   1.7578 H              1 S1                 0.0000
     34 ****        -0.2149  -2.6617   0.7710 H              1 S1                 0.0000
     35 ****        -0.1043  -2.5146  -0.9606 H              1 S1                 0.0000
     36 ****         2.1058  -2.0593  -0.9214 H              1 S1                 0.0000
     37 ****         3.9382  -1.9612  -0.2242 H              1 S1                 0.0000
     38 ****         6.1774  -1.2929   0.0815 H              1 S1                 0.0000
     39 ****         8.1877  -1.3561   1.5637 H              1 S1                 0.0000
     40 ****         6.0007  -2.8287   4.7435 H              1 S1                 0.0000
     41 ****         3.8981  -2.8491   3.4320 H              1 S1                 0.0000
     42 ****        -4.3085   0.3172  -1.3206 H              1 S1                 0.0000
     43 ****        -4.1862   0.2580   0.4244 H              1 S1                 0.0000
     44 ****        -4.0691   2.6889   0.6032 H              1 S1                 0.0000
     45 ****        -5.5035   2.2489  -0.2831 H              1 S1                 0.0000
     46 ****        -2.0541   1.2683   0.2755 H              1 S1                 0.0000
     47 ****        -1.1224  -0.7468   1.8646 LP             1 S1                 0.0000
     48 ****        -0.7217   0.7713   1.4157 LP             1 S1                 0.0000
     49 ****         0.9671  -1.9478   2.3607 LP             1 S1                 0.0000
     50 ****         2.5748  -1.9557   3.0050 LP             1 S1                 0.0000
     51 ****         8.0137  -2.0947   3.7851 LP             1 S1                 0.0000
@<TRIPOS>BOND
    1    1    2 1     
    2    1   22 1     
    3    1   23 1     
    4    1   24 1     
    5    2   21 1     
    6    2    3 1     
    7    2   25 1     
    8    3    4 1     
    9    3   26 1     
   10    3   27 1     
   11    4    5 1     
   12    4   28 1     
   13    4   29 1     
   14    5    6 1     
   15    5   20 1     
   16    5   46 1     
   17    6    7 1     
   18    6   30 1     
   19    6   31 1     
   20    7    8 1     
   21    7    9 1     
   22    7   32 1     
   23    8   33 1     
   24    9   10 1     
   25    9   34 1     
   26    9   35 1     
   27   10   11 am    
   28   10   36 1     
   29   11   12 2     
   30   11   13 am    
   31   13   14 1     
   32   13   37 1     
   33   14   19 ar    
   34   14   15 ar    
   35   15   16 ar    
   36   15   38 1     
   37   16   17 ar    
   38   16   39 1     
   39   17   18 ar    
   40   18   19 ar    
   41   18   40 1     
   42   19   41 1     
   43   20   21 1     
   44   20   42 1     
   45   20   43 1     
   46   21   44 1     
   47   21   45 1     
   48    8   47 1     
   49    8   48 1     
   50   12   49 1     
   51   12   50 1     
   52   17   51 1     
@<TRIPOS>SUBSTRUCTURE
      1 S1             1
@<TRIPOS>SET
LONE_PAIRS      STATIC     ATOMS    <user>   **** ""
5 47 48 49 50 51
DONOR_HYDROGENS      STATIC     ATOMS    <user>   **** ""
4 46 33 36 37
ATOM$BLUE        STATIC     ATOMS    COLORGROUP SYSTEM
5 47 48 49 50 51
ATOM$RED        STATIC     ATOMS    COLORGROUP SYSTEM
4 46 33 36 37
