AV-unprocessed.smi:1130|AV-procd|sdf|4849|dock7
  -GOLD-   22720 3413D 1   1.00000     0.00000
 Structure written by MMmdl.
 36 37  0  0  0  0  0  0  0  0  1 V2000
  151.4405  138.3316  154.8573 C   0  0  0  0  0  0  0  0  0  0  0  0
  150.3607  139.2817  154.4657 C   0  0  0  0  0  0  0  0  0  0  0  0
  150.5445  140.5956  154.5112 N   0  0  0  0  0  0  0  0  0  0  0  0
  149.3188  141.1091  154.0632 O   0  0  0  0  0  0  0  0  0  0  0  0
  148.5339  140.0319  153.8195 C   0  0  0  0  0  0  0  0  0  0  0  0
  147.1625  140.2471  153.2739 C   0  0  0  0  0  0  0  0  0  0  0  0
  147.0533  139.8459  151.7938 C   0  0  0  0  0  0  0  0  0  0  0  0
  145.9710  138.8946  151.5681 N   0  0  0  0  0  0  0  0  0  0  0  0
  145.7838  137.7670  152.2678 C   0  0  0  0  0  0  0  0  0  0  0  0
  146.5066  137.4050  153.1965 O   0  0  0  0  0  0  0  0  0  0  0  0
  144.7147  137.0843  151.8354 N   0  0  0  0  0  0  0  0  0  0  0  0
  144.2326  135.8336  152.4106 C   0  0  0  0  0  0  0  0  0  0  0  0
  144.1494  134.7238  151.3503 C   0  0  1  0  0  0  0  0  0  0  0  0
  145.5105  134.2896  150.8117 C   0  0  0  0  0  0  0  0  0  0  0  0
  145.2017  132.9049  150.2902 C   0  0  0  0  0  0  0  0  0  0  0  0
  144.2210  132.3836  151.3376 C   0  0  0  0  0  0  0  0  0  0  0  0
  143.5855  133.5325  151.8929 O   0  0  0  0  0  0  0  0  0  0  0  0
  149.1375  138.8660  154.0372 N   0  0  0  0  0  0  0  0  0  0  0  0
  152.3576  138.8648  155.1097 H   0  0  0  0  0  0  0  0  0  0  0  0
  151.6557  137.6471  154.0366 H   0  0  0  0  0  0  0  0  0  0  0  0
  151.1310  137.7477  155.7244 H   0  0  0  0  0  0  0  0  0  0  0  0
  146.4580  139.6742  153.8780 H   0  0  0  0  0  0  0  0  0  0  0  0
  146.8994  141.2982  153.3996 H   0  0  0  0  0  0  0  0  0  0  0  0
  146.8598  140.7286  151.1837 H   0  0  0  0  0  0  0  0  0  0  0  0
  147.9972  139.4256  151.4419 H   0  0  0  0  0  0  0  0  0  0  0  0
  145.3235  139.1072  150.8231 H   0  0  0  0  0  0  0  0  0  0  0  0
  144.1857  137.4644  151.0642 H   0  0  0  0  0  0  0  0  0  0  0  0
  144.9329  135.5390  153.1924 H   0  0  0  0  0  0  0  0  0  0  0  0
  143.2670  135.9733  152.8996 H   0  0  0  0  0  0  0  0  0  0  0  0
  143.5232  135.0440  150.5157 H   0  0  0  0  0  0  0  0  0  0  0  0
  145.8988  134.9599  150.0446 H   0  0  0  0  0  0  0  0  0  0  0  0
  146.2434  134.2297  151.6177 H   0  0  0  0  0  0  0  0  0  0  0  0
  144.7122  132.9739  149.3178 H   0  0  0  0  0  0  0  0  0  0  0  0
  146.0864  132.2767  150.1845 H   0  0  0  0  0  0  0  0  0  0  0  0
  143.4920  131.6938  150.9119 H   0  0  0  0  0  0  0  0  0  0  0  0
  144.7519  131.8637  152.1356 H   0  0  0  0  0  0  0  0  0  0  0  0
  1  2  1  0  0  0  0
  1 19  1  0  0  0  0
  1 20  1  0  0  0  0
  1 21  1  0  0  0  0
  2 18  1  0  0  0  0
  2  3  2  0  0  0  0
  3  4  1  0  0  0  0
  4  5  1  0  0  0  0
  5  6  1  0  0  0  0
  5 18  2  0  0  0  0
  6  7  1  0  0  0  0
  6 22  1  0  0  0  0
  6 23  1  0  0  0  0
  7  8  1  0  0  0  0
  7 24  1  0  0  0  0
  7 25  1  0  0  0  0
  8  9  1  0  0  0  0
  8 26  1  0  0  0  0
  9 10  2  0  0  0  0
  9 11  1  0  0  0  0
 11 12  1  0  0  0  0
 11 27  1  0  0  0  0
 12 13  1  0  0  0  0
 12 28  1  0  0  0  0
 12 29  1  0  0  0  0
 13 17  1  0  0  0  0
 13 14  1  0  0  0  0
 13 30  1  0  0  0  0
 14 15  1  0  0  0  0
 14 31  1  0  0  0  0
 14 32  1  0  0  0  0
 15 16  1  0  0  0  0
 15 33  1  0  0  0  0
 15 34  1  0  0  0  0
 16 17  1  0  0  0  0
 16 35  1  0  0  0  0
 16 36  1  0  0  0  0
M  END
> <s_m_source_file>
AV-unprocessed.smi

> <i_m_source_file_index>
1130

> <i_lp_mmshare_version>
43012

> <i_f3d_flags>
0

> <s_epik_input>
W0NIM11jMW5vYyhuMSlbQ0gyXVtDSDJdW05IXUMoPU8pW05IXVtDSDJdW0NAQEhdMltDSDJdW0NIMl1bQ0gyXU8y

> <s_epik_cmdline>
J2VwaWtfcHl0aG9uJywgJy1waCcsICc3LjAnLCAnLXRuJywgJzgnLCAnLW1hJywgJzIwMCcsICctbWV0YWxfYmluZGluZycsICctaW1hZScsICc8aW5maWxlLm1hZT4nLCAnLW9tYWUnLCAnPG91dGZpbGUubWFlPic=

> <r_lp_tautomer_probability>
1

> <r_epik_Ionization_Penalty>
4.67036e-05

> <r_epik_Ionization_Penalty_Charging>
0

> <r_epik_Ionization_Penalty_Neutral>
4.67036e-05

> <r_epik_State_Penalty>
-0

> <r_epik_Charging_Adjusted_Penalty>
0

> <i_epik_Tot_Q>
0

> <i_epik_Tot_abs_Q>
0

> <r_epik_Metal_State_Penalty>
-0

> <b_epik_Metal_Only>
0

> <s_lp_Force_Field>
OPLS_2005

> <r_lp_Energy>
9.65739

> <b_lp_Chiralities_Consistent>
1

> <s_lp_Variant>
AV-unprocessed.smi:1130-2

> <Gold.Version>
5.8.1

> <Gold.Id.Protein>
6NUR|6NUR_protein|mol2

> <Gold.PLP.Fitness>
40.2699

> <Gold.PLP.PLP>
-31.2201

> <Gold.PLP.part.hbond>
-5.4563

> <Gold.PLP.part.metal>
0.0000

> <Gold.PLP.part.buried>
0.1673

> <Gold.PLP.part.nonpolar>
-26.9691

> <Gold.PLP.part.repulsive>
1.7356

> <Gold.PLP.ligand.clash>
0.0000

> <Gold.PLP.ligand.torsion>
0.5420

> <Gold.PLP.Chemscore.Hbond>
3.3711

> <Gold.PLP.Chemscore.CHOScore>
0.0000

> <Gold.PLP.Chemscore.Metal>
0.0000

> <Gold.Chemscore.Hbonds>
donor molecule, donor type, donor heavy atom, donor atom, acceptor molecule, acceptor atom, score
      L1  H     8    26       P1 10171  0.99
      L1  H    11    27       P1 10171  1.00
      P1  H  7989  7998       L1     3  0.90
      P1  H  8011  8017       L1     4  0.45

> <Gold.PLP.Chemscore.Internal.Correction>
0.0206

> <Gold.Rescore>
     Score         DG    S(hbond)    S(metal)    S(lipo)     H(rot)  DE(clash)    DE(int)     intcor
     12.38     -14.85       2.63        0.00      56.01       2.33       0.45       2.02       ----

> <Gold.Chemscore.Fitness>
12.3764

> <Gold.Chemscore.DG>
-14.8482

> <Gold.Chemscore.ZeroCoef>
-5.4800

> <Gold.Chemscore.Hbond>
2.6279

> <Gold.Chemscore.Metal>
0.0000

> <Gold.Chemscore.Lipo>
56.0066

> <Gold.Chemscore.Internal_Hbond>
0.0000

> <Gold.Chemscore.DEClash>
0.4530

> <Gold.Chemscore.DEInternal>
2.0187

> <Gold.Chemscore.Rot>
2.3288

> <Gold.Chemscore.Internal.Correction>
   9.000000E+99

> <Gold.Chemscore.Hbonds>
donor molecule, donor type, donor heavy atom, donor atom, acceptor molecule, acceptor atom, score
      L1  H     8    26       P1 10171  0.94
      L1  H    11    27       P1 10171  0.98
      P1  H  7989  7998       L1     3  0.32
      P1  H  8011  8017       L1     4  0.23

> <Gold.Chemscore.Hbond.Weighted>
-8.7771

> <Gold.Chemscore.Metal.Weighted>
-0.0000

> <Gold.Chemscore.Lipo.Weighted>
-6.5528

> <Gold.Chemscore.Internal_Hbond.Weighted>
0.0000

> <Gold.Chemscore.DEClash.Weighted>
0.4530

> <Gold.Chemscore.DEInternal.Weighted>
2.0187

> <Gold.Chemscore.Rot.Weighted>
5.9617

> <Gold.Chemscore.Internal.Correction.Weighted>
   9.000000E+99

> <Gold.Protein.RotatedTorsions>
[ 6907 6896 6895 6894 ] final  -11.56 input  -60.11 | X-H torsion
[ 7974 7965 7964 7962 ] final -122.00 input  175.53 | X-H torsion
[ 8008 7997 7996 7995 ] final  -32.00 input   59.86 | X-H torsion
[ 10167 10162 10161 10158 ] final  162.67 input  -65.29 | X-H torsion
[ 10718 10713 10712 10709 ] final  -64.69 input   66.30 | X-H torsion
[ 10763 10752 10751 10750 ] final   41.47 input  -60.55 | X-H torsion
[ 11005 11000 10999 10996 ] final  -67.48 input  -57.11 | X-H torsion

> <Gold.Protein.ActiveResidues>
 VAL166  LYS551  ARG553  GLY616  TRP617  ASP618  TYR619  PRO620  LYS621  CYS622 
 ASP623  PHE694  ASN695  SER759  ASP760  ASP761  ALA762  ILE779  LEU786  VAL792 
 PHE793  MET794  SER795  GLU796  ALA797  LYS798  CYS799  TRP800  GLU811  SER814 

> <Gold.Protein.RotatedAtoms>
  151.3842  135.0945  159.9505 H   0  0  0  0  0  0  0  0  0  0  0  0  # atno 6907 bound_to 6896
  152.5099  133.9042  159.7466 H   0  0  0  0  0  0  0  0  0  0  0  0  # atno 6908 bound_to 6896
  150.9482  133.6524  159.2806 H   0  0  0  0  0  0  0  0  0  0  0  0  # atno 6909 bound_to 6896
  145.0342  140.8092  143.4305 H   0  0  0  0  0  0  0  0  0  0  0  0  # atno 7974 bound_to 7965
  154.4194  140.1749  156.1657 H   0  0  0  0  0  0  0  0  0  0  0  0  # atno 8008 bound_to 7997
  155.9801  140.3378  155.6631 H   0  0  0  0  0  0  0  0  0  0  0  0  # atno 8009 bound_to 7997
  155.6511  140.0690  157.2577 H   0  0  0  0  0  0  0  0  0  0  0  0  # atno 8010 bound_to 7997
  139.4863  144.4414  151.8946 H   0  0  0  0  0  0  0  0  0  0  0  0  # atno 10167 bound_to 10162
  156.0714  130.4237  150.1456 H   0  0  0  0  0  0  0  0  0  0  0  0  # atno 10718 bound_to 10713
  152.9907  135.6160  154.2793 H   0  0  0  0  0  0  0  0  0  0  0  0  # atno 10763 bound_to 10752
  154.2523  135.2785  155.2813 H   0  0  0  0  0  0  0  0  0  0  0  0  # atno 10764 bound_to 10752
  154.5277  135.5797  153.6790 H   0  0  0  0  0  0  0  0  0  0  0  0  # atno 10765 bound_to 10752
  141.1509  133.6720  156.6298 H   0  0  0  0  0  0  0  0  0  0  0  0  # atno 11005 bound_to 11000
  145.1731  139.2393  143.5332 LP  0  0  0  0  0  0  0  0  0  0  0  0  # atno 17320 bound_to 7965
  146.3502  140.1486  142.8593 LP  0  0  0  0  0  0  0  0  0  0  0  0  # atno 17321 bound_to 7965
  140.3866  144.2668  150.5903 LP  0  0  0  0  0  0  0  0  0  0  0  0  # atno 17342 bound_to 10162
  140.5184  143.2272  151.8427 LP  0  0  0  0  0  0  0  0  0  0  0  0  # atno 17343 bound_to 10162
  156.9506  130.9773  151.3499 LP  0  0  0  0  0  0  0  0  0  0  0  0  # atno 17370 bound_to 10713
  157.5787  130.8361  149.8492 LP  0  0  0  0  0  0  0  0  0  0  0  0  # atno 17371 bound_to 10713
  140.3475  134.7797  157.4443 LP  0  0  0  0  0  0  0  0  0  0  0  0  # atno 17394 bound_to 11000
  140.0887  134.5630  155.8466 LP  0  0  0  0  0  0  0  0  0  0  0  0  # atno 17395 bound_to 11000

$$$$
