AV-unprocessed.smi:2658|AV-procd|sdf|10311|dock1
  -GOLD-   2272014323D 1   1.00000     0.00000
 Structure written by MMmdl.
 47 49  0  0  0  0  0  0  0  0  2 V2000
  152.0675  143.8819  160.2445 C   0  0  0  0  0  0  0  0  0  0  0  0
  151.8880  142.7879  159.2057 C   0  0  0  0  0  0  0  0  0  0  0  0
  150.9654  142.9988  158.1562 C   0  0  0  0  0  0  0  0  0  0  0  0
  150.8239  141.9800  157.2216 C   0  0  0  0  0  0  0  0  0  0  0  0
  150.0138  141.8858  156.0879 N   0  3  0  0  0  0  0  0  0  0  0  0
  150.2212  140.6852  155.4798 C   0  0  0  0  0  0  0  0  0  0  0  0
  151.1509  140.0104  156.2088 N   0  0  0  0  0  0  0  0  0  0  0  0
  151.7216  138.6729  155.9917 C   0  0  0  0  0  0  0  0  0  0  0  0
  150.9024  137.8209  155.0016 C   0  0  1  0  0  0  0  0  0  0  0  0
  151.7787  137.0062  154.2479 O   0  0  0  0  0  0  0  0  0  0  0  0
  149.8986  136.9130  155.7290 C   0  0  0  0  0  0  0  0  0  0  0  0
  150.6129  136.0261  156.5853 O   0  0  0  0  0  0  0  0  0  0  0  0
  150.3597  134.6734  156.4865 C   0  0  0  0  0  0  0  0  0  0  0  0
  149.5774  134.2040  155.4145 C   0  0  0  0  0  0  0  0  0  0  0  0
  149.3293  132.8206  155.3391 C   0  0  0  0  0  0  0  0  0  0  0  0
  148.4932  132.2422  154.2133 C   0  0  0  0  0  0  0  0  0  0  0  0
  149.8891  132.0099  156.3520 C   0  0  0  0  0  0  0  0  0  0  0  0
  149.6872  130.5062  156.3732 C   0  0  0  0  0  0  0  0  0  0  0  0
  150.6363  132.5205  157.3585 N   0  0  0  0  0  0  0  0  0  0  0  0
  150.8692  133.8351  157.4260 N   0  0  0  0  0  0  0  0  0  0  0  0
  151.5586  140.7810  157.3046 C   0  0  0  0  0  0  0  0  0  0  0  0
  152.4728  140.5583  158.3317 C   0  0  0  0  0  0  0  0  0  0  0  0
  152.6332  141.5835  159.2912 C   0  0  0  0  0  0  0  0  0  0  0  0
  153.6262  141.3690  160.4209 C   0  0  0  0  0  0  0  0  0  0  0  0
  151.4393  144.7462  160.0270 H   0  0  0  0  0  0  0  0  0  0  0  0
  153.1033  144.2214  160.2691 H   0  0  0  0  0  0  0  0  0  0  0  0
  151.7988  143.5157  161.2357 H   0  0  0  0  0  0  0  0  0  0  0  0
  150.3956  143.9136  158.0835 H   0  0  0  0  0  0  0  0  0  0  0  0
  149.7346  140.3310  154.5824 H   0  0  0  0  0  0  0  0  0  0  0  0
  152.7586  138.7695  155.6694 H   0  0  0  0  0  0  0  0  0  0  0  0
  151.7515  138.1806  156.9645 H   0  0  0  0  0  0  0  0  0  0  0  0
  150.3682  138.4866  154.3223 H   0  0  0  0  0  0  0  0  0  0  0  0
  151.3562  136.7901  153.4304 H   0  0  0  0  0  0  0  0  0  0  0  0
  149.1653  137.5051  156.2801 H   0  0  0  0  0  0  0  0  0  0  0  0
  149.3554  136.3173  154.9931 H   0  0  0  0  0  0  0  0  0  0  0  0
  149.1815  134.8877  154.6778 H   0  0  0  0  0  0  0  0  0  0  0  0
  147.5995  131.7615  154.6114 H   0  0  0  0  0  0  0  0  0  0  0  0
  149.0657  131.5015  153.6547 H   0  0  0  0  0  0  0  0  0  0  0  0
  148.1771  133.0194  153.5169 H   0  0  0  0  0  0  0  0  0  0  0  0
  150.1393  130.0512  155.4919 H   0  0  0  0  0  0  0  0  0  0  0  0
  148.6245  130.2637  156.3812 H   0  0  0  0  0  0  0  0  0  0  0  0
  150.1409  130.0548  157.2566 H   0  0  0  0  0  0  0  0  0  0  0  0
  153.0452  139.6448  158.3943 H   0  0  0  0  0  0  0  0  0  0  0  0
  154.1109  140.3951  160.3467 H   0  0  0  0  0  0  0  0  0  0  0  0
  153.1242  141.4182  161.3875 H   0  0  0  0  0  0  0  0  0  0  0  0
  154.4053  142.1310  160.3949 H   0  0  0  0  0  0  0  0  0  0  0  0
  149.3665  142.5875  155.7520 H   0  0  0  0  0  0  0  0  0  0  0  0
  1  2  1  0  0  0  0
  1 25  1  0  0  0  0
  1 26  1  0  0  0  0
  1 27  1  0  0  0  0
  2 23  1  0  0  0  0
  2  3  2  0  0  0  0
  3  4  1  0  0  0  0
  3 28  1  0  0  0  0
  4 21  2  0  0  0  0
  4  5  1  0  0  0  0
  5  6  2  0  0  0  0
  5 47  1  0  0  0  0
  6  7  1  0  0  0  0
  6 29  1  0  0  0  0
  7  8  1  0  0  0  0
  7 21  1  0  0  0  0
  8  9  1  0  0  0  0
  8 30  1  0  0  0  0
  8 31  1  0  0  0  0
  9 10  1  0  0  0  0
  9 11  1  0  0  0  0
  9 32  1  0  0  0  0
 10 33  1  0  0  0  0
 11 12  1  0  0  0  0
 11 34  1  0  0  0  0
 11 35  1  0  0  0  0
 12 13  1  0  0  0  0
 13 20  1  0  0  0  0
 13 14  2  0  0  0  0
 14 15  1  0  0  0  0
 14 36  1  0  0  0  0
 15 16  1  0  0  0  0
 15 17  2  0  0  0  0
 16 37  1  0  0  0  0
 16 38  1  0  0  0  0
 16 39  1  0  0  0  0
 17 18  1  0  0  0  0
 17 19  1  0  0  0  0
 18 40  1  0  0  0  0
 18 41  1  0  0  0  0
 18 42  1  0  0  0  0
 19 20  2  0  0  0  0
 21 22  1  0  0  0  0
 22 23  2  0  0  0  0
 22 43  1  0  0  0  0
 23 24  1  0  0  0  0
 24 44  1  0  0  0  0
 24 45  1  0  0  0  0
 24 46  1  0  0  0  0
M  CHG  1   5   1
M  END
> <s_m_source_file>
AV-unprocessed.smi

> <i_m_source_file_index>
2658

> <i_lp_mmshare_version>
43012

> <i_f3d_flags>
0

> <s_epik_input>
W0NIM11jKFtjSF0xKWMoW0NIM10pW2NIXWMoYzEyKW4oW2NIXW4yKVtDSDJdW0NASF0oW09IXSlbQ0gyXU9jM1tjSF1jKFtDSDNdKWMoW0NIM10pbm4z

> <s_epik_cmdline>
J2VwaWtfcHl0aG9uJywgJy1waCcsICc3LjAnLCAnLXRuJywgJzgnLCAnLW1hJywgJzIwMCcsICctbWV0YWxfYmluZGluZycsICctaW1hZScsICc8aW5maWxlLm1hZT4nLCAnLW9tYWUnLCAnPG91dGZpbGUubWFlPic=

> <r_lp_tautomer_probability>
1

> <r_epik_Ionization_Penalty>
1.0494

> <r_epik_Ionization_Penalty_Charging>
1.04926

> <r_epik_Ionization_Penalty_Neutral>
0.000140304

> <r_epik_State_Penalty>
1.10197

> <r_epik_Charging_Adjusted_Penalty>
2.15123

> <i_epik_Tot_Q>
1

> <i_epik_Tot_abs_Q>
1

> <r_epik_Metal_State_Penalty>
1.19636

> <b_epik_Metal_Only>
0

> <s_lp_Force_Field>
OPLS_2005

> <r_lp_Energy>
21.0246

> <b_lp_Chiralities_Consistent>
1

> <s_lp_Variant>
AV-unprocessed.smi:2658-4

> <Gold.Version>
5.8.1

> <Gold.Id.Protein>
6NUR|6NUR_protein|mol2

> <Gold.PLP.Fitness>
59.8015

> <Gold.PLP.PLP>
-50.1727

> <Gold.PLP.part.hbond>
-3.3322

> <Gold.PLP.part.metal>
0.0000

> <Gold.PLP.part.buried>
-4.7883

> <Gold.PLP.part.nonpolar>
-41.5975

> <Gold.PLP.part.repulsive>
0.1607

> <Gold.PLP.ligand.clash>
0.1419

> <Gold.PLP.ligand.torsion>
1.1221

> <Gold.PLP.Chemscore.Hbond>
3.9600

> <Gold.PLP.Chemscore.CHOScore>
0.0000

> <Gold.PLP.Chemscore.Metal>
0.0000

> <Gold.Chemscore.Hbonds>
donor molecule, donor type, donor heavy atom, donor atom, acceptor molecule, acceptor atom, score
      L1  H     5    47       P1  8028  1.15
      L1  H    10    33       P1  7949  0.81
      P1  H  6896  6907       L1    20  0.40
      P1  H 10752 10763       L1    10  0.60

> <Gold.PLP.Chemscore.Internal.Correction>
0.1348

> <Gold.Rescore>
     Score         DG    S(hbond)    S(metal)    S(lipo)     H(rot)  DE(clash)    DE(int)     intcor
     18.34     -19.74       1.91        0.00     121.25       2.47       0.31       1.08       ----

> <Gold.Chemscore.Fitness>
18.3435

> <Gold.Chemscore.DG>
-19.7397

> <Gold.Chemscore.ZeroCoef>
-5.4800

> <Gold.Chemscore.Hbond>
1.9139

> <Gold.Chemscore.Metal>
0.0000

> <Gold.Chemscore.Lipo>
121.2522

> <Gold.Chemscore.Internal_Hbond>
0.0000

> <Gold.Chemscore.DEClash>
0.3126

> <Gold.Chemscore.DEInternal>
1.0836

> <Gold.Chemscore.Rot>
2.4685

> <Gold.Chemscore.Internal.Correction>
   9.000000E+99

> <Gold.Chemscore.Hbonds>
donor molecule, donor type, donor heavy atom, donor atom, acceptor molecule, acceptor atom, score
      L1  H     5    47       P1  8028  0.54
      L1  H    10    33       P1  7949  0.59
      P1  H  6896  6907       L1    20  0.05
      P1  H 10752 10763       L1    10  0.04

> <Gold.Chemscore.Hbond.Weighted>
-6.3926

> <Gold.Chemscore.Metal.Weighted>
-0.0000

> <Gold.Chemscore.Lipo.Weighted>
-14.1865

> <Gold.Chemscore.Internal_Hbond.Weighted>
0.0000

> <Gold.Chemscore.DEClash.Weighted>
0.3126

> <Gold.Chemscore.DEInternal.Weighted>
1.0836

> <Gold.Chemscore.Rot.Weighted>
6.3194

> <Gold.Chemscore.Internal.Correction.Weighted>
   9.000000E+99

> <Gold.Protein.RotatedTorsions>
[ 6907 6896 6895 6894 ] final -111.75 input  -60.11 | X-H torsion
[ 7974 7965 7964 7962 ] final  -48.52 input  175.53 | X-H torsion
[ 8008 7997 7996 7995 ] final -125.29 input   59.86 | X-H torsion
[ 10167 10162 10161 10158 ] final  151.71 input  -65.29 | X-H torsion
[ 10718 10713 10712 10709 ] final  -71.52 input   66.30 | X-H torsion
[ 10763 10752 10751 10750 ] final   24.63 input  -60.55 | X-H torsion
[ 11005 11000 10999 10996 ] final -112.61 input  -57.11 | X-H torsion

> <Gold.Protein.ActiveResidues>
 VAL166  LYS551  ARG553  GLY616  TRP617  ASP618  TYR619  PRO620  LYS621  CYS622 
 ASP623  PHE694  ASN695  SER759  ASP760  ASP761  ALA762  ILE779  LEU786  VAL792 
 PHE793  MET794  SER795  GLU796  ALA797  LYS798  CYS799  TRP800  GLU811  SER814 

> <Gold.Protein.RotatedAtoms>
  150.7711  133.9189  159.3391 H   0  0  0  0  0  0  0  0  0  0  0  0  # atno 6907 bound_to 6896
  151.7075  135.0917  160.0271 H   0  0  0  0  0  0  0  0  0  0  0  0  # atno 6908 bound_to 6896
  152.3729  133.6405  159.6137 H   0  0  0  0  0  0  0  0  0  0  0  0  # atno 6909 bound_to 6896
  145.9503  140.7578  142.9508 H   0  0  0  0  0  0  0  0  0  0  0  0  # atno 7974 bound_to 7965
  155.2108  140.0419  157.2933 H   0  0  0  0  0  0  0  0  0  0  0  0  # atno 8008 bound_to 7997
  154.6013  140.2453  155.7760 H   0  0  0  0  0  0  0  0  0  0  0  0  # atno 8009 bound_to 7997
  156.2322  140.2934  156.0228 H   0  0  0  0  0  0  0  0  0  0  0  0  # atno 8010 bound_to 7997
  139.4838  144.5418  151.7551 H   0  0  0  0  0  0  0  0  0  0  0  0  # atno 10167 bound_to 10162
  156.0359  130.4353  150.2456 H   0  0  0  0  0  0  0  0  0  0  0  0  # atno 10718 bound_to 10713
  153.0750  135.6601  154.0166 H   0  0  0  0  0  0  0  0  0  0  0  0  # atno 10763 bound_to 10752
  153.9802  135.2956  155.3422 H   0  0  0  0  0  0  0  0  0  0  0  0  # atno 10764 bound_to 10752
  154.7135  135.5195  153.8773 H   0  0  0  0  0  0  0  0  0  0  0  0  # atno 10765 bound_to 10752
  141.0665  133.9451  157.2569 H   0  0  0  0  0  0  0  0  0  0  0  0  # atno 11005 bound_to 11000
  144.6794  140.2424  143.7342 LP  0  0  0  0  0  0  0  0  0  0  0  0  # atno 17320 bound_to 7965
  145.8180  139.2031  143.1954 LP  0  0  0  0  0  0  0  0  0  0  0  0  # atno 17321 bound_to 7965
  140.4959  144.1241  150.5960 LP  0  0  0  0  0  0  0  0  0  0  0  0  # atno 17342 bound_to 10162
  140.4118  143.2653  151.9823 LP  0  0  0  0  0  0  0  0  0  0  0  0  # atno 17343 bound_to 10162
  157.0555  131.0075  151.3239 LP  0  0  0  0  0  0  0  0  0  0  0  0  # atno 17370 bound_to 10713
  157.5109  130.7938  149.7704 LP  0  0  0  0  0  0  0  0  0  0  0  0  # atno 17371 bound_to 10713
  139.9481  135.0180  156.8913 LP  0  0  0  0  0  0  0  0  0  0  0  0  # atno 17394 bound_to 11000
  140.5763  134.0395  155.7448 LP  0  0  0  0  0  0  0  0  0  0  0  0  # atno 17395 bound_to 11000

$$$$
