AV-unprocessed.smi:2225|AV-procd|sdf|8999|dock5
  -GOLD-   2272012203D 1   1.00000     0.00000
 Structure written by MMmdl.
 33 34  0  0  0  0  0  0  0  0  1 V2000
  149.1675  140.1893  156.7482 O   0  0  0  0  0  0  0  0  0  0  0  0
  149.5587  141.1772  156.1279 C   0  0  0  0  0  0  0  0  0  0  0  0
  151.0347  141.5959  156.2470 C   0  0  0  0  0  0  0  0  0  0  0  0
  151.4575  142.0261  157.5930 N   0  0  0  0  0  0  0  0  0  0  0  0
  150.8832  143.2097  158.0899 C   0  0  0  0  0  0  0  0  0  0  0  0
  151.1994  143.6944  159.2982 C   0  0  0  0  0  0  0  0  0  0  0  0
  152.1596  142.9692  160.0938 C   0  0  0  0  0  0  0  0  0  0  0  0
  152.7240  141.8240  159.6459 C   0  0  0  0  0  0  0  0  0  0  0  0
  153.7463  141.0473  160.4727 C   0  0  0  0  0  0  0  0  0  0  0  0
  153.4166  139.7564  160.5289 F   0  0  0  0  0  0  0  0  0  0  0  0
  154.9611  141.1442  159.9312 F   0  0  0  0  0  0  0  0  0  0  0  0
  153.8209  141.5041  161.7237 F   0  0  0  0  0  0  0  0  0  0  0  0
  152.3613  141.2939  158.3155 C   0  0  0  0  0  0  0  0  0  0  0  0
  152.8351  140.2471  157.8712 O   0  0  0  0  0  0  0  0  0  0  0  0
  148.7481  141.9092  155.3455 N   0  0  0  0  0  0  0  0  0  0  0  0
  147.3276  141.6516  155.1321 C   0  0  2  0  0  0  0  0  0  0  0  0
  146.7179  142.6037  154.1032 C   0  0  0  0  0  0  0  0  0  0  0  0
  145.4592  143.1223  154.7894 C   0  0  0  0  0  0  0  0  0  0  0  0
  145.8238  143.1357  156.1581 O   0  0  0  0  0  0  0  0  0  0  0  0
  146.5267  141.9285  156.4125 C   0  0  0  0  0  0  0  0  0  0  0  0
  151.6570  140.7686  155.9009 H   0  0  0  0  0  0  0  0  0  0  0  0
  151.2133  142.3958  155.5270 H   0  0  0  0  0  0  0  0  0  0  0  0
  150.1710  143.6887  157.4334 H   0  0  0  0  0  0  0  0  0  0  0  0
  150.7467  144.6031  159.6670 H   0  0  0  0  0  0  0  0  0  0  0  0
  152.4229  143.3634  161.0640 H   0  0  0  0  0  0  0  0  0  0  0  0
  149.1429  142.7043  154.8641 H   0  0  0  0  0  0  0  0  0  0  0  0
  147.1817  140.6115  154.8349 H   0  0  0  0  0  0  0  0  0  0  0  0
  147.3879  143.4410  153.9010 H   0  0  0  0  0  0  0  0  0  0  0  0
  146.5020  142.1151  153.1526 H   0  0  0  0  0  0  0  0  0  0  0  0
  145.1644  144.1116  154.4390 H   0  0  0  0  0  0  0  0  0  0  0  0
  144.6225  142.4381  154.6395 H   0  0  0  0  0  0  0  0  0  0  0  0
  145.8032  141.1305  156.5858 H   0  0  0  0  0  0  0  0  0  0  0  0
  147.1463  142.0143  157.3061 H   0  0  0  0  0  0  0  0  0  0  0  0
  1  2  2  0  0  0  0
  2  3  1  0  0  0  0
  2 15  1  0  0  0  0
  3  4  1  0  0  0  0
  3 21  1  0  0  0  0
  3 22  1  0  0  0  0
  4 13  1  0  0  0  0
  4  5  1  0  0  0  0
  5  6  2  0  0  0  0
  5 23  1  0  0  0  0
  6  7  1  0  0  0  0
  6 24  1  0  0  0  0
  7  8  2  0  0  0  0
  7 25  1  0  0  0  0
  8  9  1  0  0  0  0
  8 13  1  0  0  0  0
  9 10  1  0  0  0  0
  9 11  1  0  0  0  0
  9 12  1  0  0  0  0
 13 14  2  0  0  0  0
 15 16  1  0  0  0  0
 15 26  1  0  0  0  0
 16 20  1  0  0  0  0
 16 17  1  0  0  0  0
 16 27  1  0  0  0  0
 17 18  1  0  0  0  0
 17 28  1  0  0  0  0
 17 29  1  0  0  0  0
 18 19  1  0  0  0  0
 18 30  1  0  0  0  0
 18 31  1  0  0  0  0
 19 20  1  0  0  0  0
 20 32  1  0  0  0  0
 20 33  1  0  0  0  0
M  END
> <s_m_source_file>
AV-unprocessed.smi

> <i_m_source_file_index>
2225

> <i_lp_mmshare_version>
43012

> <i_f3d_flags>
0

> <s_epik_input>
W0NIMl0xT1tDSDJdW0NIMl1bQ0BIXTFbTkhdQyg9TylbQ0gyXW4yW2NIXVtjSF1bY0hdYyhDKEYpKEYpRiljMj1P

> <s_epik_cmdline>
J2VwaWtfcHl0aG9uJywgJy1waCcsICc3LjAnLCAnLXRuJywgJzgnLCAnLW1hJywgJzIwMCcsICctbWV0YWxfYmluZGluZycsICctaW1hZScsICc8aW5maWxlLm1hZT4nLCAnLW9tYWUnLCAnPG91dGZpbGUubWFlPic=

> <r_lp_tautomer_probability>
1

> <r_epik_Ionization_Penalty>
3.32109e-08

> <r_epik_Ionization_Penalty_Charging>
1.91399e-09

> <r_epik_Ionization_Penalty_Neutral>
3.1297e-08

> <r_epik_State_Penalty>
-0

> <r_epik_Charging_Adjusted_Penalty>
1.91399e-09

> <i_epik_Tot_Q>
0

> <i_epik_Tot_abs_Q>
0

> <r_epik_Metal_State_Penalty>
-0

> <b_epik_Metal_Only>
0

> <s_lp_Force_Field>
OPLS_2005

> <r_lp_Energy>
26.4099

> <b_lp_Chiralities_Consistent>
1

> <s_lp_Variant>
AV-unprocessed.smi:2225-1

> <Gold.Version>
5.8.1

> <Gold.Id.Protein>
6NUR|6NUR_protein|mol2

> <Gold.PLP.Fitness>
46.8530

> <Gold.PLP.PLP>
-40.4075

> <Gold.PLP.part.hbond>
-2.0000

> <Gold.PLP.part.metal>
0.0000

> <Gold.PLP.part.buried>
-5.0635

> <Gold.PLP.part.nonpolar>
-33.4393

> <Gold.PLP.part.repulsive>
0.3191

> <Gold.PLP.ligand.clash>
0.0000

> <Gold.PLP.ligand.torsion>
0.4023

> <Gold.PLP.Chemscore.Hbond>
1.3059

> <Gold.PLP.Chemscore.CHOScore>
1.0000

> <Gold.PLP.Chemscore.Metal>
0.0000

> <Gold.Chemscore.Hbonds>
donor molecule, donor type, donor heavy atom, donor atom, acceptor molecule, acceptor atom, score
      L1  H    15    26       P1  8028  0.27
      P1  H  7997  8010       L1    14  0.96
      L1  C     5    23       P1  8028  1.00

> <Gold.PLP.Chemscore.Internal.Correction>
0.3324

> <Gold.Rescore>
     Score         DG    S(hbond)    S(metal)    S(lipo)     H(rot)  DE(clash)    DE(int)     intcor
     12.72     -14.69       1.48        0.00      72.40       1.64       0.03       1.94       ----

> <Gold.Chemscore.Fitness>
12.7238

> <Gold.Chemscore.DG>
-14.6873

> <Gold.Chemscore.ZeroCoef>
-5.4800

> <Gold.Chemscore.Hbond>
1.4768

> <Gold.Chemscore.Metal>
0.0000

> <Gold.Chemscore.Lipo>
72.3954

> <Gold.Chemscore.Internal_Hbond>
0.0000

> <Gold.Chemscore.DEClash>
0.0280

> <Gold.Chemscore.DEInternal>
1.9355

> <Gold.Chemscore.Rot>
1.6389

> <Gold.Chemscore.Internal.Correction>
   9.000000E+99

> <Gold.Chemscore.Hbonds>
donor molecule, donor type, donor heavy atom, donor atom, acceptor molecule, acceptor atom, score
      L1  H    15    26       P1  8028  0.27
      P1  H  7997  8010       L1    14  0.91

> <Gold.Chemscore.Hbond.Weighted>
-4.9326

> <Gold.Chemscore.Metal.Weighted>
-0.0000

> <Gold.Chemscore.Lipo.Weighted>
-8.4703

> <Gold.Chemscore.Internal_Hbond.Weighted>
0.0000

> <Gold.Chemscore.DEClash.Weighted>
0.0280

> <Gold.Chemscore.DEInternal.Weighted>
1.9355

> <Gold.Chemscore.Rot.Weighted>
4.1956

> <Gold.Chemscore.Internal.Correction.Weighted>
   9.000000E+99

> <Gold.Protein.RotatedTorsions>
[ 6907 6896 6895 6894 ] final -146.20 input  -60.11 | X-H torsion
[ 7974 7965 7964 7962 ] final -112.95 input  175.53 | X-H torsion
[ 8008 7997 7996 7995 ] final   49.70 input   59.86 | X-H torsion
[ 10167 10162 10161 10158 ] final  107.38 input  -65.29 | X-H torsion
[ 10718 10713 10712 10709 ] final -152.04 input   66.30 | X-H torsion
[ 10763 10752 10751 10750 ] final  -27.56 input  -60.55 | X-H torsion
[ 11005 11000 10999 10996 ] final -118.98 input  -57.11 | X-H torsion

> <Gold.Protein.ActiveResidues>
 VAL166  LYS551  ARG553  GLY616  TRP617  ASP618  TYR619  PRO620  LYS621  CYS622 
 ASP623  PHE694  ASN695  SER759  ASP760  ASP761  ALA762  ILE779  LEU786  VAL792 
 PHE793  MET794  SER795  GLU796  ALA797  LYS798  CYS799  TRP800  GLU811  SER814 

> <Gold.Protein.RotatedAtoms>
  151.1383  133.4988  159.2597 H   0  0  0  0  0  0  0  0  0  0  0  0  # atno 6907 bound_to 6896
  151.1682  135.0305  159.8750 H   0  0  0  0  0  0  0  0  0  0  0  0  # atno 6908 bound_to 6896
  152.5462  134.1250  159.8468 H   0  0  0  0  0  0  0  0  0  0  0  0  # atno 6909 bound_to 6896
  145.1378  140.8761  143.3720 H   0  0  0  0  0  0  0  0  0  0  0  0  # atno 7974 bound_to 7965
  155.4065  140.3440  155.4260 H   0  0  0  0  0  0  0  0  0  0  0  0  # atno 8008 bound_to 7997
  156.1473  140.1560  156.8857 H   0  0  0  0  0  0  0  0  0  0  0  0  # atno 8009 bound_to 7997
  154.5022  140.0811  156.7802 H   0  0  0  0  0  0  0  0  0  0  0  0  # atno 8010 bound_to 7997
  139.6931  144.7105  151.1313 H   0  0  0  0  0  0  0  0  0  0  0  0  # atno 10167 bound_to 10162
  156.4672  130.8241  151.2471 H   0  0  0  0  0  0  0  0  0  0  0  0  # atno 10718 bound_to 10713
  153.7340  135.6937  153.4982 H   0  0  0  0  0  0  0  0  0  0  0  0  # atno 10763 bound_to 10752
  153.2116  135.4401  155.0385 H   0  0  0  0  0  0  0  0  0  0  0  0  # atno 10764 bound_to 10752
  154.8243  135.3438  154.6869 H   0  0  0  0  0  0  0  0  0  0  0  0  # atno 10765 bound_to 10752
  141.0248  134.0070  157.3231 H   0  0  0  0  0  0  0  0  0  0  0  0  # atno 11005 bound_to 11000
  145.0565  139.3140  143.5902 LP  0  0  0  0  0  0  0  0  0  0  0  0  # atno 17320 bound_to 7965
  146.3508  139.9991  142.8678 LP  0  0  0  0  0  0  0  0  0  0  0  0  # atno 17321 bound_to 7965
  140.7688  143.5530  150.9183 LP  0  0  0  0  0  0  0  0  0  0  0  0  # atno 17342 bound_to 10162
  139.9208  143.6608  152.3097 LP  0  0  0  0  0  0  0  0  0  0  0  0  # atno 17343 bound_to 10162
  157.7494  131.0088  150.3242 LP  0  0  0  0  0  0  0  0  0  0  0  0  # atno 17370 bound_to 10713
  156.3655  130.3854  149.7217 LP  0  0  0  0  0  0  0  0  0  0  0  0  # atno 17371 bound_to 10713
  139.9169  135.0197  156.7914 LP  0  0  0  0  0  0  0  0  0  0  0  0  # atno 17394 bound_to 11000
  140.6511  133.9731  155.7755 LP  0  0  0  0  0  0  0  0  0  0  0  0  # atno 17395 bound_to 11000

$$$$
