#       Name:                AV-unprocessed.smi:1639
#       Creating user name   scv26
#       Creation time:       Fri Mar 27 07:23:41 2020


#       File generated by GOLD software.
#

@<TRIPOS>MOLECULE
AV-unprocessed.smi:1639
    42    43     1
SMALL
NO_CHARGES


@<TRIPOS>ATOM
      1 ****        -4.7185   2.0770  -1.7000 C.3            1 S1                 0.0000
      2 ****        -3.1952   2.2207  -1.6792 C.3            1 S1                 0.0000
      3 ****        -2.6126   0.9284  -1.7093 O.3            1 S1                 0.0000
      4 ****        -1.1933   0.9346  -1.6552 C.3            1 S1                 0.0000
      5 ****        -0.6436   0.2946  -2.9413 C.3            1 S1                 0.0000
      6 ****         0.8816   0.1285  -2.8424 C.3            1 S1                 0.0000
      7 ****         1.2681  -0.6502  -1.5730 C.3            1 S1                 0.0000
      8 ****         0.6958  -0.0223  -0.3846 N.3            1 S1                 0.0000
      9 ****         1.1644  -0.5788   0.8130 C.ar           1 S1                 0.0000
     10 ****         1.9984   0.1757   1.6559 C.ar           1 S1                 0.0000
     11 ****         2.4286  -0.4398   2.8474 C.ar           1 S1                 0.0000
     12 ****         3.3243   0.2688   3.8406 C.3            1 S1                 0.0000
     13 ****         2.0390  -1.7066   3.1367 N.pl3          1 S1                 1.0000
     14 ****         1.2433  -2.3683   2.2838 C.ar           1 S1                 0.0000
     15 ****         0.8620  -3.6504   2.5992 N.pl3          1 S1                 0.0000
     16 ****         0.8002  -1.8397   1.1384 N.ar           1 S1                 0.0000
     17 ****        -0.7568   0.1284  -0.4200 C.3            1 S1                 0.0000
     18 ****        -5.2026   3.0534  -1.6764 H              1 S1                 0.0000
     19 ****        -5.0688   1.5094  -0.8375 H              1 S1                 0.0000
     20 ****        -5.0515   1.5599  -2.6001 H              1 S1                 0.0000
     21 ****        -2.8607   2.8021  -2.5397 H              1 S1                 0.0000
     22 ****        -2.8859   2.7507  -0.7770 H              1 S1                 0.0000
     23 ****        -0.7968   1.9489  -1.5695 H              1 S1                 0.0000
     24 ****        -1.1071  -0.6805  -3.0951 H              1 S1                 0.0000
     25 ****        -0.9019   0.9048  -3.8073 H              1 S1                 0.0000
     26 ****         1.2610  -0.3856  -3.7258 H              1 S1                 0.0000
     27 ****         1.3558   1.1107  -2.8272 H              1 S1                 0.0000
     28 ****         0.9123  -1.6789  -1.6477 H              1 S1                 0.0000
     29 ****         2.3542  -0.6939  -1.4807 H              1 S1                 0.0000
     30 ****         2.2924   1.1837   1.4004 H              1 S1                 0.0000
     31 ****         3.5664   1.2769   3.5029 H              1 S1                 0.0000
     32 ****         4.2574  -0.2803   3.9699 H              1 S1                 0.0000
     33 ****         2.8308   0.3442   4.8100 H              1 S1                 0.0000
     34 ****         1.1775  -4.0804   3.4569 H              1 S1                 0.0000
     35 ****         0.2747  -4.1815   1.9727 H              1 S1                 0.0000
     36 ****        -1.0983   0.6277   0.4878 H              1 S1                 0.0000
     37 ****        -1.2241  -0.8574  -0.4388 H              1 S1                 0.0000
     38 ****         2.3562  -2.1434   4.0024 H              1 S1                 0.0000
     39 ****        -2.8933   0.4763  -2.5559 LP             1 S1                 0.0000
     40 ****        -2.9552   0.4104  -0.9254 LP             1 S1                 0.0000
     41 ****         1.0431   0.9152  -0.4065 LP             1 S1                 0.0000
     42 ****         0.2079  -2.3693   0.5311 LP             1 S1                 0.0000
@<TRIPOS>BOND
    1    1    2 1     
    2    1   18 1     
    3    1   19 1     
    4    1   20 1     
    5    2    3 1     
    6    2   21 1     
    7    2   22 1     
    8    3    4 1     
    9    4   17 1     
   10    4    5 1     
   11    4   23 1     
   12    5    6 1     
   13    5   24 1     
   14    5   25 1     
   15    6    7 1     
   16    6   26 1     
   17    6   27 1     
   18    7    8 1     
   19    7   28 1     
   20    7   29 1     
   21    8    9 1     
   22    8   17 1     
   23    9   16 ar    
   24    9   10 ar    
   25   10   11 ar    
   26   10   30 1     
   27   11   12 1     
   28   11   13 ar    
   29   12   31 1     
   30   12   32 1     
   31   12   33 1     
   32   13   14 ar    
   33   13   38 1     
   34   14   15 1     
   35   14   16 ar    
   36   15   34 1     
   37   15   35 1     
   38   17   36 1     
   39   17   37 1     
   40    3   39 1     
   41    3   40 1     
   42    8   41 1     
   43   16   42 1     
@<TRIPOS>SUBSTRUCTURE
      1 S1             1
@<TRIPOS>SET
LONE_PAIRS      STATIC     ATOMS    <user>   **** ""
4 39 40 41 42
DONOR_HYDROGENS      STATIC     ATOMS    <user>   **** ""
3 38 34 35
ATOM$BLUE        STATIC     ATOMS    COLORGROUP SYSTEM
4 39 40 41 42
ATOM$RED        STATIC     ATOMS    COLORGROUP SYSTEM
3 38 34 35
