#       Name:                AV-unprocessed.smi:1244
#       Creating user name   scv26
#       Creation time:       Fri Mar 27 04:32:20 2020


#       File generated by GOLD software.
#

@<TRIPOS>MOLECULE
AV-unprocessed.smi:1244
    61    63     1
SMALL
NO_CHARGES


@<TRIPOS>ATOM
      1 ****        -2.8025   5.2400   1.3052 C.3            1 S1                 0.0000
      2 ****        -3.4906   4.2680   0.3302 C.3            1 S1                 0.0000
      3 ****        -2.8731   2.8555   0.3301 C.3            1 S1                 0.0000
      4 ****        -1.5624   2.8423  -0.3621 N.4            1 S1                 1.0000
      5 ****        -0.9122   1.5090  -0.3144 C.3            1 S1                 0.0000
      6 ****         0.6030   1.5830  -0.5854 C.3            1 S1                 0.0000
      7 ****         1.2362   0.2763  -0.4532 N.am           1 S1                 0.0000
      8 ****         1.5781  -0.2915   0.7118 C.2            1 S1                 0.0000
      9 ****         1.3715   0.2318   1.8069 O.2            1 S1                 0.0000
     10 ****         2.1452  -1.4941   0.5217 N.am           1 S1                 0.0000
     11 ****         2.6090  -2.4092   1.5087 C.ar           1 S1                 0.0000
     12 ****         3.1845  -1.9593   2.7222 C.ar           1 S1                 0.0000
     13 ****         3.6919  -2.8989   3.6357 C.ar           1 S1                 0.0000
     14 ****         3.6217  -4.2601   3.2962 C.ar           1 S1                 0.0000
     15 ****         3.0901  -4.7040   2.1398 N.ar           1 S1                 0.0000
     16 ****         2.5834  -3.8106   1.2546 C.ar           1 S1                 0.0000
     17 ****         2.0234  -4.3344   0.0670 N.3            1 S1                 0.0000
     18 ****         2.2765  -5.7178  -0.3222 C.3            1 S1                 0.0000
     19 ****         1.2287  -6.0252  -1.3876 C.3            1 S1                 0.0000
     20 ****         0.0195  -5.2394  -0.8897 C.3            1 S1                 0.0000
     21 ****         0.6361  -3.9967  -0.2391 C.3            1 S1                 0.0000
     22 ****        -1.7007   3.3923  -1.7320 C.3            1 S1                 0.0000
     23 ****        -2.2916   4.8129  -1.6810 C.3            1 S1                 0.0000
     24 ****        -2.5288   5.3877  -3.0818 C.3            1 S1                 0.0000
     25 ****        -3.5435   4.7828  -1.0004 O.3            1 S1                 0.0000
     26 ****        -2.8959   4.8862   2.3323 H              1 S1                 0.0000
     27 ****        -3.2600   6.2284   1.2559 H              1 S1                 0.0000
     28 ****        -1.7388   5.3526   1.0981 H              1 S1                 0.0000
     29 ****        -4.5263   4.1762   0.6588 H              1 S1                 0.0000
     30 ****        -2.7632   2.4998   1.3555 H              1 S1                 0.0000
     31 ****        -3.5468   2.1606  -0.1741 H              1 S1                 0.0000
     32 ****        -1.0656   1.0831   0.6783 H              1 S1                 0.0000
     33 ****        -1.3995   0.8324  -1.0184 H              1 S1                 0.0000
     34 ****         0.7998   1.9339  -1.5976 H              1 S1                 0.0000
     35 ****         1.0786   2.2970   0.0895 H              1 S1                 0.0000
     36 ****         1.4394  -0.2242  -1.3065 H              1 S1                 0.0000
     37 ****         2.1595  -1.8391  -0.4271 H              1 S1                 0.0000
     38 ****         3.2661  -0.9090   2.9565 H              1 S1                 0.0000
     39 ****         4.1362  -2.5821   4.5676 H              1 S1                 0.0000
     40 ****         4.0084  -5.0126   3.9673 H              1 S1                 0.0000
     41 ****         3.2907  -5.8455  -0.7019 H              1 S1                 0.0000
     42 ****         2.1390  -6.3912   0.5249 H              1 S1                 0.0000
     43 ****         1.5533  -5.6379  -2.3544 H              1 S1                 0.0000
     44 ****         1.0321  -7.0922  -1.4959 H              1 S1                 0.0000
     45 ****        -0.6870  -4.9955  -1.6833 H              1 S1                 0.0000
     46 ****        -0.5103  -5.8232  -0.1359 H              1 S1                 0.0000
     47 ****         0.0799  -3.6964   0.6503 H              1 S1                 0.0000
     48 ****         0.6233  -3.1644  -0.9434 H              1 S1                 0.0000
     49 ****        -0.7315   3.4281  -2.2280 H              1 S1                 0.0000
     50 ****        -2.3395   2.7365  -2.3262 H              1 S1                 0.0000
     51 ****        -1.6031   5.4767  -1.1576 H              1 S1                 0.0000
     52 ****        -1.5983   5.4407  -3.6474 H              1 S1                 0.0000
     53 ****        -2.9396   6.3961  -3.0247 H              1 S1                 0.0000
     54 ****        -3.2303   4.7741  -3.6479 H              1 S1                 0.0000
     55 ****        -0.9640   3.4726   0.1527 H              1 S1                 0.0000
     56 ****         0.9273   1.1262   1.8578 LP             1 S1                 0.0000
     57 ****         1.6479  -0.2377   2.6455 LP             1 S1                 0.0000
     58 ****         3.0696  -5.6830   1.9367 LP             1 S1                 0.0000
     59 ****         2.6272  -3.7849  -0.5103 LP             1 S1                 0.0000
     60 ****        -3.8971   5.7172  -0.9583 LP             1 S1                 0.0000
     61 ****        -4.1715   4.2123  -1.5297 LP             1 S1                 0.0000
@<TRIPOS>BOND
    1    1    2 1     
    2    1   26 1     
    3    1   27 1     
    4    1   28 1     
    5    2   25 1     
    6    2    3 1     
    7    2   29 1     
    8    3    4 1     
    9    3   30 1     
   10    3   31 1     
   11    4    5 1     
   12    4   22 1     
   13    4   55 1     
   14    5    6 1     
   15    5   32 1     
   16    5   33 1     
   17    6    7 1     
   18    6   34 1     
   19    6   35 1     
   20    7    8 am    
   21    7   36 1     
   22    8    9 2     
   23    8   10 am    
   24   10   11 1     
   25   10   37 1     
   26   11   16 ar    
   27   11   12 ar    
   28   12   13 ar    
   29   12   38 1     
   30   13   14 ar    
   31   13   39 1     
   32   14   15 ar    
   33   14   40 1     
   34   15   16 ar    
   35   16   17 1     
   36   17   21 1     
   37   17   18 1     
   38   18   19 1     
   39   18   41 1     
   40   18   42 1     
   41   19   20 1     
   42   19   43 1     
   43   19   44 1     
   44   20   21 1     
   45   20   45 1     
   46   20   46 1     
   47   21   47 1     
   48   21   48 1     
   49   22   23 1     
   50   22   49 1     
   51   22   50 1     
   52   23   24 1     
   53   23   25 1     
   54   23   51 1     
   55   24   52 1     
   56   24   53 1     
   57   24   54 1     
   58    9   56 1     
   59    9   57 1     
   60   15   58 1     
   61   17   59 1     
   62   25   60 1     
   63   25   61 1     
@<TRIPOS>SUBSTRUCTURE
      1 S1             1
@<TRIPOS>SET
LONE_PAIRS      STATIC     ATOMS    <user>   **** ""
6 56 57 58 59 60 61
DONOR_HYDROGENS      STATIC     ATOMS    <user>   **** ""
3 55 36 37
ATOM$BLUE        STATIC     ATOMS    COLORGROUP SYSTEM
6 56 57 58 59 60 61
ATOM$RED        STATIC     ATOMS    COLORGROUP SYSTEM
3 55 36 37
