AV-unprocessed.smi:1406|AV-procd|sdf|5713|dock1
  -GOLD-   22720 5343D 1   1.00000     0.00000
 Structure written by MMmdl.
 41 43  0  0  0  0  0  0  0  0  2 V2000
  147.1807  140.6110  153.3013 C   0  0  0  0  0  0  0  0  0  0  0  0
  147.8168  141.6658  154.2296 C   0  0  2  0  0  0  0  0  0  0  0  0
  149.1982  141.2439  154.7553 C   0  0  0  0  0  0  0  0  0  0  0  0
  149.7543  140.2325  154.3262 O   0  0  0  0  0  0  0  0  0  0  0  0
  149.7447  142.0358  155.6917 N   0  0  0  0  0  0  0  0  0  0  0  0
  151.0298  141.8050  156.3442 C   0  0  2  0  0  0  0  0  0  0  0  0
  151.2216  140.3432  156.7852 C   0  0  0  0  0  0  0  0  0  0  0  0
  151.9654  140.4170  158.1333 C   0  0  0  0  0  0  0  0  0  0  0  0
  152.2450  141.8498  158.3477 N   0  3  2  0  0  0  0  0  0  0  0  0
  152.4417  142.2966  159.7439 C   0  0  0  0  0  0  0  0  0  0  0  0
  152.8066  143.7945  159.7512 C   0  0  0  0  0  0  0  0  0  0  0  0
  151.7757  144.6376  158.9735 C   0  0  0  0  0  0  0  0  0  0  0  0
  151.5428  144.0687  157.5605 C   0  0  0  0  0  0  0  0  0  0  0  0
  151.1703  142.5793  157.6578 C   0  0  1  0  0  0  0  0  0  0  0  0
  146.9393  142.0181  155.3390 N   0  0  0  0  0  0  0  0  0  0  0  0
  145.7123  142.5439  155.3294 C   0  0  0  0  0  0  0  0  0  0  0  0
  145.2180  142.7804  156.5364 N   0  0  0  0  0  0  0  0  0  0  0  0
  146.2674  142.3542  157.3001 C   0  0  0  0  0  0  0  0  0  0  0  0
  147.3275  141.8980  156.6332 N   0  0  0  0  0  0  0  0  0  0  0  0
  147.8247  140.3986  152.4473 H   0  0  0  0  0  0  0  0  0  0  0  0
  146.2267  140.9647  152.9095 H   0  0  0  0  0  0  0  0  0  0  0  0
  146.9956  139.6682  153.8177 H   0  0  0  0  0  0  0  0  0  0  0  0
  147.9613  142.5704  153.6360 H   0  0  0  0  0  0  0  0  0  0  0  0
  149.2213  142.8469  155.9881 H   0  0  0  0  0  0  0  0  0  0  0  0
  151.8516  142.0702  155.6752 H   0  0  0  0  0  0  0  0  0  0  0  0
  150.2639  139.8386  156.9216 H   0  0  0  0  0  0  0  0  0  0  0  0
  151.7850  139.7794  156.0406 H   0  0  0  0  0  0  0  0  0  0  0  0
  151.3286  140.0343  158.9326 H   0  0  0  0  0  0  0  0  0  0  0  0
  152.8900  139.8392  158.1306 H   0  0  0  0  0  0  0  0  0  0  0  0
  151.5335  142.1212  160.3228 H   0  0  0  0  0  0  0  0  0  0  0  0
  153.2383  141.7127  160.2063 H   0  0  0  0  0  0  0  0  0  0  0  0
  152.8867  144.1551  160.7771 H   0  0  0  0  0  0  0  0  0  0  0  0
  153.7914  143.9276  159.3011 H   0  0  0  0  0  0  0  0  0  0  0  0
  150.8316  144.6487  159.5195 H   0  0  0  0  0  0  0  0  0  0  0  0
  152.1083  145.6741  158.9113 H   0  0  0  0  0  0  0  0  0  0  0  0
  150.7505  144.6283  157.0634 H   0  0  0  0  0  0  0  0  0  0  0  0
  152.4424  144.1930  156.9561 H   0  0  0  0  0  0  0  0  0  0  0  0
  150.2500  142.4723  158.2371 H   0  0  0  0  0  0  0  0  0  0  0  0
  145.1709  142.7629  154.4207 H   0  0  0  0  0  0  0  0  0  0  0  0
  146.2527  142.3873  158.3796 H   0  0  0  0  0  0  0  0  0  0  0  0
  153.0962  142.0545  157.8438 H   0  0  0  0  0  0  0  0  0  0  0  0
  1  2  1  0  0  0  0
  1 20  1  0  0  0  0
  1 21  1  0  0  0  0
  1 22  1  0  0  0  0
  2  3  1  0  0  0  0
  2 15  1  0  0  0  0
  2 23  1  0  0  0  0
  3  4  2  0  0  0  0
  3  5  1  0  0  0  0
  5  6  1  0  0  0  0
  5 24  1  0  0  0  0
  6 14  1  0  0  0  0
  6  7  1  0  0  0  0
  6 25  1  0  0  0  0
  7  8  1  0  0  0  0
  7 26  1  0  0  0  0
  7 27  1  0  0  0  0
  8  9  1  0  0  0  0
  8 28  1  0  0  0  0
  8 29  1  0  0  0  0
  9 14  1  0  0  0  0
  9 10  1  0  0  0  0
  9 41  1  0  0  0  0
 10 11  1  0  0  0  0
 10 30  1  0  0  0  0
 10 31  1  0  0  0  0
 11 12  1  0  0  0  0
 11 32  1  0  0  0  0
 11 33  1  0  0  0  0
 12 13  1  0  0  0  0
 12 34  1  0  0  0  0
 12 35  1  0  0  0  0
 13 14  1  0  0  0  0
 13 36  1  0  0  0  0
 13 37  1  0  0  0  0
 14 38  1  0  0  0  0
 15 19  1  0  0  0  0
 15 16  1  0  0  0  0
 16 17  2  0  0  0  0
 16 39  1  0  0  0  0
 17 18  1  0  0  0  0
 18 19  2  0  0  0  0
 18 40  1  0  0  0  0
M  CHG  1   9   1
M  END
> <s_m_source_file>
AV-unprocessed.smi

> <i_m_source_file_index>
1406

> <i_lp_mmshare_version>
43012

> <i_f3d_flags>
0

> <s_epik_input>
bjFbY0hdbltjSF1uMVtDQEhdKFtDSDNdKUMoPU8pW05IXVtDQEhdKFtDSDJdW0NIMl0yKVtDQEBIXShOMjMpW0NIMl1bQ0gyXVtDSDJdW0NIMl0z

> <s_epik_cmdline>
J2VwaWtfcHl0aG9uJywgJy1waCcsICc3LjAnLCAnLXRuJywgJzgnLCAnLW1hJywgJzIwMCcsICctbWV0YWxfYmluZGluZycsICctaW1hZScsICc8aW5maWxlLm1hZT4nLCAnLW9tYWUnLCAnPG91dGZpbGUubWFlPic=

> <r_lp_tautomer_probability>
1

> <r_epik_Ionization_Penalty>
0.00197066

> <r_epik_Ionization_Penalty_Charging>
0.00196223

> <r_epik_Ionization_Penalty_Neutral>
8.43107e-06

> <r_epik_State_Penalty>
0.00133866

> <r_epik_Charging_Adjusted_Penalty>
0.00330089

> <i_epik_Tot_Q>
1

> <i_epik_Tot_abs_Q>
1

> <r_epik_Metal_State_Penalty>
-0

> <b_epik_Metal_Only>
0

> <s_lp_Force_Field>
OPLS_2005

> <r_lp_Energy>
39.8757

> <b_lp_Chiralities_Consistent>
1

> <s_lp_Variant>
AV-unprocessed.smi:1406-5

> <Gold.Version>
5.8.1

> <Gold.Id.Protein>
6NUR|6NUR_protein|mol2

> <Gold.PLP.Fitness>
46.2665

> <Gold.PLP.PLP>
-41.6440

> <Gold.PLP.part.hbond>
-2.0000

> <Gold.PLP.part.metal>
0.0000

> <Gold.PLP.part.buried>
-5.0273

> <Gold.PLP.part.nonpolar>
-35.8597

> <Gold.PLP.part.repulsive>
0.7197

> <Gold.PLP.ligand.clash>
0.0000

> <Gold.PLP.ligand.torsion>
0.4849

> <Gold.PLP.Chemscore.Hbond>
1.8240

> <Gold.PLP.Chemscore.CHOScore>
0.0000

> <Gold.PLP.Chemscore.Metal>
0.0000

> <Gold.Chemscore.Hbonds>
donor molecule, donor type, donor heavy atom, donor atom, acceptor molecule, acceptor atom, score
      L1  H     5    24       P1  8028  0.90
      P1  H  7989  7998       L1     4  0.64

> <Gold.PLP.Chemscore.Internal.Correction>
0.1203

> <Gold.Rescore>
     Score         DG    S(hbond)    S(metal)    S(lipo)     H(rot)  DE(clash)    DE(int)     intcor
     13.51     -16.98       1.58        0.00      94.33       1.89       0.21       3.27       ----

> <Gold.Chemscore.Fitness>
13.5067

> <Gold.Chemscore.DG>
-16.9797

> <Gold.Chemscore.ZeroCoef>
-5.4800

> <Gold.Chemscore.Hbond>
1.5847

> <Gold.Chemscore.Metal>
0.0000

> <Gold.Chemscore.Lipo>
94.3273

> <Gold.Chemscore.Internal_Hbond>
0.0000

> <Gold.Chemscore.DEClash>
0.2062

> <Gold.Chemscore.DEInternal>
3.2669

> <Gold.Chemscore.Rot>
1.8865

> <Gold.Chemscore.Internal.Correction>
   9.000000E+99

> <Gold.Chemscore.Hbonds>
donor molecule, donor type, donor heavy atom, donor atom, acceptor molecule, acceptor atom, score
      L1  H     5    24       P1  8028  0.88
      P1  H  7989  7998       L1     4  0.35

> <Gold.Chemscore.Hbond.Weighted>
-5.2930

> <Gold.Chemscore.Metal.Weighted>
-0.0000

> <Gold.Chemscore.Lipo.Weighted>
-11.0363

> <Gold.Chemscore.Internal_Hbond.Weighted>
0.0000

> <Gold.Chemscore.DEClash.Weighted>
0.2062

> <Gold.Chemscore.DEInternal.Weighted>
3.2669

> <Gold.Chemscore.Rot.Weighted>
4.8295

> <Gold.Chemscore.Internal.Correction.Weighted>
   9.000000E+99

> <Gold.Protein.RotatedTorsions>
[ 6907 6896 6895 6894 ] final -115.94 input  -60.11 | X-H torsion
[ 7974 7965 7964 7962 ] final   43.95 input  175.53 | X-H torsion
[ 8008 7997 7996 7995 ] final  178.20 input   59.86 | X-H torsion
[ 10167 10162 10161 10158 ] final  106.20 input  -65.29 | X-H torsion
[ 10718 10713 10712 10709 ] final   88.53 input   66.30 | X-H torsion
[ 10763 10752 10751 10750 ] final -150.27 input  -60.55 | X-H torsion
[ 11005 11000 10999 10996 ] final  -90.11 input  -57.11 | X-H torsion

> <Gold.Protein.ActiveResidues>
 VAL166  LYS551  ARG553  GLY616  TRP617  ASP618  TYR619  PRO620  LYS621  CYS622 
 ASP623  PHE694  ASN695  SER759  ASP760  ASP761  ALA762  ILE779  LEU786  VAL792 
 PHE793  MET794  SER795  GLU796  ALA797  LYS798  CYS799  TRP800  GLU811  SER814 

> <Gold.Protein.RotatedAtoms>
  150.8017  133.8587  159.3225 H   0  0  0  0  0  0  0  0  0  0  0  0  # atno 6907 bound_to 6896
  151.6397  135.1012  160.0148 H   0  0  0  0  0  0  0  0  0  0  0  0  # atno 6908 bound_to 6896
  152.4105  133.6916  159.6428 H   0  0  0  0  0  0  0  0  0  0  0  0  # atno 6909 bound_to 6896
  146.0611  139.5129  142.9657 H   0  0  0  0  0  0  0  0  0  0  0  0  # atno 7974 bound_to 7965
  156.0573  140.1339  156.9982 H   0  0  0  0  0  0  0  0  0  0  0  0  # atno 8008 bound_to 7997
  154.4464  140.0998  156.6535 H   0  0  0  0  0  0  0  0  0  0  0  0  # atno 8009 bound_to 7997
  155.5432  140.3461  155.4453 H   0  0  0  0  0  0  0  0  0  0  0  0  # atno 8010 bound_to 7997
  139.7029  144.7091  151.1156 H   0  0  0  0  0  0  0  0  0  0  0  0  # atno 10167 bound_to 10162
  157.6949  131.0298  150.3288 H   0  0  0  0  0  0  0  0  0  0  0  0  # atno 10718 bound_to 10713
  154.8128  135.3288  154.7257 H   0  0  0  0  0  0  0  0  0  0  0  0  # atno 10763 bound_to 10752
  153.7903  135.6911  153.4877 H   0  0  0  0  0  0  0  0  0  0  0  0  # atno 10764 bound_to 10752
  153.1921  135.4547  155.0109 H   0  0  0  0  0  0  0  0  0  0  0  0  # atno 10765 bound_to 10752
  141.1572  133.7671  156.9691 H   0  0  0  0  0  0  0  0  0  0  0  0  # atno 11005 bound_to 11000
  145.6558  141.0252  143.1735 LP  0  0  0  0  0  0  0  0  0  0  0  0  # atno 17320 bound_to 7965
  144.7175  139.8144  143.7393 LP  0  0  0  0  0  0  0  0  0  0  0  0  # atno 17321 bound_to 7965
  140.7714  143.5399  150.9324 LP  0  0  0  0  0  0  0  0  0  0  0  0  # atno 17342 bound_to 10162
  139.9082  143.6753  152.3120 LP  0  0  0  0  0  0  0  0  0  0  0  0  # atno 17343 bound_to 10162
  156.3765  130.3873  149.7134 LP  0  0  0  0  0  0  0  0  0  0  0  0  # atno 17370 bound_to 10713
  156.4531  130.7916  151.2937 LP  0  0  0  0  0  0  0  0  0  0  0  0  # atno 17371 bound_to 10713
  140.1141  134.9458  157.2109 LP  0  0  0  0  0  0  0  0  0  0  0  0  # atno 17394 bound_to 11000
  140.3155  134.2975  155.7257 LP  0  0  0  0  0  0  0  0  0  0  0  0  # atno 17395 bound_to 11000

$$$$
