AV-unprocessed.smi:529|AV-procd|sdf|2841|dock7
  -GOLD-   2262023333D 1   1.00000     0.00000
 Structure written by MMmdl.
 30 31  0  0  0  0  0  0  0  0  1 V2000
  145.4773  144.5960  158.1573 N   0  0  0  0  0  0  0  0  0  0  0  0
  145.2582  144.1674  159.3505 C   0  0  0  0  0  0  0  0  0  0  0  0
  144.0049  142.9363  159.8533 S   0  0  0  0  0  0  0  0  0  0  0  0
  144.5433  143.0792  161.5131 C   0  0  0  0  0  0  0  0  0  0  0  0
  145.5396  143.9534  161.6446 C   0  0  0  0  0  0  0  0  0  0  0  0
  145.9585  144.5774  160.4871 N   0  0  0  0  0  0  0  0  0  0  0  0
  147.0782  145.5193  160.4638 C   0  0  0  0  0  0  0  0  0  0  0  0
  148.4407  144.8486  160.6846 C   0  0  0  0  0  0  0  0  0  0  0  0
  148.7655  144.4172  161.7920 O   0  0  0  0  0  0  0  0  0  0  0  0
  149.2411  144.7851  159.6100 N   0  0  0  0  0  0  0  0  0  0  0  0
  150.5736  144.1879  159.5900 C   0  0  0  0  0  0  0  0  0  0  0  0
  151.6777  145.2483  159.3930 C   0  0  0  0  0  0  0  0  0  0  0  0
  152.5656  144.7314  158.2597 C   0  0  0  0  0  0  0  0  0  0  0  0
  151.6276  143.8919  157.3987 C   0  0  0  0  0  0  0  0  0  0  0  0
  150.7078  143.2077  158.4103 C   0  0  0  0  0  0  0  0  0  0  0  0
  146.2284  145.2713  158.1615 H   0  0  0  0  0  0  0  0  0  0  0  0
  144.0878  142.4989  162.3018 H   0  0  0  0  0  0  0  0  0  0  0  0
  146.0457  144.2154  162.5622 H   0  0  0  0  0  0  0  0  0  0  0  0
  147.0891  146.0660  159.5193 H   0  0  0  0  0  0  0  0  0  0  0  0
  146.9348  146.2694  161.2425 H   0  0  0  0  0  0  0  0  0  0  0  0
  148.8995  145.1682  158.7405 H   0  0  0  0  0  0  0  0  0  0  0  0
  150.7358  143.6421  160.5215 H   0  0  0  0  0  0  0  0  0  0  0  0
  151.2456  146.2054  159.0961 H   0  0  0  0  0  0  0  0  0  0  0  0
  152.2457  145.4234  160.3071 H   0  0  0  0  0  0  0  0  0  0  0  0
  153.0438  145.5361  157.7006 H   0  0  0  0  0  0  0  0  0  0  0  0
  153.3525  144.0971  158.6698 H   0  0  0  0  0  0  0  0  0  0  0  0
  151.0411  144.5445  156.7507 H   0  0  0  0  0  0  0  0  0  0  0  0
  152.1592  143.1813  156.7654 H   0  0  0  0  0  0  0  0  0  0  0  0
  151.1819  142.2895  158.7600 H   0  0  0  0  0  0  0  0  0  0  0  0
  149.7512  142.9243  157.9692 H   0  0  0  0  0  0  0  0  0  0  0  0
  1  2  2  0  0  0  0
  1 16  1  0  0  0  0
  2  6  1  0  0  0  0
  2  3  1  0  0  0  0
  3  4  1  0  0  0  0
  4  5  2  0  0  0  0
  4 17  1  0  0  0  0
  5  6  1  0  0  0  0
  5 18  1  0  0  0  0
  6  7  1  0  0  0  0
  7  8  1  0  0  0  0
  7 19  1  0  0  0  0
  7 20  1  0  0  0  0
  8  9  2  0  0  0  0
  8 10  1  0  0  0  0
 10 11  1  0  0  0  0
 10 21  1  0  0  0  0
 11 15  1  0  0  0  0
 11 12  1  0  0  0  0
 11 22  1  0  0  0  0
 12 13  1  0  0  0  0
 12 23  1  0  0  0  0
 12 24  1  0  0  0  0
 13 14  1  0  0  0  0
 13 25  1  0  0  0  0
 13 26  1  0  0  0  0
 14 15  1  0  0  0  0
 14 27  1  0  0  0  0
 14 28  1  0  0  0  0
 15 29  1  0  0  0  0
 15 30  1  0  0  0  0
M  END
> <s_m_source_file>
AV-unprocessed.smi

> <i_m_source_file_index>
529

> <i_lp_mmshare_version>
43012

> <i_f3d_flags>
0

> <s_epik_input>
W0hdL049YzFcc1tjSF1bY0hdbjFbQ0gyXUMoPU8pW05IXVtDSF0yW0NIMl1bQ0gyXVtDSDJdW0NIMl0y

> <s_epik_cmdline>
J2VwaWtfcHl0aG9uJywgJy1waCcsICc3LjAnLCAnLXRuJywgJzgnLCAnLW1hJywgJzIwMCcsICctbWV0YWxfYmluZGluZycsICctaW1hZScsICc8aW5maWxlLm1hZT4nLCAnLW9tYWUnLCAnPG91dGZpbGUubWFlPic=

> <r_epik_Ionization_Penalty>
2.18041

> <r_epik_Ionization_Penalty_Charging>
2.18041

> <r_epik_Ionization_Penalty_Neutral>
1.25369e-07

> <r_epik_State_Penalty>
2.33404

> <r_epik_Charging_Adjusted_Penalty>
4.51444

> <i_epik_Tot_Q>
0

> <i_epik_Tot_abs_Q>
0

> <r_epik_Metal_State_Penalty>
2.33404

> <b_epik_Metal_Only>
0

> <s_lp_Force_Field>
OPLS_2005

> <r_lp_Energy>
18.55

> <b_lp_Chiralities_Consistent>
1

> <s_lp_Variant>
AV-unprocessed.smi:529-3

> <Gold.Version>
5.8.1

> <Gold.Id.Protein>
6NUR|6NUR_protein|mol2

> <Gold.PLP.Fitness>
41.6066

> <Gold.PLP.PLP>
-34.9059

> <Gold.PLP.part.hbond>
-3.0000

> <Gold.PLP.part.metal>
0.0000

> <Gold.PLP.part.buried>
-7.3746

> <Gold.PLP.part.nonpolar>
-26.9241

> <Gold.PLP.part.repulsive>
1.2229

> <Gold.PLP.ligand.clash>
0.0000

> <Gold.PLP.ligand.torsion>
0.3361

> <Gold.PLP.Chemscore.Hbond>
2.4540

> <Gold.PLP.Chemscore.CHOScore>
0.0000

> <Gold.PLP.Chemscore.Metal>
0.0000

> <Gold.Chemscore.Hbonds>
donor molecule, donor type, donor heavy atom, donor atom, acceptor molecule, acceptor atom, score
      L1  H     1    16       P1  8029  0.94
      L1  H    10    21       P1  8029  1.00
      P1  H  6933  6944       L1     9  0.54

> <Gold.PLP.Chemscore.Internal.Correction>
0.0108

> <Gold.Rescore>
     Score         DG    S(hbond)    S(metal)    S(lipo)     H(rot)  DE(clash)    DE(int)     intcor
     17.73     -18.16       2.50        0.00      71.34       1.56       0.08       0.35       ----

> <Gold.Chemscore.Fitness>
17.7276

> <Gold.Chemscore.DG>
-18.1615

> <Gold.Chemscore.ZeroCoef>
-5.4800

> <Gold.Chemscore.Hbond>
2.4960

> <Gold.Chemscore.Metal>
0.0000

> <Gold.Chemscore.Lipo>
71.3444

> <Gold.Chemscore.Internal_Hbond>
0.0000

> <Gold.Chemscore.DEClash>
0.0839

> <Gold.Chemscore.DEInternal>
0.3500

> <Gold.Chemscore.Rot>
1.5635

> <Gold.Chemscore.Internal.Correction>
   9.000000E+99

> <Gold.Chemscore.Hbonds>
donor molecule, donor type, donor heavy atom, donor atom, acceptor molecule, acceptor atom, score
      L1  H     1    16       P1  8029  0.86
      L1  H    10    21       P1  8029  0.99
      P1  H  6933  6944       L1     9  0.16

> <Gold.Chemscore.Hbond.Weighted>
-8.3367

> <Gold.Chemscore.Metal.Weighted>
-0.0000

> <Gold.Chemscore.Lipo.Weighted>
-8.3473

> <Gold.Chemscore.Internal_Hbond.Weighted>
0.0000

> <Gold.Chemscore.DEClash.Weighted>
0.0839

> <Gold.Chemscore.DEInternal.Weighted>
0.3500

> <Gold.Chemscore.Rot.Weighted>
4.0025

> <Gold.Chemscore.Internal.Correction.Weighted>
   9.000000E+99

> <Gold.Protein.RotatedTorsions>
[ 6907 6896 6895 6894 ] final -174.05 input  -60.11 | X-H torsion
[ 7974 7965 7964 7962 ] final   28.37 input  175.53 | X-H torsion
[ 8008 7997 7996 7995 ] final -119.62 input   59.86 | X-H torsion
[ 10167 10162 10161 10158 ] final  147.08 input  -65.29 | X-H torsion
[ 10718 10713 10712 10709 ] final  -97.08 input   66.30 | X-H torsion
[ 10763 10752 10751 10750 ] final  111.01 input  -60.55 | X-H torsion
[ 11005 11000 10999 10996 ] final -156.55 input  -57.11 | X-H torsion

> <Gold.Protein.ActiveResidues>
 VAL166  LYS551  ARG553  GLY616  TRP617  ASP618  TYR619  PRO620  LYS621  CYS622 
 ASP623  PHE694  ASN695  SER759  ASP760  ASP761  ALA762  ILE779  LEU786  VAL792 
 PHE793  MET794  SER795  GLU796  ALA797  LYS798  CYS799  TRP800  GLU811  SER814 

> <Gold.Protein.RotatedAtoms>
  151.5660  133.3396  159.2980 H   0  0  0  0  0  0  0  0  0  0  0  0  # atno 6907 bound_to 6896
  150.8395  134.7684  159.6931 H   0  0  0  0  0  0  0  0  0  0  0  0  # atno 6908 bound_to 6896
  152.4465  134.5491  159.9913 H   0  0  0  0  0  0  0  0  0  0  0  0  # atno 6909 bound_to 6896
  146.1732  139.7065  142.8952 H   0  0  0  0  0  0  0  0  0  0  0  0  # atno 7974 bound_to 7965
  155.1187  140.0398  157.2744 H   0  0  0  0  0  0  0  0  0  0  0  0  # atno 8008 bound_to 7997
  154.6630  140.2595  155.7063 H   0  0  0  0  0  0  0  0  0  0  0  0  # atno 8009 bound_to 7997
  156.2627  140.2813  156.1109 H   0  0  0  0  0  0  0  0  0  0  0  0  # atno 8010 bound_to 7997
  139.4896  144.5782  151.6923 H   0  0  0  0  0  0  0  0  0  0  0  0  # atno 10167 bound_to 10162
  156.0076  130.5179  150.6322 H   0  0  0  0  0  0  0  0  0  0  0  0  # atno 10718 bound_to 10713
  153.4572  135.3730  155.2318 H   0  0  0  0  0  0  0  0  0  0  0  0  # atno 10763 bound_to 10752
  154.8757  135.3900  154.3967 H   0  0  0  0  0  0  0  0  0  0  0  0  # atno 10764 bound_to 10752
  153.4535  135.7086  153.6158 H   0  0  0  0  0  0  0  0  0  0  0  0  # atno 10765 bound_to 10752
  140.6744  134.4213  157.5230 H   0  0  0  0  0  0  0  0  0  0  0  0  # atno 11005 bound_to 11000
  145.4282  141.0413  143.2925 LP  0  0  0  0  0  0  0  0  0  0  0  0  # atno 17320 bound_to 7965
  144.8196  139.5816  143.6993 LP  0  0  0  0  0  0  0  0  0  0  0  0  # atno 17321 bound_to 7965
  140.5383  144.0621  150.6078 LP  0  0  0  0  0  0  0  0  0  0  0  0  # atno 17342 bound_to 10162
  140.3634  143.2895  152.0358 LP  0  0  0  0  0  0  0  0  0  0  0  0  # atno 17343 bound_to 10162
  157.4117  131.0824  151.1214 LP  0  0  0  0  0  0  0  0  0  0  0  0  # atno 17370 bound_to 10713
  157.1843  130.6323  149.5682 LP  0  0  0  0  0  0  0  0  0  0  0  0  # atno 17371 bound_to 10713
  139.8971  134.8643  156.2057 LP  0  0  0  0  0  0  0  0  0  0  0  0  # atno 17394 bound_to 11000
  141.0367  133.6959  156.1525 LP  0  0  0  0  0  0  0  0  0  0  0  0  # atno 17395 bound_to 11000

$$$$
