AV-unprocessed.smi:129|AV-procd|sdf|1158|dock10
  -GOLD-   2262018293D 1   1.00000     0.00000
 Structure written by MMmdl.
 58 61  0  0  0  0  0  0  0  0  1 V2000
  152.7757  143.7231  163.4037 C   0  0  0  0  0  0  0  0  0  0  0  0
  152.7296  142.7226  162.3971 O   0  0  0  0  0  0  0  0  0  0  0  0
  152.4992  143.1133  161.0924 C   0  0  0  0  0  0  0  0  0  0  0  0
  152.0857  144.4211  160.7305 C   0  0  0  0  0  0  0  0  0  0  0  0
  151.8722  144.7576  159.3813 C   0  0  0  0  0  0  0  0  0  0  0  0
  152.0752  143.7973  158.3762 C   0  0  0  0  0  0  0  0  0  0  0  0
  152.4852  142.4969  158.7200 C   0  0  0  0  0  0  0  0  0  0  0  0
  152.6860  142.1437  160.0772 C   0  0  0  0  0  0  0  0  0  0  0  0
  153.1181  140.8499  160.4845 N   0  0  0  0  0  0  0  0  0  0  0  0
  153.4031  139.7698  159.7320 C   0  0  0  0  0  0  0  0  0  0  0  0
  153.3846  139.7387  158.5016 O   0  0  0  0  0  0  0  0  0  0  0  0
  153.8180  138.5534  160.5101 C   0  0  0  0  0  0  0  0  0  0  0  0
  154.0008  137.3215  159.8457 C   0  0  0  0  0  0  0  0  0  0  0  0
  154.3660  136.1688  160.5664 C   0  0  0  0  0  0  0  0  0  0  0  0
  154.5552  136.2250  161.9619 C   0  0  0  0  0  0  0  0  0  0  0  0
  154.9025  135.0123  162.6165 N   0  0  0  0  0  0  0  0  0  0  0  0
  155.4883  134.8339  163.8145 C   0  0  0  0  0  0  0  0  0  0  0  0
  155.8758  135.7455  164.5463 O   0  0  0  0  0  0  0  0  0  0  0  0
  155.7009  133.3669  164.2199 C   0  0  0  0  0  0  0  0  0  0  0  0
  154.8876  132.4138  163.4338 N   0  0  0  0  0  0  0  0  0  0  0  0
  155.3437  132.0383  162.1458 C   0  0  0  0  0  0  0  0  0  0  0  0
  156.3958  132.4846  161.6858 O   0  0  0  0  0  0  0  0  0  0  0  0
  154.4864  131.1076  161.4207 C   0  0  0  0  0  0  0  0  0  0  0  0
  154.8456  130.6890  160.1952 F   0  0  0  0  0  0  0  0  0  0  0  0
  153.3354  130.6573  161.9611 C   0  0  0  0  0  0  0  0  0  0  0  0
  152.8960  131.0423  163.2153 N   0  0  0  0  0  0  0  0  0  0  0  0
  151.5948  130.5374  163.8011 C   0  0  1  0  0  0  0  0  0  0  0  0
  150.4294  130.7917  162.8280 C   0  0  0  0  0  0  0  0  0  0  0  0
  149.7510  129.4381  162.7619 C   0  0  0  0  0  0  0  0  0  0  0  0
  150.9182  128.4906  162.9950 C   0  0  0  0  0  0  0  0  0  0  0  0
  151.6696  129.1544  164.0035 O   0  0  0  0  0  0  0  0  0  0  0  0
  153.6730  131.9374  163.9821 C   0  0  0  0  0  0  0  0  0  0  0  0
  153.2942  132.2989  165.0985 O   0  0  0  0  0  0  0  0  0  0  0  0
  154.3472  137.4525  162.6354 C   0  0  0  0  0  0  0  0  0  0  0  0
  153.9836  138.6061  161.9134 C   0  0  0  0  0  0  0  0  0  0  0  0
  152.9693  143.2532  164.3677 H   0  0  0  0  0  0  0  0  0  0  0  0
  151.8266  144.2552  163.4819 H   0  0  0  0  0  0  0  0  0  0  0  0
  153.5785  144.4383  163.2189 H   0  0  0  0  0  0  0  0  0  0  0  0
  151.9255  145.1895  161.4712 H   0  0  0  0  0  0  0  0  0  0  0  0
  151.5584  145.7568  159.1172 H   0  0  0  0  0  0  0  0  0  0  0  0
  151.9223  144.0592  157.3396 H   0  0  0  0  0  0  0  0  0  0  0  0
  152.6531  141.7929  157.9203 H   0  0  0  0  0  0  0  0  0  0  0  0
  153.1334  140.7003  161.4831 H   0  0  0  0  0  0  0  0  0  0  0  0
  153.8649  137.2515  158.7760 H   0  0  0  0  0  0  0  0  0  0  0  0
  154.5033  135.2364  160.0383 H   0  0  0  0  0  0  0  0  0  0  0  0
  154.7265  134.1717  162.0856 H   0  0  0  0  0  0  0  0  0  0  0  0
  156.7620  133.1257  164.1338 H   0  0  0  0  0  0  0  0  0  0  0  0
  155.4970  133.2759  165.2877 H   0  0  0  0  0  0  0  0  0  0  0  0
  152.7480  129.9693  161.3730 H   0  0  0  0  0  0  0  0  0  0  0  0
  151.4882  131.0350  164.7668 H   0  0  0  0  0  0  0  0  0  0  0  0
  149.7771  131.5844  163.1956 H   0  0  0  0  0  0  0  0  0  0  0  0
  150.8130  131.0742  161.8458 H   0  0  0  0  0  0  0  0  0  0  0  0
  149.0247  129.3418  163.5699 H   0  0  0  0  0  0  0  0  0  0  0  0
  149.2388  129.2610  161.8159 H   0  0  0  0  0  0  0  0  0  0  0  0
  150.6002  127.4997  163.3192 H   0  0  0  0  0  0  0  0  0  0  0  0
  151.5157  128.3816  162.0889 H   0  0  0  0  0  0  0  0  0  0  0  0
  154.4423  137.5313  163.7072 H   0  0  0  0  0  0  0  0  0  0  0  0
  153.8219  139.5284  162.4530 H   0  0  0  0  0  0  0  0  0  0  0  0
  1  2  1  0  0  0  0
  1 36  1  0  0  0  0
  1 37  1  0  0  0  0
  1 38  1  0  0  0  0
  2  3  1  0  0  0  0
  3  8  1  0  0  0  0
  3  4  2  0  0  0  0
  4  5  1  0  0  0  0
  4 39  1  0  0  0  0
  5  6  2  0  0  0  0
  5 40  1  0  0  0  0
  6  7  1  0  0  0  0
  6 41  1  0  0  0  0
  7  8  2  0  0  0  0
  7 42  1  0  0  0  0
  8  9  1  0  0  0  0
  9 10  1  0  0  0  0
  9 43  1  0  0  0  0
 10 11  2  0  0  0  0
 10 12  1  0  0  0  0
 12 35  1  0  0  0  0
 12 13  2  0  0  0  0
 13 14  1  0  0  0  0
 13 44  1  0  0  0  0
 14 15  2  0  0  0  0
 14 45  1  0  0  0  0
 15 16  1  0  0  0  0
 15 34  1  0  0  0  0
 16 17  1  0  0  0  0
 16 46  1  0  0  0  0
 17 18  2  0  0  0  0
 17 19  1  0  0  0  0
 19 20  1  0  0  0  0
 19 47  1  0  0  0  0
 19 48  1  0  0  0  0
 20 32  1  0  0  0  0
 20 21  1  0  0  0  0
 21 22  2  0  0  0  0
 21 23  1  0  0  0  0
 23 24  1  0  0  0  0
 23 25  2  0  0  0  0
 25 26  1  0  0  0  0
 25 49  1  0  0  0  0
 26 27  1  0  0  0  0
 26 32  1  0  0  0  0
 27 31  1  0  0  0  0
 27 28  1  0  0  0  0
 27 50  1  0  0  0  0
 28 29  1  0  0  0  0
 28 51  1  0  0  0  0
 28 52  1  0  0  0  0
 29 30  1  0  0  0  0
 29 53  1  0  0  0  0
 29 54  1  0  0  0  0
 30 31  1  0  0  0  0
 30 55  1  0  0  0  0
 30 56  1  0  0  0  0
 32 33  2  0  0  0  0
 34 35  2  0  0  0  0
 34 57  1  0  0  0  0
 35 58  1  0  0  0  0
M  END
> <s_m_source_file>
AV-unprocessed.smi

> <i_m_source_file_index>
129

> <i_lp_mmshare_version>
43012

> <i_f3d_flags>
0

> <s_epik_input>
W0NIM11PYzFbY0hdW2NIXVtjSF1bY0hdYzFbTkhdQyg9TyljMltjSF1bY0hdYyhbY0hdW2NIXTIpW05IXUMoPU8pW0NIMl1uM2MoPU8pYyhGKVtjSF1uKGMzPU8pW0NAQEhdNFtDSDJdW0NIMl1bQ0gyXU80

> <s_epik_cmdline>
J2VwaWtfcHl0aG9uJywgJy1waCcsICc3LjAnLCAnLXRuJywgJzgnLCAnLW1hJywgJzIwMCcsICctbWV0YWxfYmluZGluZycsICctaW1hZScsICc8aW5maWxlLm1hZT4nLCAnLW9tYWUnLCAnPG91dGZpbGUubWFlPic=

> <r_lp_tautomer_probability>
1

> <r_epik_Ionization_Penalty>
2.57954e-06

> <r_epik_Ionization_Penalty_Charging>
3.88729e-08

> <r_epik_Ionization_Penalty_Neutral>
2.54066e-06

> <r_epik_State_Penalty>
-0

> <r_epik_Charging_Adjusted_Penalty>
3.88729e-08

> <i_epik_Tot_Q>
0

> <i_epik_Tot_abs_Q>
0

> <r_epik_Metal_State_Penalty>
-0

> <b_epik_Metal_Only>
0

> <s_epik_Chemistry_Notes>
This compound contains an acetal/aminal-like group ( X-CH(R)-Y where X, Y are N, S, or O) that may be acid/base labile, releasing an aldehyde.

> <s_lp_Force_Field>
OPLS_2005

> <r_lp_Energy>
51.387

> <b_lp_Chiralities_Consistent>
1

> <s_lp_Variant>
AV-unprocessed.smi:129-2

> <Gold.Version>
5.8.1

> <Gold.Id.Protein>
6NUR|6NUR_protein|mol2

> <Gold.PLP.Fitness>
57.8406

> <Gold.PLP.PLP>
-56.3667

> <Gold.PLP.part.hbond>
-1.0000

> <Gold.PLP.part.metal>
0.0000

> <Gold.PLP.part.buried>
-7.3478

> <Gold.PLP.part.nonpolar>
-48.6156

> <Gold.PLP.part.repulsive>
0.4493

> <Gold.PLP.ligand.clash>
0.0000

> <Gold.PLP.ligand.torsion>
0.7996

> <Gold.PLP.Chemscore.Hbond>
1.0000

> <Gold.PLP.Chemscore.CHOScore>
0.0000

> <Gold.PLP.Chemscore.Metal>
0.0000

> <Gold.Chemscore.Hbonds>
donor molecule, donor type, donor heavy atom, donor atom, acceptor molecule, acceptor atom, score
      P1  H  7997  8010       L1    11  1.00

> <Gold.PLP.Chemscore.Internal.Correction>
0.0730

> <Gold.Rescore>
     Score         DG    S(hbond)    S(metal)    S(lipo)     H(rot)  DE(clash)    DE(int)     intcor
     17.37     -20.86       1.00        0.00     145.47       1.94       0.42       3.06       ----

> <Gold.Chemscore.Fitness>
17.3748

> <Gold.Chemscore.DG>
-20.8577

> <Gold.Chemscore.ZeroCoef>
-5.4800

> <Gold.Chemscore.Hbond>
0.9977

> <Gold.Chemscore.Metal>
0.0000

> <Gold.Chemscore.Lipo>
145.4653

> <Gold.Chemscore.Internal_Hbond>
0.0000

> <Gold.Chemscore.DEClash>
0.4186

> <Gold.Chemscore.DEInternal>
3.0643

> <Gold.Chemscore.Rot>
1.9430

> <Gold.Chemscore.Internal.Correction>
   9.000000E+99

> <Gold.Chemscore.Hbonds>
donor molecule, donor type, donor heavy atom, donor atom, acceptor molecule, acceptor atom, score
      P1  H  7997  8010       L1    11  0.99

> <Gold.Chemscore.Hbond.Weighted>
-3.3324

> <Gold.Chemscore.Metal.Weighted>
-0.0000

> <Gold.Chemscore.Lipo.Weighted>
-17.0194

> <Gold.Chemscore.Internal_Hbond.Weighted>
0.0000

> <Gold.Chemscore.DEClash.Weighted>
0.4186

> <Gold.Chemscore.DEInternal.Weighted>
3.0643

> <Gold.Chemscore.Rot.Weighted>
4.9741

> <Gold.Chemscore.Internal.Correction.Weighted>
   9.000000E+99

> <Gold.Protein.RotatedTorsions>
[ 6907 6896 6895 6894 ] final -162.64 input  -60.11 | X-H torsion
[ 7974 7965 7964 7962 ] final  106.05 input  175.53 | X-H torsion
[ 8008 7997 7996 7995 ] final   32.14 input   59.86 | X-H torsion
[ 10167 10162 10161 10158 ] final  -10.02 input  -65.29 | X-H torsion
[ 10718 10713 10712 10709 ] final    6.77 input   66.30 | X-H torsion
[ 10763 10752 10751 10750 ] final -146.12 input  -60.55 | X-H torsion
[ 11005 11000 10999 10996 ] final -121.57 input  -57.11 | X-H torsion

> <Gold.Protein.ActiveResidues>
 VAL166  LYS551  ARG553  GLY616  TRP617  ASP618  TYR619  PRO620  LYS621  CYS622 
 ASP623  PHE694  ASN695  SER759  ASP760  ASP761  ALA762  ILE779  LEU786  VAL792 
 PHE793  MET794  SER795  GLU796  ALA797  LYS798  CYS799  TRP800  GLU811  SER814 

> <Gold.Protein.RotatedAtoms>
  151.3835  133.3813  159.2712 H   0  0  0  0  0  0  0  0  0  0  0  0  # atno 6907 bound_to 6896
  150.9559  134.8955  159.7711 H   0  0  0  0  0  0  0  0  0  0  0  0  # atno 6908 bound_to 6896
  152.5130  134.3792  159.9397 H   0  0  0  0  0  0  0  0  0  0  0  0  # atno 6909 bound_to 6896
  145.3116  139.2538  143.3760 H   0  0  0  0  0  0  0  0  0  0  0  0  # atno 7974 bound_to 7965
  155.1177  140.3245  155.4505 H   0  0  0  0  0  0  0  0  0  0  0  0  # atno 8008 bound_to 7997
  156.2672  140.2033  156.6248 H   0  0  0  0  0  0  0  0  0  0  0  0  # atno 8009 bound_to 7997
  154.6708  140.0537  157.0150 H   0  0  0  0  0  0  0  0  0  0  0  0  # atno 8010 bound_to 7997
  140.7103  143.5794  150.9008 H   0  0  0  0  0  0  0  0  0  0  0  0  # atno 10167 bound_to 10162
  156.9270  130.5812  149.5649 H   0  0  0  0  0  0  0  0  0  0  0  0  # atno 10718 bound_to 10713
  154.8351  135.3395  154.6612 H   0  0  0  0  0  0  0  0  0  0  0  0  # atno 10763 bound_to 10752
  153.7228  135.6957  153.5013 H   0  0  0  0  0  0  0  0  0  0  0  0  # atno 10764 bound_to 10752
  153.2369  135.4397  155.0609 H   0  0  0  0  0  0  0  0  0  0  0  0  # atno 10765 bound_to 10752
  141.0060  134.0334  157.3476 H   0  0  0  0  0  0  0  0  0  0  0  0  # atno 11005 bound_to 11000
  146.3115  140.3654  142.8669 LP  0  0  0  0  0  0  0  0  0  0  0  0  # atno 17320 bound_to 7965
  144.9011  140.7643  143.5866 LP  0  0  0  0  0  0  0  0  0  0  0  0  # atno 17321 bound_to 7965
  139.9520  143.6261  152.3026 LP  0  0  0  0  0  0  0  0  0  0  0  0  # atno 17342 bound_to 10162
  139.6783  144.7657  151.1655 LP  0  0  0  0  0  0  0  0  0  0  0  0  # atno 17343 bound_to 10162
  156.0464  130.5540  150.8891 LP  0  0  0  0  0  0  0  0  0  0  0  0  # atno 17370 bound_to 10713
  157.5871  131.0945  150.9179 LP  0  0  0  0  0  0  0  0  0  0  0  0  # atno 17371 bound_to 10713
  139.9064  135.0180  156.7502 LP  0  0  0  0  0  0  0  0  0  0  0  0  # atno 17394 bound_to 11000
  140.6812  133.9473  155.7911 LP  0  0  0  0  0  0  0  0  0  0  0  0  # atno 17395 bound_to 11000

$$$$
