AV-unprocessed.smi:501|AV-procd|sdf|2743|dock10
  -GOLD-   2262023203D 1   1.00000     0.00000
 Structure written by MMmdl.
 46 48  0  0  0  0  0  0  0  0  2 V2000
  154.0882  137.0649  162.3730 C   0  0  0  0  0  0  0  0  0  0  0  0
  154.4864  138.2513  161.5189 C   0  0  0  0  0  0  0  0  0  0  0  0
  155.4705  139.1546  161.9676 C   0  0  0  0  0  0  0  0  0  0  0  0
  155.8315  140.2540  161.1675 C   0  0  0  0  0  0  0  0  0  0  0  0
  155.2109  140.4515  159.9194 C   0  0  0  0  0  0  0  0  0  0  0  0
  154.2252  139.5571  159.4543 C   0  0  0  0  0  0  0  0  0  0  0  0
  153.6687  139.8248  158.2217 O   0  0  0  0  0  0  0  0  0  0  0  0
  152.5712  139.0299  157.7990 C   0  0  0  0  0  0  0  0  0  0  0  0
  151.2700  139.6700  158.2931 C   0  0  0  0  0  0  0  0  0  0  0  0
  151.1309  141.0495  157.8062 N   0  0  0  0  0  0  0  0  0  0  0  0
  150.6369  141.5294  156.6271 C   0  0  0  0  0  0  0  0  0  0  0  0
  150.0766  140.7316  155.4881 C   0  0  0  0  0  0  0  0  0  0  0  0
  148.8351  141.3798  154.8417 C   0  0  0  0  0  0  0  0  0  0  0  0
  148.3714  140.6708  153.6516 N   0  0  0  0  0  0  0  0  0  0  0  0
  147.1809  140.0656  153.5340 C   0  0  0  0  0  0  0  0  0  0  0  0
  146.3394  140.0088  154.4290 O   0  0  0  0  0  0  0  0  0  0  0  0
  150.7221  142.8896  156.6818 N   0  3  0  0  0  0  0  0  0  0  0  0
  151.3042  143.2807  157.8878 C   0  0  0  0  0  0  0  0  0  0  0  0
  151.6089  144.5440  158.3853 C   0  0  0  0  0  0  0  0  0  0  0  0
  152.2094  144.5940  159.6605 C   0  0  0  0  0  0  0  0  0  0  0  0
  152.4850  143.4184  160.3888 C   0  0  0  0  0  0  0  0  0  0  0  0
  152.1703  142.1433  159.8743 C   0  0  0  0  0  0  0  0  0  0  0  0
  151.5740  142.1030  158.6139 C   0  0  0  0  0  0  0  0  0  0  0  0
  153.8675  138.4515  160.2680 C   0  0  0  0  0  0  0  0  0  0  0  0
  154.6400  137.0466  163.3133 H   0  0  0  0  0  0  0  0  0  0  0  0
  154.2891  136.1338  161.8426 H   0  0  0  0  0  0  0  0  0  0  0  0
  153.0236  137.1062  162.6042 H   0  0  0  0  0  0  0  0  0  0  0  0
  155.9506  139.0091  162.9242 H   0  0  0  0  0  0  0  0  0  0  0  0
  156.5849  140.9474  161.5111 H   0  0  0  0  0  0  0  0  0  0  0  0
  155.4939  141.2993  159.3129 H   0  0  0  0  0  0  0  0  0  0  0  0
  152.5598  138.9525  156.7106 H   0  0  0  0  0  0  0  0  0  0  0  0
  152.6560  138.0250  158.2115 H   0  0  0  0  0  0  0  0  0  0  0  0
  150.4094  139.0996  157.9436 H   0  0  0  0  0  0  0  0  0  0  0  0
  151.2156  139.6645  159.3820 H   0  0  0  0  0  0  0  0  0  0  0  0
  150.8452  140.5907  154.7286 H   0  0  0  0  0  0  0  0  0  0  0  0
  149.8238  139.7362  155.8533 H   0  0  0  0  0  0  0  0  0  0  0  0
  148.0265  141.4498  155.5709 H   0  0  0  0  0  0  0  0  0  0  0  0
  149.0672  142.4037  154.5471 H   0  0  0  0  0  0  0  0  0  0  0  0
  148.9883  140.6624  152.8520 H   0  0  0  0  0  0  0  0  0  0  0  0
  147.0606  139.6252  152.5322 H   0  0  0  0  0  0  0  0  0  0  0  0
  151.4006  145.4456  157.8279 H   0  0  0  0  0  0  0  0  0  0  0  0
  152.4654  145.5526  160.0885 H   0  0  0  0  0  0  0  0  0  0  0  0
  152.9476  143.4954  161.3623 H   0  0  0  0  0  0  0  0  0  0  0  0
  152.3887  141.2497  160.4401 H   0  0  0  0  0  0  0  0  0  0  0  0
  153.1182  137.7413  159.9534 H   0  0  0  0  0  0  0  0  0  0  0  0
  150.4097  143.5041  155.9412 H   0  0  0  0  0  0  0  0  0  0  0  0
  1  2  1  0  0  0  0
  1 25  1  0  0  0  0
  1 26  1  0  0  0  0
  1 27  1  0  0  0  0
  2 24  1  0  0  0  0
  2  3  2  0  0  0  0
  3  4  1  0  0  0  0
  3 28  1  0  0  0  0
  4  5  2  0  0  0  0
  4 29  1  0  0  0  0
  5  6  1  0  0  0  0
  5 30  1  0  0  0  0
  6  7  1  0  0  0  0
  6 24  2  0  0  0  0
  7  8  1  0  0  0  0
  8  9  1  0  0  0  0
  8 31  1  0  0  0  0
  8 32  1  0  0  0  0
  9 10  1  0  0  0  0
  9 33  1  0  0  0  0
  9 34  1  0  0  0  0
 10 23  1  0  0  0  0
 10 11  1  0  0  0  0
 11 12  1  0  0  0  0
 11 17  2  0  0  0  0
 12 13  1  0  0  0  0
 12 35  1  0  0  0  0
 12 36  1  0  0  0  0
 13 14  1  0  0  0  0
 13 37  1  0  0  0  0
 13 38  1  0  0  0  0
 14 15  1  0  0  0  0
 14 39  1  0  0  0  0
 15 16  2  0  0  0  0
 15 40  1  0  0  0  0
 17 18  1  0  0  0  0
 17 46  1  0  0  0  0
 18 23  2  0  0  0  0
 18 19  1  0  0  0  0
 19 20  2  0  0  0  0
 19 41  1  0  0  0  0
 20 21  1  0  0  0  0
 20 42  1  0  0  0  0
 21 22  2  0  0  0  0
 21 43  1  0  0  0  0
 22 23  1  0  0  0  0
 22 44  1  0  0  0  0
 24 45  1  0  0  0  0
M  CHG  1  17   1
M  END
> <s_m_source_file>
AV-unprocessed.smi

> <i_m_source_file_index>
501

> <i_lp_mmshare_version>
43012

> <i_f3d_flags>
0

> <s_epik_input>
W0NIM11jMVtjSF1bY0hdW2NIXWMoW2NIXTEpT1tDSDJdW0NIMl1uKGMobjIpW0NIMl1bQ0gyXVtOSF1bQ0hdPU8pYyhjMjMpW2NIXVtjSF1bY0hdW2NIXTM=

> <s_epik_cmdline>
J2VwaWtfcHl0aG9uJywgJy1waCcsICc3LjAnLCAnLXRuJywgJzgnLCAnLW1hJywgJzIwMCcsICctbWV0YWxfYmluZGluZycsICctaW1hZScsICc8aW5maWxlLm1hZT4nLCAnLW9tYWUnLCAnPG91dGZpbGUubWFlPic=

> <r_lp_tautomer_probability>
1

> <r_epik_Ionization_Penalty>
1.14747

> <r_epik_Ionization_Penalty_Charging>
1.14747

> <r_epik_Ionization_Penalty_Neutral>
1.55554e-08

> <r_epik_State_Penalty>
1.20856

> <r_epik_Charging_Adjusted_Penalty>
2.35603

> <i_epik_Tot_Q>
1

> <i_epik_Tot_abs_Q>
1

> <r_epik_Metal_State_Penalty>
1.28951

> <b_epik_Metal_Only>
0

> <s_lp_Force_Field>
OPLS_2005

> <r_lp_Energy>
21.7567

> <b_lp_Chiralities_Consistent>
1

> <s_lp_Variant>
AV-unprocessed.smi:501-2

> <Gold.Version>
5.8.1

> <Gold.Id.Protein>
6NUR|6NUR_protein|mol2

> <Gold.PLP.Fitness>
58.9237

> <Gold.PLP.PLP>
-50.5346

> <Gold.PLP.part.hbond>
-3.0000

> <Gold.PLP.part.metal>
0.0000

> <Gold.PLP.part.buried>
-5.3240

> <Gold.PLP.part.nonpolar>
-43.7840

> <Gold.PLP.part.repulsive>
0.3291

> <Gold.PLP.ligand.clash>
0.0000

> <Gold.PLP.ligand.torsion>
0.8913

> <Gold.PLP.Chemscore.Hbond>
3.3120

> <Gold.PLP.Chemscore.CHOScore>
0.0000

> <Gold.PLP.Chemscore.Metal>
0.0000

> <Gold.Chemscore.Hbonds>
donor molecule, donor type, donor heavy atom, donor atom, acceptor molecule, acceptor atom, score
      L1  H    14    39       P1  7957  1.00
      L1  H    17    46       P1  8028  1.47
      P1  H  7997  8008       L1     7  0.98

> <Gold.PLP.Chemscore.Internal.Correction>
0.2357

> <Gold.Rescore>
     Score         DG    S(hbond)    S(metal)    S(lipo)     H(rot)  DE(clash)    DE(int)     intcor
     22.13     -22.88       2.45        0.00     137.59       2.68       0.01       0.74       ----

> <Gold.Chemscore.Fitness>
22.1276

> <Gold.Chemscore.DG>
-22.8775

> <Gold.Chemscore.ZeroCoef>
-5.4800

> <Gold.Chemscore.Hbond>
2.4466

> <Gold.Chemscore.Metal>
0.0000

> <Gold.Chemscore.Lipo>
137.5856

> <Gold.Chemscore.Internal_Hbond>
0.0000

> <Gold.Chemscore.DEClash>
0.0126

> <Gold.Chemscore.DEInternal>
0.7373

> <Gold.Chemscore.Rot>
2.6843

> <Gold.Chemscore.Internal.Correction>
   9.000000E+99

> <Gold.Chemscore.Hbonds>
donor molecule, donor type, donor heavy atom, donor atom, acceptor molecule, acceptor atom, score
      L1  H    14    39       P1  7957  0.98
      L1  H    17    46       P1  8028  0.73
      P1  H  7997  8008       L1     7  0.48

> <Gold.Chemscore.Hbond.Weighted>
-8.1718

> <Gold.Chemscore.Metal.Weighted>
-0.0000

> <Gold.Chemscore.Lipo.Weighted>
-16.0975

> <Gold.Chemscore.Internal_Hbond.Weighted>
0.0000

> <Gold.Chemscore.DEClash.Weighted>
0.0126

> <Gold.Chemscore.DEInternal.Weighted>
0.7373

> <Gold.Chemscore.Rot.Weighted>
6.8718

> <Gold.Chemscore.Internal.Correction.Weighted>
   9.000000E+99

> <Gold.Protein.RotatedTorsions>
[ 6907 6896 6895 6894 ] final  147.78 input  -60.11 | X-H torsion
[ 7974 7965 7964 7962 ] final   21.15 input  175.53 | X-H torsion
[ 8008 7997 7996 7995 ] final -107.76 input   59.86 | X-H torsion
[ 10167 10162 10161 10158 ] final  102.85 input  -65.29 | X-H torsion
[ 10718 10713 10712 10709 ] final  142.56 input   66.30 | X-H torsion
[ 10763 10752 10751 10750 ] final  107.46 input  -60.55 | X-H torsion
[ 11005 11000 10999 10996 ] final -125.95 input  -57.11 | X-H torsion

> <Gold.Protein.ActiveResidues>
 VAL166  LYS551  ARG553  GLY616  TRP617  ASP618  TYR619  PRO620  LYS621  CYS622 
 ASP623  PHE694  ASN695  SER759  ASP760  ASP761  ALA762  ILE779  LEU786  VAL792 
 PHE793  MET794  SER795  GLU796  ALA797  LYS798  CYS799  TRP800  GLU811  SER814 

> <Gold.Protein.RotatedAtoms>
  152.1502  133.4517  159.4809 H   0  0  0  0  0  0  0  0  0  0  0  0  # atno 6907 bound_to 6896
  150.6895  134.2199  159.4401 H   0  0  0  0  0  0  0  0  0  0  0  0  # atno 6908 bound_to 6896
  152.0095  134.9884  160.0618 H   0  0  0  0  0  0  0  0  0  0  0  0  # atno 6909 bound_to 6896
  146.2083  139.8068  142.8709 H   0  0  0  0  0  0  0  0  0  0  0  0  # atno 7974 bound_to 7965
  154.9341  140.0404  157.2063 H   0  0  0  0  0  0  0  0  0  0  0  0  # atno 8008 bound_to 7997
  154.8132  140.2871  155.5817 H   0  0  0  0  0  0  0  0  0  0  0  0  # atno 8009 bound_to 7997
  156.2973  140.2533  156.3025 H   0  0  0  0  0  0  0  0  0  0  0  0  # atno 8010 bound_to 7997
  139.7314  144.7035  151.0717 H   0  0  0  0  0  0  0  0  0  0  0  0  # atno 10167 bound_to 10162
  157.3791  131.0989  151.0756 H   0  0  0  0  0  0  0  0  0  0  0  0  # atno 10718 bound_to 10713
  153.4070  135.3844  155.2025 H   0  0  0  0  0  0  0  0  0  0  0  0  # atno 10763 bound_to 10752
  154.8734  135.3785  154.4548 H   0  0  0  0  0  0  0  0  0  0  0  0  # atno 10764 bound_to 10752
  153.5051  135.7088  153.5872 H   0  0  0  0  0  0  0  0  0  0  0  0  # atno 10765 bound_to 10752
  140.9721  134.0791  157.3858 H   0  0  0  0  0  0  0  0  0  0  0  0  # atno 11005 bound_to 11000
  145.3238  141.0250  143.3485 LP  0  0  0  0  0  0  0  0  0  0  0  0  # atno 17320 bound_to 7965
  144.8847  139.4855  143.6706 LP  0  0  0  0  0  0  0  0  0  0  0  0  # atno 17321 bound_to 7965
  140.7772  143.5039  150.9737 LP  0  0  0  0  0  0  0  0  0  0  0  0  # atno 17342 bound_to 10162
  139.8727  143.7172  152.3165 LP  0  0  0  0  0  0  0  0  0  0  0  0  # atno 17343 bound_to 10162
  157.1831  130.6318  149.5678 LP  0  0  0  0  0  0  0  0  0  0  0  0  # atno 17370 bound_to 10713
  155.9772  130.4747  150.6576 LP  0  0  0  0  0  0  0  0  0  0  0  0  # atno 17371 bound_to 10713
  139.8916  135.0119  156.6801 LP  0  0  0  0  0  0  0  0  0  0  0  0  # atno 17394 bound_to 11000
  140.7314  133.9056  155.8214 LP  0  0  0  0  0  0  0  0  0  0  0  0  # atno 17395 bound_to 11000

$$$$
