AV-unprocessed.smi:54|AV-procd|sdf|547|dock8
  -GOLD-   2262016443D 1   1.00000     0.00000
 Structure written by MMmdl.
 43 45  0  0  0  0  0  0  0  0  2 V2000
  152.7147  144.6008  158.7378 C   0  0  0  0  0  0  0  0  0  0  0  0
  152.0248  143.6205  159.7008 C   0  0  0  0  0  0  0  0  0  0  0  0
  152.4597  143.8674  161.1550 C   0  0  0  0  0  0  0  0  0  0  0  0
  152.3024  142.1669  159.2916 C   0  0  0  0  0  0  0  0  0  0  0  0
  152.8659  141.4166  160.0914 O   0  0  0  0  0  0  0  0  0  0  0  0
  151.8781  141.8256  158.0544 N   0  0  0  0  0  0  0  0  0  0  0  0
  151.9581  140.5917  157.3976 C   0  0  0  0  0  0  0  0  0  0  0  0
  151.1531  140.5081  156.3661 N   0  0  0  0  0  0  0  0  0  0  0  0
  151.2483  139.2929  155.7152 C   0  0  0  0  0  0  0  0  0  0  0  0
  152.0577  138.2358  156.0273 C   0  0  0  0  0  0  0  0  0  0  0  0
  151.8695  137.1761  155.1484 N   0  0  0  0  0  0  0  0  0  0  0  0
  150.9354  137.6561  154.3285 C   0  0  0  0  0  0  0  0  0  0  0  0
  150.5243  138.9151  154.5900 N   0  0  0  0  0  0  0  0  0  0  0  0
  149.4926  139.7326  153.8715 C   0  0  2  0  0  0  0  0  0  0  0  0
  149.1429  140.8165  154.6807 O   0  0  0  0  0  0  0  0  0  0  0  0
  147.9761  140.4908  155.4288 C   0  0  1  0  0  0  0  0  0  0  0  0
  147.3165  141.7508  156.0167 C   0  0  0  0  0  0  0  0  0  0  0  0
  147.0364  142.6755  154.9875 O   0  0  0  0  0  0  0  0  0  0  0  0
  147.1464  139.7248  154.3911 C   0  0  1  0  0  0  0  0  0  0  0  0
  146.4702  140.6281  153.5299 O   0  0  0  0  0  0  0  0  0  0  0  0
  148.2122  138.8991  153.6684 C   0  0  1  0  0  0  0  0  0  0  0  0
  147.9049  138.6694  152.3062 O   0  0  0  0  0  0  0  0  0  0  0  0
  152.9507  138.4002  157.1985 C   0  0  0  0  0  0  0  0  0  0  0  0
  153.6996  137.4778  157.5153 O   0  0  0  0  0  0  0  0  0  0  0  0
  152.8601  139.6033  157.8407 N   0  5  0  0  0  0  0  0  0  0  0  0
  149.9838  140.0583  152.9537 H   0  0  0  0  0  0  0  0  0  0  0  0
  148.2418  139.8003  156.2318 H   0  0  0  0  0  0  0  0  0  0  0  0
  146.3996  139.0872  154.8653 H   0  0  0  0  0  0  0  0  0  0  0  0
  148.3210  137.9360  154.1702 H   0  0  0  0  0  0  0  0  0  0  0  0
  152.4082  144.4240  157.7060 H   0  0  0  0  0  0  0  0  0  0  0  0
  153.8010  144.5121  158.7831 H   0  0  0  0  0  0  0  0  0  0  0  0
  152.4580  145.6318  158.9826 H   0  0  0  0  0  0  0  0  0  0  0  0
  150.9495  143.7966  159.6399 H   0  0  0  0  0  0  0  0  0  0  0  0
  151.9814  143.1627  161.8365 H   0  0  0  0  0  0  0  0  0  0  0  0
  152.1854  144.8718  161.4783 H   0  0  0  0  0  0  0  0  0  0  0  0
  153.5392  143.7657  161.2743 H   0  0  0  0  0  0  0  0  0  0  0  0
  151.3863  142.5567  157.5626 H   0  0  0  0  0  0  0  0  0  0  0  0
  150.5429  137.0695  153.5111 H   0  0  0  0  0  0  0  0  0  0  0  0
  146.4047  141.5062  156.5630 H   0  0  0  0  0  0  0  0  0  0  0  0
  147.9959  142.2389  156.7160 H   0  0  0  0  0  0  0  0  0  0  0  0
  147.7293  143.3174  154.9635 H   0  0  0  0  0  0  0  0  0  0  0  0
  145.5643  140.3672  153.4705 H   0  0  0  0  0  0  0  0  0  0  0  0
  148.3524  139.3203  151.7874 H   0  0  0  0  0  0  0  0  0  0  0  0
  1  2  1  0  0  0  0
  1 30  1  0  0  0  0
  1 31  1  0  0  0  0
  1 32  1  0  0  0  0
  2  3  1  0  0  0  0
  2  4  1  0  0  0  0
  2 33  1  0  0  0  0
  3 34  1  0  0  0  0
  3 35  1  0  0  0  0
  3 36  1  0  0  0  0
  4  5  2  0  0  0  0
  4  6  1  0  0  0  0
  6 37  1  0  0  0  0
  6  7  1  0  0  0  0
  7 25  1  0  0  0  0
  7  8  2  0  0  0  0
  8  9  1  0  0  0  0
  9 13  1  0  0  0  0
  9 10  2  0  0  0  0
 10 11  1  0  0  0  0
 10 23  1  0  0  0  0
 11 12  2  0  0  0  0
 12 13  1  0  0  0  0
 12 38  1  0  0  0  0
 13 14  1  0  0  0  0
 14 26  1  0  0  0  0
 14 21  1  0  0  0  0
 14 15  1  0  0  0  0
 15 16  1  0  0  0  0
 16 27  1  0  0  0  0
 16 17  1  0  0  0  0
 16 19  1  0  0  0  0
 17 18  1  0  0  0  0
 17 39  1  0  0  0  0
 17 40  1  0  0  0  0
 18 41  1  0  0  0  0
 19 28  1  0  0  0  0
 19 20  1  0  0  0  0
 19 21  1  0  0  0  0
 20 42  1  0  0  0  0
 21 29  1  0  0  0  0
 21 22  1  0  0  0  0
 22 43  1  0  0  0  0
 23 24  2  0  0  0  0
 23 25  1  0  0  0  0
M  CHG  1  25  -1
M  END
> <s_m_source_file>
AV-unprocessed.smi

> <i_m_source_file_index>
54

> <i_lp_mmshare_version>
43012

> <i_f3d_flags>
0

> <s_epik_input>
W0NIM11bQ0hdKFtDSDNdKUMoPU8pW05IXWMobjEpW25IXWMoPU8pYyhjMTIpbltjSF1uMltDQEBIXTNPW0NASF0oW0NIMl1bT0hdKVtDQEBIXShbT0hdKVtDQEhdM1tPSF0=

> <s_epik_cmdline>
J2VwaWtfcHl0aG9uJywgJy1waCcsICc3LjAnLCAnLXRuJywgJzgnLCAnLW1hJywgJzIwMCcsICctbWV0YWxfYmluZGluZycsICctaW1hZScsICc8aW5maWxlLm1hZT4nLCAnLW9tYWUnLCAnPG91dGZpbGUubWFlPic=

> <r_lp_tautomer_probability>
0.85571

> <r_epik_Ionization_Penalty>
1.75936

> <r_epik_Ionization_Penalty_Charging>
4.55893e-11

> <r_epik_Ionization_Penalty_Neutral>
1.75936

> <r_epik_State_Penalty>
1.72072

> <r_epik_Charging_Adjusted_Penalty>
1.72072

> <i_epik_Tot_Q>
-1

> <i_epik_Tot_abs_Q>
1

> <r_epik_Metal_State_Penalty>
0.400338

> <b_epik_Metal_Only>
1

> <s_epik_Chemistry_Notes>
This compound contains an acetal/aminal-like group ( X-CH(R)-Y where X, Y are N, S, or O) that may be acid/base labile, releasing an aldehyde.

> <s_lp_Force_Field>
OPLS_2005

> <r_lp_Energy>
64.1359

> <b_lp_Chiralities_Consistent>
1

> <s_lp_Variant>
AV-unprocessed.smi:54-19

> <Gold.Version>
5.8.1

> <Gold.Id.Protein>
6NUR|6NUR_protein|mol2

> <Gold.PLP.Fitness>
53.4837

> <Gold.PLP.PLP>
-38.4231

> <Gold.PLP.part.hbond>
-5.7603

> <Gold.PLP.part.metal>
0.0000

> <Gold.PLP.part.buried>
-1.8505

> <Gold.PLP.part.nonpolar>
-30.5494

> <Gold.PLP.part.repulsive>
0.2886

> <Gold.PLP.ligand.clash>
0.0000

> <Gold.PLP.ligand.torsion>
0.3754

> <Gold.PLP.Chemscore.Hbond>
4.2560

> <Gold.PLP.Chemscore.CHOScore>
0.9964

> <Gold.PLP.Chemscore.Metal>
0.0000

> <Gold.Chemscore.Hbonds>
donor molecule, donor type, donor heavy atom, donor atom, acceptor molecule, acceptor atom, score
      L1  H    18    41       P1  8028  1.00
      L1  H    20    42       P1 10175  0.73
      L1  H    22    43       P1  7957  1.00
      P1  H  7997  8009       L1    25  0.50
      P1  H 10752 10763       L1    11  0.98
      L1  C    12    38       P1  7948  0.50
      L1  C    12    38       P1  7949  0.52

> <Gold.PLP.Chemscore.Internal.Correction>
0.0542

> <Gold.Rescore>
     Score         DG    S(hbond)    S(metal)    S(lipo)     H(rot)  DE(clash)    DE(int)     intcor
      8.58     -13.27       3.27        0.00      61.18       4.02       1.49       3.20       ----

> <Gold.Chemscore.Fitness>
8.5845

> <Gold.Chemscore.DG>
-13.2727

> <Gold.Chemscore.ZeroCoef>
-5.4800

> <Gold.Chemscore.Hbond>
3.2707

> <Gold.Chemscore.Metal>
0.0000

> <Gold.Chemscore.Lipo>
61.1769

> <Gold.Chemscore.Internal_Hbond>
0.0000

> <Gold.Chemscore.DEClash>
1.4908

> <Gold.Chemscore.DEInternal>
3.1974

> <Gold.Chemscore.Rot>
4.0192

> <Gold.Chemscore.Internal.Correction>
   9.000000E+99

> <Gold.Chemscore.Hbonds>
donor molecule, donor type, donor heavy atom, donor atom, acceptor molecule, acceptor atom, score
      L1  H    18    41       P1  8028  0.49
      L1  H    20    42       P1 10175  0.69
      L1  H    22    43       P1  7957  0.93
      P1  H 10752 10763       L1    11  0.88

> <Gold.Chemscore.Hbond.Weighted>
-10.9242

> <Gold.Chemscore.Metal.Weighted>
-0.0000

> <Gold.Chemscore.Lipo.Weighted>
-7.1577

> <Gold.Chemscore.Internal_Hbond.Weighted>
0.0000

> <Gold.Chemscore.DEClash.Weighted>
1.4908

> <Gold.Chemscore.DEInternal.Weighted>
3.1974

> <Gold.Chemscore.Rot.Weighted>
10.2893

> <Gold.Chemscore.Internal.Correction.Weighted>
   9.000000E+99

> <Gold.Protein.RotatedTorsions>
[ 6907 6896 6895 6894 ] final  100.25 input  -60.11 | X-H torsion
[ 7974 7965 7964 7962 ] final   69.41 input  175.53 | X-H torsion
[ 8008 7997 7996 7995 ] final  170.16 input   59.86 | X-H torsion
[ 10167 10162 10161 10158 ] final   22.93 input  -65.29 | X-H torsion
[ 10718 10713 10712 10709 ] final   93.44 input   66.30 | X-H torsion
[ 10763 10752 10751 10750 ] final   57.95 input  -60.55 | X-H torsion
[ 11005 11000 10999 10996 ] final   -2.66 input  -57.11 | X-H torsion

> <Gold.Protein.ActiveResidues>
 VAL166  LYS551  ARG553  GLY616  TRP617  ASP618  TYR619  PRO620  LYS621  CYS622 
 ASP623  PHE694  ASN695  SER759  ASP760  ASP761  ALA762  ILE779  LEU786  VAL792 
 PHE793  MET794  SER795  GLU796  ALA797  LYS798  CYS799  TRP800  GLU811  SER814 

> <Gold.Protein.RotatedAtoms>
  152.5376  134.0306  159.8022 H   0  0  0  0  0  0  0  0  0  0  0  0  # atno 6907 bound_to 6896
  151.0477  133.5643  159.2652 H   0  0  0  0  0  0  0  0  0  0  0  0  # atno 6908 bound_to 6896
  151.2589  135.0655  159.9144 H   0  0  0  0  0  0  0  0  0  0  0  0  # atno 6909 bound_to 6896
  145.7907  139.2933  143.1212 H   0  0  0  0  0  0  0  0  0  0  0  0  # atno 7974 bound_to 7965
  156.1391  140.1545  156.8949 H   0  0  0  0  0  0  0  0  0  0  0  0  # atno 8008 bound_to 7997
  154.4972  140.0835  156.7760 H   0  0  0  0  0  0  0  0  0  0  0  0  # atno 8009 bound_to 7997
  155.4113  140.3419  155.4266 H   0  0  0  0  0  0  0  0  0  0  0  0  # atno 8010 bound_to 7997
  140.5309  143.9842  150.6465 H   0  0  0  0  0  0  0  0  0  0  0  0  # atno 10167 bound_to 10162
  157.6954  131.0478  150.4035 H   0  0  0  0  0  0  0  0  0  0  0  0  # atno 10718 bound_to 10713
  152.9860  135.5623  154.5474 H   0  0  0  0  0  0  0  0  0  0  0  0  # atno 10763 bound_to 10752
  154.4917  135.2793  155.1493 H   0  0  0  0  0  0  0  0  0  0  0  0  # atno 10764 bound_to 10752
  154.2960  135.6317  153.5458 H   0  0  0  0  0  0  0  0  0  0  0  0  # atno 10765 bound_to 10752
  140.6608  133.9322  155.8435 H   0  0  0  0  0  0  0  0  0  0  0  0  # atno 11005 bound_to 11000
  145.9979  140.8546  143.0033 LP  0  0  0  0  0  0  0  0  0  0  0  0  # atno 17320 bound_to 7965
  144.6782  140.2310  143.7355 LP  0  0  0  0  0  0  0  0  0  0  0  0  # atno 17321 bound_to 7965
  140.3217  143.3133  152.0777 LP  0  0  0  0  0  0  0  0  0  0  0  0  # atno 17342 bound_to 10162
  139.4954  144.6569  151.6552 LP  0  0  0  0  0  0  0  0  0  0  0  0  # atno 17343 bound_to 10162
  156.4426  130.3994  149.6687 LP  0  0  0  0  0  0  0  0  0  0  0  0  # atno 17370 bound_to 10713
  156.3866  130.7606  151.2603 LP  0  0  0  0  0  0  0  0  0  0  0  0  # atno 17371 bound_to 10713
  141.0466  134.0544  157.3836 LP  0  0  0  0  0  0  0  0  0  0  0  0  # atno 17394 bound_to 11000
  139.9013  135.0165  156.7284 LP  0  0  0  0  0  0  0  0  0  0  0  0  # atno 17395 bound_to 11000

$$$$
