#       Name:                AV-unprocessed.smi:906
#       Creating user name   scv26
#       Creation time:       Fri Mar 27 01:59:49 2020


#       File generated by GOLD software.
#

@<TRIPOS>MOLECULE
AV-unprocessed.smi:906
    51    52     1
SMALL
NO_CHARGES


@<TRIPOS>ATOM
      1 ****        -7.7070   3.2769   1.1567 C.3            1 S1                 0.0000
      2 ****        -6.2186   2.9986   1.1448 C.ar           1 S1                 0.0000
      3 ****        -5.5004   2.8478   2.3499 C.ar           1 S1                 0.0000
      4 ****        -4.1185   2.5868   2.2785 C.ar           1 S1                 0.0000
      5 ****        -3.5100   2.4867   1.0106 C.ar           1 S1                 0.0000
      6 ****        -2.0280   2.1976   0.8791 C.3            1 S1                 0.0000
      7 ****        -1.7452   0.6925   0.7444 C.3            1 S1                 0.0000
      8 ****        -0.3152   0.4184   0.6698 N.am           1 S1                 0.0000
      9 ****         0.4452   0.5572  -0.4293 C.2            1 S1                 0.0000
     10 ****        -0.0127   0.9629  -1.4981 O.2            1 S1                 0.0000
     11 ****         1.7609   0.2860  -0.2429 N.am           1 S1                 0.0000
     12 ****         2.3242  -0.5543   0.8239 C.3            1 S1                 0.0000
     13 ****         2.7258  -1.9167   0.2281 C.3            1 S1                 0.0000
     14 ****         3.6697  -1.7497  -0.9147 N.4            1 S1                 1.0000
     15 ****         4.1976  -3.0136  -1.5128 C.3            1 S1                 0.0000
     16 ****         3.0944  -4.0232  -1.8913 C.3            1 S1                 0.0000
     17 ****         5.3074  -3.6468  -0.6444 C.3            1 S1                 0.0000
     18 ****         6.2125  -2.7220  -0.3231 F              1 S1                 0.0000
     19 ****         4.8202  -4.1820   0.4743 F              1 S1                 0.0000
     20 ****         5.9201  -4.6064  -1.3372 F              1 S1                 0.0000
     21 ****         3.1783  -0.7801  -1.9331 C.3            1 S1                 0.0000
     22 ****         2.7602   0.5503  -1.2815 C.3            1 S1                 0.0000
     23 ****        -4.3182   2.6554  -0.1335 C.ar           1 S1                 0.0000
     24 ****        -5.6439   2.9056  -0.0747 N.ar           1 S1                 0.0000
     25 ****        -8.0822   3.3782   2.1754 H              1 S1                 0.0000
     26 ****        -8.2489   2.4629   0.6743 H              1 S1                 0.0000
     27 ****        -7.9249   4.2010   0.6206 H              1 S1                 0.0000
     28 ****        -5.9939   2.9285   3.3073 H              1 S1                 0.0000
     29 ****        -3.5387   2.4634   3.1814 H              1 S1                 0.0000
     30 ****        -1.6421   2.7364   0.0126 H              1 S1                 0.0000
     31 ****        -1.5074   2.6011   1.7487 H              1 S1                 0.0000
     32 ****        -2.1439   0.1621   1.6096 H              1 S1                 0.0000
     33 ****        -2.2517   0.2835  -0.1318 H              1 S1                 0.0000
     34 ****         0.1325   0.1098   1.5204 H              1 S1                 0.0000
     35 ****         3.2012  -0.0583   1.2424 H              1 S1                 0.0000
     36 ****         1.6493  -0.7104   1.6657 H              1 S1                 0.0000
     37 ****         3.1774  -2.5241   1.0102 H              1 S1                 0.0000
     38 ****         1.8257  -2.4364  -0.1019 H              1 S1                 0.0000
     39 ****         4.6919  -2.7269  -2.4424 H              1 S1                 0.0000
     40 ****         3.5147  -4.8643  -2.4429 H              1 S1                 0.0000
     41 ****         2.3337  -3.5705  -2.5270 H              1 S1                 0.0000
     42 ****         2.5977  -4.4340  -1.0124 H              1 S1                 0.0000
     43 ****         3.9587  -0.5881  -2.6703 H              1 S1                 0.0000
     44 ****         2.3311  -1.2079  -2.4708 H              1 S1                 0.0000
     45 ****         2.4010   1.2450  -2.0423 H              1 S1                 0.0000
     46 ****         3.6269   1.0346  -0.8289 H              1 S1                 0.0000
     47 ****        -3.8909   2.5842  -1.1230 H              1 S1                 0.0000
     48 ****         4.4819  -1.2992  -0.5173 H              1 S1                 0.0000
     49 ****        -0.9811   1.2018  -1.5686 LP             1 S1                 0.0000
     50 ****         0.5840   1.0535  -2.2955 LP             1 S1                 0.0000
     51 ****        -6.1841   3.0187  -0.9086 LP             1 S1                 0.0000
@<TRIPOS>BOND
    1    1    2 1     
    2    1   25 1     
    3    1   26 1     
    4    1   27 1     
    5    2   24 ar    
    6    2    3 ar    
    7    3    4 ar    
    8    3   28 1     
    9    4    5 ar    
   10    4   29 1     
   11    5    6 1     
   12    5   23 ar    
   13    6    7 1     
   14    6   30 1     
   15    6   31 1     
   16    7    8 1     
   17    7   32 1     
   18    7   33 1     
   19    8    9 am    
   20    8   34 1     
   21    9   10 2     
   22    9   11 am    
   23   11   22 1     
   24   11   12 1     
   25   12   13 1     
   26   12   35 1     
   27   12   36 1     
   28   13   14 1     
   29   13   37 1     
   30   13   38 1     
   31   14   15 1     
   32   14   21 1     
   33   14   48 1     
   34   15   16 1     
   35   15   17 1     
   36   15   39 1     
   37   16   40 1     
   38   16   41 1     
   39   16   42 1     
   40   17   18 1     
   41   17   19 1     
   42   17   20 1     
   43   21   22 1     
   44   21   43 1     
   45   21   44 1     
   46   22   45 1     
   47   22   46 1     
   48   23   24 ar    
   49   23   47 1     
   50   10   49 1     
   51   10   50 1     
   52   24   51 1     
@<TRIPOS>SUBSTRUCTURE
      1 S1             1
@<TRIPOS>SET
LONE_PAIRS      STATIC     ATOMS    <user>   **** ""
3 49 50 51
DONOR_HYDROGENS      STATIC     ATOMS    <user>   **** ""
2 34 48
ATOM$BLUE        STATIC     ATOMS    COLORGROUP SYSTEM
3 49 50 51
ATOM$RED        STATIC     ATOMS    COLORGROUP SYSTEM
2 34 48
