AV-unprocessed.smi:498|AV-procd|sdf|2728|dock5
  -GOLD-   2262023173D 1   1.00000     0.00000
 Structure written by MMmdl.
 42 44  0  0  0  0  0  0  0  0  1 V2000
  157.0329  139.9536  159.3882 C   0  0  0  0  0  0  0  0  0  0  0  0
  155.7266  139.2462  159.7542 C   0  0  0  0  0  0  0  0  0  0  0  0
  155.0522  138.8903  158.5603 O   0  0  0  0  0  0  0  0  0  0  0  0
  153.8848  138.1202  158.7968 C   0  0  0  0  0  0  0  0  0  0  0  0
  152.9850  138.8408  159.8102 C   0  0  0  0  0  0  0  0  0  0  0  0
  152.0328  139.7353  159.1654 N   0  0  0  0  0  0  0  0  0  0  0  0
  150.9338  139.4229  158.4302 C   0  0  0  0  0  0  0  0  0  0  0  0
  150.5139  138.0072  158.1450 C   0  0  0  0  0  0  0  0  0  0  0  0
  149.5942  137.5746  159.1934 N   0  0  0  0  0  0  0  0  0  0  0  0
  148.9718  136.3872  159.2539 C   0  0  0  0  0  0  0  0  0  0  0  0
  149.1625  135.4748  158.4508 O   0  0  0  0  0  0  0  0  0  0  0  0
  148.0222  136.2181  160.3697 C   0  0  0  0  0  0  0  0  0  0  0  0
  147.3520  135.1156  160.8317 C   0  0  0  0  0  0  0  0  0  0  0  0
  146.5832  135.5447  161.9487 C   0  0  0  0  0  0  0  0  0  0  0  0
  146.8397  136.8779  162.0912 C   0  0  0  0  0  0  0  0  0  0  0  0
  147.7153  137.3023  161.1400 O   0  0  0  0  0  0  0  0  0  0  0  0
  150.2295  140.4636  157.9777 N   0  0  0  0  0  0  0  0  0  0  0  0
  150.9487  141.5471  158.4397 C   0  0  0  0  0  0  0  0  0  0  0  0
  150.7221  142.9332  158.2832 C   0  0  0  0  0  0  0  0  0  0  0  0
  151.6097  143.8701  158.8515 C   0  0  0  0  0  0  0  0  0  0  0  0
  152.7343  143.4350  159.5822 C   0  0  0  0  0  0  0  0  0  0  0  0
  152.9764  142.0582  159.7513 C   0  0  0  0  0  0  0  0  0  0  0  0
  152.0862  141.1265  159.1838 C   0  0  0  0  0  0  0  0  0  0  0  0
  157.5820  140.2452  160.2837 H   0  0  0  0  0  0  0  0  0  0  0  0
  156.8399  140.8542  158.8046 H   0  0  0  0  0  0  0  0  0  0  0  0
  157.6775  139.3023  158.7972 H   0  0  0  0  0  0  0  0  0  0  0  0
  155.9412  138.3548  160.3458 H   0  0  0  0  0  0  0  0  0  0  0  0
  155.1006  139.9042  160.3588 H   0  0  0  0  0  0  0  0  0  0  0  0
  153.3434  137.9707  157.8643 H   0  0  0  0  0  0  0  0  0  0  0  0
  154.1566  137.1330  159.1725 H   0  0  0  0  0  0  0  0  0  0  0  0
  152.4495  138.1262  160.4349 H   0  0  0  0  0  0  0  0  0  0  0  0
  153.6020  139.4278  160.4911 H   0  0  0  0  0  0  0  0  0  0  0  0
  150.0691  137.9044  157.1561 H   0  0  0  0  0  0  0  0  0  0  0  0
  151.3969  137.3683  158.1638 H   0  0  0  0  0  0  0  0  0  0  0  0
  149.3696  138.2576  159.9022 H   0  0  0  0  0  0  0  0  0  0  0  0
  147.4082  134.1191  160.4190 H   0  0  0  0  0  0  0  0  0  0  0  0
  145.9275  134.9531  162.5702 H   0  0  0  0  0  0  0  0  0  0  0  0
  146.5036  137.6380  162.7811 H   0  0  0  0  0  0  0  0  0  0  0  0
  149.8646  143.2765  157.7235 H   0  0  0  0  0  0  0  0  0  0  0  0
  151.4275  144.9272  158.7250 H   0  0  0  0  0  0  0  0  0  0  0  0
  153.4112  144.1583  160.0130 H   0  0  0  0  0  0  0  0  0  0  0  0
  153.8389  141.7232  160.3079 H   0  0  0  0  0  0  0  0  0  0  0  0
  1  2  1  0  0  0  0
  1 24  1  0  0  0  0
  1 25  1  0  0  0  0
  1 26  1  0  0  0  0
  2  3  1  0  0  0  0
  2 27  1  0  0  0  0
  2 28  1  0  0  0  0
  3  4  1  0  0  0  0
  4  5  1  0  0  0  0
  4 29  1  0  0  0  0
  4 30  1  0  0  0  0
  5  6  1  0  0  0  0
  5 31  1  0  0  0  0
  5 32  1  0  0  0  0
  6 23  1  0  0  0  0
  6  7  1  0  0  0  0
  7  8  1  0  0  0  0
  7 17  2  0  0  0  0
  8  9  1  0  0  0  0
  8 33  1  0  0  0  0
  8 34  1  0  0  0  0
  9 10  1  0  0  0  0
  9 35  1  0  0  0  0
 10 11  2  0  0  0  0
 10 12  1  0  0  0  0
 12 16  1  0  0  0  0
 12 13  2  0  0  0  0
 13 14  1  0  0  0  0
 13 36  1  0  0  0  0
 14 15  2  0  0  0  0
 14 37  1  0  0  0  0
 15 16  1  0  0  0  0
 15 38  1  0  0  0  0
 17 18  1  0  0  0  0
 18 23  2  0  0  0  0
 18 19  1  0  0  0  0
 19 20  2  0  0  0  0
 19 39  1  0  0  0  0
 20 21  1  0  0  0  0
 20 40  1  0  0  0  0
 21 22  2  0  0  0  0
 21 41  1  0  0  0  0
 22 23  1  0  0  0  0
 22 42  1  0  0  0  0
M  END
> <s_m_source_file>
AV-unprocessed.smi

> <i_m_source_file_index>
498

> <i_lp_mmshare_version>
43012

> <i_f3d_flags>
0

> <s_epik_input>
W0NIM11bQ0gyXU9bQ0gyXVtDSDJdbihjKGMxMilbY0hdW2NIXVtjSF1bY0hdMiljKG4xKVtDSDJdW05IXUMoPU8pYzNbY0hdW2NIXVtjSF1vMw==

> <s_epik_cmdline>
J2VwaWtfcHl0aG9uJywgJy1waCcsICc3LjAnLCAnLXRuJywgJzgnLCAnLW1hJywgJzIwMCcsICctbWV0YWxfYmluZGluZycsICctaW1hZScsICc8aW5maWxlLm1hZT4nLCAnLW9tYWUnLCAnPG91dGZpbGUubWFlPic=

> <r_epik_Ionization_Penalty>
0.0701438

> <r_epik_Ionization_Penalty_Charging>
0

> <r_epik_Ionization_Penalty_Neutral>
0.0701438

> <r_epik_State_Penalty>
0.061475

> <r_epik_Charging_Adjusted_Penalty>
0.061475

> <i_epik_Tot_Q>
0

> <i_epik_Tot_abs_Q>
0

> <r_epik_Metal_State_Penalty>
0.0666689

> <b_epik_Metal_Only>
0

> <s_lp_Force_Field>
OPLS_2005

> <r_lp_Energy>
6.14226

> <b_lp_Chiralities_Consistent>
1

> <s_lp_Variant>
AV-unprocessed.smi:498-1

> <Gold.Version>
5.8.1

> <Gold.Id.Protein>
6NUR|6NUR_protein|mol2

> <Gold.PLP.Fitness>
52.4998

> <Gold.PLP.PLP>
-42.8726

> <Gold.PLP.part.hbond>
-3.9890

> <Gold.PLP.part.metal>
0.0000

> <Gold.PLP.part.buried>
-4.6376

> <Gold.PLP.part.nonpolar>
-35.1177

> <Gold.PLP.part.repulsive>
0.2395

> <Gold.PLP.ligand.clash>
0.0000

> <Gold.PLP.ligand.torsion>
0.7439

> <Gold.PLP.Chemscore.Hbond>
3.6880

> <Gold.PLP.Chemscore.CHOScore>
0.0000

> <Gold.PLP.Chemscore.Metal>
0.0000

> <Gold.Chemscore.Hbonds>
donor molecule, donor type, donor heavy atom, donor atom, acceptor molecule, acceptor atom, score
      P1  H  6896  6909       L1    11  0.76
      P1  H  6931  6943       L1    16  0.88
      P1  H  6934  6947       L1    16  0.83
      P1  H  7997  8010       L1     3  1.00

> <Gold.PLP.Chemscore.Internal.Correction>
0.0510

> <Gold.Rescore>
     Score         DG    S(hbond)    S(metal)    S(lipo)     H(rot)  DE(clash)    DE(int)     intcor
     22.26     -23.34       2.95        0.00     111.87       1.98       0.50       0.57       ----

> <Gold.Chemscore.Fitness>
22.2624

> <Gold.Chemscore.DG>
-23.3360

> <Gold.Chemscore.ZeroCoef>
-5.4800

> <Gold.Chemscore.Hbond>
2.9460

> <Gold.Chemscore.Metal>
0.0000

> <Gold.Chemscore.Lipo>
111.8676

> <Gold.Chemscore.Internal_Hbond>
0.0000

> <Gold.Chemscore.DEClash>
0.5015

> <Gold.Chemscore.DEInternal>
0.5721

> <Gold.Chemscore.Rot>
1.9813

> <Gold.Chemscore.Internal.Correction>
   9.000000E+99

> <Gold.Chemscore.Hbonds>
donor molecule, donor type, donor heavy atom, donor atom, acceptor molecule, acceptor atom, score
      P1  H  6896  6909       L1    11  0.30
      P1  H  6931  6943       L1    16  0.63
      P1  H  6934  6947       L1    16  0.25
      P1  H  7997  8010       L1     3  0.90

> <Gold.Chemscore.Hbond.Weighted>
-9.8395

> <Gold.Chemscore.Metal.Weighted>
-0.0000

> <Gold.Chemscore.Lipo.Weighted>
-13.0885

> <Gold.Chemscore.Internal_Hbond.Weighted>
0.0000

> <Gold.Chemscore.DEClash.Weighted>
0.5015

> <Gold.Chemscore.DEInternal.Weighted>
0.5721

> <Gold.Chemscore.Rot.Weighted>
5.0720

> <Gold.Chemscore.Internal.Correction.Weighted>
   9.000000E+99

> <Gold.Protein.RotatedTorsions>
[ 6907 6896 6895 6894 ] final   30.72 input  -60.11 | X-H torsion
[ 7974 7965 7964 7962 ] final   98.84 input  175.53 | X-H torsion
[ 8008 7997 7996 7995 ] final   -2.88 input   59.86 | X-H torsion
[ 10167 10162 10161 10158 ] final  -18.32 input  -65.29 | X-H torsion
[ 10718 10713 10712 10709 ] final   32.50 input   66.30 | X-H torsion
[ 10763 10752 10751 10750 ] final -108.63 input  -60.55 | X-H torsion
[ 11005 11000 10999 10996 ] final    1.01 input  -57.11 | X-H torsion

> <Gold.Protein.ActiveResidues>
 VAL166  LYS551  ARG553  GLY616  TRP617  ASP618  TYR619  PRO620  LYS621  CYS622 
 ASP623  PHE694  ASN695  SER759  ASP760  ASP761  ALA762  ILE779  LEU786  VAL792 
 PHE793  MET794  SER795  GLU796  ALA797  LYS798  CYS799  TRP800  GLU811  SER814 

> <Gold.Protein.RotatedAtoms>
  152.0500  134.9659  160.0574 H   0  0  0  0  0  0  0  0  0  0  0  0  # atno 6907 bound_to 6896
  152.1064  133.4272  159.4619 H   0  0  0  0  0  0  0  0  0  0  0  0  # atno 6908 bound_to 6896
  150.6841  134.2619  159.4596 H   0  0  0  0  0  0  0  0  0  0  0  0  # atno 6909 bound_to 6896
  145.4068  139.2339  143.3270 H   0  0  0  0  0  0  0  0  0  0  0  0  # atno 7974 bound_to 7965
  154.6309  140.2523  155.7435 H   0  0  0  0  0  0  0  0  0  0  0  0  # atno 8008 bound_to 7997
  156.2478  140.2907  156.0580 H   0  0  0  0  0  0  0  0  0  0  0  0  # atno 8009 bound_to 7997
  155.1747  140.0387  157.2860 H   0  0  0  0  0  0  0  0  0  0  0  0  # atno 8010 bound_to 7997
  140.7257  143.4928  150.9970 H   0  0  0  0  0  0  0  0  0  0  0  0  # atno 10167 bound_to 10162
  157.2860  130.7279  149.6583 H   0  0  0  0  0  0  0  0  0  0  0  0  # atno 10718 bound_to 10713
  154.8146  135.4631  154.0610 H   0  0  0  0  0  0  0  0  0  0  0  0  # atno 10763 bound_to 10752
  153.2012  135.6869  153.8235 H   0  0  0  0  0  0  0  0  0  0  0  0  # atno 10764 bound_to 10752
  153.7719  135.3269  155.3330 H   0  0  0  0  0  0  0  0  0  0  0  0  # atno 10765 bound_to 10752
  140.6202  133.9668  155.8221 H   0  0  0  0  0  0  0  0  0  0  0  0  # atno 11005 bound_to 11000
  146.2725  140.4773  142.8809 LP  0  0  0  0  0  0  0  0  0  0  0  0  # atno 17320 bound_to 7965
  144.8336  140.6747  143.6275 LP  0  0  0  0  0  0  0  0  0  0  0  0  # atno 17321 bound_to 7965
  139.8633  143.7286  152.3172 LP  0  0  0  0  0  0  0  0  0  0  0  0  # atno 17342 bound_to 10162
  139.7509  144.7534  151.0507 LP  0  0  0  0  0  0  0  0  0  0  0  0  # atno 17343 bound_to 10162
  155.9665  130.4323  150.4959 LP  0  0  0  0  0  0  0  0  0  0  0  0  # atno 17370 bound_to 10713
  157.2912  131.0626  151.2132 LP  0  0  0  0  0  0  0  0  0  0  0  0  # atno 17371 bound_to 10713
  141.0747  134.0152  157.3474 LP  0  0  0  0  0  0  0  0  0  0  0  0  # atno 17394 bound_to 11000
  139.9156  135.0196  156.7868 LP  0  0  0  0  0  0  0  0  0  0  0  0  # atno 17395 bound_to 11000

$$$$
