AV-unprocessed.smi:303|AV-procd|sdf|2275|dock3
  -GOLD-   2262022173D 1   1.00000     0.00000
 Structure written by MMmdl.
 46 47  0  0  0  0  0  0  0  0  2 V2000
  153.4682  131.4223  163.9820 C   0  0  0  0  0  0  0  0  0  0  0  0
  153.7303  132.8581  164.4518 C   0  0  0  0  0  0  0  0  0  0  0  0
  155.0731  133.6728  163.4759 S   0  0  0  0  0  0  0  0  0  0  0  0
  156.3568  133.0736  163.8722 O   0  0  0  0  0  0  0  0  0  0  0  0
  154.6845  133.6938  162.0569 O   0  0  0  0  0  0  0  0  0  0  0  0
  155.0727  135.3196  164.0428 N   0  0  0  0  0  0  0  0  0  0  0  0
  156.3373  136.0770  164.0996 C   0  0  0  0  0  0  0  0  0  0  0  0
  156.4504  137.0660  162.9270 C   0  0  0  0  0  0  0  0  0  0  0  0
  155.2354  138.0091  162.8700 C   0  0  0  0  0  0  0  0  0  0  0  0
  155.3499  138.9760  161.6842 C   0  0  0  0  0  0  0  0  0  0  0  0
  156.1309  138.7387  160.7616 O   0  0  0  0  0  0  0  0  0  0  0  0
  154.5731  140.0698  161.7235 N   0  0  0  0  0  0  0  0  0  0  0  0
  154.5575  141.1186  160.7104 C   0  0  0  0  0  0  0  0  0  0  0  0
  153.1771  141.2347  160.0413 C   0  0  0  0  0  0  0  0  0  0  0  0
  152.6988  142.6704  159.9492 C   0  0  0  0  0  0  0  0  0  0  0  0
  152.3096  143.4055  161.0901 C   0  0  0  0  0  0  0  0  0  0  0  0
  151.8740  144.7383  160.9355 C   0  0  0  0  0  0  0  0  0  0  0  0
  151.8385  145.3075  159.6457 C   0  0  0  0  0  0  0  0  0  0  0  0
  152.2410  144.5288  158.5414 C   0  0  0  0  0  0  0  0  0  0  0  0
  152.6518  143.2553  158.7303 N   0  3  0  0  0  0  0  0  0  0  0  0
  153.9495  137.1666  162.7812 C   0  0  0  0  0  0  0  0  0  0  0  0
  153.8564  136.1527  163.9356 C   0  0  0  0  0  0  0  0  0  0  0  0
  152.6540  130.9723  164.5500 H   0  0  0  0  0  0  0  0  0  0  0  0
  154.3509  130.7970  164.1176 H   0  0  0  0  0  0  0  0  0  0  0  0
  153.1960  131.3913  162.9274 H   0  0  0  0  0  0  0  0  0  0  0  0
  152.8294  133.4644  164.4063 H   0  0  0  0  0  0  0  0  0  0  0  0
  154.0491  132.8404  165.4938 H   0  0  0  0  0  0  0  0  0  0  0  0
  156.3731  136.6209  165.0441 H   0  0  0  0  0  0  0  0  0  0  0  0
  157.1871  135.3948  164.1046 H   0  0  0  0  0  0  0  0  0  0  0  0
  157.3686  137.6453  163.0335 H   0  0  0  0  0  0  0  0  0  0  0  0
  156.5454  136.5162  161.9905 H   0  0  0  0  0  0  0  0  0  0  0  0
  155.2047  138.5895  163.7940 H   0  0  0  0  0  0  0  0  0  0  0  0
  153.9567  140.1867  162.5151 H   0  0  0  0  0  0  0  0  0  0  0  0
  154.8482  142.0715  161.1565 H   0  0  0  0  0  0  0  0  0  0  0  0
  155.3165  140.8805  159.9647 H   0  0  0  0  0  0  0  0  0  0  0  0
  153.2111  140.8080  159.0377 H   0  0  0  0  0  0  0  0  0  0  0  0
  152.4378  140.6545  160.5953 H   0  0  0  0  0  0  0  0  0  0  0  0
  152.3436  142.9556  162.0720 H   0  0  0  0  0  0  0  0  0  0  0  0
  151.5704  145.3166  161.7962 H   0  0  0  0  0  0  0  0  0  0  0  0
  151.5069  146.3262  159.5059 H   0  0  0  0  0  0  0  0  0  0  0  0
  152.2458  144.8826  157.5208 H   0  0  0  0  0  0  0  0  0  0  0  0
  153.0767  137.8202  162.8106 H   0  0  0  0  0  0  0  0  0  0  0  0
  153.8965  136.6451  161.8263 H   0  0  0  0  0  0  0  0  0  0  0  0
  152.9727  135.5267  163.8182 H   0  0  0  0  0  0  0  0  0  0  0  0
  153.7274  136.6883  164.8768 H   0  0  0  0  0  0  0  0  0  0  0  0
  152.9374  142.7102  157.9165 H   0  0  0  0  0  0  0  0  0  0  0  0
  1  2  1  0  0  0  0
  1 23  1  0  0  0  0
  1 24  1  0  0  0  0
  1 25  1  0  0  0  0
  2  3  1  0  0  0  0
  2 26  1  0  0  0  0
  2 27  1  0  0  0  0
  3  4  2  0  0  0  0
  3  5  2  0  0  0  0
  3  6  1  0  0  0  0
  6 22  1  0  0  0  0
  6  7  1  0  0  0  0
  7  8  1  0  0  0  0
  7 28  1  0  0  0  0
  7 29  1  0  0  0  0
  8  9  1  0  0  0  0
  8 30  1  0  0  0  0
  8 31  1  0  0  0  0
  9 10  1  0  0  0  0
  9 21  1  0  0  0  0
  9 32  1  0  0  0  0
 10 11  2  0  0  0  0
 10 12  1  0  0  0  0
 12 13  1  0  0  0  0
 12 33  1  0  0  0  0
 13 14  1  0  0  0  0
 13 34  1  0  0  0  0
 13 35  1  0  0  0  0
 14 15  1  0  0  0  0
 14 36  1  0  0  0  0
 14 37  1  0  0  0  0
 15 20  1  0  0  0  0
 15 16  2  0  0  0  0
 16 17  1  0  0  0  0
 16 38  1  0  0  0  0
 17 18  2  0  0  0  0
 17 39  1  0  0  0  0
 18 19  1  0  0  0  0
 18 40  1  0  0  0  0
 19 20  2  0  0  0  0
 19 41  1  0  0  0  0
 20 46  1  0  0  0  0
 21 22  1  0  0  0  0
 21 42  1  0  0  0  0
 21 43  1  0  0  0  0
 22 44  1  0  0  0  0
 22 45  1  0  0  0  0
M  CHG  1  20   1
M  END
> <s_m_source_file>
AV-unprocessed.smi

> <i_m_source_file_index>
303

> <i_lp_mmshare_version>
43012

> <i_f3d_flags>
0

> <s_epik_input>
W0NIM11bQ0gyXVMoPU8pKD1PKU4xW0NIMl1bQ0gyXVtDSF0oW0NIMl1bQ0gyXTEpQyg9TylbTkhdW0NIMl1bQ0gyXWMyW2NIXVtjSF1bY0hdW2NIXW4y

> <s_epik_cmdline>
J2VwaWtfcHl0aG9uJywgJy1waCcsICc3LjAnLCAnLXRuJywgJzgnLCAnLW1hJywgJzIwMCcsICctbWV0YWxfYmluZGluZycsICctaW1hZScsICc8aW5maWxlLm1hZT4nLCAnLW9tYWUnLCAnPG91dGZpbGUubWFlPic=

> <r_epik_Ionization_Penalty>
1.82741

> <r_epik_Ionization_Penalty_Charging>
1.82741

> <r_epik_Ionization_Penalty_Neutral>
1.89562e-08

> <r_epik_State_Penalty>
1.94311

> <r_epik_Charging_Adjusted_Penalty>
3.77052

> <i_epik_Tot_Q>
1

> <i_epik_Tot_abs_Q>
1

> <r_epik_Metal_State_Penalty>
1.96983

> <b_epik_Metal_Only>
0

> <s_lp_Force_Field>
OPLS_2005

> <r_lp_Energy>
6.79825

> <b_lp_Chiralities_Consistent>
1

> <s_lp_Variant>
AV-unprocessed.smi:303-2

> <Gold.Version>
5.8.1

> <Gold.Id.Protein>
6NUR|6NUR_protein|mol2

> <Gold.PLP.Fitness>
47.4893

> <Gold.PLP.PLP>
-49.4914

> <Gold.PLP.part.hbond>
0.0000

> <Gold.PLP.part.metal>
0.0000

> <Gold.PLP.part.buried>
-5.3040

> <Gold.PLP.part.nonpolar>
-44.6686

> <Gold.PLP.part.repulsive>
0.0597

> <Gold.PLP.ligand.clash>
0.0000

> <Gold.PLP.ligand.torsion>
2.0913

> <Gold.PLP.Chemscore.Hbond>
0.0000

> <Gold.PLP.Chemscore.CHOScore>
0.0000

> <Gold.PLP.Chemscore.Metal>
0.0000

> <Gold.PLP.Chemscore.Internal.Correction>
2.1806

> <Gold.Rescore>
     Score         DG    S(hbond)    S(metal)    S(lipo)     H(rot)  DE(clash)    DE(int)     intcor
     14.36     -16.57       0.00        0.00     133.27       1.76       0.16       2.05       ----

> <Gold.Chemscore.Fitness>
14.3592

> <Gold.Chemscore.DG>
-16.5679

> <Gold.Chemscore.ZeroCoef>
-5.4800

> <Gold.Chemscore.Hbond>
0.0000

> <Gold.Chemscore.Metal>
0.0000

> <Gold.Chemscore.Lipo>
133.2683

> <Gold.Chemscore.Internal_Hbond>
0.0000

> <Gold.Chemscore.DEClash>
0.1620

> <Gold.Chemscore.DEInternal>
2.0467

> <Gold.Chemscore.Rot>
1.7596

> <Gold.Chemscore.Internal.Correction>
   9.000000E+99

> <Gold.Chemscore.Hbond.Weighted>
-0.0000

> <Gold.Chemscore.Metal.Weighted>
-0.0000

> <Gold.Chemscore.Lipo.Weighted>
-15.5924

> <Gold.Chemscore.Internal_Hbond.Weighted>
0.0000

> <Gold.Chemscore.DEClash.Weighted>
0.1620

> <Gold.Chemscore.DEInternal.Weighted>
2.0467

> <Gold.Chemscore.Rot.Weighted>
4.5045

> <Gold.Chemscore.Internal.Correction.Weighted>
   9.000000E+99

> <Gold.Protein.RotatedTorsions>
[ 6907 6896 6895 6894 ] final -121.34 input  -60.11 | X-H torsion
[ 7974 7965 7964 7962 ] final   -1.19 input  175.53 | X-H torsion
[ 8008 7997 7996 7995 ] final  -58.19 input   59.86 | X-H torsion
[ 10167 10162 10161 10158 ] final    5.75 input  -65.29 | X-H torsion
[ 10718 10713 10712 10709 ] final   93.91 input   66.30 | X-H torsion
[ 10763 10752 10751 10750 ] final  127.47 input  -60.55 | X-H torsion
[ 11005 11000 10999 10996 ] final -147.20 input  -57.11 | X-H torsion

> <Gold.Protein.ActiveResidues>
 VAL166  LYS551  ARG553  GLY616  TRP617  ASP618  TYR619  PRO620  LYS621  CYS622 
 ASP623  PHE694  ASN695  SER759  ASP760  ASP761  ALA762  ILE779  LEU786  VAL792 
 PHE793  MET794  SER795  GLU796  ALA797  LYS798  CYS799  TRP800  GLU811  SER814 

> <Gold.Protein.RotatedAtoms>
  150.8475  133.7839  159.3037 H   0  0  0  0  0  0  0  0  0  0  0  0  # atno 6907 bound_to 6896
  151.5521  135.1065  159.9962 H   0  0  0  0  0  0  0  0  0  0  0  0  # atno 6908 bound_to 6896
  152.4525  133.7615  159.6805 H   0  0  0  0  0  0  0  0  0  0  0  0  # atno 6909 bound_to 6896
  146.2420  140.1382  142.8336 H   0  0  0  0  0  0  0  0  0  0  0  0  # atno 7974 bound_to 7965
  154.4298  140.1090  156.5917 H   0  0  0  0  0  0  0  0  0  0  0  0  # atno 8008 bound_to 7997
  155.6005  140.3493  155.4573 H   0  0  0  0  0  0  0  0  0  0  0  0  # atno 8009 bound_to 7997
  156.0177  140.1233  157.0379 H   0  0  0  0  0  0  0  0  0  0  0  0  # atno 8010 bound_to 7997
  140.6465  143.7649  150.7507 H   0  0  0  0  0  0  0  0  0  0  0  0  # atno 10167 bound_to 10162
  157.6951  131.0494  150.4105 H   0  0  0  0  0  0  0  0  0  0  0  0  # atno 10718 bound_to 10713
  153.7099  135.3270  155.3244 H   0  0  0  0  0  0  0  0  0  0  0  0  # atno 10763 bound_to 10752
  154.8388  135.4474  154.1325 H   0  0  0  0  0  0  0  0  0  0  0  0  # atno 10764 bound_to 10752
  153.2415  135.6971  153.7856 H   0  0  0  0  0  0  0  0  0  0  0  0  # atno 10765 bound_to 10752
  140.7742  134.3154  157.5066 H   0  0  0  0  0  0  0  0  0  0  0  0  # atno 11005 bound_to 11000
  145.0268  140.8839  143.5133 LP  0  0  0  0  0  0  0  0  0  0  0  0  # atno 17320 bound_to 7965
  145.1440  139.2555  143.5475 LP  0  0  0  0  0  0  0  0  0  0  0  0  # atno 17321 bound_to 7965
  140.1291  143.4542  152.2266 LP  0  0  0  0  0  0  0  0  0  0  0  0  # atno 17342 bound_to 10162
  139.5676  144.7444  151.3978 LP  0  0  0  0  0  0  0  0  0  0  0  0  # atno 17343 bound_to 10162
  156.4490  130.4007  149.6648 LP  0  0  0  0  0  0  0  0  0  0  0  0  # atno 17370 bound_to 10713
  156.3804  130.7576  151.2568 LP  0  0  0  0  0  0  0  0  0  0  0  0  # atno 17371 bound_to 10713
  139.8751  134.9279  156.3437 LP  0  0  0  0  0  0  0  0  0  0  0  0  # atno 17394 bound_to 11000
  140.9545  133.7429  156.0317 LP  0  0  0  0  0  0  0  0  0  0  0  0  # atno 17395 bound_to 11000

$$$$
