#       Name:                AV-unprocessed.smi:1971
#       Creating user name   scv26
#       Creation time:       Fri Mar 27 10:13:34 2020


#       File generated by GOLD software.
#

@<TRIPOS>MOLECULE
AV-unprocessed.smi:1971
    48    49     1
SMALL
NO_CHARGES


@<TRIPOS>ATOM
      1 ****        -4.7600  -3.4549  -1.6117 C.3            1 S1                 0.0000
      2 ****        -3.9089  -2.7151  -0.5695 C.3            1 S1                 0.0000
      3 ****        -3.9904  -1.2606  -0.7254 N.3            1 S1                 0.0000
      4 ****        -3.4603  -0.5438   0.4377 C.3            1 S1                 0.0000
      5 ****        -1.9239  -0.6518   0.5343 C.3            1 S1                 0.0000
      6 ****        -1.2927  -0.1226  -0.7031 N.4            1 S1                 1.0000
      7 ****         0.1957  -0.0132  -0.6786 C.3            1 S1                 0.0000
      8 ****         0.8912  -1.3259  -0.2539 C.3            1 S1                 0.0000
      9 ****         0.6385   1.1965   0.1719 C.3            1 S1                 0.0000
     10 ****         2.0831   1.3971   0.1176 N.am           1 S1                 0.0000
     11 ****         2.7957   2.0461   1.0488 C.2            1 S1                 0.0000
     12 ****         2.2924   2.5593   2.0484 O.2            1 S1                 0.0000
     13 ****         4.1053   2.0584   0.7436 N.am           1 S1                 0.0000
     14 ****         5.1771   2.5959   1.5043 C.2            1 S1                 0.0000
     15 ****         5.0357   3.1734   2.7032 N.2            1 S1                 0.0000
     16 ****         6.2578   3.6051   3.2250 C.2            1 S1                 0.0000
     17 ****         7.3273   3.3461   2.4044 C.2            1 S1                 0.0000
     18 ****         6.8394   2.5427   0.9359 S.3            1 S1                 0.0000
     19 ****        -1.8219  -0.8330  -1.8940 C.3            1 S1                 0.0000
     20 ****        -3.3610  -0.7301  -1.9399 C.3            1 S1                 0.0000
     21 ****        -4.7905  -4.5215  -1.3886 H              1 S1                 0.0000
     22 ****        -4.3585  -3.3494  -2.6191 H              1 S1                 0.0000
     23 ****        -5.7879  -3.0908  -1.6147 H              1 S1                 0.0000
     24 ****        -4.2900  -2.9761   0.4186 H              1 S1                 0.0000
     25 ****        -2.8789  -3.0681  -0.6053 H              1 S1                 0.0000
     26 ****        -3.7490   0.5055   0.3624 H              1 S1                 0.0000
     27 ****        -3.9256  -0.9240   1.3479 H              1 S1                 0.0000
     28 ****        -1.5882  -0.0828   1.4003 H              1 S1                 0.0000
     29 ****        -1.6272  -1.6864   0.7079 H              1 S1                 0.0000
     30 ****         0.5113   0.2033  -1.7004 H              1 S1                 0.0000
     31 ****         1.9705  -1.2632  -0.3936 H              1 S1                 0.0000
     32 ****         0.5469  -2.1756  -0.8428 H              1 S1                 0.0000
     33 ****         0.7176  -1.5538   0.7979 H              1 S1                 0.0000
     34 ****         0.1512   2.1055  -0.1835 H              1 S1                 0.0000
     35 ****         0.3314   1.0587   1.2093 H              1 S1                 0.0000
     36 ****         2.5728   1.0098  -0.6758 H              1 S1                 0.0000
     37 ****         4.3707   1.6186  -0.1251 H              1 S1                 0.0000
     38 ****         6.2744   4.0887   4.1905 H              1 S1                 0.0000
     39 ****         8.3681   3.5776   2.5750 H              1 S1                 0.0000
     40 ****        -1.4132  -0.3811  -2.7984 H              1 S1                 0.0000
     41 ****        -1.5011  -1.8745  -1.8965 H              1 S1                 0.0000
     42 ****        -3.7494  -1.2333  -2.8244 H              1 S1                 0.0000
     43 ****        -3.6482   0.3171  -2.0440 H              1 S1                 0.0000
     44 ****        -1.6260   0.8262  -0.7965 H              1 S1                 0.0000
     45 ****        -4.9732  -1.0956  -0.8093 LP             1 S1                 0.0000
     46 ****         1.3049   2.5030   2.1960 LP             1 S1                 0.0000
     47 ****         2.8710   3.0324   2.7127 LP             1 S1                 0.0000
     48 ****         4.1585   3.2831   3.1707 LP             1 S1                 0.0000
@<TRIPOS>BOND
    1    1    2 1     
    2    1   21 1     
    3    1   22 1     
    4    1   23 1     
    5    2    3 1     
    6    2   24 1     
    7    2   25 1     
    8    3   20 1     
    9    3    4 1     
   10    4    5 1     
   11    4   26 1     
   12    4   27 1     
   13    5    6 1     
   14    5   28 1     
   15    5   29 1     
   16    6    7 1     
   17    6   19 1     
   18    6   44 1     
   19    7    8 1     
   20    7    9 1     
   21    7   30 1     
   22    8   31 1     
   23    8   32 1     
   24    8   33 1     
   25    9   10 1     
   26    9   34 1     
   27    9   35 1     
   28   10   11 am    
   29   10   36 1     
   30   11   12 2     
   31   11   13 am    
   32   13   14 1     
   33   13   37 1     
   34   14   18 1     
   35   14   15 2     
   36   15   16 1     
   37   16   17 2     
   38   16   38 1     
   39   17   18 1     
   40   17   39 1     
   41   19   20 1     
   42   19   40 1     
   43   19   41 1     
   44   20   42 1     
   45   20   43 1     
   46    3   45 1     
   47   12   46 1     
   48   12   47 1     
   49   15   48 1     
@<TRIPOS>SUBSTRUCTURE
      1 S1             1
@<TRIPOS>SET
LONE_PAIRS      STATIC     ATOMS    <user>   **** ""
4 45 46 47 48
DONOR_HYDROGENS      STATIC     ATOMS    <user>   **** ""
3 44 36 37
ATOM$BLUE        STATIC     ATOMS    COLORGROUP SYSTEM
4 45 46 47 48
ATOM$RED        STATIC     ATOMS    COLORGROUP SYSTEM
3 44 36 37
