AV-unprocessed.smi:1748|AV-procd|sdf|7037|dock4
  -GOLD-   22720 8253D 1   1.00000     0.00000
 Structure written by MMmdl.
 40 41  0  0  0  0  0  0  0  0  2 V2000
  144.4775  137.2208  152.1949 C   0  0  0  0  0  0  0  0  0  0  0  0
  144.1166  138.3559  151.3191 N   0  3  2  0  0  0  0  0  0  0  0  0
  142.7999  138.1669  150.6599 C   0  0  0  0  0  0  0  0  0  0  0  0
  142.3954  139.4179  149.8610 C   0  0  0  0  0  0  0  0  0  0  0  0
  143.4871  139.8151  148.8525 C   0  0  0  0  0  0  0  0  0  0  0  0
  144.8540  139.9608  149.5460 C   0  0  1  0  0  0  0  0  0  0  0  0
  144.8510  141.1436  150.4074 N   0  0  0  0  0  0  0  0  0  0  0  0
  145.7233  142.1591  150.3351 C   0  0  0  0  0  0  0  0  0  0  0  0
  146.6551  142.1886  149.5322 O   0  0  0  0  0  0  0  0  0  0  0  0
  145.4442  143.0973  151.2584 N   0  0  0  0  0  0  0  0  0  0  0  0
  146.0905  144.3188  151.5139 C   0  0  0  0  0  0  0  0  0  0  0  0
  145.9743  145.4378  150.7516 C   0  0  0  0  0  0  0  0  0  0  0  0
  146.6632  146.6734  151.0848 C   0  0  0  0  0  0  0  0  0  0  0  0
  146.5893  147.8931  150.1793 C   0  0  0  0  0  0  0  0  0  0  0  0
  145.3337  148.3331  150.1140 F   0  0  0  0  0  0  0  0  0  0  0  0
  147.3545  148.8851  150.6371 F   0  0  0  0  0  0  0  0  0  0  0  0
  146.9882  147.5934  148.9432 F   0  0  0  0  0  0  0  0  0  0  0  0
  147.4327  146.6528  152.1887 C   0  0  0  0  0  0  0  0  0  0  0  0
  147.5409  145.5135  152.9892 N   0  0  0  0  0  0  0  0  0  0  0  0
  146.9215  144.3405  152.7292 C   0  0  0  0  0  0  0  0  0  0  0  0
  147.0700  143.3787  153.4824 O   0  0  0  0  0  0  0  0  0  0  0  0
  145.1831  138.6744  150.3365 C   0  0  0  0  0  0  0  0  0  0  0  0
  148.1255  145.5833  153.8097 H   0  0  0  0  0  0  0  0  0  0  0  0
  144.5961  136.3031  151.6174 H   0  0  0  0  0  0  0  0  0  0  0  0
  143.7065  137.0550  152.9479 H   0  0  0  0  0  0  0  0  0  0  0  0
  145.4137  137.4204  152.7174 H   0  0  0  0  0  0  0  0  0  0  0  0
  142.8430  137.2986  150.0003 H   0  0  0  0  0  0  0  0  0  0  0  0
  142.0400  137.9552  151.4134 H   0  0  0  0  0  0  0  0  0  0  0  0
  141.4558  139.2370  149.3382 H   0  0  0  0  0  0  0  0  0  0  0  0
  142.2075  140.2442  150.5479 H   0  0  0  0  0  0  0  0  0  0  0  0
  143.5557  139.0497  148.0782 H   0  0  0  0  0  0  0  0  0  0  0  0
  143.2143  140.7405  148.3435 H   0  0  0  0  0  0  0  0  0  0  0  0
  145.6132  140.1066  148.7752 H   0  0  0  0  0  0  0  0  0  0  0  0
  144.1132  141.2035  151.0942 H   0  0  0  0  0  0  0  0  0  0  0  0
  144.6772  142.8961  151.8836 H   0  0  0  0  0  0  0  0  0  0  0  0
  145.3448  145.4539  149.8773 H   0  0  0  0  0  0  0  0  0  0  0  0
  148.0206  147.4895  152.5367 H   0  0  0  0  0  0  0  0  0  0  0  0
  146.1375  138.7826  150.8534 H   0  0  0  0  0  0  0  0  0  0  0  0
  145.3006  137.8356  149.6486 H   0  0  0  0  0  0  0  0  0  0  0  0
  144.0279  139.1635  151.9192 H   0  0  0  0  0  0  0  0  0  0  0  0
  1  2  1  0  0  0  0
  1 24  1  0  0  0  0
  1 25  1  0  0  0  0
  1 26  1  0  0  0  0
  2 22  1  0  0  0  0
  2  3  1  0  0  0  0
  2 40  1  0  0  0  0
  3  4  1  0  0  0  0
  3 27  1  0  0  0  0
  3 28  1  0  0  0  0
  4  5  1  0  0  0  0
  4 29  1  0  0  0  0
  4 30  1  0  0  0  0
  5  6  1  0  0  0  0
  5 31  1  0  0  0  0
  5 32  1  0  0  0  0
  6  7  1  0  0  0  0
  6 22  1  0  0  0  0
  6 33  1  0  0  0  0
  7  8  1  0  0  0  0
  7 34  1  0  0  0  0
  8  9  2  0  0  0  0
  8 10  1  0  0  0  0
 10 11  1  0  0  0  0
 10 35  1  0  0  0  0
 11 20  1  0  0  0  0
 11 12  2  0  0  0  0
 12 13  1  0  0  0  0
 12 36  1  0  0  0  0
 13 14  1  0  0  0  0
 13 18  2  0  0  0  0
 14 15  1  0  0  0  0
 14 16  1  0  0  0  0
 14 17  1  0  0  0  0
 18 19  1  0  0  0  0
 18 37  1  0  0  0  0
 19 23  1  0  0  0  0
 19 20  1  0  0  0  0
 20 21  2  0  0  0  0
 22 38  1  0  0  0  0
 22 39  1  0  0  0  0
M  CHG  1   2   1
M  END
> <s_m_source_file>
AV-unprocessed.smi

> <i_m_source_file_index>
1748

> <i_lp_mmshare_version>
43012

> <i_f3d_flags>
0

> <s_epik_input>
W0NIM11OMVtDSDJdW0NIMl1bQ0gyXVtDQEhdKFtDSDJdMSlbTkhdQyg9TylbTkhdYzJbY0hdYyhDKEYpKEYpRilbY0hdW25IXWMyPU8=

> <s_epik_cmdline>
J2VwaWtfcHl0aG9uJywgJy1waCcsICc3LjAnLCAnLXRuJywgJzgnLCAnLW1hJywgJzIwMCcsICctbWV0YWxfYmluZGluZycsICctaW1hZScsICc8aW5maWxlLm1hZT4nLCAnLW9tYWUnLCAnPG91dGZpbGUubWFlPic=

> <r_lp_tautomer_probability>
1

> <r_epik_Ionization_Penalty>
0.00746315

> <r_epik_Ionization_Penalty_Charging>
0.00744398

> <r_epik_Ionization_Penalty_Neutral>
1.91704e-05

> <r_epik_State_Penalty>
-0

> <r_epik_Charging_Adjusted_Penalty>
0.00744398

> <i_epik_Tot_Q>
1

> <i_epik_Tot_abs_Q>
1

> <r_epik_Metal_State_Penalty>
0.379332

> <b_epik_Metal_Only>
0

> <s_lp_Force_Field>
OPLS_2005

> <r_lp_Energy>
33.6429

> <b_lp_Chiralities_Consistent>
1

> <s_lp_Variant>
AV-unprocessed.smi:1748-2

> <Gold.Version>
5.8.1

> <Gold.Id.Protein>
6NUR|6NUR_protein|mol2

> <Gold.PLP.Fitness>
40.8498

> <Gold.PLP.PLP>
-30.2122

> <Gold.PLP.part.hbond>
-4.2424

> <Gold.PLP.part.metal>
0.0000

> <Gold.PLP.part.buried>
-2.7908

> <Gold.PLP.part.nonpolar>
-23.4768

> <Gold.PLP.part.repulsive>
0.4254

> <Gold.PLP.ligand.clash>
1.0970

> <Gold.PLP.ligand.torsion>
0.7486

> <Gold.PLP.Chemscore.Hbond>
4.3999

> <Gold.PLP.Chemscore.CHOScore>
0.0000

> <Gold.PLP.Chemscore.Metal>
0.0000

> <Gold.Chemscore.Hbonds>
donor molecule, donor type, donor heavy atom, donor atom, acceptor molecule, acceptor atom, score
      L1  H     2    40       P1 10175  1.46

> <Gold.PLP.Chemscore.Internal.Correction>
0.0319

> <Gold.Rescore>
     Score         DG    S(hbond)    S(metal)    S(lipo)     H(rot)  DE(clash)    DE(int)     intcor
     17.73     -18.51       2.89        0.00      50.67       1.00       0.07       0.70       ----

> <Gold.Chemscore.Fitness>
17.7328

> <Gold.Chemscore.DG>
-18.5116

> <Gold.Chemscore.ZeroCoef>
-5.4800

> <Gold.Chemscore.Hbond>
2.8933

> <Gold.Chemscore.Metal>
0.0000

> <Gold.Chemscore.Lipo>
50.6673

> <Gold.Chemscore.Internal_Hbond>
0.0000

> <Gold.Chemscore.DEClash>
0.0744

> <Gold.Chemscore.DEInternal>
0.7045

> <Gold.Chemscore.Rot>
1.0000

> <Gold.Chemscore.Internal.Correction>
   9.000000E+99

> <Gold.Chemscore.Hbonds>
donor molecule, donor type, donor heavy atom, donor atom, acceptor molecule, acceptor atom, score
      L1  H     2    40       P1 10175  0.72

> <Gold.Chemscore.Hbond.Weighted>
-9.6636

> <Gold.Chemscore.Metal.Weighted>
-0.0000

> <Gold.Chemscore.Lipo.Weighted>
-5.9281

> <Gold.Chemscore.Internal_Hbond.Weighted>
0.0000

> <Gold.Chemscore.DEClash.Weighted>
0.0744

> <Gold.Chemscore.DEInternal.Weighted>
0.7045

> <Gold.Chemscore.Rot.Weighted>
2.5600

> <Gold.Chemscore.Internal.Correction.Weighted>
   9.000000E+99

> <Gold.Protein.RotatedTorsions>
[ 6907 6896 6895 6894 ] final  170.86 input  -60.11 | X-H torsion
[ 7974 7965 7964 7962 ] final -139.15 input  175.53 | X-H torsion
[ 8008 7997 7996 7995 ] final  144.08 input   59.86 | X-H torsion
[ 10167 10162 10161 10158 ] final  -38.37 input  -65.29 | X-H torsion
[ 10718 10713 10712 10709 ] final  -14.99 input   66.30 | X-H torsion
[ 10763 10752 10751 10750 ] final  149.14 input  -60.55 | X-H torsion
[ 11005 11000 10999 10996 ] final   41.72 input  -57.11 | X-H torsion

> <Gold.Protein.ActiveResidues>
 VAL166  LYS551  ARG553  GLY616  TRP617  ASP618  TYR619  PRO620  LYS621  CYS622 
 ASP623  PHE694  ASN695  SER759  ASP760  ASP761  ALA762  ILE779  LEU786  VAL792 
 PHE793  MET794  SER795  GLU796  ALA797  LYS798  CYS799  TRP800  GLU811  SER814 

> <Gold.Protein.RotatedAtoms>
  151.8094  133.3380  159.3550 H   0  0  0  0  0  0  0  0  0  0  0  0  # atno 6907 bound_to 6896
  150.7331  134.5678  159.5884 H   0  0  0  0  0  0  0  0  0  0  0  0  # atno 6908 bound_to 6896
  152.3086  134.7526  160.0393 H   0  0  0  0  0  0  0  0  0  0  0  0  # atno 6909 bound_to 6896
  144.8700  140.6352  143.5273 H   0  0  0  0  0  0  0  0  0  0  0  0  # atno 7974 bound_to 7965
  156.2916  140.2245  156.4994 H   0  0  0  0  0  0  0  0  0  0  0  0  # atno 8008 bound_to 7997
  154.7702  140.0467  157.1067 H   0  0  0  0  0  0  0  0  0  0  0  0  # atno 8009 bound_to 7997
  154.9883  140.3087  155.4920 H   0  0  0  0  0  0  0  0  0  0  0  0  # atno 8010 bound_to 7997
  140.7094  143.3281  151.2631 H   0  0  0  0  0  0  0  0  0  0  0  0  # atno 10167 bound_to 10162
  156.6081  130.4842  149.6212 H   0  0  0  0  0  0  0  0  0  0  0  0  # atno 10718 bound_to 10713
  154.0662  135.2870  155.3316 H   0  0  0  0  0  0  0  0  0  0  0  0  # atno 10763 bound_to 10752
  154.6776  135.5276  153.8223 H   0  0  0  0  0  0  0  0  0  0  0  0  # atno 10764 bound_to 10752
  153.0503  135.6573  154.0847 H   0  0  0  0  0  0  0  0  0  0  0  0  # atno 10765 bound_to 10752
  140.1807  134.4107  155.8202 H   0  0  0  0  0  0  0  0  0  0  0  0  # atno 11005 bound_to 11000
  145.4148  139.1574  143.4106 LP  0  0  0  0  0  0  0  0  0  0  0  0  # atno 17320 bound_to 7965
  146.2923  140.4254  142.8734 LP  0  0  0  0  0  0  0  0  0  0  0  0  # atno 17321 bound_to 7965
  139.6756  143.9944  152.2779 LP  0  0  0  0  0  0  0  0  0  0  0  0  # atno 17342 bound_to 10162
  139.9557  144.6591  150.8128 LP  0  0  0  0  0  0  0  0  0  0  0  0  # atno 17343 bound_to 10162
  156.2412  130.6852  151.1558 LP  0  0  0  0  0  0  0  0  0  0  0  0  # atno 17370 bound_to 10713
  157.7261  131.0648  150.5922 LP  0  0  0  0  0  0  0  0  0  0  0  0  # atno 17371 bound_to 10713
  141.2223  133.6999  156.7926 LP  0  0  0  0  0  0  0  0  0  0  0  0  # atno 17394 bound_to 11000
  140.2270  134.8714  157.3437 LP  0  0  0  0  0  0  0  0  0  0  0  0  # atno 17395 bound_to 11000

$$$$
