AV-unprocessed.smi:21|AV-procd|sdf|151|dock4
  -GOLD-   2262015373D 1   1.00000     0.00000
 Structure written by MMmdl.
 62 65  0  0  0  0  0  0  0  0  2 V2000
  143.9367  132.0649  150.2068 C   0  0  0  0  0  0  0  0  0  0  0  0
  145.0585  132.2801  151.0492 O   0  0  0  0  0  0  0  0  0  0  0  0
  145.9262  133.3107  150.5953 C   0  0  1  0  0  0  0  0  0  0  0  0
  145.1483  134.6205  150.5709 C   0  0  0  0  0  0  0  0  0  0  0  0
  145.2391  135.1229  152.0145 C   0  0  2  0  0  0  0  0  0  0  0  0
  145.0319  136.6442  152.1631 C   0  0  0  0  0  0  0  0  0  0  0  0
  144.5494  137.0182  153.4946 N   0  0  0  0  0  0  0  0  0  0  0  0
  143.1152  136.9470  153.7447 C   0  0  0  0  0  0  0  0  0  0  0  0
  145.3525  137.7296  154.3366 C   0  0  0  0  0  0  0  0  0  0  0  0
  145.2634  137.4776  155.6703 N   0  0  0  0  0  0  0  0  0  0  0  0
  146.0251  138.1370  156.5466 C   0  0  0  0  0  0  0  0  0  0  0  0
  146.9402  139.0765  156.3116 N   0  0  0  0  0  0  0  0  0  0  0  0
  147.0438  139.3391  154.9785 C   0  0  0  0  0  0  0  0  0  0  0  0
  146.2956  138.7251  153.9313 C   0  0  0  0  0  0  0  0  0  0  0  0
  146.6956  139.2587  152.7093 N   0  0  0  0  0  0  0  0  0  0  0  0
  147.6123  140.1347  153.0156 C   0  0  0  0  0  0  0  0  0  0  0  0
  147.8922  140.2381  154.3577 N   0  0  0  0  0  0  0  0  0  0  0  0
  148.8672  141.1143  154.9823 C   0  0  0  0  0  0  0  0  0  0  0  0
  149.7488  140.3775  156.0238 C   0  0  1  0  0  0  0  0  0  0  0  0
  150.5771  139.2509  155.3636 C   0  0  0  0  0  0  0  0  0  0  0  0
  151.7558  139.7590  154.7743 O   0  0  0  0  0  0  0  0  0  0  0  0
  150.6377  141.3326  156.8671 C   0  0  1  0  0  0  0  0  0  0  0  0
  149.9075  142.4020  157.6728 C   0  0  0  0  0  0  0  0  0  0  0  0
  150.8730  142.6540  158.8221 C   0  0  0  0  0  0  0  0  0  0  0  0
  151.3349  141.3495  159.1297 O   0  0  0  0  0  0  0  0  0  0  0  0
  151.5452  140.6507  157.9074 C   0  0  0  0  0  0  0  0  0  0  0  0
  146.5854  134.7086  152.4720 N   0  3  1  0  0  0  0  0  0  0  0  0
  146.6751  134.4361  153.9233 C   0  0  0  0  0  0  0  0  0  0  0  0
  147.0359  133.5777  151.6249 C   0  0  0  0  0  0  0  0  0  0  0  0
  146.3213  133.0758  149.6055 H   0  0  0  0  0  0  0  0  0  0  0  0
  144.4962  134.5865  152.6081 H   0  0  0  0  0  0  0  0  0  0  0  0
  143.3333  131.2498  150.6059 H   0  0  0  0  0  0  0  0  0  0  0  0
  144.2345  131.7946  149.1936 H   0  0  0  0  0  0  0  0  0  0  0  0
  143.3069  132.9542  150.1584 H   0  0  0  0  0  0  0  0  0  0  0  0
  145.6451  135.3212  149.8983 H   0  0  0  0  0  0  0  0  0  0  0  0
  144.1211  134.4993  150.2247 H   0  0  0  0  0  0  0  0  0  0  0  0
  145.9831  137.1537  152.0075 H   0  0  0  0  0  0  0  0  0  0  0  0
  144.3819  137.0168  151.3712 H   0  0  0  0  0  0  0  0  0  0  0  0
  142.9135  136.6851  154.7838 H   0  0  0  0  0  0  0  0  0  0  0  0
  142.6505  136.1842  153.1192 H   0  0  0  0  0  0  0  0  0  0  0  0
  142.6365  137.9005  153.5195 H   0  0  0  0  0  0  0  0  0  0  0  0
  145.8812  137.8740  157.5844 H   0  0  0  0  0  0  0  0  0  0  0  0
  148.1194  140.7242  152.2656 H   0  0  0  0  0  0  0  0  0  0  0  0
  149.4825  141.5510  154.1957 H   0  0  0  0  0  0  0  0  0  0  0  0
  148.3194  141.9394  155.4357 H   0  0  0  0  0  0  0  0  0  0  0  0
  149.0693  139.8964  156.7293 H   0  0  0  0  0  0  0  0  0  0  0  0
  150.8821  138.5058  156.0979 H   0  0  0  0  0  0  0  0  0  0  0  0
  149.9903  138.7288  154.6073 H   0  0  0  0  0  0  0  0  0  0  0  0
  152.5002  139.4166  155.2457 H   0  0  0  0  0  0  0  0  0  0  0  0
  151.3116  141.8556  156.1871 H   0  0  0  0  0  0  0  0  0  0  0  0
  149.6977  143.3014  157.0934 H   0  0  0  0  0  0  0  0  0  0  0  0
  148.9653  142.0341  158.0762 H   0  0  0  0  0  0  0  0  0  0  0  0
  151.7104  143.2766  158.5027 H   0  0  0  0  0  0  0  0  0  0  0  0
  150.3953  143.1265  159.6807 H   0  0  0  0  0  0  0  0  0  0  0  0
  151.3398  139.5895  158.0433 H   0  0  0  0  0  0  0  0  0  0  0  0
  152.5922  140.7413  157.6153 H   0  0  0  0  0  0  0  0  0  0  0  0
  146.0346  133.5994  154.2060 H   0  0  0  0  0  0  0  0  0  0  0  0
  146.3723  135.3096  154.5013 H   0  0  0  0  0  0  0  0  0  0  0  0
  147.7007  134.1911  154.2011 H   0  0  0  0  0  0  0  0  0  0  0  0
  147.2821  132.6901  152.2087 H   0  0  0  0  0  0  0  0  0  0  0  0
  147.9488  133.8900  151.1170 H   0  0  0  0  0  0  0  0  0  0  0  0
  147.2088  135.4772  152.2692 H   0  0  0  0  0  0  0  0  0  0  0  0
  1  2  1  0  0  0  0
  1 32  1  0  0  0  0
  1 33  1  0  0  0  0
  1 34  1  0  0  0  0
  2  3  1  0  0  0  0
  3 30  1  0  0  0  0
  3 29  1  0  0  0  0
  3  4  1  0  0  0  0
  4  5  1  0  0  0  0
  4 35  1  0  0  0  0
  4 36  1  0  0  0  0
  5 31  1  0  0  0  0
  5  6  1  0  0  0  0
  5 27  1  0  0  0  0
  6  7  1  0  0  0  0
  6 37  1  0  0  0  0
  6 38  1  0  0  0  0
  7  8  1  0  0  0  0
  7  9  1  0  0  0  0
  8 39  1  0  0  0  0
  8 40  1  0  0  0  0
  8 41  1  0  0  0  0
  9 14  1  0  0  0  0
  9 10  2  0  0  0  0
 10 11  1  0  0  0  0
 11 12  2  0  0  0  0
 11 42  1  0  0  0  0
 12 13  1  0  0  0  0
 13 17  1  0  0  0  0
 13 14  2  0  0  0  0
 14 15  1  0  0  0  0
 15 16  2  0  0  0  0
 16 17  1  0  0  0  0
 16 43  1  0  0  0  0
 17 18  1  0  0  0  0
 18 19  1  0  0  0  0
 18 44  1  0  0  0  0
 18 45  1  0  0  0  0
 19 20  1  0  0  0  0
 19 22  1  0  0  0  0
 19 46  1  0  0  0  0
 20 21  1  0  0  0  0
 20 47  1  0  0  0  0
 20 48  1  0  0  0  0
 21 49  1  0  0  0  0
 22 26  1  0  0  0  0
 22 23  1  0  0  0  0
 22 50  1  0  0  0  0
 23 24  1  0  0  0  0
 23 51  1  0  0  0  0
 23 52  1  0  0  0  0
 24 25  1  0  0  0  0
 24 53  1  0  0  0  0
 24 54  1  0  0  0  0
 25 26  1  0  0  0  0
 26 55  1  0  0  0  0
 26 56  1  0  0  0  0
 27 28  1  0  0  0  0
 27 29  1  0  0  0  0
 27 62  1  0  0  0  0
 28 57  1  0  0  0  0
 28 58  1  0  0  0  0
 28 59  1  0  0  0  0
 29 60  1  0  0  0  0
 29 61  1  0  0  0  0
M  CHG  1  27   1
M  END
> <s_m_source_file>
AV-unprocessed.smi

> <i_m_source_file_index>
21

> <i_lp_mmshare_version>
43012

> <i_f3d_flags>
0

> <s_epik_input>
W0NIM11PW0NASF0xW0NIMl1bQ0BIXShOKFtDSDNdKVtDSDJdMSlbQ0gyXU4oW0NIM10pYyhuW2NIXW4yKWMoYzIzKW5bY0hdbjNbQ0gyXVtDQEhdKFtDSDJdW09IXSlbQ0BASF00W0NIMl1bQ0gyXU9bQ0gyXTQ=

> <s_epik_cmdline>
J2VwaWtfcHl0aG9uJywgJy1waCcsICc3LjAnLCAnLXRuJywgJzgnLCAnLW1hJywgJzIwMCcsICctbWV0YWxfYmluZGluZycsICctaW1hZScsICc8aW5maWxlLm1hZT4nLCAnLW9tYWUnLCAnPG91dGZpbGUubWFlPic=

> <r_lp_tautomer_probability>
1

> <r_epik_Ionization_Penalty>
0.0157465

> <r_epik_Ionization_Penalty_Charging>
0.015354

> <r_epik_Ionization_Penalty_Neutral>
0.000392529

> <r_epik_State_Penalty>
0.0120612

> <r_epik_Charging_Adjusted_Penalty>
0.0274152

> <i_epik_Tot_Q>
1

> <i_epik_Tot_abs_Q>
1

> <r_epik_Metal_State_Penalty>
0.0121253

> <b_epik_Metal_Only>
0

> <s_lp_Force_Field>
OPLS_2005

> <r_lp_Energy>
59.9021

> <b_lp_Chiralities_Consistent>
1

> <s_lp_Variant>
AV-unprocessed.smi:21-31

> <Gold.Version>
5.8.1

> <Gold.Id.Protein>
6NUR|6NUR_protein|mol2

> <Gold.PLP.Fitness>
44.5651

> <Gold.PLP.PLP>
-35.7442

> <Gold.PLP.part.hbond>
-2.0000

> <Gold.PLP.part.metal>
0.0000

> <Gold.PLP.part.buried>
-4.3863

> <Gold.PLP.part.nonpolar>
-30.8628

> <Gold.PLP.part.repulsive>
0.4078

> <Gold.PLP.ligand.clash>
0.0000

> <Gold.PLP.ligand.torsion>
1.5611

> <Gold.PLP.Chemscore.Hbond>
3.0000

> <Gold.PLP.Chemscore.CHOScore>
0.8614

> <Gold.PLP.Chemscore.Metal>
0.0000

> <Gold.Chemscore.Hbonds>
donor molecule, donor type, donor heavy atom, donor atom, acceptor molecule, acceptor atom, score
      L1  H    27    62       P1  7948  2.00
      P1  H  7989  7998       L1    21  1.00
      L1  C    16    43       P1  7957  0.73

> <Gold.PLP.Chemscore.Internal.Correction>
0.3590

> <Gold.Rescore>
     Score         DG    S(hbond)    S(metal)    S(lipo)     H(rot)  DE(clash)    DE(int)     intcor
     11.97     -14.97       1.93        0.00      93.34       3.08       1.53       1.47       ----

> <Gold.Chemscore.Fitness>
11.9742

> <Gold.Chemscore.DG>
-14.9690

> <Gold.Chemscore.ZeroCoef>
-5.4800

> <Gold.Chemscore.Hbond>
1.9288

> <Gold.Chemscore.Metal>
0.0000

> <Gold.Chemscore.Lipo>
93.3409

> <Gold.Chemscore.Internal_Hbond>
0.0000

> <Gold.Chemscore.DEClash>
1.5250

> <Gold.Chemscore.DEInternal>
1.4698

> <Gold.Chemscore.Rot>
3.0758

> <Gold.Chemscore.Internal.Correction>
   9.000000E+99

> <Gold.Chemscore.Hbonds>
donor molecule, donor type, donor heavy atom, donor atom, acceptor molecule, acceptor atom, score
      L1  H    27    62       P1  7948  0.96
      P1  H  7989  7998       L1    21  0.94

> <Gold.Chemscore.Hbond.Weighted>
-6.4423

> <Gold.Chemscore.Metal.Weighted>
-0.0000

> <Gold.Chemscore.Lipo.Weighted>
-10.9209

> <Gold.Chemscore.Internal_Hbond.Weighted>
0.0000

> <Gold.Chemscore.DEClash.Weighted>
1.5250

> <Gold.Chemscore.DEInternal.Weighted>
1.4698

> <Gold.Chemscore.Rot.Weighted>
7.8741

> <Gold.Chemscore.Internal.Correction.Weighted>
   9.000000E+99

> <Gold.Protein.RotatedTorsions>
[ 6907 6896 6895 6894 ] final  169.17 input  -60.11 | X-H torsion
[ 7974 7965 7964 7962 ] final    3.74 input  175.53 | X-H torsion
[ 8008 7997 7996 7995 ] final  132.33 input   59.86 | X-H torsion
[ 10167 10162 10161 10158 ] final    9.35 input  -65.29 | X-H torsion
[ 10718 10713 10712 10709 ] final -103.95 input   66.30 | X-H torsion
[ 10763 10752 10751 10750 ] final  -31.28 input  -60.55 | X-H torsion
[ 11005 11000 10999 10996 ] final   -4.13 input  -57.11 | X-H torsion

> <Gold.Protein.ActiveResidues>
 VAL166  LYS551  ARG553  GLY616  TRP617  ASP618  TYR619  PRO620  LYS621  CYS622 
 ASP623  PHE694  ASN695  SER759  ASP760  ASP761  ALA762  ILE779  LEU786  VAL792 
 PHE793  MET794  SER795  GLU796  ALA797  LYS798  CYS799  TRP800  GLU811  SER814 

> <Gold.Protein.RotatedAtoms>
  151.8361  133.3416  159.3628 H   0  0  0  0  0  0  0  0  0  0  0  0  # atno 6907 bound_to 6896
  150.7249  134.5436  159.5769 H   0  0  0  0  0  0  0  0  0  0  0  0  # atno 6908 bound_to 6896
  152.2899  134.7734  160.0431 H   0  0  0  0  0  0  0  0  0  0  0  0  # atno 6909 bound_to 6896
  146.2445  140.0640  142.8366 H   0  0  0  0  0  0  0  0  0  0  0  0  # atno 7974 bound_to 7965
  156.2981  140.2549  156.3071 H   0  0  0  0  0  0  0  0  0  0  0  0  # atno 8008 bound_to 7997
  154.9362  140.0397  157.2092 H   0  0  0  0  0  0  0  0  0  0  0  0  # atno 8009 bound_to 7997
  154.8170  140.2854  155.5817 H   0  0  0  0  0  0  0  0  0  0  0  0  # atno 8010 bound_to 7997
  140.6260  143.8099  150.7234 H   0  0  0  0  0  0  0  0  0  0  0  0  # atno 10167 bound_to 10162
  156.0285  130.5492  150.7327 H   0  0  0  0  0  0  0  0  0  0  0  0  # atno 10718 bound_to 10713
  153.7948  135.6895  153.4865 H   0  0  0  0  0  0  0  0  0  0  0  0  # atno 10763 bound_to 10752
  153.1726  135.4536  154.9922 H   0  0  0  0  0  0  0  0  0  0  0  0  # atno 10764 bound_to 10752
  154.8030  135.3345  154.7441 H   0  0  0  0  0  0  0  0  0  0  0  0  # atno 10765 bound_to 10752
  140.6769  133.9187  155.8530 H   0  0  0  0  0  0  0  0  0  0  0  0  # atno 11005 bound_to 11000
  145.0875  140.9262  143.4789 LP  0  0  0  0  0  0  0  0  0  0  0  0  # atno 17320 bound_to 7965
  145.0805  139.2963  143.5786 LP  0  0  0  0  0  0  0  0  0  0  0  0  # atno 17321 bound_to 7965
  140.1700  143.4202  152.2007 LP  0  0  0  0  0  0  0  0  0  0  0  0  # atno 17342 bound_to 10162
  139.5481  144.7315  151.4521 LP  0  0  0  0  0  0  0  0  0  0  0  0  # atno 17343 bound_to 10162
  157.4915  131.0911  151.0421 LP  0  0  0  0  0  0  0  0  0  0  0  0  # atno 17370 bound_to 10713
  157.0826  130.5909  149.5423 LP  0  0  0  0  0  0  0  0  0  0  0  0  # atno 17371 bound_to 10713
  141.0348  134.0705  157.3972 LP  0  0  0  0  0  0  0  0  0  0  0  0  # atno 17394 bound_to 11000
  139.8964  135.0145  156.7048 LP  0  0  0  0  0  0  0  0  0  0  0  0  # atno 17395 bound_to 11000

$$$$
