AV-unprocessed.smi:832|AV-procd|sdf|3879|dock1
  -GOLD-   22720 1333D 1   1.00000     0.00000
 Structure written by MMmdl.
 42 43  0  0  0  0  0  0  0  0  2 V2000
  150.5525  141.4794  156.2505 C   0  0  0  0  0  0  0  0  0  0  0  0
  150.7352  140.1519  155.5982 C   0  0  0  0  0  0  0  0  0  0  0  0
  149.9036  139.0829  155.4151 C   0  0  0  0  0  0  0  0  0  0  0  0
  150.7234  138.1561  154.7176 C   0  0  0  0  0  0  0  0  0  0  0  0
  150.2230  136.8860  154.3327 N   0  0  0  0  0  0  0  0  0  0  0  0
  150.4762  135.6986  154.9091 C   0  0  0  0  0  0  0  0  0  0  0  0
  151.2102  135.5247  155.8824 O   0  0  0  0  0  0  0  0  0  0  0  0
  149.8192  134.7052  154.2922 N   0  0  0  0  0  0  0  0  0  0  0  0
  149.8937  133.2919  154.6507 C   0  0  0  0  0  0  0  0  0  0  0  0
  149.1397  132.3932  153.6507 C   0  0  1  0  0  0  0  0  0  0  0  0
  148.3398  131.2751  154.3156 C   0  0  0  0  0  0  0  0  0  0  0  0
  147.2364  130.9265  153.3077 C   0  0  0  0  0  0  0  0  0  0  0  0
  147.2013  132.0180  152.3019 N   0  3  1  0  0  0  0  0  0  0  0  0
  145.8394  132.4388  151.8672 C   0  0  0  0  0  0  0  0  0  0  0  0
  145.0372  131.2419  151.3219 C   0  0  0  0  0  0  0  0  0  0  0  0
  145.8977  133.5486  150.7996 C   0  0  0  0  0  0  0  0  0  0  0  0
  148.0674  133.0988  152.8194 C   0  0  0  0  0  0  0  0  0  0  0  0
  151.9447  138.6172  154.4957 N   0  0  0  0  0  0  0  0  0  0  0  0
  151.9580  139.8993  155.0574 O   0  0  0  0  0  0  0  0  0  0  0  0
  149.6668  141.4824  156.8860 H   0  0  0  0  0  0  0  0  0  0  0  0
  150.4353  142.2636  155.5027 H   0  0  0  0  0  0  0  0  0  0  0  0
  151.4137  141.7286  156.8708 H   0  0  0  0  0  0  0  0  0  0  0  0
  148.8756  138.9838  155.7305 H   0  0  0  0  0  0  0  0  0  0  0  0
  149.6059  136.8826  153.5342 H   0  0  0  0  0  0  0  0  0  0  0  0
  149.2393  134.9412  153.5000 H   0  0  0  0  0  0  0  0  0  0  0  0
  150.9475  133.0129  154.6638 H   0  0  0  0  0  0  0  0  0  0  0  0
  149.5256  133.1337  155.6661 H   0  0  0  0  0  0  0  0  0  0  0  0
  149.8589  131.9365  152.9683 H   0  0  0  0  0  0  0  0  0  0  0  0
  148.9592  130.4150  154.5726 H   0  0  0  0  0  0  0  0  0  0  0  0
  147.8841  131.6397  155.2374 H   0  0  0  0  0  0  0  0  0  0  0  0
  147.4472  129.9846  152.8001 H   0  0  0  0  0  0  0  0  0  0  0  0
  146.2838  130.8177  153.8284 H   0  0  0  0  0  0  0  0  0  0  0  0
  145.3140  132.8364  152.7369 H   0  0  0  0  0  0  0  0  0  0  0  0
  144.0473  131.5555  150.9887 H   0  0  0  0  0  0  0  0  0  0  0  0
  144.8864  130.4694  152.0758 H   0  0  0  0  0  0  0  0  0  0  0  0
  145.5407  130.7826  150.4706 H   0  0  0  0  0  0  0  0  0  0  0  0
  144.8974  133.8075  150.4508 H   0  0  0  0  0  0  0  0  0  0  0  0
  146.4780  133.2353  149.9311 H   0  0  0  0  0  0  0  0  0  0  0  0
  146.3414  134.4660  151.1868 H   0  0  0  0  0  0  0  0  0  0  0  0
  147.4802  133.7652  153.4539 H   0  0  0  0  0  0  0  0  0  0  0  0
  148.4981  133.6887  152.0096 H   0  0  0  0  0  0  0  0  0  0  0  0
  147.6733  131.6572  151.4850 H   0  0  0  0  0  0  0  0  0  0  0  0
  1  2  1  0  0  0  0
  1 20  1  0  0  0  0
  1 21  1  0  0  0  0
  1 22  1  0  0  0  0
  2 19  1  0  0  0  0
  2  3  2  0  0  0  0
  3  4  1  0  0  0  0
  3 23  1  0  0  0  0
  4  5  1  0  0  0  0
  4 18  2  0  0  0  0
  5  6  1  0  0  0  0
  5 24  1  0  0  0  0
  6  7  2  0  0  0  0
  6  8  1  0  0  0  0
  8  9  1  0  0  0  0
  8 25  1  0  0  0  0
  9 10  1  0  0  0  0
  9 26  1  0  0  0  0
  9 27  1  0  0  0  0
 10 17  1  0  0  0  0
 10 11  1  0  0  0  0
 10 28  1  0  0  0  0
 11 12  1  0  0  0  0
 11 29  1  0  0  0  0
 11 30  1  0  0  0  0
 12 13  1  0  0  0  0
 12 31  1  0  0  0  0
 12 32  1  0  0  0  0
 13 14  1  0  0  0  0
 13 17  1  0  0  0  0
 13 42  1  0  0  0  0
 14 15  1  0  0  0  0
 14 16  1  0  0  0  0
 14 33  1  0  0  0  0
 15 34  1  0  0  0  0
 15 35  1  0  0  0  0
 15 36  1  0  0  0  0
 16 37  1  0  0  0  0
 16 38  1  0  0  0  0
 16 39  1  0  0  0  0
 17 40  1  0  0  0  0
 17 41  1  0  0  0  0
 18 19  1  0  0  0  0
M  CHG  1  13   1
M  END
> <s_m_source_file>
AV-unprocessed.smi

> <i_m_source_file_index>
832

> <i_lp_mmshare_version>
43012

> <i_f3d_flags>
0

> <s_epik_input>
W0NIM11jMVtjSF1jKG5vMSlbTkhdQyg9TylbTkhdW0NIMl1bQ0BASF0yW0NIMl1bQ0gyXU4oW0NIMl0yKVtDSF0oW0NIM10pW0NIM10=

> <s_epik_cmdline>
J2VwaWtfcHl0aG9uJywgJy1waCcsICc3LjAnLCAnLXRuJywgJzgnLCAnLW1hJywgJzIwMCcsICctbWV0YWxfYmluZGluZycsICctaW1hZScsICc8aW5maWxlLm1hZT4nLCAnLW9tYWUnLCAnPG91dGZpbGUubWFlPic=

> <r_lp_tautomer_probability>
1

> <r_epik_Ionization_Penalty>
0.000242791

> <r_epik_Ionization_Penalty_Charging>
0.000220876

> <r_epik_Ionization_Penalty_Neutral>
2.19143e-05

> <r_epik_State_Penalty>
-0

> <r_epik_Charging_Adjusted_Penalty>
0.000220876

> <i_epik_Tot_Q>
1

> <i_epik_Tot_abs_Q>
1

> <r_epik_Metal_State_Penalty>
-0

> <b_epik_Metal_Only>
0

> <s_lp_Force_Field>
OPLS_2005

> <r_lp_Energy>
26.1652

> <b_lp_Chiralities_Consistent>
1

> <s_lp_Variant>
AV-unprocessed.smi:832-4

> <Gold.Version>
5.8.1

> <Gold.Id.Protein>
6NUR|6NUR_protein|mol2

> <Gold.PLP.Fitness>
45.9477

> <Gold.PLP.PLP>
-35.7829

> <Gold.PLP.part.hbond>
-6.1951

> <Gold.PLP.part.metal>
0.0000

> <Gold.PLP.part.buried>
-4.5651

> <Gold.PLP.part.nonpolar>
-26.5393

> <Gold.PLP.part.repulsive>
0.3057

> <Gold.PLP.ligand.clash>
0.0000

> <Gold.PLP.ligand.torsion>
1.2939

> <Gold.PLP.Chemscore.Hbond>
4.2411

> <Gold.PLP.Chemscore.CHOScore>
0.0000

> <Gold.PLP.Chemscore.Metal>
0.0000

> <Gold.Chemscore.Hbonds>
donor molecule, donor type, donor heavy atom, donor atom, acceptor molecule, acceptor atom, score
      L1  H     5    24       P1  7948  1.00
      L1  H     8    25       P1  7948  0.68
      L1  H    13    42       P1 10747  1.00
      P1  H  7989  7998       L1    19  0.63
      P1  H 10752 10763       L1     7  0.89

> <Gold.PLP.Chemscore.Internal.Correction>
0.0294

> <Gold.Rescore>
     Score         DG    S(hbond)    S(metal)    S(lipo)     H(rot)  DE(clash)    DE(int)     intcor
     16.87     -18.48       2.51        0.00      72.50       1.51       0.28       1.33       ----

> <Gold.Chemscore.Fitness>
16.8693

> <Gold.Chemscore.DG>
-18.4793

> <Gold.Chemscore.ZeroCoef>
-5.4800

> <Gold.Chemscore.Hbond>
2.5133

> <Gold.Chemscore.Metal>
0.0000

> <Gold.Chemscore.Lipo>
72.4981

> <Gold.Chemscore.Internal_Hbond>
0.0000

> <Gold.Chemscore.DEClash>
0.2769

> <Gold.Chemscore.DEInternal>
1.3331

> <Gold.Chemscore.Rot>
1.5146

> <Gold.Chemscore.Internal.Correction>
   9.000000E+99

> <Gold.Chemscore.Hbonds>
donor molecule, donor type, donor heavy atom, donor atom, acceptor molecule, acceptor atom, score
      L1  H     5    24       P1  7948  0.72
      L1  H     8    25       P1  7948  0.09
      L1  H    13    42       P1 10747  0.99
      P1  H  7989  7998       L1    19  0.02
      P1  H 10752 10763       L1     7  0.26

> <Gold.Chemscore.Hbond.Weighted>
-8.3944

> <Gold.Chemscore.Metal.Weighted>
-0.0000

> <Gold.Chemscore.Lipo.Weighted>
-8.4823

> <Gold.Chemscore.Internal_Hbond.Weighted>
0.0000

> <Gold.Chemscore.DEClash.Weighted>
0.2769

> <Gold.Chemscore.DEInternal.Weighted>
1.3331

> <Gold.Chemscore.Rot.Weighted>
3.8774

> <Gold.Chemscore.Internal.Correction.Weighted>
   9.000000E+99

> <Gold.Protein.RotatedTorsions>
[ 6907 6896 6895 6894 ] final   16.05 input  -60.11 | X-H torsion
[ 7974 7965 7964 7962 ] final   -2.86 input  175.53 | X-H torsion
[ 8008 7997 7996 7995 ] final  177.68 input   59.86 | X-H torsion
[ 10167 10162 10161 10158 ] final    2.73 input  -65.29 | X-H torsion
[ 10718 10713 10712 10709 ] final  147.46 input   66.30 | X-H torsion
[ 10763 10752 10751 10750 ] final   83.12 input  -60.55 | X-H torsion
[ 11005 11000 10999 10996 ] final  102.82 input  -57.11 | X-H torsion

> <Gold.Protein.ActiveResidues>
 VAL166  LYS551  ARG553  GLY616  TRP617  ASP618  TYR619  PRO620  LYS621  CYS622 
 ASP623  PHE694  ASN695  SER759  ASP760  ASP761  ALA762  ILE779  LEU786  VAL792 
 PHE793  MET794  SER795  GLU796  ALA797  LYS798  CYS799  TRP800  GLU811  SER814 

> <Gold.Protein.RotatedAtoms>
  151.8277  135.0631  160.0432 H   0  0  0  0  0  0  0  0  0  0  0  0  # atno 6907 bound_to 6896
  152.2903  133.5551  159.5562 H   0  0  0  0  0  0  0  0  0  0  0  0  # atno 6908 bound_to 6896
  150.7227  134.0354  159.3789 H   0  0  0  0  0  0  0  0  0  0  0  0  # atno 6909 bound_to 6896
  146.2398  140.1634  142.8332 H   0  0  0  0  0  0  0  0  0  0  0  0  # atno 7974 bound_to 7965
  156.0630  140.1352  156.9919 H   0  0  0  0  0  0  0  0  0  0  0  0  # atno 8008 bound_to 7997
  154.4491  140.0987  156.6616 H   0  0  0  0  0  0  0  0  0  0  0  0  # atno 8009 bound_to 7997
  155.5348  140.3459  155.4436 H   0  0  0  0  0  0  0  0  0  0  0  0  # atno 8010 bound_to 7997
  140.6621  143.7277  150.7757 H   0  0  0  0  0  0  0  0  0  0  0  0  # atno 10167 bound_to 10162
  157.3206  131.0903  151.1243 H   0  0  0  0  0  0  0  0  0  0  0  0  # atno 10718 bound_to 10713
  153.1263  135.4703  154.9277 H   0  0  0  0  0  0  0  0  0  0  0  0  # atno 10763 bound_to 10752
  154.7623  135.3135  154.8357 H   0  0  0  0  0  0  0  0  0  0  0  0  # atno 10764 bound_to 10752
  153.8909  135.6885  153.4814 H   0  0  0  0  0  0  0  0  0  0  0  0  # atno 10765 bound_to 10752
  139.8780  134.9239  156.5116 H   0  0  0  0  0  0  0  0  0  0  0  0  # atno 11005 bound_to 11000
  145.0070  140.8681  143.5247 LP  0  0  0  0  0  0  0  0  0  0  0  0  # atno 17320 bound_to 7965
  145.1662  139.2430  143.5365 LP  0  0  0  0  0  0  0  0  0  0  0  0  # atno 17321 bound_to 7965
  140.0948  143.4844  152.2459 LP  0  0  0  0  0  0  0  0  0  0  0  0  # atno 17342 bound_to 10162
  139.5858  144.7530  151.3525 LP  0  0  0  0  0  0  0  0  0  0  0  0  # atno 17343 bound_to 10162
  157.2529  130.6623  149.5940 LP  0  0  0  0  0  0  0  0  0  0  0  0  # atno 17370 bound_to 10713
  155.9685  130.4532  150.5805 LP  0  0  0  0  0  0  0  0  0  0  0  0  # atno 17371 bound_to 10713
  140.8516  133.8128  155.9174 LP  0  0  0  0  0  0  0  0  0  0  0  0  # atno 17394 bound_to 11000
  140.9139  134.2226  157.4969 LP  0  0  0  0  0  0  0  0  0  0  0  0  # atno 17395 bound_to 11000

$$$$
