AV-unprocessed.smi:903|AV-procd|sdf|4096|dock9
  -GOLD-   22720 1583D 1   1.00000     0.00000
 Structure written by MMmdl.
 28 29  0  0  0  0  0  0  0  0  2 V2000
  153.4177  138.7523  155.1872 O   0  0  0  0  0  0  0  0  0  0  0  0
  152.2199  138.4858  154.9491 C   0  0  0  0  0  0  0  0  0  0  0  0
  151.8955  137.4004  154.4142 O   0  5  0  0  0  0  0  0  0  0  0  0
  151.1254  139.4709  155.3023 C   0  0  0  0  0  0  0  0  0  0  0  0
  151.4822  140.4292  156.1942 N   0  0  0  0  0  0  0  0  0  0  0  0
  150.5833  141.3634  156.5821 C   0  0  0  0  0  0  0  0  0  0  0  0
  150.9714  142.3280  157.4890 O   0  0  0  0  0  0  0  0  0  0  0  0
  152.2236  142.1714  158.1500 C   0  0  0  0  0  0  0  0  0  0  0  0
  152.4261  143.3491  159.1108 C   0  0  1  0  0  0  0  0  0  0  0  0
  151.9828  144.6914  158.5338 C   0  0  0  0  0  0  0  0  0  0  0  0
  151.7438  145.4972  159.7901 C   0  0  0  0  0  0  0  0  0  0  0  0
  151.1428  144.4531  160.7280 C   0  0  0  0  0  0  0  0  0  0  0  0
  151.6235  143.1884  160.2773 O   0  0  0  0  0  0  0  0  0  0  0  0
  149.2659  141.3870  156.0938 C   0  0  0  0  0  0  0  0  0  0  0  0
  148.8783  140.4029  155.1689 C   0  0  0  0  0  0  0  0  0  0  0  0
  149.8066  139.4255  154.7572 C   0  0  0  0  0  0  0  0  0  0  0  0
  149.2542  138.2459  153.6153 Cl  0  0  0  0  0  0  0  0  0  0  0  0
  152.2172  141.2392  158.7176 H   0  0  0  0  0  0  0  0  0  0  0  0
  153.0461  142.1239  157.4342 H   0  0  0  0  0  0  0  0  0  0  0  0
  153.4722  143.4191  159.4135 H   0  0  0  0  0  0  0  0  0  0  0  0
  152.7268  145.1376  157.8736 H   0  0  0  0  0  0  0  0  0  0  0  0
  151.0510  144.5824  157.9766 H   0  0  0  0  0  0  0  0  0  0  0  0
  152.6937  145.8568  160.1882 H   0  0  0  0  0  0  0  0  0  0  0  0
  151.0914  146.3565  159.6331 H   0  0  0  0  0  0  0  0  0  0  0  0
  151.4143  144.6316  161.7687 H   0  0  0  0  0  0  0  0  0  0  0  0
  150.0547  144.4539  160.6574 H   0  0  0  0  0  0  0  0  0  0  0  0
  148.5681  142.1438  156.4201 H   0  0  0  0  0  0  0  0  0  0  0  0
  147.8721  140.3985  154.7763 H   0  0  0  0  0  0  0  0  0  0  0  0
  1  2  2  0  0  0  0
  2  3  1  0  0  0  0
  2  4  1  0  0  0  0
  4 16  1  0  0  0  0
  4  5  2  0  0  0  0
  5  6  1  0  0  0  0
  6  7  1  0  0  0  0
  6 14  2  0  0  0  0
  7  8  1  0  0  0  0
  8  9  1  0  0  0  0
  8 18  1  0  0  0  0
  8 19  1  0  0  0  0
  9 13  1  0  0  0  0
  9 10  1  0  0  0  0
  9 20  1  0  0  0  0
 10 11  1  0  0  0  0
 10 21  1  0  0  0  0
 10 22  1  0  0  0  0
 11 12  1  0  0  0  0
 11 23  1  0  0  0  0
 11 24  1  0  0  0  0
 12 13  1  0  0  0  0
 12 25  1  0  0  0  0
 12 26  1  0  0  0  0
 14 15  1  0  0  0  0
 14 27  1  0  0  0  0
 15 16  2  0  0  0  0
 15 28  1  0  0  0  0
 16 17  1  0  0  0  0
M  CHG  1   3  -1
M  END
> <s_m_source_file>
AV-unprocessed.smi

> <i_m_source_file_index>
903

> <i_lp_mmshare_version>
43012

> <i_f3d_flags>
0

> <s_epik_input>
Tz1DKFtPSF0pYzFuYyhbY0hdW2NIXWMxQ2wpT1tDSDJdW0NAQEhdMltDSDJdW0NIMl1bQ0gyXU8y

> <s_epik_cmdline>
J2VwaWtfcHl0aG9uJywgJy1waCcsICc3LjAnLCAnLXRuJywgJzgnLCAnLW1hJywgJzIwMCcsICctbWV0YWxfYmluZGluZycsICctaW1hZScsICc8aW5maWxlLm1hZT4nLCAnLW9tYWUnLCAnPG91dGZpbGUubWFlPic=

> <r_lp_tautomer_probability>
1

> <r_epik_Ionization_Penalty>
1.22588e-05

> <r_epik_Ionization_Penalty_Charging>
1.01343e-05

> <r_epik_Ionization_Penalty_Neutral>
2.12445e-06

> <r_epik_State_Penalty>
-0

> <r_epik_Charging_Adjusted_Penalty>
1.01343e-05

> <i_epik_Tot_Q>
-1

> <i_epik_Tot_abs_Q>
1

> <r_epik_Metal_State_Penalty>
-0

> <b_epik_Metal_Only>
0

> <s_lp_Force_Field>
OPLS_2005

> <r_lp_Energy>
26.0246

> <b_lp_Chiralities_Consistent>
1

> <s_lp_Variant>
AV-unprocessed.smi:903-2

> <Gold.Version>
5.8.1

> <Gold.Id.Protein>
6NUR|6NUR_protein|mol2

> <Gold.PLP.Fitness>
44.2792

> <Gold.PLP.PLP>
-33.4279

> <Gold.PLP.part.hbond>
-2.2387

> <Gold.PLP.part.metal>
0.0000

> <Gold.PLP.part.buried>
-1.9006

> <Gold.PLP.part.nonpolar>
-30.4411

> <Gold.PLP.part.repulsive>
0.2839

> <Gold.PLP.ligand.clash>
0.0000

> <Gold.PLP.ligand.torsion>
0.3868

> <Gold.PLP.Chemscore.Hbond>
3.8720

> <Gold.PLP.Chemscore.CHOScore>
0.0000

> <Gold.PLP.Chemscore.Metal>
0.0000

> <Gold.Chemscore.Hbonds>
donor molecule, donor type, donor heavy atom, donor atom, acceptor molecule, acceptor atom, score
      P1  H  7997  8009       L1     1  1.98
      P1  H 10752 10763       L1     3  1.87

> <Gold.PLP.Chemscore.Internal.Correction>
0.0089

> <Gold.Rescore>
     Score         DG    S(hbond)    S(metal)    S(lipo)     H(rot)  DE(clash)    DE(int)     intcor
     15.04     -18.11       1.76        0.00      90.85       1.51       1.44       1.63       ----

> <Gold.Chemscore.Fitness>
15.0388

> <Gold.Chemscore.DG>
-18.1085

> <Gold.Chemscore.ZeroCoef>
-5.4800

> <Gold.Chemscore.Hbond>
1.7552

> <Gold.Chemscore.Metal>
0.0000

> <Gold.Chemscore.Lipo>
90.8548

> <Gold.Chemscore.Internal_Hbond>
0.0000

> <Gold.Chemscore.DEClash>
1.4427

> <Gold.Chemscore.DEInternal>
1.6270

> <Gold.Chemscore.Rot>
1.5094

> <Gold.Chemscore.Internal.Correction>
   9.000000E+99

> <Gold.Chemscore.Hbonds>
donor molecule, donor type, donor heavy atom, donor atom, acceptor molecule, acceptor atom, score
      P1  H  7997  8009       L1     1  0.94
      P1  H 10752 10763       L1     3  0.85

> <Gold.Chemscore.Hbond.Weighted>
-5.8625

> <Gold.Chemscore.Metal.Weighted>
-0.0000

> <Gold.Chemscore.Lipo.Weighted>
-10.6300

> <Gold.Chemscore.Internal_Hbond.Weighted>
0.0000

> <Gold.Chemscore.DEClash.Weighted>
1.4427

> <Gold.Chemscore.DEInternal.Weighted>
1.6270

> <Gold.Chemscore.Rot.Weighted>
3.8641

> <Gold.Chemscore.Internal.Correction.Weighted>
   9.000000E+99

> <Gold.Protein.RotatedTorsions>
[ 6907 6896 6895 6894 ] final -175.15 input  -60.11 | X-H torsion
[ 7974 7965 7964 7962 ] final  -85.41 input  175.53 | X-H torsion
[ 8008 7997 7996 7995 ] final -137.78 input   59.86 | X-H torsion
[ 10167 10162 10161 10158 ] final   16.46 input  -65.29 | X-H torsion
[ 10718 10713 10712 10709 ] final -120.76 input   66.30 | X-H torsion
[ 10763 10752 10751 10750 ] final   37.26 input  -60.55 | X-H torsion
[ 11005 11000 10999 10996 ] final  113.61 input  -57.11 | X-H torsion

> <Gold.Protein.ActiveResidues>
 VAL166  LYS551  ARG553  GLY616  TRP617  ASP618  TYR619  PRO620  LYS621  CYS622 
 ASP623  PHE694  ASN695  SER759  ASP760  ASP761  ALA762  ILE779  LEU786  VAL792 
 PHE793  MET794  SER795  GLU796  ALA797  LYS798  CYS799  TRP800  GLU811  SER814 

> <Gold.Protein.RotatedAtoms>
  151.5839  133.3374  159.3013 H   0  0  0  0  0  0  0  0  0  0  0  0  # atno 6907 bound_to 6896
  150.8298  134.7549  159.6855 H   0  0  0  0  0  0  0  0  0  0  0  0  # atno 6908 bound_to 6896
  152.4383  134.5649  159.9956 H   0  0  0  0  0  0  0  0  0  0  0  0  # atno 6909 bound_to 6896
  145.4936  140.9551  143.1798 H   0  0  0  0  0  0  0  0  0  0  0  0  # atno 7974 bound_to 7965
  155.4174  140.0516  157.3028 H   0  0  0  0  0  0  0  0  0  0  0  0  # atno 8008 bound_to 7997
  154.4918  140.2123  155.9491 H   0  0  0  0  0  0  0  0  0  0  0  0  # atno 8009 bound_to 7997
  156.1352  140.3164  155.8415 H   0  0  0  0  0  0  0  0  0  0  0  0  # atno 8010 bound_to 7997
  140.5795  143.9008  150.6778 H   0  0  0  0  0  0  0  0  0  0  0  0  # atno 10167 bound_to 10162
  156.1283  130.6376  150.9579 H   0  0  0  0  0  0  0  0  0  0  0  0  # atno 10718 bound_to 10713
  153.0044  135.6283  154.2116 H   0  0  0  0  0  0  0  0  0  0  0  0  # atno 10763 bound_to 10752
  154.1859  135.2811  155.3039 H   0  0  0  0  0  0  0  0  0  0  0  0  # atno 10764 bound_to 10752
  154.5798  135.5651  153.7234 H   0  0  0  0  0  0  0  0  0  0  0  0  # atno 10765 bound_to 10752
  139.8957  134.9553  156.6765 H   0  0  0  0  0  0  0  0  0  0  0  0  # atno 11005 bound_to 11000
  144.7820  139.6507  143.7150 LP  0  0  0  0  0  0  0  0  0  0  0  0  # atno 17320 bound_to 7965
  146.2269  139.5739  142.9581 LP  0  0  0  0  0  0  0  0  0  0  0  0  # atno 17321 bound_to 7965
  140.2503  143.3598  152.1411 LP  0  0  0  0  0  0  0  0  0  0  0  0  # atno 17342 bound_to 10162
  139.5162  144.6973  151.5593 LP  0  0  0  0  0  0  0  0  0  0  0  0  # atno 17343 bound_to 10162
  157.6463  131.0903  150.8146 LP  0  0  0  0  0  0  0  0  0  0  0  0  # atno 17370 bound_to 10713
  156.8234  130.4991  149.5340 LP  0  0  0  0  0  0  0  0  0  0  0  0  # atno 17371 bound_to 10713
  140.7333  133.9040  155.8226 LP  0  0  0  0  0  0  0  0  0  0  0  0  # atno 17394 bound_to 11000
  141.0136  134.0986  157.4195 LP  0  0  0  0  0  0  0  0  0  0  0  0  # atno 17395 bound_to 11000

$$$$
