AV-unprocessed.smi:2101|AV-procd|sdf|8580|dock6
  -GOLD-   2272011313D 1   1.00000     0.00000
 Structure written by MMmdl.
 42 43  0  0  0  0  0  0  0  0  2 V2000
  149.7047  133.2480  154.9900 C   0  0  0  0  0  0  0  0  0  0  0  0
  148.6254  133.9787  156.2879 S   0  0  0  0  0  0  0  0  0  0  0  0
  147.2269  133.6716  155.9509 O   0  0  0  0  0  0  0  0  0  0  0  0
  149.1601  133.5945  157.6033 O   0  0  0  0  0  0  0  0  0  0  0  0
  148.8556  135.6920  156.0980 N   0  0  0  0  0  0  0  0  0  0  0  0
  149.4019  136.4794  157.2273 C   0  0  0  0  0  0  0  0  0  0  0  0
  150.8751  136.8658  156.9910 C   0  0  0  0  0  0  0  0  0  0  0  0
  150.9814  137.5527  155.6972 N   0  0  0  0  0  0  0  0  0  0  0  0
  151.1119  138.8879  155.5007 C   0  0  0  0  0  0  0  0  0  0  0  0
  150.9142  139.4325  154.4134 O   0  0  0  0  0  0  0  0  0  0  0  0
  151.5196  139.5784  156.5797 N   0  0  0  0  0  0  0  0  0  0  0  0
  151.7453  141.0188  156.6141 C   0  0  0  0  0  0  0  0  0  0  0  0
  150.5676  141.7578  157.2717 C   0  0  0  0  0  0  0  0  0  0  0  0
  151.0315  142.8157  158.2533 C   0  0  0  0  0  0  0  0  0  0  0  0
  151.9040  142.5208  159.3236 C   0  0  0  0  0  0  0  0  0  0  0  0
  152.3001  143.5575  160.1947 C   0  0  0  0  0  0  0  0  0  0  0  0
  151.8156  144.8644  159.9781 C   0  0  0  0  0  0  0  0  0  0  0  0
  150.9475  145.1025  158.8929 C   0  0  0  0  0  0  0  0  0  0  0  0
  150.5924  144.0834  158.0797 N   0  3  0  0  0  0  0  0  0  0  0  0
  150.6320  136.6324  154.6133 C   0  0  0  0  0  0  0  0  0  0  0  0
  149.1492  136.2367  154.7524 C   0  0  0  0  0  0  0  0  0  0  0  0
  149.6277  132.1618  155.0318 H   0  0  0  0  0  0  0  0  0  0  0  0
  150.7398  133.5383  155.1630 H   0  0  0  0  0  0  0  0  0  0  0  0
  149.3827  133.5888  154.0071 H   0  0  0  0  0  0  0  0  0  0  0  0
  148.8006  137.3826  157.3380 H   0  0  0  0  0  0  0  0  0  0  0  0
  149.3017  135.9275  158.1613 H   0  0  0  0  0  0  0  0  0  0  0  0
  151.2369  137.4567  157.8323 H   0  0  0  0  0  0  0  0  0  0  0  0
  151.5046  135.9760  156.9774 H   0  0  0  0  0  0  0  0  0  0  0  0
  151.6830  139.0679  157.4355 H   0  0  0  0  0  0  0  0  0  0  0  0
  152.6624  141.2080  157.1730 H   0  0  0  0  0  0  0  0  0  0  0  0
  151.9173  141.3904  155.6024 H   0  0  0  0  0  0  0  0  0  0  0  0
  149.9479  142.2375  156.5126 H   0  0  0  0  0  0  0  0  0  0  0  0
  149.9226  141.0460  157.7885 H   0  0  0  0  0  0  0  0  0  0  0  0
  152.2681  141.5149  159.4754 H   0  0  0  0  0  0  0  0  0  0  0  0
  152.9679  143.3531  161.0190 H   0  0  0  0  0  0  0  0  0  0  0  0
  152.1062  145.6720  160.6342 H   0  0  0  0  0  0  0  0  0  0  0  0
  150.5296  146.0692  158.6522 H   0  0  0  0  0  0  0  0  0  0  0  0
  150.8113  137.0632  153.6273 H   0  0  0  0  0  0  0  0  0  0  0  0
  151.2715  135.7511  154.6649 H   0  0  0  0  0  0  0  0  0  0  0  0
  148.8765  135.5166  153.9815 H   0  0  0  0  0  0  0  0  0  0  0  0
  148.5199  137.1128  154.5911 H   0  0  0  0  0  0  0  0  0  0  0  0
  149.9638  144.2784  157.2998 H   0  0  0  0  0  0  0  0  0  0  0  0
  1  2  1  0  0  0  0
  1 22  1  0  0  0  0
  1 23  1  0  0  0  0
  1 24  1  0  0  0  0
  2  3  2  0  0  0  0
  2  4  2  0  0  0  0
  2  5  1  0  0  0  0
  5 21  1  0  0  0  0
  5  6  1  0  0  0  0
  6  7  1  0  0  0  0
  6 25  1  0  0  0  0
  6 26  1  0  0  0  0
  7  8  1  0  0  0  0
  7 27  1  0  0  0  0
  7 28  1  0  0  0  0
  8  9  1  0  0  0  0
  8 20  1  0  0  0  0
  9 10  2  0  0  0  0
  9 11  1  0  0  0  0
 11 12  1  0  0  0  0
 11 29  1  0  0  0  0
 12 13  1  0  0  0  0
 12 30  1  0  0  0  0
 12 31  1  0  0  0  0
 13 14  1  0  0  0  0
 13 32  1  0  0  0  0
 13 33  1  0  0  0  0
 14 19  1  0  0  0  0
 14 15  2  0  0  0  0
 15 16  1  0  0  0  0
 15 34  1  0  0  0  0
 16 17  2  0  0  0  0
 16 35  1  0  0  0  0
 17 18  1  0  0  0  0
 17 36  1  0  0  0  0
 18 19  2  0  0  0  0
 18 37  1  0  0  0  0
 19 42  1  0  0  0  0
 20 21  1  0  0  0  0
 20 38  1  0  0  0  0
 20 39  1  0  0  0  0
 21 40  1  0  0  0  0
 21 41  1  0  0  0  0
M  CHG  1  19   1
M  END
> <s_m_source_file>
AV-unprocessed.smi

> <i_m_source_file_index>
2101

> <i_lp_mmshare_version>
43012

> <i_f3d_flags>
0

> <s_epik_input>
W0NIM11TKD1PKSg9TylOMVtDSDJdW0NIMl1OKFtDSDJdW0NIMl0xKUMoPU8pW05IXVtDSDJdW0NIMl1jMltjSF1bY0hdW2NIXVtjSF1uMg==

> <s_epik_cmdline>
J2VwaWtfcHl0aG9uJywgJy1waCcsICc3LjAnLCAnLXRuJywgJzgnLCAnLW1hJywgJzIwMCcsICctbWV0YWxfYmluZGluZycsICctaW1hZScsICc8aW5maWxlLm1hZT4nLCAnLW9tYWUnLCAnPG91dGZpbGUubWFlPic=

> <r_epik_Ionization_Penalty>
1.56137

> <r_epik_Ionization_Penalty_Charging>
1.56133

> <r_epik_Ionization_Penalty_Neutral>
3.86464e-05

> <r_epik_State_Penalty>
1.65637

> <r_epik_Charging_Adjusted_Penalty>
3.2177

> <i_epik_Tot_Q>
1

> <i_epik_Tot_abs_Q>
1

> <r_epik_Metal_State_Penalty>
1.69784

> <b_epik_Metal_Only>
0

> <s_lp_Force_Field>
OPLS_2005

> <r_lp_Energy>
29.4976

> <b_lp_Chiralities_Consistent>
1

> <s_lp_Variant>
AV-unprocessed.smi:2101-2

> <Gold.Version>
5.8.1

> <Gold.Id.Protein>
6NUR|6NUR_protein|mol2

> <Gold.PLP.Fitness>
43.7813

> <Gold.PLP.PLP>
-32.9674

> <Gold.PLP.part.hbond>
-2.9227

> <Gold.PLP.part.metal>
0.0000

> <Gold.PLP.part.buried>
-4.5377

> <Gold.PLP.part.nonpolar>
-25.2905

> <Gold.PLP.part.repulsive>
0.2998

> <Gold.PLP.ligand.clash>
0.0000

> <Gold.PLP.ligand.torsion>
1.6613

> <Gold.PLP.Chemscore.Hbond>
4.0000

> <Gold.PLP.Chemscore.CHOScore>
0.0000

> <Gold.PLP.Chemscore.Metal>
0.0000

> <Gold.Chemscore.Hbonds>
donor molecule, donor type, donor heavy atom, donor atom, acceptor molecule, acceptor atom, score
      L1  H    19    42       P1  8028  2.00
      P1  H  6896  6907       L1     4  0.28
      P1  H  7989  7998       L1    10  1.00

> <Gold.PLP.Chemscore.Internal.Correction>
2.1364

> <Gold.Rescore>
     Score         DG    S(hbond)    S(metal)    S(lipo)     H(rot)  DE(clash)    DE(int)     intcor
     19.48     -22.74       2.94        0.00      95.86       1.47       1.59       1.67       ----

> <Gold.Chemscore.Fitness>
19.4777

> <Gold.Chemscore.DG>
-22.7418

> <Gold.Chemscore.ZeroCoef>
-5.4800

> <Gold.Chemscore.Hbond>
2.9380

> <Gold.Chemscore.Metal>
0.0000

> <Gold.Chemscore.Lipo>
95.8589

> <Gold.Chemscore.Internal_Hbond>
0.0000

> <Gold.Chemscore.DEClash>
1.5902

> <Gold.Chemscore.DEInternal>
1.6739

> <Gold.Chemscore.Rot>
1.4714

> <Gold.Chemscore.Internal.Correction>
   9.000000E+99

> <Gold.Chemscore.Hbonds>
donor molecule, donor type, donor heavy atom, donor atom, acceptor molecule, acceptor atom, score
      L1  H    19    42       P1  8028  0.49
      P1  H  6896  6907       L1     4  0.27
      P1  H  7989  7998       L1    10  1.00

> <Gold.Chemscore.Hbond.Weighted>
-9.8129

> <Gold.Chemscore.Metal.Weighted>
-0.0000

> <Gold.Chemscore.Lipo.Weighted>
-11.2155

> <Gold.Chemscore.Internal_Hbond.Weighted>
0.0000

> <Gold.Chemscore.DEClash.Weighted>
1.5902

> <Gold.Chemscore.DEInternal.Weighted>
1.6739

> <Gold.Chemscore.Rot.Weighted>
3.7667

> <Gold.Chemscore.Internal.Correction.Weighted>
   9.000000E+99

> <Gold.Protein.RotatedTorsions>
[ 6907 6896 6895 6894 ] final -115.55 input  -60.11 | X-H torsion
[ 7974 7965 7964 7962 ] final  -44.38 input  175.53 | X-H torsion
[ 8008 7997 7996 7995 ] final  -77.75 input   59.86 | X-H torsion
[ 10167 10162 10161 10158 ] final -144.42 input  -65.29 | X-H torsion
[ 10718 10713 10712 10709 ] final   78.08 input   66.30 | X-H torsion
[ 10763 10752 10751 10750 ] final  132.57 input  -60.55 | X-H torsion
[ 11005 11000 10999 10996 ] final  -49.44 input  -57.11 | X-H torsion

> <Gold.Protein.ActiveResidues>
 VAL166  LYS551  ARG553  GLY616  TRP617  ASP618  TYR619  PRO620  LYS621  CYS622 
 ASP623  PHE694  ASN695  SER759  ASP760  ASP761  ALA762  ILE779  LEU786  VAL792 
 PHE793  MET794  SER795  GLU796  ALA797  LYS798  CYS799  TRP800  GLU811  SER814 

> <Gold.Protein.RotatedAtoms>
  150.7986  133.8643  159.3240 H   0  0  0  0  0  0  0  0  0  0  0  0  # atno 6907 bound_to 6896
  151.6461  135.1005  160.0161 H   0  0  0  0  0  0  0  0  0  0  0  0  # atno 6908 bound_to 6896
  152.4071  133.6866  159.6401 H   0  0  0  0  0  0  0  0  0  0  0  0  # atno 6909 bound_to 6896
  145.9926  140.7163  142.9309 H   0  0  0  0  0  0  0  0  0  0  0  0  # atno 7974 bound_to 7965
  154.5625  140.0705  156.8841 H   0  0  0  0  0  0  0  0  0  0  0  0  # atno 8008 bound_to 7997
  155.2785  140.3370  155.4242 H   0  0  0  0  0  0  0  0  0  0  0  0  # atno 8009 bound_to 7997
  156.2054  140.1738  156.7797 H   0  0  0  0  0  0  0  0  0  0  0  0  # atno 8010 bound_to 7997
  139.7901  143.7978  152.2649 H   0  0  0  0  0  0  0  0  0  0  0  0  # atno 10167 bound_to 10162
  157.6733  130.9851  150.1734 H   0  0  0  0  0  0  0  0  0  0  0  0  # atno 10718 bound_to 10713
  153.7928  135.3152  155.3380 H   0  0  0  0  0  0  0  0  0  0  0  0  # atno 10763 bound_to 10752
  154.8119  135.4661  154.0542 H   0  0  0  0  0  0  0  0  0  0  0  0  # atno 10764 bound_to 10752
  153.1865  135.6902  153.8495 H   0  0  0  0  0  0  0  0  0  0  0  0  # atno 10765 bound_to 10752
  141.0759  133.6666  156.3586 H   0  0  0  0  0  0  0  0  0  0  0  0  # atno 11005 bound_to 11000
  144.6894  140.3096  143.7250 LP  0  0  0  0  0  0  0  0  0  0  0  0  # atno 17320 bound_to 7965
  145.7607  139.1824  143.2269 LP  0  0  0  0  0  0  0  0  0  0  0  0  # atno 17321 bound_to 7965
  139.8067  144.7352  150.9752 LP  0  0  0  0  0  0  0  0  0  0  0  0  # atno 17342 bound_to 10162
  140.7820  143.4291  151.0722 LP  0  0  0  0  0  0  0  0  0  0  0  0  # atno 17343 bound_to 10162
  156.2483  130.3698  149.8260 LP  0  0  0  0  0  0  0  0  0  0  0  0  # atno 17370 bound_to 10713
  156.6040  130.8559  151.3439 LP  0  0  0  0  0  0  0  0  0  0  0  0  # atno 17371 bound_to 10713
  140.5573  134.5968  157.5424 LP  0  0  0  0  0  0  0  0  0  0  0  0  # atno 17394 bound_to 11000
  139.9572  134.7515  156.0316 LP  0  0  0  0  0  0  0  0  0  0  0  0  # atno 17395 bound_to 11000

$$$$
