AV-unprocessed.smi:12|AV-procd|sdf|66|dock1
  -GOLD-   2262015183D 1   1.00000     0.00000
 Structure written by MMmdl.
 41 44  0  0  0  0  0  0  0  0  1 V2000
  145.7600  136.7756  152.0735 C   0  0  0  0  0  0  0  0  0  0  0  0
  145.9903  137.9090  153.0570 C   0  0  0  0  0  0  0  0  0  0  0  0
  147.0901  138.6960  152.9910 C   0  0  0  0  0  0  0  0  0  0  0  0
  147.2513  139.7009  153.9033 N   0  0  0  0  0  0  0  0  0  0  0  0
  146.2651  139.9164  154.8900 C   0  0  0  0  0  0  0  0  0  0  0  0
  145.1869  139.2075  155.0191 N   0  0  0  0  0  0  0  0  0  0  0  0
  144.9764  138.1487  154.1148 C   0  0  0  0  0  0  0  0  0  0  0  0
  143.9722  137.4436  154.2026 O   0  0  0  0  0  0  0  0  0  0  0  0
  146.6285  140.9841  155.6530 O   0  0  0  0  0  0  0  0  0  0  0  0
  147.8713  141.5198  155.1786 C   0  0  1  0  0  0  0  0  0  0  0  0
  148.9765  141.3530  156.2176 C   0  0  2  0  0  0  0  0  0  0  0  0
  149.3304  142.6016  156.7777 O   0  0  0  0  0  0  0  0  0  0  0  0
  150.1358  140.7538  155.4154 C   0  0  1  0  0  0  0  0  0  0  0  0
  151.0911  139.8791  156.2367 C   0  0  0  0  0  0  0  0  0  0  0  0
  151.4406  140.5599  157.4310 O   0  0  0  0  0  0  0  0  0  0  0  0
  152.4888  140.1420  158.1663 C   0  0  0  0  0  0  0  0  0  0  0  0
  153.1974  139.1811  157.8599 O   0  0  0  0  0  0  0  0  0  0  0  0
  152.7041  140.9679  159.3895 C   0  0  0  0  0  0  0  0  0  0  0  0
  152.0238  142.2012  159.5222 C   0  0  0  0  0  0  0  0  0  0  0  0
  152.2038  143.0002  160.6680 C   0  0  0  0  0  0  0  0  0  0  0  0
  153.0672  142.5764  161.6951 C   0  0  0  0  0  0  0  0  0  0  0  0
  153.7520  141.3531  161.5740 C   0  0  0  0  0  0  0  0  0  0  0  0
  153.5726  140.5523  160.4291 C   0  0  0  0  0  0  0  0  0  0  0  0
  149.4874  139.9650  154.4310 O   0  0  0  0  0  0  0  0  0  0  0  0
  148.3569  140.6522  154.0018 C   0  0  1  0  0  0  0  0  0  0  0  0
  146.5764  136.7034  151.3540 H   0  0  0  0  0  0  0  0  0  0  0  0
  144.8347  136.9338  151.5188 H   0  0  0  0  0  0  0  0  0  0  0  0
  145.6885  135.8228  152.5987 H   0  0  0  0  0  0  0  0  0  0  0  0
  147.8429  138.5388  152.2323 H   0  0  0  0  0  0  0  0  0  0  0  0
  147.7540  142.5491  154.8358 H   0  0  0  0  0  0  0  0  0  0  0  0
  148.6588  140.6643  157.0020 H   0  0  0  0  0  0  0  0  0  0  0  0
  149.2250  143.2676  156.1153 H   0  0  0  0  0  0  0  0  0  0  0  0
  150.6895  141.5380  154.8949 H   0  0  0  0  0  0  0  0  0  0  0  0
  150.6291  138.9182  156.4674 H   0  0  0  0  0  0  0  0  0  0  0  0
  151.9949  139.6786  155.6596 H   0  0  0  0  0  0  0  0  0  0  0  0
  151.3550  142.5473  158.7472 H   0  0  0  0  0  0  0  0  0  0  0  0
  151.6779  143.9394  160.7586 H   0  0  0  0  0  0  0  0  0  0  0  0
  153.2042  143.1888  162.5743 H   0  0  0  0  0  0  0  0  0  0  0  0
  154.4160  141.0271  162.3610 H   0  0  0  0  0  0  0  0  0  0  0  0
  154.1135  139.6191  160.3691 H   0  0  0  0  0  0  0  0  0  0  0  0
  148.4395  141.1523  153.0362 H   0  0  0  0  0  0  0  0  0  0  0  0
  1  2  1  0  0  0  0
  1 26  1  0  0  0  0
  1 27  1  0  0  0  0
  1 28  1  0  0  0  0
  2  7  1  0  0  0  0
  2  3  2  0  0  0  0
  3  4  1  0  0  0  0
  3 29  1  0  0  0  0
  4 25  1  0  0  0  0
  4  5  1  0  0  0  0
  5  6  2  0  0  0  0
  5  9  1  0  0  0  0
  6  7  1  0  0  0  0
  7  8  2  0  0  0  0
  9 10  1  0  0  0  0
 10 25  1  0  0  0  0
 10 11  1  0  0  0  0
 10 30  1  0  0  0  0
 11 12  1  0  0  0  0
 11 13  1  0  0  0  0
 11 31  1  0  0  0  0
 12 32  1  0  0  0  0
 13 14  1  0  0  0  0
 13 24  1  0  0  0  0
 13 33  1  0  0  0  0
 14 15  1  0  0  0  0
 14 34  1  0  0  0  0
 14 35  1  0  0  0  0
 15 16  1  0  0  0  0
 16 17  2  0  0  0  0
 16 18  1  0  0  0  0
 18 23  1  0  0  0  0
 18 19  2  0  0  0  0
 19 20  1  0  0  0  0
 19 36  1  0  0  0  0
 20 21  2  0  0  0  0
 20 37  1  0  0  0  0
 21 22  1  0  0  0  0
 21 38  1  0  0  0  0
 22 23  2  0  0  0  0
 22 39  1  0  0  0  0
 23 40  1  0  0  0  0
 24 25  1  0  0  0  0
 25 41  1  0  0  0  0
M  END
> <s_m_source_file>
AV-unprocessed.smi

> <i_m_source_file_index>
12

> <i_lp_mmshare_version>
43012

> <i_f3d_flags>
0

> <s_epik_input>
W0NIM11jKFtjSF0xKWMoPU8pbmMobjEyKU9bQ0BIXTNbQ0BASF0yT1tDQEBIXShbQ0BASF0zW09IXSlbQ0gyXU9DKD1PKWM0W2NIXVtjSF1bY0hdW2NIXVtjSF00

> <s_epik_cmdline>
J2VwaWtfcHl0aG9uJywgJy1waCcsICc3LjAnLCAnLXRuJywgJzgnLCAnLW1hJywgJzIwMCcsICctbWV0YWxfYmluZGluZycsICctaW1hZScsICc8aW5maWxlLm1hZT4nLCAnLW9tYWUnLCAnPG91dGZpbGUubWFlPic=

> <r_lp_tautomer_probability>
0.933681

> <r_epik_Ionization_Penalty>
0.00399549

> <r_epik_Ionization_Penalty_Charging>
3.09373e-09

> <r_epik_Ionization_Penalty_Neutral>
0.00399549

> <r_epik_State_Penalty>
0.00284953

> <r_epik_Charging_Adjusted_Penalty>
0.00284953

> <i_epik_Tot_Q>
0

> <i_epik_Tot_abs_Q>
0

> <r_epik_Metal_State_Penalty>
-0

> <b_epik_Metal_Only>
0

> <s_epik_Chemistry_Notes>
This compound has an ester and may undergo hydrolysis at high or low pH. This compound contains an acetal/aminal-like group ( X-CH(R)-Y where X, Y are N, S, or O) that may be acid/base labile, releasing an aldehyde.

> <s_lp_Force_Field>
OPLS_2005

> <r_lp_Energy>
41.0284

> <b_lp_Chiralities_Consistent>
1

> <s_lp_Variant>
AV-unprocessed.smi:12-6

> <Gold.Version>
5.8.1

> <Gold.Id.Protein>
6NUR|6NUR_protein|mol2

> <Gold.PLP.Fitness>
50.2235

> <Gold.PLP.PLP>
-39.2801

> <Gold.PLP.part.hbond>
-1.6692

> <Gold.PLP.part.metal>
0.0000

> <Gold.PLP.part.buried>
-3.3515

> <Gold.PLP.part.nonpolar>
-35.2003

> <Gold.PLP.part.repulsive>
0.3680

> <Gold.PLP.ligand.clash>
0.0000

> <Gold.PLP.ligand.torsion>
0.2294

> <Gold.PLP.Chemscore.Hbond>
2.0000

> <Gold.PLP.Chemscore.CHOScore>
1.7980

> <Gold.PLP.Chemscore.Metal>
0.0000

> <Gold.Chemscore.Hbonds>
donor molecule, donor type, donor heavy atom, donor atom, acceptor molecule, acceptor atom, score
      L1  H    12    32       P1  8028  1.00
      P1  H  7997  8010       L1    17  0.95
      L1  C     3    29       P1  7948  0.80
      L1  C     3    29       P1  7957  1.00

> <Gold.PLP.Chemscore.Internal.Correction>
0.0080

> <Gold.Rescore>
     Score         DG    S(hbond)    S(metal)    S(lipo)     H(rot)  DE(clash)    DE(int)     intcor
     16.24     -17.59       1.90        0.00      96.96       2.18       0.00       1.36       ----

> <Gold.Chemscore.Fitness>
16.2370

> <Gold.Chemscore.DG>
-17.5934

> <Gold.Chemscore.ZeroCoef>
-5.4800

> <Gold.Chemscore.Hbond>
1.9010

> <Gold.Chemscore.Metal>
0.0000

> <Gold.Chemscore.Lipo>
96.9630

> <Gold.Chemscore.Internal_Hbond>
0.0000

> <Gold.Chemscore.DEClash>
0.0000

> <Gold.Chemscore.DEInternal>
1.3564

> <Gold.Chemscore.Rot>
2.1800

> <Gold.Chemscore.Internal.Correction>
   9.000000E+99

> <Gold.Chemscore.Hbonds>
donor molecule, donor type, donor heavy atom, donor atom, acceptor molecule, acceptor atom, score
      L1  H    12    32       P1  8028  0.92
      P1  H  7997  8010       L1    17  0.21

> <Gold.Chemscore.Hbond.Weighted>
-6.3495

> <Gold.Chemscore.Metal.Weighted>
-0.0000

> <Gold.Chemscore.Lipo.Weighted>
-11.3447

> <Gold.Chemscore.Internal_Hbond.Weighted>
0.0000

> <Gold.Chemscore.DEClash.Weighted>
0.0000

> <Gold.Chemscore.DEInternal.Weighted>
1.3564

> <Gold.Chemscore.Rot.Weighted>
5.5807

> <Gold.Chemscore.Internal.Correction.Weighted>
   9.000000E+99

> <Gold.Protein.RotatedTorsions>
[ 6907 6896 6895 6894 ] final   29.81 input  -60.11 | X-H torsion
[ 7974 7965 7964 7962 ] final -120.01 input  175.53 | X-H torsion
[ 8008 7997 7996 7995 ] final   53.06 input   59.86 | X-H torsion
[ 10167 10162 10161 10158 ] final  141.48 input  -65.29 | X-H torsion
[ 10718 10713 10712 10709 ] final  -47.85 input   66.30 | X-H torsion
[ 10763 10752 10751 10750 ] final  143.69 input  -60.55 | X-H torsion
[ 11005 11000 10999 10996 ] final   15.43 input  -57.11 | X-H torsion

> <Gold.Protein.ActiveResidues>
 VAL166  LYS551  ARG553  GLY616  TRP617  ASP618  TYR619  PRO620  LYS621  CYS622 
 ASP623  PHE694  ASN695  SER759  ASP760  ASP761  ALA762  ILE779  LEU786  VAL792 
 PHE793  MET794  SER795  GLU796  ALA797  LYS798  CYS799  TRP800  GLU811  SER814 

> <Gold.Protein.RotatedAtoms>
  152.0369  134.9734  160.0573 H   0  0  0  0  0  0  0  0  0  0  0  0  # atno 6907 bound_to 6896
  152.1188  133.4337  159.4674 H   0  0  0  0  0  0  0  0  0  0  0  0  # atno 6908 bound_to 6896
  150.6848  134.2478  159.4542 H   0  0  0  0  0  0  0  0  0  0  0  0  # atno 6909 bound_to 6896
  145.0561  140.8255  143.4180 H   0  0  0  0  0  0  0  0  0  0  0  0  # atno 7974 bound_to 7965
  155.4621  140.3462  155.4314 H   0  0  0  0  0  0  0  0  0  0  0  0  # atno 8008 bound_to 7997
  156.1154  140.1472  156.9309 H   0  0  0  0  0  0  0  0  0  0  0  0  # atno 8009 bound_to 7997
  154.4785  140.0877  156.7300 H   0  0  0  0  0  0  0  0  0  0  0  0  # atno 8010 bound_to 7997
  139.5019  144.6169  151.6143 H   0  0  0  0  0  0  0  0  0  0  0  0  # atno 10167 bound_to 10162
  156.2044  130.4157  149.9197 H   0  0  0  0  0  0  0  0  0  0  0  0  # atno 10718 bound_to 10713
  153.9766  135.2945  155.3423 H   0  0  0  0  0  0  0  0  0  0  0  0  # atno 10763 bound_to 10752
  154.7292  135.5075  153.8940 H   0  0  0  0  0  0  0  0  0  0  0  0  # atno 10764 bound_to 10752
  153.0874  135.6697  154.0034 H   0  0  0  0  0  0  0  0  0  0  0  0  # atno 10765 bound_to 10752
  140.4584  134.1153  155.7712 H   0  0  0  0  0  0  0  0  0  0  0  0  # atno 11005 bound_to 11000
  145.1466  139.2539  143.5462 LP  0  0  0  0  0  0  0  0  0  0  0  0  # atno 17320 bound_to 7965
  146.3521  140.1158  142.8602 LP  0  0  0  0  0  0  0  0  0  0  0  0  # atno 17321 bound_to 7965
  140.5859  143.9864  150.6295 LP  0  0  0  0  0  0  0  0  0  0  0  0  # atno 17342 bound_to 10162
  140.3029  143.3248  152.0954 LP  0  0  0  0  0  0  0  0  0  0  0  0  # atno 17343 bound_to 10162
  156.6896  130.8890  151.3586 LP  0  0  0  0  0  0  0  0  0  0  0  0  # atno 17370 bound_to 10713
  157.7004  130.9327  150.0769 LP  0  0  0  0  0  0  0  0  0  0  0  0  # atno 17371 bound_to 10713
  141.1632  133.8752  157.1788 LP  0  0  0  0  0  0  0  0  0  0  0  0  # atno 17394 bound_to 11000
  139.9961  135.0046  157.0086 LP  0  0  0  0  0  0  0  0  0  0  0  0  # atno 17395 bound_to 11000

$$$$
