AV-unprocessed.smi:761|AV-procd|sdf|3632|dock5
  -GOLD-   22720 1 23D 1   1.00000     0.00000
 Structure written by MMmdl.
 34 35  0  0  0  0  0  0  0  0  4 V2000
  151.1924  137.5884  156.1340 O   0  0  0  0  0  0  0  0  0  0  0  0
  150.7733  137.1475  155.0577 C   0  0  0  0  0  0  0  0  0  0  0  0
  150.9657  135.9052  154.5380 N   0  5  0  0  0  0  0  0  0  0  0  0
  150.3389  134.6813  155.0355 C   0  0  0  0  0  0  0  0  0  0  0  0
  148.8056  134.8240  154.9686 C   0  0  0  0  0  0  0  0  0  0  0  0
  148.2422  134.3565  153.6754 N   0  3  0  0  0  0  0  0  0  0  0  0
  146.7561  134.4559  153.5369 C   0  0  0  0  0  0  0  0  0  0  0  0
  146.3950  133.2112  152.7774 C   0  0  0  0  0  0  0  0  0  0  0  0
  147.4405  132.4033  152.6441 C   0  0  0  0  0  0  0  0  0  0  0  0
  148.6664  132.9787  153.2946 C   0  0  0  0  0  0  0  0  0  0  0  0
  150.0103  137.9176  154.2612 N   0  0  0  0  0  0  0  0  0  0  0  0
  149.6397  139.2799  154.4227 C   0  0  0  0  0  0  0  0  0  0  0  0
  150.4495  140.0874  155.2515 C   0  0  0  0  0  0  0  0  0  0  0  0
  150.1021  141.4377  155.4588 C   0  0  0  0  0  0  0  0  0  0  0  0
  148.9946  141.9446  154.8757 N   0  3  0  0  0  0  0  0  0  0  0  0
  148.1809  141.2075  154.0893 C   0  0  0  0  0  0  0  0  0  0  0  0
  148.4773  139.8512  153.8456 C   0  0  0  0  0  0  0  0  0  0  0  0
  150.6309  133.7977  154.4665 H   0  0  0  0  0  0  0  0  0  0  0  0
  150.6305  134.4769  156.0660 H   0  0  0  0  0  0  0  0  0  0  0  0
  148.3761  134.2211  155.7708 H   0  0  0  0  0  0  0  0  0  0  0  0
  148.4953  135.8530  155.1575 H   0  0  0  0  0  0  0  0  0  0  0  0
  146.2466  134.4530  154.5015 H   0  0  0  0  0  0  0  0  0  0  0  0
  146.4743  135.3537  152.9863 H   0  0  0  0  0  0  0  0  0  0  0  0
  145.3957  133.0161  152.4167 H   0  0  0  0  0  0  0  0  0  0  0  0
  147.4349  131.4391  152.1574 H   0  0  0  0  0  0  0  0  0  0  0  0
  149.5114  133.0073  152.6063 H   0  0  0  0  0  0  0  0  0  0  0  0
  148.9306  132.3735  154.1633 H   0  0  0  0  0  0  0  0  0  0  0  0
  149.6089  137.4478  153.4628 H   0  0  0  0  0  0  0  0  0  0  0  0
  151.3334  139.6788  155.7200 H   0  0  0  0  0  0  0  0  0  0  0  0
  150.6713  142.1213  156.0716 H   0  0  0  0  0  0  0  0  0  0  0  0
  147.3185  141.7184  153.6868 H   0  0  0  0  0  0  0  0  0  0  0  0
  147.8044  139.2695  153.2338 H   0  0  0  0  0  0  0  0  0  0  0  0
  148.6292  134.9587  152.9628 H   0  0  0  0  0  0  0  0  0  0  0  0
  148.7594  142.9235  155.0407 H   0  0  0  0  0  0  0  0  0  0  0  0
  1  2  2  0  0  0  0
  2  3  1  0  0  0  0
  2 11  1  0  0  0  0
  3  4  1  0  0  0  0
  4  5  1  0  0  0  0
  4 18  1  0  0  0  0
  4 19  1  0  0  0  0
  5  6  1  0  0  0  0
  5 20  1  0  0  0  0
  5 21  1  0  0  0  0
  6 10  1  0  0  0  0
  6  7  1  0  0  0  0
  6 33  1  0  0  0  0
  7  8  1  0  0  0  0
  7 22  1  0  0  0  0
  7 23  1  0  0  0  0
  8  9  2  0  0  0  0
  8 24  1  0  0  0  0
  9 10  1  0  0  0  0
  9 25  1  0  0  0  0
 10 26  1  0  0  0  0
 10 27  1  0  0  0  0
 11 12  1  0  0  0  0
 11 28  1  0  0  0  0
 12 17  1  0  0  0  0
 12 13  2  0  0  0  0
 13 14  1  0  0  0  0
 13 29  1  0  0  0  0
 14 15  2  0  0  0  0
 14 30  1  0  0  0  0
 15 16  1  0  0  0  0
 15 34  1  0  0  0  0
 16 17  2  0  0  0  0
 16 31  1  0  0  0  0
 17 32  1  0  0  0  0
M  CHG  1   3  -1
M  CHG  1   6   1
M  CHG  1  15   1
M  END
> <s_m_source_file>
AV-unprocessed.smi

> <i_m_source_file_index>
761

> <i_lp_mmshare_version>
43012

> <i_f3d_flags>
0

> <s_epik_input>
W2NIXTFbY0hdbltjSF1bY0hdYzFbTkhdQyg9TylbTkhdW0NIMl1bQ0gyXU4yW0NIMl1bQ0hdPVtDSF1bQ0gyXTI=

> <s_epik_cmdline>
J2VwaWtfcHl0aG9uJywgJy1waCcsICc3LjAnLCAnLXRuJywgJzgnLCAnLW1hJywgJzIwMCcsICctbWV0YWxfYmluZGluZycsICctaW1hZScsICc8aW5maWxlLm1hZT4nLCAnLW9tYWUnLCAnPG91dGZpbGUubWFlPic=

> <r_epik_Ionization_Penalty>
8.30346

> <r_epik_Ionization_Penalty_Charging>
8.30346

> <r_epik_Ionization_Penalty_Neutral>
3.3887e-06

> <r_epik_State_Penalty>
7.87421

> <r_epik_Charging_Adjusted_Penalty>
16.1777

> <i_epik_Tot_Q>
1

> <i_epik_Tot_abs_Q>
3

> <r_epik_Metal_State_Penalty>
3.87237

> <b_epik_Metal_Only>
1

> <s_lp_Force_Field>
OPLS_2005

> <r_lp_Energy>
27.0573

> <b_lp_Chiralities_Consistent>
1

> <s_lp_Variant>
AV-unprocessed.smi:761-3

> <Gold.Version>
5.8.1

> <Gold.Id.Protein>
6NUR|6NUR_protein|mol2

> <Gold.PLP.Fitness>
47.6266

> <Gold.PLP.PLP>
-28.7639

> <Gold.PLP.part.hbond>
-3.8954

> <Gold.PLP.part.metal>
0.0000

> <Gold.PLP.part.buried>
-0.7070

> <Gold.PLP.part.nonpolar>
-25.0248

> <Gold.PLP.part.repulsive>
1.2424

> <Gold.PLP.ligand.clash>
0.0000

> <Gold.PLP.ligand.torsion>
1.0022

> <Gold.PLP.Chemscore.Hbond>
6.9262

> <Gold.PLP.Chemscore.CHOScore>
0.0000

> <Gold.PLP.Chemscore.Metal>
0.0000

> <Gold.Chemscore.Hbonds>
donor molecule, donor type, donor heavy atom, donor atom, acceptor molecule, acceptor atom, score
      L1  H     6    33       P1  7948  2.00
      L1  H    11    28       P1  7948  0.88
      L1  H    15    34       P1  8028  2.00
      P1  H 10752 10764       L1     3  2.00

> <Gold.PLP.Chemscore.Internal.Correction>
0.0884

> <Gold.Rescore>
     Score         DG    S(hbond)    S(metal)    S(lipo)     H(rot)  DE(clash)    DE(int)     intcor
     14.56     -17.02       2.53        0.00      59.33       1.51       0.00       2.46       ----

> <Gold.Chemscore.Fitness>
14.5590

> <Gold.Chemscore.DG>
-17.0172

> <Gold.Chemscore.ZeroCoef>
-5.4800

> <Gold.Chemscore.Hbond>
2.5346

> <Gold.Chemscore.Metal>
0.0000

> <Gold.Chemscore.Lipo>
59.3311

> <Gold.Chemscore.Internal_Hbond>
0.0000

> <Gold.Chemscore.DEClash>
0.0000

> <Gold.Chemscore.DEInternal>
2.4582

> <Gold.Chemscore.Rot>
1.5117

> <Gold.Chemscore.Internal.Correction>
   9.000000E+99

> <Gold.Chemscore.Hbonds>
donor molecule, donor type, donor heavy atom, donor atom, acceptor molecule, acceptor atom, score
      L1  H     6    33       P1  7948  0.45
      L1  H    11    28       P1  7948  0.73
      L1  H    15    34       P1  8028  1.00
      P1  H 10752 10764       L1     3  0.26

> <Gold.Chemscore.Hbond.Weighted>
-8.4655

> <Gold.Chemscore.Metal.Weighted>
-0.0000

> <Gold.Chemscore.Lipo.Weighted>
-6.9417

> <Gold.Chemscore.Internal_Hbond.Weighted>
0.0000

> <Gold.Chemscore.DEClash.Weighted>
0.0000

> <Gold.Chemscore.DEInternal.Weighted>
2.4582

> <Gold.Chemscore.Rot.Weighted>
3.8700

> <Gold.Chemscore.Internal.Correction.Weighted>
   9.000000E+99

> <Gold.Protein.RotatedTorsions>
[ 6907 6896 6895 6894 ] final -105.19 input  -60.11 | X-H torsion
[ 7974 7965 7964 7962 ] final  -86.91 input  175.53 | X-H torsion
[ 8008 7997 7996 7995 ] final  171.48 input   59.86 | X-H torsion
[ 10167 10162 10161 10158 ] final   10.54 input  -65.29 | X-H torsion
[ 10718 10713 10712 10709 ] final  123.63 input   66.30 | X-H torsion
[ 10763 10752 10751 10750 ] final  -56.28 input  -60.55 | X-H torsion
[ 11005 11000 10999 10996 ] final  -17.84 input  -57.11 | X-H torsion

> <Gold.Protein.ActiveResidues>
 VAL166  LYS551  ARG553  GLY616  TRP617  ASP618  TYR619  PRO620  LYS621  CYS622 
 ASP623  PHE694  ASN695  SER759  ASP760  ASP761  ALA762  ILE779  LEU786  VAL792 
 PHE793  MET794  SER795  GLU796  ALA797  LYS798  CYS799  TRP800  GLU811  SER814 

> <Gold.Protein.RotatedAtoms>
  150.7324  134.0164  159.3686 H   0  0  0  0  0  0  0  0  0  0  0  0  # atno 6907 bound_to 6896
  151.8127  135.0674  160.0424 H   0  0  0  0  0  0  0  0  0  0  0  0  # atno 6908 bound_to 6896
  152.3061  133.5668  159.5686 H   0  0  0  0  0  0  0  0  0  0  0  0  # atno 6909 bound_to 6896
  145.4736  140.9559  143.1903 H   0  0  0  0  0  0  0  0  0  0  0  0  # atno 7974 bound_to 7965
  156.1267  140.1511  156.9125 H   0  0  0  0  0  0  0  0  0  0  0  0  # atno 8008 bound_to 7997
  154.4877  140.0860  156.7565 H   0  0  0  0  0  0  0  0  0  0  0  0  # atno 8009 bound_to 7997
  155.4330  140.3428  155.4284 H   0  0  0  0  0  0  0  0  0  0  0  0  # atno 8010 bound_to 7997
  140.6188  143.8251  150.7150 H   0  0  0  0  0  0  0  0  0  0  0  0  # atno 10167 bound_to 10162
  157.5649  131.1087  150.8472 H   0  0  0  0  0  0  0  0  0  0  0  0  # atno 10718 bound_to 10713
  154.2042  135.6406  153.5096 H   0  0  0  0  0  0  0  0  0  0  0  0  # atno 10763 bound_to 10752
  153.0005  135.5458  154.6284 H   0  0  0  0  0  0  0  0  0  0  0  0  # atno 10764 bound_to 10752
  154.5704  135.2916  155.0806 H   0  0  0  0  0  0  0  0  0  0  0  0  # atno 10765 bound_to 10752
  140.8208  133.8070  155.9658 H   0  0  0  0  0  0  0  0  0  0  0  0  # atno 11005 bound_to 11000
  144.7931  139.6289  143.7105 LP  0  0  0  0  0  0  0  0  0  0  0  0  # atno 17320 bound_to 7965
  146.2382  139.5948  142.9509 LP  0  0  0  0  0  0  0  0  0  0  0  0  # atno 17321 bound_to 7965
  140.1836  143.4094  152.1915 LP  0  0  0  0  0  0  0  0  0  0  0  0  # atno 17342 bound_to 10162
  139.5421  144.7265  151.4702 LP  0  0  0  0  0  0  0  0  0  0  0  0  # atno 17343 bound_to 10162
  156.8959  130.5229  149.5284 LP  0  0  0  0  0  0  0  0  0  0  0  0  # atno 17370 bound_to 10713
  156.0698  130.5733  150.9361 LP  0  0  0  0  0  0  0  0  0  0  0  0  # atno 17371 bound_to 10713
  140.9101  134.2272  157.4991 LP  0  0  0  0  0  0  0  0  0  0  0  0  # atno 17394 bound_to 11000
  139.8708  134.9746  156.4852 LP  0  0  0  0  0  0  0  0  0  0  0  0  # atno 17395 bound_to 11000

$$$$
