AV-unprocessed.smi:1230|AV-procd|sdf|5153|dock9
  -GOLD-   22720 4223D 1   1.00000     0.00000
 Structure written by MMmdl.
 38 39  0  0  0  0  0  0  0  0  2 V2000
  151.1150  144.5902  159.3144 C   0  0  0  0  0  0  0  0  0  0  0  0
  152.2960  143.8789  159.9929 C   0  0  1  0  0  0  0  0  0  0  0  0
  151.9894  143.5356  161.4645 C   0  0  0  0  0  0  0  0  0  0  0  0
  153.1927  142.8676  162.1491 C   0  0  0  0  0  0  0  0  0  0  0  0
  153.6496  141.6184  161.3807 C   0  0  0  0  0  0  0  0  0  0  0  0
  153.9545  141.9485  159.9097 C   0  0  0  0  0  0  0  0  0  0  0  0
  152.7607  142.6269  159.2129 C   0  0  1  0  0  0  0  0  0  0  0  0
  151.7018  141.6783  159.1380 O   0  0  0  0  0  0  0  0  0  0  0  0
  150.8140  141.8825  158.0509 C   0  0  0  0  0  0  0  0  0  0  0  0
  151.5404  141.5203  156.7486 C   0  0  0  0  0  0  0  0  0  0  0  0
  151.5784  140.0665  156.5463 N   0  0  0  0  0  0  0  0  0  0  0  0
  152.1784  139.2870  157.5498 C   0  0  0  0  0  0  0  0  0  0  0  0
  152.2660  137.9475  157.4454 C   0  0  0  0  0  0  0  0  0  0  0  0
  152.8730  137.1336  158.4466 C   0  0  0  0  0  0  0  0  0  0  0  0
  153.3551  136.4466  159.2443 N   0  0  0  0  0  0  0  0  0  0  0  0
  151.7212  137.3010  156.2537 C   0  0  0  0  0  0  0  0  0  0  0  0
  151.7826  136.0780  156.1344 O   0  0  0  0  0  0  0  0  0  0  0  0
  151.1580  138.1079  155.3068 N   0  5  0  0  0  0  0  0  0  0  0  0
  151.0793  139.4706  155.4219 C   0  0  0  0  0  0  0  0  0  0  0  0
  150.5775  140.1768  154.5470 O   0  0  0  0  0  0  0  0  0  0  0  0
  150.2217  143.9649  159.3095 H   0  0  0  0  0  0  0  0  0  0  0  0
  151.3504  144.8438  158.2805 H   0  0  0  0  0  0  0  0  0  0  0  0
  150.8659  145.5170  159.8314 H   0  0  0  0  0  0  0  0  0  0  0  0
  153.1281  144.5846  159.9918 H   0  0  0  0  0  0  0  0  0  0  0  0
  151.7179  144.4405  162.0091 H   0  0  0  0  0  0  0  0  0  0  0  0
  151.1242  142.8734  161.5188 H   0  0  0  0  0  0  0  0  0  0  0  0
  154.0172  143.5788  162.2136 H   0  0  0  0  0  0  0  0  0  0  0  0
  152.9351  142.5997  163.1741 H   0  0  0  0  0  0  0  0  0  0  0  0
  154.5333  141.1921  161.8561 H   0  0  0  0  0  0  0  0  0  0  0  0
  152.8736  140.8539  161.4332 H   0  0  0  0  0  0  0  0  0  0  0  0
  154.8214  142.6086  159.8623 H   0  0  0  0  0  0  0  0  0  0  0  0
  154.2314  141.0404  159.3734 H   0  0  0  0  0  0  0  0  0  0  0  0
  153.0835  142.9304  158.2147 H   0  0  0  0  0  0  0  0  0  0  0  0
  149.9232  141.2648  158.1722 H   0  0  0  0  0  0  0  0  0  0  0  0
  150.4929  142.9251  158.0271 H   0  0  0  0  0  0  0  0  0  0  0  0
  151.0428  142.0035  155.9067 H   0  0  0  0  0  0  0  0  0  0  0  0
  152.5503  141.9340  156.7579 H   0  0  0  0  0  0  0  0  0  0  0  0
  152.5625  139.8403  158.3944 H   0  0  0  0  0  0  0  0  0  0  0  0
  1  2  1  0  0  0  0
  1 21  1  0  0  0  0
  1 22  1  0  0  0  0
  1 23  1  0  0  0  0
  2  7  1  0  0  0  0
  2  3  1  0  0  0  0
  2 24  1  0  0  0  0
  3  4  1  0  0  0  0
  3 25  1  0  0  0  0
  3 26  1  0  0  0  0
  4  5  1  0  0  0  0
  4 27  1  0  0  0  0
  4 28  1  0  0  0  0
  5  6  1  0  0  0  0
  5 29  1  0  0  0  0
  5 30  1  0  0  0  0
  6  7  1  0  0  0  0
  6 31  1  0  0  0  0
  6 32  1  0  0  0  0
  7  8  1  0  0  0  0
  7 33  1  0  0  0  0
  8  9  1  0  0  0  0
  9 10  1  0  0  0  0
  9 34  1  0  0  0  0
  9 35  1  0  0  0  0
 10 11  1  0  0  0  0
 10 36  1  0  0  0  0
 10 37  1  0  0  0  0
 11 19  1  0  0  0  0
 11 12  1  0  0  0  0
 12 13  2  0  0  0  0
 12 38  1  0  0  0  0
 13 14  1  0  0  0  0
 13 16  1  0  0  0  0
 14 15  3  0  0  0  0
 16 17  2  0  0  0  0
 16 18  1  0  0  0  0
 18 19  1  0  0  0  0
 19 20  2  0  0  0  0
M  CHG  1  18  -1
M  END
> <s_m_source_file>
AV-unprocessed.smi

> <i_m_source_file_index>
1230

> <i_lp_mmshare_version>
43012

> <i_f3d_flags>
0

> <s_epik_input>
W0NIM11bQ0BASF0xW0NIMl1bQ0gyXVtDSDJdW0NIMl1bQ0BIXTFPW0NIMl1bQ0gyXW4yW2NIXWMoQyNOKWMoPU8pW25IXWMyPU8=

> <s_epik_cmdline>
J2VwaWtfcHl0aG9uJywgJy1waCcsICc3LjAnLCAnLXRuJywgJzgnLCAnLW1hJywgJzIwMCcsICctbWV0YWxfYmluZGluZycsICctaW1hZScsICc8aW5maWxlLm1hZT4nLCAnLW9tYWUnLCAnPG91dGZpbGUubWFlPic=

> <r_epik_Ionization_Penalty>
0.400014

> <r_epik_Ionization_Penalty_Charging>
4.81474e-10

> <r_epik_Ionization_Penalty_Neutral>
0.400014

> <r_epik_State_Penalty>
0.399305

> <r_epik_Charging_Adjusted_Penalty>
0.399305

> <i_epik_Tot_Q>
-1

> <i_epik_Tot_abs_Q>
1

> <r_epik_Metal_State_Penalty>
0.00056968

> <b_epik_Metal_Only>
0

> <s_lp_Force_Field>
OPLS_2005

> <r_lp_Energy>
24.4713

> <b_lp_Chiralities_Consistent>
1

> <s_lp_Variant>
AV-unprocessed.smi:1230-2

> <Gold.Version>
5.8.1

> <Gold.Id.Protein>
6NUR|6NUR_protein|mol2

> <Gold.PLP.Fitness>
49.5824

> <Gold.PLP.PLP>
-41.4500

> <Gold.PLP.part.hbond>
-2.9456

> <Gold.PLP.part.metal>
0.0000

> <Gold.PLP.part.buried>
-6.6895

> <Gold.PLP.part.nonpolar>
-32.0505

> <Gold.PLP.part.repulsive>
0.1675

> <Gold.PLP.ligand.clash>
0.0000

> <Gold.PLP.ligand.torsion>
0.4357

> <Gold.PLP.Chemscore.Hbond>
3.0000

> <Gold.PLP.Chemscore.CHOScore>
0.0000

> <Gold.PLP.Chemscore.Metal>
0.0000

> <Gold.Chemscore.Hbonds>
donor molecule, donor type, donor heavy atom, donor atom, acceptor molecule, acceptor atom, score
      P1  H  6896  6909       L1    15  0.94
      P1  H  7989  7998       L1    20  1.00
      P1  H 10752 10763       L1    17  1.00

> <Gold.PLP.Chemscore.Internal.Correction>
0.0038

> <Gold.Rescore>
     Score         DG    S(hbond)    S(metal)    S(lipo)     H(rot)  DE(clash)    DE(int)     intcor
     19.69     -21.81       2.81        0.00     100.80       1.90       0.30       1.81       ----

> <Gold.Chemscore.Fitness>
19.6938

> <Gold.Chemscore.DG>
-21.8077

> <Gold.Chemscore.ZeroCoef>
-5.4800

> <Gold.Chemscore.Hbond>
2.8125

> <Gold.Chemscore.Metal>
0.0000

> <Gold.Chemscore.Lipo>
100.8013

> <Gold.Chemscore.Internal_Hbond>
0.0000

> <Gold.Chemscore.DEClash>
0.2994

> <Gold.Chemscore.DEInternal>
1.8145

> <Gold.Chemscore.Rot>
1.8984

> <Gold.Chemscore.Internal.Correction>
   9.000000E+99

> <Gold.Chemscore.Hbonds>
donor molecule, donor type, donor heavy atom, donor atom, acceptor molecule, acceptor atom, score
      P1  H  6896  6909       L1    15  0.82
      P1  H  7989  7998       L1    20  0.92
      P1  H 10752 10763       L1    17  0.90

> <Gold.Chemscore.Hbond.Weighted>
-9.3937

> <Gold.Chemscore.Metal.Weighted>
-0.0000

> <Gold.Chemscore.Lipo.Weighted>
-11.7938

> <Gold.Chemscore.Internal_Hbond.Weighted>
0.0000

> <Gold.Chemscore.DEClash.Weighted>
0.2994

> <Gold.Chemscore.DEInternal.Weighted>
1.8145

> <Gold.Chemscore.Rot.Weighted>
4.8598

> <Gold.Chemscore.Internal.Correction.Weighted>
   9.000000E+99

> <Gold.Protein.RotatedTorsions>
[ 6907 6896 6895 6894 ] final  156.19 input  -60.11 | X-H torsion
[ 7974 7965 7964 7962 ] final  133.10 input  175.53 | X-H torsion
[ 8008 7997 7996 7995 ] final  -74.76 input   59.86 | X-H torsion
[ 10167 10162 10161 10158 ] final   64.55 input  -65.29 | X-H torsion
[ 10718 10713 10712 10709 ] final   69.61 input   66.30 | X-H torsion
[ 10763 10752 10751 10750 ] final  103.89 input  -60.55 | X-H torsion
[ 11005 11000 10999 10996 ] final  -62.47 input  -57.11 | X-H torsion

> <Gold.Protein.ActiveResidues>
 VAL166  LYS551  ARG553  GLY616  TRP617  ASP618  TYR619  PRO620  LYS621  CYS622 
 ASP623  PHE694  ASN695  SER759  ASP760  ASP761  ALA762  ILE779  LEU786  VAL792 
 PHE793  MET794  SER795  GLU796  ALA797  LYS798  CYS799  TRP800  GLU811  SER814 

> <Gold.Protein.RotatedAtoms>
  152.0332  133.3946  159.4305 H   0  0  0  0  0  0  0  0  0  0  0  0  # atno 6907 bound_to 6896
  150.6880  134.3497  159.4913 H   0  0  0  0  0  0  0  0  0  0  0  0  # atno 6908 bound_to 6896
  152.1286  134.9151  160.0610 H   0  0  0  0  0  0  0  0  0  0  0  0  # atno 6909 bound_to 6896
  144.9900  139.4416  143.5344 H   0  0  0  0  0  0  0  0  0  0  0  0  # atno 7974 bound_to 7965
  154.5358  140.0756  156.8425 H   0  0  0  0  0  0  0  0  0  0  0  0  # atno 8008 bound_to 7997
  155.3281  140.3400  155.4222 H   0  0  0  0  0  0  0  0  0  0  0  0  # atno 8009 bound_to 7997
  156.1827  140.1658  156.8231 H   0  0  0  0  0  0  0  0  0  0  0  0  # atno 8010 bound_to 7997
  140.1209  144.4732  150.6921 H   0  0  0  0  0  0  0  0  0  0  0  0  # atno 10167 bound_to 10162
  157.6355  130.9434  150.0537 H   0  0  0  0  0  0  0  0  0  0  0  0  # atno 10718 bound_to 10713
  153.3587  135.3961  155.1701 H   0  0  0  0  0  0  0  0  0  0  0  0  # atno 10763 bound_to 10752
  154.8675  135.3674  154.5128 H   0  0  0  0  0  0  0  0  0  0  0  0  # atno 10764 bound_to 10752
  153.5585  135.7081  153.5618 H   0  0  0  0  0  0  0  0  0  0  0  0  # atno 10765 bound_to 10752
  141.1360  133.6640  156.5532 H   0  0  0  0  0  0  0  0  0  0  0  0  # atno 11005 bound_to 11000
  146.3429  139.9226  142.8764 LP  0  0  0  0  0  0  0  0  0  0  0  0  # atno 17320 bound_to 7965
  145.2299  140.9969  143.3997 LP  0  0  0  0  0  0  0  0  0  0  0  0  # atno 17321 bound_to 7965
  140.6872  143.2356  151.5228 LP  0  0  0  0  0  0  0  0  0  0  0  0  # atno 17342 bound_to 10162
  139.5569  144.2253  152.1627 LP  0  0  0  0  0  0  0  0  0  0  0  0  # atno 17343 bound_to 10162
  156.1591  130.3643  149.9326 LP  0  0  0  0  0  0  0  0  0  0  0  0  # atno 17370 bound_to 10713
  156.7328  130.9050  151.3627 LP  0  0  0  0  0  0  0  0  0  0  0  0  # atno 17371 bound_to 10713
  140.4047  134.7325  157.4801 LP  0  0  0  0  0  0  0  0  0  0  0  0  # atno 17394 bound_to 11000
  140.0470  134.6185  155.8908 LP  0  0  0  0  0  0  0  0  0  0  0  0  # atno 17395 bound_to 11000

$$$$
