#       Name:                AV-unprocessed.smi:1123
#       Creating user name   scv26
#       Creation time:       Fri Mar 27 03:39:29 2020


#       File generated by GOLD software.
#

@<TRIPOS>MOLECULE
AV-unprocessed.smi:1123
    44    45     1
SMALL
NO_CHARGES


@<TRIPOS>ATOM
      1 ****        -3.9633  -1.9341   0.1092 C.3            1 S1                 0.0000
      2 ****        -3.2255  -0.8681  -0.7263 C.3            1 S1                 0.0000
      3 ****        -1.7125  -0.8433  -0.4556 C.2            1 S1                 0.0000
      4 ****        -1.1315  -1.8430  -0.0314 O.2            1 S1                 0.0000
      5 ****        -1.0804   0.3147  -0.7065 N.am           1 S1                 0.0000
      6 ****         0.3515   0.5346  -0.5419 C.3            1 S1                 0.0000
      7 ****         0.7258   0.7484   0.9373 C.3            1 S1                 0.0000
      8 ****         2.1765   1.0014   1.1214 N.4            1 S1                 1.0000
      9 ****         2.4709   1.7033   2.3936 C.3            1 S1                 0.0000
     10 ****         3.9778   1.9854   2.5185 C.3            1 S1                 0.0000
     11 ****         4.7008   0.7646   2.4260 O.3            1 S1                 0.0000
     12 ****         4.4992   0.1214   1.1739 C.3            1 S1                 0.0000
     13 ****         3.0096  -0.2214   1.0018 C.3            1 S1                 0.0000
     14 ****        -3.4805  -1.0160  -2.1540 N.pl3          1 S1                 0.0000
     15 ****        -3.7762  -0.0938  -3.0727 C.2            1 S1                 0.0000
     16 ****        -3.9004  -0.5767  -4.3009 N.2            1 S1                 0.0000
     17 ****        -3.6419  -1.8951  -4.0545 C.2            1 S1                 0.0000
     18 ****        -3.3737  -2.2108  -2.7877 N.2            1 S1                 0.0000
     19 ****        -3.8029  -1.7772   1.1764 H              1 S1                 0.0000
     20 ****        -3.6312  -2.9454  -0.1292 H              1 S1                 0.0000
     21 ****        -5.0381  -1.8908  -0.0685 H              1 S1                 0.0000
     22 ****        -3.6233   0.1038  -0.4294 H              1 S1                 0.0000
     23 ****        -1.6270   1.0897  -1.0534 H              1 S1                 0.0000
     24 ****         0.8932  -0.3070  -0.9748 H              1 S1                 0.0000
     25 ****         0.6279   1.4133  -1.1254 H              1 S1                 0.0000
     26 ****         0.1626   1.6066   1.3072 H              1 S1                 0.0000
     27 ****         0.4238  -0.1033   1.5490 H              1 S1                 0.0000
     28 ****         1.9192   2.6431   2.4353 H              1 S1                 0.0000
     29 ****         2.1335   1.0947   3.2343 H              1 S1                 0.0000
     30 ****         4.3107   2.6793   1.7451 H              1 S1                 0.0000
     31 ****         4.1945   2.4520   3.4795 H              1 S1                 0.0000
     32 ****         4.8492   0.7609   0.3619 H              1 S1                 0.0000
     33 ****         5.0997  -0.7879   1.1439 H              1 S1                 0.0000
     34 ****         2.7066  -0.9463   1.7590 H              1 S1                 0.0000
     35 ****         2.8599  -0.6936   0.0317 H              1 S1                 0.0000
     36 ****        -3.8991   0.9536  -2.8394 H              1 S1                 0.0000
     37 ****        -3.6446  -2.6436  -4.8332 H              1 S1                 0.0000
     38 ****         2.4588   1.6279   0.3811 H              1 S1                 0.0000
     39 ****        -1.6444  -2.6840   0.1410 LP             1 S1                 0.0000
     40 ****        -0.1468  -1.8138   0.1406 LP             1 S1                 0.0000
     41 ****         4.3967   0.1528   3.1562 LP             1 S1                 0.0000
     42 ****         5.6758   0.9572   2.5370 LP             1 S1                 0.0000
     43 ****        -4.1196  -0.1112  -5.1584 LP             1 S1                 0.0000
     44 ****        -3.1496  -3.1053  -2.4008 LP             1 S1                 0.0000
@<TRIPOS>BOND
    1    1    2 1     
    2    1   19 1     
    3    1   20 1     
    4    1   21 1     
    5    2    3 1     
    6    2   14 1     
    7    2   22 1     
    8    3    4 2     
    9    3    5 am    
   10    5    6 1     
   11    5   23 1     
   12    6    7 1     
   13    6   24 1     
   14    6   25 1     
   15    7    8 1     
   16    7   26 1     
   17    7   27 1     
   18    8   13 1     
   19    8    9 1     
   20    8   38 1     
   21    9   10 1     
   22    9   28 1     
   23    9   29 1     
   24   10   11 1     
   25   10   30 1     
   26   10   31 1     
   27   11   12 1     
   28   12   13 1     
   29   12   32 1     
   30   12   33 1     
   31   13   34 1     
   32   13   35 1     
   33   14   18 1     
   34   14   15 1     
   35   15   16 2     
   36   15   36 1     
   37   16   17 1     
   38   17   18 2     
   39   17   37 1     
   40    4   39 1     
   41    4   40 1     
   42   11   41 1     
   43   11   42 1     
   44   16   43 1     
   45   18   44 1     
@<TRIPOS>SUBSTRUCTURE
      1 S1             1
@<TRIPOS>SET
LONE_PAIRS      STATIC     ATOMS    <user>   **** ""
6 39 40 41 42 43 44
DONOR_HYDROGENS      STATIC     ATOMS    <user>   **** ""
2 23 38
ATOM$BLUE        STATIC     ATOMS    COLORGROUP SYSTEM
6 39 40 41 42 43 44
ATOM$RED        STATIC     ATOMS    COLORGROUP SYSTEM
2 23 38
