AV-unprocessed.smi:17|AV-procd|sdf|99|dock5
  -GOLD-   2262015243D 1   1.00000     0.00000
 Structure written by MMmdl.
 57 59  0  0  0  0  0  0  0  0  1 V2000
  150.6578  142.9933  158.5788 C   0  0  0  0  0  0  0  0  0  0  0  0
  151.3197  142.8128  157.2053 C   0  0  0  0  0  0  0  0  0  0  0  0
  150.9836  141.5261  156.5893 N   0  0  0  0  0  0  0  0  0  0  0  0
  149.7790  141.3924  155.9701 C   0  0  0  0  0  0  0  0  0  0  0  0
  149.7661  140.9676  154.6789 N   0  0  0  0  0  0  0  0  0  0  0  0
  148.6118  140.8017  154.0283 C   0  0  0  0  0  0  0  0  0  0  0  0
  147.3706  141.0069  154.4688 N   0  0  0  0  0  0  0  0  0  0  0  0
  147.3716  141.4528  155.7569 C   0  0  0  0  0  0  0  0  0  0  0  0
  148.5175  141.6764  156.5739 C   0  0  0  0  0  0  0  0  0  0  0  0
  148.1150  142.1558  157.8166 N   0  0  0  0  0  0  0  0  0  0  0  0
  146.8130  142.1904  157.7460 C   0  0  0  0  0  0  0  0  0  0  0  0
  146.2826  141.7773  156.5466 N   0  0  0  0  0  0  0  0  0  0  0  0
  144.8738  141.7133  156.2000 C   0  0  0  0  0  0  0  0  0  0  0  0
  144.1857  143.1011  156.1862 C   0  0  2  0  0  0  0  0  0  0  0  0
  142.7959  143.0888  156.8694 C   0  0  0  0  0  0  0  0  0  0  0  0
  141.8198  142.4850  156.0456 O   0  0  0  0  0  0  0  0  0  0  0  0
  144.1297  143.6956  154.7564 C   0  0  2  0  0  0  0  0  0  0  0  0
  145.4685  143.7730  154.0439 C   0  0  0  0  0  0  0  0  0  0  0  0
  145.1790  144.7766  152.9346 C   0  0  0  0  0  0  0  0  0  0  0  0
  144.2541  145.7010  153.4947 O   0  0  0  0  0  0  0  0  0  0  0  0
  143.6886  145.1623  154.6866 C   0  0  0  0  0  0  0  0  0  0  0  0
  151.8943  140.3791  156.6792 C   0  0  2  0  0  0  0  0  0  0  0  0
  152.1797  139.7857  155.2897 C   0  0  0  0  0  0  0  0  0  0  0  0
  151.4012  139.3005  157.6677 C   0  0  0  0  0  0  0  0  0  0  0  0
  152.6083  137.9155  157.9020 S   0  0  0  0  0  0  0  0  0  0  0  0
  152.9336  137.9650  159.7129 C   0  0  0  0  0  0  0  0  0  0  0  0
  151.9096  136.6540  157.6140 O   0  0  0  0  0  0  0  0  0  0  0  0
  153.8612  138.2342  157.1997 O   0  0  0  0  0  0  0  0  0  0  0  0
  150.9501  143.9437  159.0251 H   0  0  0  0  0  0  0  0  0  0  0  0
  150.9500  142.1998  159.2667 H   0  0  0  0  0  0  0  0  0  0  0  0
  149.5701  142.9864  158.5018 H   0  0  0  0  0  0  0  0  0  0  0  0
  151.0416  143.6344  156.5452 H   0  0  0  0  0  0  0  0  0  0  0  0
  152.3997  142.8869  157.3271 H   0  0  0  0  0  0  0  0  0  0  0  0
  148.6944  140.4533  153.0094 H   0  0  0  0  0  0  0  0  0  0  0  0
  146.1989  142.5170  158.5727 H   0  0  0  0  0  0  0  0  0  0  0  0
  144.7992  141.2375  155.2221 H   0  0  0  0  0  0  0  0  0  0  0  0
  144.3696  141.0491  156.9028 H   0  0  0  0  0  0  0  0  0  0  0  0
  144.8114  143.7656  156.7839 H   0  0  0  0  0  0  0  0  0  0  0  0
  142.8297  142.5561  157.8198 H   0  0  0  0  0  0  0  0  0  0  0  0
  142.4719  144.1018  157.1070 H   0  0  0  0  0  0  0  0  0  0  0  0
  141.1823  143.1401  155.8051 H   0  0  0  0  0  0  0  0  0  0  0  0
  143.4529  143.1010  154.1404 H   0  0  0  0  0  0  0  0  0  0  0  0
  146.2375  144.1638  154.7119 H   0  0  0  0  0  0  0  0  0  0  0  0
  145.8073  142.8122  153.6555 H   0  0  0  0  0  0  0  0  0  0  0  0
  146.0791  145.2759  152.5757 H   0  0  0  0  0  0  0  0  0  0  0  0
  144.7051  144.2795  152.0871 H   0  0  0  0  0  0  0  0  0  0  0  0
  142.6034  145.2686  154.6867 H   0  0  0  0  0  0  0  0  0  0  0  0
  144.0815  145.7275  155.5328 H   0  0  0  0  0  0  0  0  0  0  0  0
  152.8530  140.7097  157.0728 H   0  0  0  0  0  0  0  0  0  0  0  0
  152.9316  138.9987  155.3481 H   0  0  0  0  0  0  0  0  0  0  0  0
  152.5564  140.5476  154.6066 H   0  0  0  0  0  0  0  0  0  0  0  0
  151.2836  139.3525  154.8450 H   0  0  0  0  0  0  0  0  0  0  0  0
  151.1339  139.7080  158.6418 H   0  0  0  0  0  0  0  0  0  0  0  0
  150.4958  138.8453  157.2653 H   0  0  0  0  0  0  0  0  0  0  0  0
  153.5623  137.1182  159.9871 H   0  0  0  0  0  0  0  0  0  0  0  0
  151.9918  137.9037  160.2575 H   0  0  0  0  0  0  0  0  0  0  0  0
  153.4480  138.8860  159.9770 H   0  0  0  0  0  0  0  0  0  0  0  0
  1  2  1  0  0  0  0
  1 29  1  0  0  0  0
  1 30  1  0  0  0  0
  1 31  1  0  0  0  0
  2  3  1  0  0  0  0
  2 32  1  0  0  0  0
  2 33  1  0  0  0  0
  3  4  1  0  0  0  0
  3 22  1  0  0  0  0
  4  9  1  0  0  0  0
  4  5  2  0  0  0  0
  5  6  1  0  0  0  0
  6  7  2  0  0  0  0
  6 34  1  0  0  0  0
  7  8  1  0  0  0  0
  8 12  1  0  0  0  0
  8  9  2  0  0  0  0
  9 10  1  0  0  0  0
 10 11  2  0  0  0  0
 11 12  1  0  0  0  0
 11 35  1  0  0  0  0
 12 13  1  0  0  0  0
 13 14  1  0  0  0  0
 13 36  1  0  0  0  0
 13 37  1  0  0  0  0
 14 15  1  0  0  0  0
 14 17  1  0  0  0  0
 14 38  1  0  0  0  0
 15 16  1  0  0  0  0
 15 39  1  0  0  0  0
 15 40  1  0  0  0  0
 16 41  1  0  0  0  0
 17 21  1  0  0  0  0
 17 18  1  0  0  0  0
 17 42  1  0  0  0  0
 18 19  1  0  0  0  0
 18 43  1  0  0  0  0
 18 44  1  0  0  0  0
 19 20  1  0  0  0  0
 19 45  1  0  0  0  0
 19 46  1  0  0  0  0
 20 21  1  0  0  0  0
 21 47  1  0  0  0  0
 21 48  1  0  0  0  0
 22 23  1  0  0  0  0
 22 24  1  0  0  0  0
 22 49  1  0  0  0  0
 23 50  1  0  0  0  0
 23 51  1  0  0  0  0
 23 52  1  0  0  0  0
 24 25  1  0  0  0  0
 24 53  1  0  0  0  0
 24 54  1  0  0  0  0
 25 26  1  0  0  0  0
 25 27  2  0  0  0  0
 25 28  2  0  0  0  0
 26 55  1  0  0  0  0
 26 56  1  0  0  0  0
 26 57  1  0  0  0  0
M  END
> <s_m_source_file>
AV-unprocessed.smi

> <i_m_source_file_index>
17

> <i_lp_mmshare_version>
43012

> <i_f3d_flags>
0

> <s_epik_input>
W0NIM11TKD1PKSg9TylbQ0gyXVtDQEBIXShbQ0gzXSlOKFtDSDJdW0NIM10pYyhuW2NIXW4xKWMoYzEyKW5bY0hdbjJbQ0gyXVtDQEhdKFtDSDJdW09IXSlbQ0BASF0zW0NIMl1bQ0gyXU9bQ0gyXTM=

> <s_epik_cmdline>
J2VwaWtfcHl0aG9uJywgJy1waCcsICc3LjAnLCAnLXRuJywgJzgnLCAnLW1hJywgJzIwMCcsICctbWV0YWxfYmluZGluZycsICctaW1hZScsICc8aW5maWxlLm1hZT4nLCAnLW9tYWUnLCAnPG91dGZpbGUubWFlPic=

> <r_lp_tautomer_probability>
1

> <r_epik_Ionization_Penalty>
0.00119955

> <r_epik_Ionization_Penalty_Charging>
0

> <r_epik_Ionization_Penalty_Neutral>
0.00119955

> <r_epik_State_Penalty>
0.000665399

> <r_epik_Charging_Adjusted_Penalty>
0.000665399

> <i_epik_Tot_Q>
0

> <i_epik_Tot_abs_Q>
0

> <r_epik_Metal_State_Penalty>
-0

> <b_epik_Metal_Only>
0

> <s_lp_Force_Field>
OPLS_2005

> <r_lp_Energy>
33.2615

> <b_lp_Chiralities_Consistent>
1

> <s_lp_Variant>
AV-unprocessed.smi:17-1

> <Gold.Version>
5.8.1

> <Gold.Id.Protein>
6NUR|6NUR_protein|mol2

> <Gold.PLP.Fitness>
44.7092

> <Gold.PLP.PLP>
-41.5976

> <Gold.PLP.part.hbond>
-3.5476

> <Gold.PLP.part.metal>
0.0000

> <Gold.PLP.part.buried>
-3.5410

> <Gold.PLP.part.nonpolar>
-34.0440

> <Gold.PLP.part.repulsive>
0.5327

> <Gold.PLP.ligand.clash>
0.0000

> <Gold.PLP.ligand.torsion>
2.2372

> <Gold.PLP.Chemscore.Hbond>
1.3331

> <Gold.PLP.Chemscore.CHOScore>
1.0000

> <Gold.PLP.Chemscore.Metal>
0.0000

> <Gold.Chemscore.Hbonds>
donor molecule, donor type, donor heavy atom, donor atom, acceptor molecule, acceptor atom, score
      P1  H  7989  7998       L1     5  0.37
      P1  H  7997  8010       L1    28  0.77
      L1  C     6    34       P1  7957  1.00

> <Gold.PLP.Chemscore.Internal.Correction>
0.5867

> <Gold.Rescore>
     Score         DG    S(hbond)    S(metal)    S(lipo)     H(rot)  DE(clash)    DE(int)     intcor
      3.65      -8.64       1.02        0.00      74.74       3.51       0.10       4.89       ----

> <Gold.Chemscore.Fitness>
3.6535

> <Gold.Chemscore.DG>
-8.6419

> <Gold.Chemscore.ZeroCoef>
-5.4800

> <Gold.Chemscore.Hbond>
1.0157

> <Gold.Chemscore.Metal>
0.0000

> <Gold.Chemscore.Lipo>
74.7390

> <Gold.Chemscore.Internal_Hbond>
0.0000

> <Gold.Chemscore.DEClash>
0.0958

> <Gold.Chemscore.DEInternal>
4.8926

> <Gold.Chemscore.Rot>
3.5059

> <Gold.Chemscore.Internal.Correction>
   9.000000E+99

> <Gold.Chemscore.Hbonds>
donor molecule, donor type, donor heavy atom, donor atom, acceptor molecule, acceptor atom, score
      P1  H  7989  7998       L1     5  0.35
      P1  H  7997  8010       L1    28  0.75

> <Gold.Chemscore.Hbond.Weighted>
-3.3924

> <Gold.Chemscore.Metal.Weighted>
-0.0000

> <Gold.Chemscore.Lipo.Weighted>
-8.7445

> <Gold.Chemscore.Internal_Hbond.Weighted>
0.0000

> <Gold.Chemscore.DEClash.Weighted>
0.0958

> <Gold.Chemscore.DEInternal.Weighted>
4.8926

> <Gold.Chemscore.Rot.Weighted>
8.9750

> <Gold.Chemscore.Internal.Correction.Weighted>
   9.000000E+99

> <Gold.Protein.RotatedTorsions>
[ 6907 6896 6895 6894 ] final  -78.61 input  -60.11 | X-H torsion
[ 7974 7965 7964 7962 ] final -153.27 input  175.53 | X-H torsion
[ 8008 7997 7996 7995 ] final   31.79 input   59.86 | X-H torsion
[ 10167 10162 10161 10158 ] final   37.27 input  -65.29 | X-H torsion
[ 10718 10713 10712 10709 ] final   27.04 input   66.30 | X-H torsion
[ 10763 10752 10751 10750 ] final   97.56 input  -60.55 | X-H torsion
[ 11005 11000 10999 10996 ] final  171.09 input  -57.11 | X-H torsion

> <Gold.Protein.ActiveResidues>
 VAL166  LYS551  ARG553  GLY616  TRP617  ASP618  TYR619  PRO620  LYS621  CYS622 
 ASP623  PHE694  ASN695  SER759  ASP760  ASP761  ALA762  ILE779  LEU786  VAL792 
 PHE793  MET794  SER795  GLU796  ALA797  LYS798  CYS799  TRP800  GLU811  SER814 

> <Gold.Protein.RotatedAtoms>
  150.6969  134.4246  159.5220 H   0  0  0  0  0  0  0  0  0  0  0  0  # atno 6907 bound_to 6896
  152.1983  134.8608  160.0519 H   0  0  0  0  0  0  0  0  0  0  0  0  # atno 6908 bound_to 6896
  151.9538  133.3639  159.4046 H   0  0  0  0  0  0  0  0  0  0  0  0  # atno 6909 bound_to 6896
  144.7749  140.4548  143.5880 H   0  0  0  0  0  0  0  0  0  0  0  0  # atno 7974 bound_to 7965
  155.1121  140.3240  155.4519 H   0  0  0  0  0  0  0  0  0  0  0  0  # atno 8008 bound_to 7997
  156.2687  140.2042  156.6193 H   0  0  0  0  0  0  0  0  0  0  0  0  # atno 8009 bound_to 7997
  154.6748  140.0532  157.0191 H   0  0  0  0  0  0  0  0  0  0  0  0  # atno 8010 bound_to 7997
  140.4048  144.1674  150.6135 H   0  0  0  0  0  0  0  0  0  0  0  0  # atno 10167 bound_to 10162
  157.2148  130.6951  149.6244 H   0  0  0  0  0  0  0  0  0  0  0  0  # atno 10718 bound_to 10713
  153.2784  135.4179  155.1055 H   0  0  0  0  0  0  0  0  0  0  0  0  # atno 10763 bound_to 10752
  154.8480  135.3489  154.6147 H   0  0  0  0  0  0  0  0  0  0  0  0  # atno 10764 bound_to 10752
  153.6567  135.7050  153.5248 H   0  0  0  0  0  0  0  0  0  0  0  0  # atno 10765 bound_to 10752
  140.3153  134.7483  157.4022 H   0  0  0  0  0  0  0  0  0  0  0  0  # atno 11005 bound_to 11000
  145.6214  139.1524  143.3020 LP  0  0  0  0  0  0  0  0  0  0  0  0  # atno 17320 bound_to 7965
  146.1922  140.6324  142.9140 LP  0  0  0  0  0  0  0  0  0  0  0  0  # atno 17321 bound_to 7965
  140.4701  143.2416  151.9101 LP  0  0  0  0  0  0  0  0  0  0  0  0  # atno 17342 bound_to 10162
  139.4783  144.5378  151.8572 LP  0  0  0  0  0  0  0  0  0  0  0  0  # atno 17343 bound_to 10162
  155.9687  130.4539  150.5830 LP  0  0  0  0  0  0  0  0  0  0  0  0  # atno 17370 bound_to 10713
  157.3635  131.0754  151.1616 LP  0  0  0  0  0  0  0  0  0  0  0  0  # atno 17371 bound_to 10713
  140.0989  134.5499  155.8372 LP  0  0  0  0  0  0  0  0  0  0  0  0  # atno 17394 bound_to 11000
  141.2099  133.6689  156.6471 LP  0  0  0  0  0  0  0  0  0  0  0  0  # atno 17395 bound_to 11000

$$$$
