#       Name:                AV-unprocessed.smi:1758
#       Creating user name   scv26
#       Creation time:       Fri Mar 27 08:30:04 2020


#       File generated by GOLD software.
#

@<TRIPOS>MOLECULE
AV-unprocessed.smi:1758
    47    49     1
SMALL
NO_CHARGES


@<TRIPOS>ATOM
      1 ****        -5.7628   0.3228  -3.4286 C.3            1 S1                 0.0000
      2 ****        -5.2685  -1.1138  -3.2229 C.3            1 S1                 0.0000
      3 ****        -3.8215  -1.1786  -3.1640 N.pl3          1 S1                 0.0000
      4 ****        -3.0124  -1.1636  -2.0455 C.2            1 S1                 0.0000
      5 ****        -1.7315  -1.2387  -2.5152 C.2            1 S1                 0.0000
      6 ****        -0.5104  -1.2624  -1.7954 N.am           1 S1                 0.0000
      7 ****        -0.3469  -1.1422  -0.4679 C.2            1 S1                 0.0000
      8 ****        -1.2551  -0.9794   0.3471 O.2            1 S1                 0.0000
      9 ****         0.9473  -1.2069  -0.1252 N.am           1 S1                 0.0000
     10 ****         1.4477  -1.0920   1.2421 C.3            1 S1                 0.0000
     11 ****         2.8939  -1.5434   1.4001 C.3            1 S1                 0.0000
     12 ****         3.3123  -0.9014   2.7272 C.3            1 S1                 0.0000
     13 ****         2.4671   0.3050   2.9077 N.4            1 S1                 1.0000
     14 ****         3.2397   1.5595   3.1138 C.3            1 S1                 0.0000
     15 ****         2.3532   2.7940   2.8930 C.3            1 S1                 0.0000
     16 ****         1.8157   2.8517   1.4506 C.3            1 S1                 0.0000
     17 ****         1.7724   1.4643   0.7813 C.3            1 S1                 0.0000
     18 ****         1.4655   0.3428   1.8042 C.3            1 S1                 0.0000
     19 ****        -1.8405  -1.2985  -3.9290 C.2            1 S1                 0.0000
     20 ****        -3.1070  -1.2581  -4.3139 N.2            1 S1                 0.0000
     21 ****        -6.8516   0.3554  -3.4702 H              1 S1                 0.0000
     22 ****        -5.3814   0.7415  -4.3604 H              1 S1                 0.0000
     23 ****        -5.4413   0.9705  -2.6124 H              1 S1                 0.0000
     24 ****        -5.6733  -1.5221  -2.2963 H              1 S1                 0.0000
     25 ****        -5.6192  -1.7558  -4.0322 H              1 S1                 0.0000
     26 ****        -3.4172  -1.1025  -1.0462 H              1 S1                 0.0000
     27 ****         0.3250  -1.3736  -2.3514 H              1 S1                 0.0000
     28 ****         1.6305  -1.3432  -0.8561 H              1 S1                 0.0000
     29 ****         0.8338  -1.7162   1.8951 H              1 S1                 0.0000
     30 ****         3.0027  -2.6285   1.4045 H              1 S1                 0.0000
     31 ****         3.5059  -1.1467   0.5886 H              1 S1                 0.0000
     32 ****         3.1040  -1.5811   3.5542 H              1 S1                 0.0000
     33 ****         4.3812  -0.6848   2.7474 H              1 S1                 0.0000
     34 ****         3.6539   1.5591   4.1225 H              1 S1                 0.0000
     35 ****         4.0856   1.5996   2.4251 H              1 S1                 0.0000
     36 ****         1.5169   2.7593   3.5926 H              1 S1                 0.0000
     37 ****         2.9037   3.7069   3.1224 H              1 S1                 0.0000
     38 ****         0.8182   3.2925   1.4615 H              1 S1                 0.0000
     39 ****         2.4342   3.5162   0.8465 H              1 S1                 0.0000
     40 ****         1.0337   1.4820  -0.0203 H              1 S1                 0.0000
     41 ****         2.7325   1.2633   0.3037 H              1 S1                 0.0000
     42 ****         0.4904   0.5589   2.2436 H              1 S1                 0.0000
     43 ****        -1.0608  -1.3659  -4.6733 H              1 S1                 0.0000
     44 ****         1.9353   0.1526   3.7529 H              1 S1                 0.0000
     45 ****        -2.2037  -0.9273   0.0349 LP             1 S1                 0.0000
     46 ****        -1.0443  -0.8992   1.3213 LP             1 S1                 0.0000
     47 ****        -3.4599  -1.2812  -5.2493 LP             1 S1                 0.0000
@<TRIPOS>BOND
    1    1    2 1     
    2    1   21 1     
    3    1   22 1     
    4    1   23 1     
    5    2    3 1     
    6    2   24 1     
    7    2   25 1     
    8    3   20 1     
    9    3    4 1     
   10    4    5 2     
   11    4   26 1     
   12    5    6 1     
   13    5   19 1     
   14    6    7 am    
   15    6   27 1     
   16    7    8 2     
   17    7    9 am    
   18    9   10 1     
   19    9   28 1     
   20   10   18 1     
   21   10   11 1     
   22   10   29 1     
   23   11   12 1     
   24   11   30 1     
   25   11   31 1     
   26   12   13 1     
   27   12   32 1     
   28   12   33 1     
   29   13   18 1     
   30   13   14 1     
   31   13   44 1     
   32   14   15 1     
   33   14   34 1     
   34   14   35 1     
   35   15   16 1     
   36   15   36 1     
   37   15   37 1     
   38   16   17 1     
   39   16   38 1     
   40   16   39 1     
   41   17   18 1     
   42   17   40 1     
   43   17   41 1     
   44   18   42 1     
   45   19   20 2     
   46   19   43 1     
   47    8   45 1     
   48    8   46 1     
   49   20   47 1     
@<TRIPOS>SUBSTRUCTURE
      1 S1             1
@<TRIPOS>SET
LONE_PAIRS      STATIC     ATOMS    <user>   **** ""
3 45 46 47
DONOR_HYDROGENS      STATIC     ATOMS    <user>   **** ""
3 27 28 44
ATOM$BLUE        STATIC     ATOMS    COLORGROUP SYSTEM
3 45 46 47
ATOM$RED        STATIC     ATOMS    COLORGROUP SYSTEM
3 27 28 44
