#       Name:                AV-unprocessed.smi:3111
#       Creating user name   scv26
#       Creation time:       Fri Mar 27 17:20:56 2020


#       File generated by GOLD software.
#

@<TRIPOS>MOLECULE
AV-unprocessed.smi:3111
    34    34     1
SMALL
NO_CHARGES


@<TRIPOS>ATOM
      1 ****        -4.1786   3.2994  -0.6107 C.3            1 S1                 0.0000
      2 ****        -3.6301   1.9796  -0.3392 N.am           1 S1                 0.0000
      3 ****        -2.4710   1.7613   0.2972 C.2            1 S1                 0.0000
      4 ****        -1.7574   2.6692   0.7266 O.2            1 S1                 0.0000
      5 ****        -2.0744   0.2924   0.4929 C.3            1 S1                 0.0000
      6 ****        -0.6381   0.1147   0.6938 N.am           1 S1                 0.0000
      7 ****         0.2795   0.0746  -0.2857 C.2            1 S1                 0.0000
      8 ****        -0.0076   0.1545  -1.4806 O.2            1 S1                 0.0000
      9 ****         1.7426  -0.0884   0.1538 C.3            1 S1                 0.0000
     10 ****         2.7218   0.6739  -0.7592 C.3            1 S1                 0.0000
     11 ****         2.0975  -1.5129   0.2661 N.pl3          1 S1                 0.0000
     12 ****         2.4064  -2.1960   1.4156 C.2            1 S1                 0.0000
     13 ****         2.6592  -3.4925   1.0479 C.2            1 S1                 0.0000
     14 ****         2.4912  -3.5502  -0.3093 N.pl3          1 S1                 1.0000
     15 ****         2.1486  -2.3481  -0.7831 C.2            1 S1                 0.0000
     16 ****        -5.0993   3.2086  -1.1875 H              1 S1                 0.0000
     17 ****        -3.4753   3.9039  -1.1852 H              1 S1                 0.0000
     18 ****        -4.4085   3.8212   0.3192 H              1 S1                 0.0000
     19 ****        -4.1630   1.1831  -0.6576 H              1 S1                 0.0000
     20 ****        -2.5933  -0.0912   1.3714 H              1 S1                 0.0000
     21 ****        -2.4126  -0.3044  -0.3563 H              1 S1                 0.0000
     22 ****        -0.3191   0.0480   1.6494 H              1 S1                 0.0000
     23 ****         1.8355   0.3365   1.1550 H              1 S1                 0.0000
     24 ****         2.4695   1.7340  -0.8066 H              1 S1                 0.0000
     25 ****         2.7176   0.2883  -1.7794 H              1 S1                 0.0000
     26 ****         3.7424   0.5989  -0.3828 H              1 S1                 0.0000
     27 ****         2.4240  -1.7216   2.3862 H              1 S1                 0.0000
     28 ****         2.9373  -4.3556   1.6352 H              1 S1                 0.0000
     29 ****         1.9495  -2.1011  -1.8111 H              1 S1                 0.0000
     30 ****         2.6069  -4.3815  -0.8754 H              1 S1                 0.0000
     31 ****        -2.0349   3.6225   0.6068 LP             1 S1                 0.0000
     32 ****        -0.9008   2.4529   1.1949 LP             1 S1                 0.0000
     33 ****        -0.9627   0.2545  -1.7598 LP             1 S1                 0.0000
     34 ****         0.7143   0.1194  -2.1717 LP             1 S1                 0.0000
@<TRIPOS>BOND
    1    1    2 1     
    2    1   16 1     
    3    1   17 1     
    4    1   18 1     
    5    2    3 am    
    6    2   19 1     
    7    3    4 2     
    8    3    5 1     
    9    5    6 1     
   10    5   20 1     
   11    5   21 1     
   12    6    7 am    
   13    6   22 1     
   14    7    8 2     
   15    7    9 1     
   16    9   10 1     
   17    9   11 1     
   18    9   23 1     
   19   10   24 1     
   20   10   25 1     
   21   10   26 1     
   22   11   15 1     
   23   11   12 1     
   24   12   13 2     
   25   12   27 1     
   26   13   14 1     
   27   13   28 1     
   28   14   15 2     
   29   14   30 1     
   30   15   29 1     
   31    4   31 1     
   32    4   32 1     
   33    8   33 1     
   34    8   34 1     
@<TRIPOS>SUBSTRUCTURE
      1 S1             1
@<TRIPOS>SET
LONE_PAIRS      STATIC     ATOMS    <user>   **** ""
4 31 32 33 34
DONOR_HYDROGENS      STATIC     ATOMS    <user>   **** ""
3 19 22 30
ATOM$BLUE        STATIC     ATOMS    COLORGROUP SYSTEM
4 31 32 33 34
ATOM$RED        STATIC     ATOMS    COLORGROUP SYSTEM
3 19 22 30
