#       Name:                AV-unprocessed.smi:113
#       Creating user name   scv26
#       Creation time:       Thu Mar 26 18:21:50 2020


#       File generated by GOLD software.
#

@<TRIPOS>MOLECULE
AV-unprocessed.smi:113
    63    66     1
SMALL
NO_CHARGES


@<TRIPOS>ATOM
      1 ****        -1.9736  -0.7793   4.1540 C.3            1 S1                 0.0000
      2 ****        -2.4121  -1.4041   2.8467 C.ar           1 S1                 0.0000
      3 ****        -1.8800  -1.0013   1.6069 C.ar           1 S1                 0.0000
      4 ****        -2.3236  -1.6195   0.4115 C.ar           1 S1                 0.0000
      5 ****        -1.7585  -1.2018  -0.9506 C.3            1 S1                 0.0000
      6 ****        -0.8552  -0.0595  -0.9650 N.am           1 S1                 0.0000
      7 ****        -1.4276   1.2301  -1.0897 C.2            1 S1                 0.0000
      8 ****        -2.6478   1.3878  -1.1682 O.2            1 S1                 0.0000
      9 ****        -0.4697   2.3384  -1.0999 C.2            1 S1                 0.0000
     10 ****        -1.0072   3.7497  -1.2785 C.3            1 S1                 0.0000
     11 ****         0.8533   2.0841  -0.9595 C.2            1 S1                 0.0000
     12 ****         1.3816   0.8150  -0.7947 N.am           1 S1                 0.0000
     13 ****         2.8700   0.6066  -0.6267 C.3            1 S1                 0.0000
     14 ****         3.5741   0.5984  -1.9847 C.3            1 S1                 0.0000
     15 ****         4.8597   1.3312  -1.6619 C.3            1 S1                 0.0000
     16 ****         5.4048   1.9252  -2.8224 O.3            1 S1                 0.0000
     17 ****         4.3823   2.3635  -0.6362 C.3            1 S1                 0.0000
     18 ****         5.4749   2.8931   0.3052 C.3            1 S1                 0.0000
     19 ****         6.3424   3.7662  -0.3861 O.3            1 S1                 0.0000
     20 ****         3.4001   1.6611   0.1234 O.3            1 S1                 0.0000
     21 ****         0.5276  -0.3066  -0.8093 C.2            1 S1                 0.0000
     22 ****         0.9736  -1.4491  -0.6810 O.2            1 S1                 0.0000
     23 ****        -3.3048  -2.6446   0.5070 C.ar           1 S1                 0.0000
     24 ****        -3.8006  -3.3243  -0.6317 C.2            1 S1                 0.0000
     25 ****        -4.7769  -4.3309  -0.4958 C.2            1 S1                 0.0000
     26 ****        -5.2708  -4.6736   0.7765 C.2            1 S1                 0.0000
     27 ****        -4.7867  -4.0106   1.9194 C.2            1 S1                 0.0000
     28 ****        -3.8094  -3.0043   1.7860 C.ar           1 S1                 0.0000
     29 ****        -3.3466  -2.3755   2.8871 N.pl3          1 S1                 1.0000
     30 ****        -1.0254  -0.2537   4.0364 H              1 S1                 0.0000
     31 ****        -1.8437  -1.5427   4.9218 H              1 S1                 0.0000
     32 ****        -2.7208  -0.0651   4.5003 H              1 S1                 0.0000
     33 ****        -1.1343  -0.2207   1.5898 H              1 S1                 0.0000
     34 ****        -1.2375  -2.0419  -1.4121 H              1 S1                 0.0000
     35 ****        -2.5692  -0.9749  -1.6448 H              1 S1                 0.0000
     36 ****        -0.2116   4.4946  -1.2467 H              1 S1                 0.0000
     37 ****        -1.7201   3.9912  -0.4892 H              1 S1                 0.0000
     38 ****        -1.5145   3.8448  -2.2393 H              1 S1                 0.0000
     39 ****         1.5307   2.9242  -0.9819 H              1 S1                 0.0000
     40 ****         3.0161  -0.3101  -0.0541 H              1 S1                 0.0000
     41 ****         3.7217  -0.4185  -2.3494 H              1 S1                 0.0000
     42 ****         2.9791   1.1562  -2.7104 H              1 S1                 0.0000
     43 ****         5.5796   0.6443  -1.2143 H              1 S1                 0.0000
     44 ****         4.7613   2.5100  -3.1929 H              1 S1                 0.0000
     45 ****         3.8810   3.1918  -1.1398 H              1 S1                 0.0000
     46 ****         5.0219   3.4486   1.1268 H              1 S1                 0.0000
     47 ****         6.0467   2.0755   0.7452 H              1 S1                 0.0000
     48 ****         6.7470   3.2892  -1.0950 H              1 S1                 0.0000
     49 ****        -3.4453  -3.0906  -1.6237 H              1 S1                 0.0000
     50 ****        -5.1483  -4.8418  -1.3723 H              1 S1                 0.0000
     51 ****        -6.0198  -5.4459   0.8757 H              1 S1                 0.0000
     52 ****        -5.1687  -4.2788   2.8940 H              1 S1                 0.0000
     53 ****        -3.7204  -2.6500   3.7953 H              1 S1                 0.0000
     54 ****        -3.2569   0.5951  -1.1444 LP             1 S1                 0.0000
     55 ****        -3.0284   2.3084  -1.2557 LP             1 S1                 0.0000
     56 ****         5.6368   1.2150  -3.4871 LP             1 S1                 0.0000
     57 ****         6.2285   2.4391  -2.5826 LP             1 S1                 0.0000
     58 ****         7.0469   4.1051   0.2375 LP             1 S1                 0.0000
     59 ****         5.8224   4.5378  -0.7525 LP             1 S1                 0.0000
     60 ****         3.8232   1.2961   0.9527 LP             1 S1                 0.0000
     61 ****         2.6644   2.2904   0.3738 LP             1 S1                 0.0000
     62 ****         0.3516  -2.2321  -0.6854 LP             1 S1                 0.0000
     63 ****         1.9573  -1.5926  -0.5726 LP             1 S1                 0.0000
@<TRIPOS>BOND
    1    1    2 1     
    2    1   30 1     
    3    1   31 1     
    4    1   32 1     
    5    2   29 ar    
    6    2    3 ar    
    7    3    4 ar    
    8    3   33 1     
    9    4    5 1     
   10    4   23 ar    
   11    5    6 1     
   12    5   34 1     
   13    5   35 1     
   14    6   21 am    
   15    6    7 am    
   16    7    8 2     
   17    7    9 1     
   18    9   10 1     
   19    9   11 2     
   20   10   36 1     
   21   10   37 1     
   22   10   38 1     
   23   11   12 1     
   24   11   39 1     
   25   12   13 1     
   26   12   21 am    
   27   13   20 1     
   28   13   14 1     
   29   13   40 1     
   30   14   15 1     
   31   14   41 1     
   32   14   42 1     
   33   15   16 1     
   34   15   17 1     
   35   15   43 1     
   36   16   44 1     
   37   17   18 1     
   38   17   20 1     
   39   17   45 1     
   40   18   19 1     
   41   18   46 1     
   42   18   47 1     
   43   19   48 1     
   44   21   22 2     
   45   23   28 ar    
   46   23   24 1     
   47   24   25 2     
   48   24   49 1     
   49   25   26 1     
   50   25   50 1     
   51   26   27 2     
   52   26   51 1     
   53   27   28 1     
   54   27   52 1     
   55   28   29 ar    
   56   29   53 1     
   57    8   54 1     
   58    8   55 1     
   59   16   56 1     
   60   16   57 1     
   61   19   58 1     
   62   19   59 1     
   63   20   60 1     
   64   20   61 1     
   65   22   62 1     
   66   22   63 1     
@<TRIPOS>SUBSTRUCTURE
      1 S1             1
@<TRIPOS>SET
LONE_PAIRS      STATIC     ATOMS    <user>   **** ""
10 54 55 56 57 58 59 60 61 62 63
DONOR_HYDROGENS      STATIC     ATOMS    <user>   **** ""
3 44 48 53
ATOM$BLUE        STATIC     ATOMS    COLORGROUP SYSTEM
10 54 55 56 57 58 59 60 61 62 63
ATOM$RED        STATIC     ATOMS    COLORGROUP SYSTEM
3 44 48 53
