#       Name:                AV-unprocessed.smi:1969
#       Creating user name   scv26
#       Creation time:       Fri Mar 27 10:12:58 2020


#       File generated by GOLD software.
#

@<TRIPOS>MOLECULE
AV-unprocessed.smi:1969
    52    53     1
SMALL
NO_CHARGES


@<TRIPOS>ATOM
      1 ****        -5.2941   1.5559  -2.2212 C.3            1 S1                 0.0000
      2 ****        -4.6758   0.8177  -1.0294 C.3            1 S1                 0.0000
      3 ****        -3.1406   0.9306  -1.0169 C.3            1 S1                 0.0000
      4 ****        -2.6060   0.3073   0.1854 N.3            1 S1                 0.0000
      5 ****        -1.2066   0.2243   0.1976 C.ar           1 S1                 0.0000
      6 ****        -0.5979  -1.0471   0.1838 C.ar           1 S1                 0.0000
      7 ****         0.8075  -1.1241   0.1948 C.ar           1 S1                 0.0000
      8 ****         1.5618   0.0662   0.2096 C.ar           1 S1                 0.0000
      9 ****         2.9779  -0.0420   0.2401 N.am           1 S1                 0.0000
     10 ****         3.8991   0.8647  -0.1373 C.2            1 S1                 0.0000
     11 ****         3.6395   1.9778  -0.5924 O.2            1 S1                 0.0000
     12 ****         5.3621   0.4473   0.0219 C.3            1 S1                 0.0000
     13 ****         5.4933  -0.9397  -0.2521 O.3            1 S1                 0.0000
     14 ****         6.8284  -1.4008  -0.1215 C.3            1 S1                 0.0000
     15 ****         6.8783  -2.9048  -0.4159 C.3            1 S1                 0.0000
     16 ****         8.1329  -3.3359  -0.2923 F              1 S1                 0.0000
     17 ****         6.1102  -3.5683   0.4479 F              1 S1                 0.0000
     18 ****         6.4635  -3.1443  -1.6596 F              1 S1                 0.0000
     19 ****         0.8559   1.2937   0.2352 C.ar           1 S1                 0.0000
     20 ****        -0.4919   1.3740   0.2266 N.ar           1 S1                 0.0000
     21 ****        -3.1652   0.8823   1.4022 C.3            1 S1                 0.0000
     22 ****        -4.7051   0.8145   1.3801 C.3            1 S1                 0.0000
     23 ****        -5.2617  -0.5995   1.6245 C.3            1 S1                 0.0000
     24 ****        -5.2049   1.3881   0.1685 O.3            1 S1                 0.0000
     25 ****        -4.9294   1.1504  -3.1652 H              1 S1                 0.0000
     26 ****        -5.0513   2.6187  -2.1966 H              1 S1                 0.0000
     27 ****        -6.3802   1.4617  -2.2170 H              1 S1                 0.0000
     28 ****        -4.9647  -0.2314  -1.0946 H              1 S1                 0.0000
     29 ****        -2.7206   0.4471  -1.9000 H              1 S1                 0.0000
     30 ****        -2.8423   1.9798  -1.0502 H              1 S1                 0.0000
     31 ****        -1.1950  -1.9472   0.1654 H              1 S1                 0.0000
     32 ****         1.2972  -2.0871   0.1866 H              1 S1                 0.0000
     33 ****         3.3390  -0.9439   0.5160 H              1 S1                 0.0000
     34 ****         5.9850   1.0277  -0.6610 H              1 S1                 0.0000
     35 ****         5.6848   0.6680   1.0404 H              1 S1                 0.0000
     36 ****         7.4782  -0.8633  -0.8141 H              1 S1                 0.0000
     37 ****         7.1945  -1.2072   0.8881 H              1 S1                 0.0000
     38 ****         1.3637   2.2441   0.2851 H              1 S1                 0.0000
     39 ****        -2.7734   0.3627   2.2776 H              1 S1                 0.0000
     40 ****        -2.8508   1.9238   1.4830 H              1 S1                 0.0000
     41 ****        -5.0759   1.4431   2.1901 H              1 S1                 0.0000
     42 ****        -4.9705  -0.9632   2.6100 H              1 S1                 0.0000
     43 ****        -4.8968  -1.3205   0.8935 H              1 S1                 0.0000
     44 ****        -6.3509  -0.6009   1.5820 H              1 S1                 0.0000
     45 ****        -2.9141  -0.6438   0.1632 LP             1 S1                 0.0000
     46 ****         2.6875   2.2629  -0.7037 LP             1 S1                 0.0000
     47 ****         4.3805   2.5975  -0.8510 LP             1 S1                 0.0000
     48 ****         5.1859  -1.1112  -1.1881 LP             1 S1                 0.0000
     49 ****         4.9156  -1.4478   0.3868 LP             1 S1                 0.0000
     50 ****        -0.9516   2.2619   0.2413 LP             1 S1                 0.0000
     51 ****        -6.1980   1.2713   0.1560 LP             1 S1                 0.0000
     52 ****        -4.9840   2.3634   0.1722 LP             1 S1                 0.0000
@<TRIPOS>BOND
    1    1    2 1     
    2    1   25 1     
    3    1   26 1     
    4    1   27 1     
    5    2   24 1     
    6    2    3 1     
    7    2   28 1     
    8    3    4 1     
    9    3   29 1     
   10    3   30 1     
   11    4    5 1     
   12    4   21 1     
   13    5   20 ar    
   14    5    6 ar    
   15    6    7 ar    
   16    6   31 1     
   17    7    8 ar    
   18    7   32 1     
   19    8    9 1     
   20    8   19 ar    
   21    9   10 am    
   22    9   33 1     
   23   10   11 2     
   24   10   12 1     
   25   12   13 1     
   26   12   34 1     
   27   12   35 1     
   28   13   14 1     
   29   14   15 1     
   30   14   36 1     
   31   14   37 1     
   32   15   16 1     
   33   15   17 1     
   34   15   18 1     
   35   19   20 ar    
   36   19   38 1     
   37   21   22 1     
   38   21   39 1     
   39   21   40 1     
   40   22   23 1     
   41   22   24 1     
   42   22   41 1     
   43   23   42 1     
   44   23   43 1     
   45   23   44 1     
   46    4   45 1     
   47   11   46 1     
   48   11   47 1     
   49   13   48 1     
   50   13   49 1     
   51   20   50 1     
   52   24   51 1     
   53   24   52 1     
@<TRIPOS>SUBSTRUCTURE
      1 S1             1
@<TRIPOS>SET
LONE_PAIRS      STATIC     ATOMS    <user>   **** ""
8 45 46 47 48 49 50 51 52
DONOR_HYDROGENS      STATIC     ATOMS    <user>   **** ""
1 33
ATOM$BLUE        STATIC     ATOMS    COLORGROUP SYSTEM
8 45 46 47 48 49 50 51 52
ATOM$RED        STATIC     ATOMS    COLORGROUP SYSTEM
1 33
