AV-unprocessed.smi:2225|AV-procd|sdf|9000|dock2
  -GOLD-   2272012213D 1   1.00000     0.00000
 Structure written by MMmdl.
 33 34  0  0  0  0  0  0  0  0  1 V2000
  151.4615  140.1911  155.1823 O   0  0  0  0  0  0  0  0  0  0  0  0
  150.6896  140.2074  156.1401 C   0  0  0  0  0  0  0  0  0  0  0  0
  151.1078  139.5106  157.4467 C   0  0  0  0  0  0  0  0  0  0  0  0
  151.8988  140.3431  158.3721 N   0  0  0  0  0  0  0  0  0  0  0  0
  151.6475  141.7266  158.3504 C   0  0  0  0  0  0  0  0  0  0  0  0
  152.3066  142.5763  159.1492 C   0  0  0  0  0  0  0  0  0  0  0  0
  153.2997  142.0377  160.0462 C   0  0  0  0  0  0  0  0  0  0  0  0
  153.5607  140.7107  160.0930 C   0  0  0  0  0  0  0  0  0  0  0  0
  154.6058  140.1243  161.0392 C   0  0  0  0  0  0  0  0  0  0  0  0
  155.8220  140.1894  160.4955 F   0  0  0  0  0  0  0  0  0  0  0  0
  154.6263  140.7998  162.1887 F   0  0  0  0  0  0  0  0  0  0  0  0
  154.3551  138.8450  161.3219 F   0  0  0  0  0  0  0  0  0  0  0  0
  152.8203  139.7816  159.2150 C   0  0  0  0  0  0  0  0  0  0  0  0
  153.0100  138.5645  159.2333 O   0  0  0  0  0  0  0  0  0  0  0  0
  149.4929  140.8170  156.0961 N   0  0  0  0  0  0  0  0  0  0  0  0
  148.9556  141.5311  154.9432 C   0  0  1  0  0  0  0  0  0  0  0  0
  148.8308  140.6194  153.7243 C   0  0  0  0  0  0  0  0  0  0  0  0
  147.3309  140.5794  153.4403 C   0  0  0  0  0  0  0  0  0  0  0  0
  146.8661  141.8189  153.9455 O   0  0  0  0  0  0  0  0  0  0  0  0
  147.5207  142.0191  155.1876 C   0  0  0  0  0  0  0  0  0  0  0  0
  150.2098  139.1365  157.9412 H   0  0  0  0  0  0  0  0  0  0  0  0
  151.6705  138.6142  157.1814 H   0  0  0  0  0  0  0  0  0  0  0  0
  150.8854  142.0464  157.6544 H   0  0  0  0  0  0  0  0  0  0  0  0
  152.0986  143.6358  159.1237 H   0  0  0  0  0  0  0  0  0  0  0  0
  153.8371  142.7218  160.6858 H   0  0  0  0  0  0  0  0  0  0  0  0
  148.9157  140.7894  156.9239 H   0  0  0  0  0  0  0  0  0  0  0  0
  149.6016  142.3736  154.6890 H   0  0  0  0  0  0  0  0  0  0  0  0
  149.3553  141.0662  152.8790 H   0  0  0  0  0  0  0  0  0  0  0  0
  149.2428  139.6207  153.8764 H   0  0  0  0  0  0  0  0  0  0  0  0
  147.1046  140.4645  152.3801 H   0  0  0  0  0  0  0  0  0  0  0  0
  146.8543  139.7623  153.9847 H   0  0  0  0  0  0  0  0  0  0  0  0
  147.0176  141.4208  155.9495 H   0  0  0  0  0  0  0  0  0  0  0  0
  147.4807  143.0636  155.4970 H   0  0  0  0  0  0  0  0  0  0  0  0
  1  2  2  0  0  0  0
  2  3  1  0  0  0  0
  2 15  1  0  0  0  0
  3  4  1  0  0  0  0
  3 21  1  0  0  0  0
  3 22  1  0  0  0  0
  4 13  1  0  0  0  0
  4  5  1  0  0  0  0
  5  6  2  0  0  0  0
  5 23  1  0  0  0  0
  6  7  1  0  0  0  0
  6 24  1  0  0  0  0
  7  8  2  0  0  0  0
  7 25  1  0  0  0  0
  8  9  1  0  0  0  0
  8 13  1  0  0  0  0
  9 10  1  0  0  0  0
  9 11  1  0  0  0  0
  9 12  1  0  0  0  0
 13 14  2  0  0  0  0
 15 16  1  0  0  0  0
 15 26  1  0  0  0  0
 16 20  1  0  0  0  0
 16 17  1  0  0  0  0
 16 27  1  0  0  0  0
 17 18  1  0  0  0  0
 17 28  1  0  0  0  0
 17 29  1  0  0  0  0
 18 19  1  0  0  0  0
 18 30  1  0  0  0  0
 18 31  1  0  0  0  0
 19 20  1  0  0  0  0
 20 32  1  0  0  0  0
 20 33  1  0  0  0  0
M  END
> <s_m_source_file>
AV-unprocessed.smi

> <i_m_source_file_index>
2225

> <i_lp_mmshare_version>
43012

> <i_f3d_flags>
0

> <s_epik_input>
W0NIMl0xT1tDSDJdW0NIMl1bQ0BIXTFbTkhdQyg9TylbQ0gyXW4yW2NIXVtjSF1bY0hdYyhDKEYpKEYpRiljMj1P

> <s_epik_cmdline>
J2VwaWtfcHl0aG9uJywgJy1waCcsICc3LjAnLCAnLXRuJywgJzgnLCAnLW1hJywgJzIwMCcsICctbWV0YWxfYmluZGluZycsICctaW1hZScsICc8aW5maWxlLm1hZT4nLCAnLW9tYWUnLCAnPG91dGZpbGUubWFlPic=

> <r_lp_tautomer_probability>
1

> <r_epik_Ionization_Penalty>
3.32109e-08

> <r_epik_Ionization_Penalty_Charging>
1.91399e-09

> <r_epik_Ionization_Penalty_Neutral>
3.1297e-08

> <r_epik_State_Penalty>
-0

> <r_epik_Charging_Adjusted_Penalty>
1.91399e-09

> <i_epik_Tot_Q>
0

> <i_epik_Tot_abs_Q>
0

> <r_epik_Metal_State_Penalty>
-0

> <b_epik_Metal_Only>
0

> <s_lp_Force_Field>
OPLS_2005

> <r_lp_Energy>
24.9921

> <b_lp_Chiralities_Consistent>
1

> <s_lp_Variant>
AV-unprocessed.smi:2225-2

> <Gold.Version>
5.8.1

> <Gold.Id.Protein>
6NUR|6NUR_protein|mol2

> <Gold.PLP.Fitness>
35.7653

> <Gold.PLP.PLP>
-35.9839

> <Gold.PLP.part.hbond>
-1.0000

> <Gold.PLP.part.metal>
0.0000

> <Gold.PLP.part.buried>
0.5143

> <Gold.PLP.part.nonpolar>
-35.3711

> <Gold.PLP.part.repulsive>
0.2602

> <Gold.PLP.ligand.clash>
0.0000

> <Gold.PLP.ligand.torsion>
1.7905

> <Gold.PLP.Chemscore.Hbond>
1.0000

> <Gold.PLP.Chemscore.CHOScore>
0.0000

> <Gold.PLP.Chemscore.Metal>
0.0000

> <Gold.Chemscore.Hbonds>
donor molecule, donor type, donor heavy atom, donor atom, acceptor molecule, acceptor atom, score
      P1  H  7989  7998       L1     1  1.00

> <Gold.PLP.Chemscore.Internal.Correction>
0.3625

> <Gold.Rescore>
     Score         DG    S(hbond)    S(metal)    S(lipo)     H(rot)  DE(clash)    DE(int)     intcor
     10.06     -13.42       0.99        0.00      75.61       1.64       0.09       3.27       ----

> <Gold.Chemscore.Fitness>
10.0633

> <Gold.Chemscore.DG>
-13.4206

> <Gold.Chemscore.ZeroCoef>
-5.4800

> <Gold.Chemscore.Hbond>
0.9850

> <Gold.Chemscore.Metal>
0.0000

> <Gold.Chemscore.Lipo>
75.6082

> <Gold.Chemscore.Internal_Hbond>
0.0000

> <Gold.Chemscore.DEClash>
0.0903

> <Gold.Chemscore.DEInternal>
3.2670

> <Gold.Chemscore.Rot>
1.6389

> <Gold.Chemscore.Internal.Correction>
   9.000000E+99

> <Gold.Chemscore.Hbonds>
donor molecule, donor type, donor heavy atom, donor atom, acceptor molecule, acceptor atom, score
      P1  H  7989  7998       L1     1  0.95

> <Gold.Chemscore.Hbond.Weighted>
-3.2901

> <Gold.Chemscore.Metal.Weighted>
-0.0000

> <Gold.Chemscore.Lipo.Weighted>
-8.8462

> <Gold.Chemscore.Internal_Hbond.Weighted>
0.0000

> <Gold.Chemscore.DEClash.Weighted>
0.0903

> <Gold.Chemscore.DEInternal.Weighted>
3.2670

> <Gold.Chemscore.Rot.Weighted>
4.1956

> <Gold.Chemscore.Internal.Correction.Weighted>
   9.000000E+99

> <Gold.Protein.RotatedTorsions>
[ 6907 6896 6895 6894 ] final -162.13 input  -60.11 | X-H torsion
[ 7974 7965 7964 7962 ] final   96.31 input  175.53 | X-H torsion
[ 8008 7997 7996 7995 ] final  103.37 input   59.86 | X-H torsion
[ 10167 10162 10161 10158 ] final  112.59 input  -65.29 | X-H torsion
[ 10718 10713 10712 10709 ] final  126.26 input   66.30 | X-H torsion
[ 10763 10752 10751 10750 ] final   70.71 input  -60.55 | X-H torsion
[ 11005 11000 10999 10996 ] final -150.67 input  -57.11 | X-H torsion

> <Gold.Protein.ActiveResidues>
 VAL166  LYS551  ARG553  GLY616  TRP617  ASP618  TYR619  PRO620  LYS621  CYS622 
 ASP623  PHE694  ASN695  SER759  ASP760  ASP761  ALA762  ILE779  LEU786  VAL792 
 PHE793  MET794  SER795  GLU796  ALA797  LYS798  CYS799  TRP800  GLU811  SER814 

> <Gold.Protein.RotatedAtoms>
  151.3755  133.3839  159.2704 H   0  0  0  0  0  0  0  0  0  0  0  0  # atno 6907 bound_to 6896
  150.9618  134.9005  159.7745 H   0  0  0  0  0  0  0  0  0  0  0  0  # atno 6908 bound_to 6896
  152.5152  134.3714  159.9372 H   0  0  0  0  0  0  0  0  0  0  0  0  # atno 6909 bound_to 6896
  145.4406  139.2301  143.3094 H   0  0  0  0  0  0  0  0  0  0  0  0  # atno 7974 bound_to 7965
  156.1478  140.3166  155.8598 H   0  0  0  0  0  0  0  0  0  0  0  0  # atno 8008 bound_to 7997
  155.4031  140.0501  157.3053 H   0  0  0  0  0  0  0  0  0  0  0  0  # atno 8009 bound_to 7997
  154.5031  140.2137  155.9317 H   0  0  0  0  0  0  0  0  0  0  0  0  # atno 8010 bound_to 7997
  139.6524  144.7128  151.2022 H   0  0  0  0  0  0  0  0  0  0  0  0  # atno 10167 bound_to 10162
  157.5434  131.1096  150.8821 H   0  0  0  0  0  0  0  0  0  0  0  0  # atno 10718 bound_to 10713
  153.0357  135.5164  154.7482 H   0  0  0  0  0  0  0  0  0  0  0  0  # atno 10763 bound_to 10752
  154.6461  135.2919  155.0047 H   0  0  0  0  0  0  0  0  0  0  0  0  # atno 10764 bound_to 10752
  154.0947  135.6645  153.4911 H   0  0  0  0  0  0  0  0  0  0  0  0  # atno 10765 bound_to 10752
  140.7378  134.3549  157.5154 H   0  0  0  0  0  0  0  0  0  0  0  0  # atno 11005 bound_to 11000
  146.2558  140.5153  142.8874 LP  0  0  0  0  0  0  0  0  0  0  0  0  # atno 17320 bound_to 7965
  144.8124  140.6409  143.6406 LP  0  0  0  0  0  0  0  0  0  0  0  0  # atno 17321 bound_to 7965
  140.7544  143.6128  150.8589 LP  0  0  0  0  0  0  0  0  0  0  0  0  # atno 17342 bound_to 10162
  139.9777  143.5986  152.2953 LP  0  0  0  0  0  0  0  0  0  0  0  0  # atno 17343 bound_to 10162
  156.9367  130.5369  149.5279 LP  0  0  0  0  0  0  0  0  0  0  0  0  # atno 17370 bound_to 10713
  156.0516  130.5584  150.9001 LP  0  0  0  0  0  0  0  0  0  0  0  0  # atno 17371 bound_to 10713
  139.8812  134.9061  156.2914 LP  0  0  0  0  0  0  0  0  0  0  0  0  # atno 17394 bound_to 11000
  140.9864  133.7235  156.0748 LP  0  0  0  0  0  0  0  0  0  0  0  0  # atno 17395 bound_to 11000

$$$$
