AV-unprocessed.smi:1349|AV-procd|sdf|5519|dock5
  -GOLD-   22720 5103D 1   1.00000     0.00000
 Structure written by MMmdl.
 43 45  0  0  0  0  0  0  0  0  2 V2000
  148.7567  139.5048  153.0891 O   0  0  0  0  0  0  0  0  0  0  0  0
  148.0441  140.6404  153.5320 C   0  0  0  0  0  0  0  0  0  0  0  0
  148.8967  141.4613  154.5101 C   0  0  0  0  0  0  0  0  0  0  0  0
  149.5211  140.6121  155.6289 C   0  0  0  0  0  0  0  0  0  0  0  0
  150.3413  141.4475  156.5572 C   0  0  0  0  0  0  0  0  0  0  0  0
  150.4169  142.8083  156.5493 N   0  3  0  0  0  0  0  0  0  0  0  0
  151.2736  143.2401  157.5628 C   0  0  0  0  0  0  0  0  0  0  0  0
  151.6665  144.5202  157.9407 C   0  0  0  0  0  0  0  0  0  0  0  0
  152.5631  144.6125  159.0258 C   0  0  0  0  0  0  0  0  0  0  0  0
  153.0343  143.4605  159.6890 C   0  0  0  0  0  0  0  0  0  0  0  0
  152.6282  142.1677  159.2970 C   0  0  0  0  0  0  0  0  0  0  0  0
  151.7402  142.0861  158.2247 C   0  0  0  0  0  0  0  0  0  0  0  0
  151.1349  141.0052  157.5753 N   0  0  0  0  0  0  0  0  0  0  0  0
  151.4265  139.6389  158.0336 C   0  0  0  0  0  0  0  0  0  0  0  0
  152.8386  139.1843  157.6386 C   0  0  0  0  0  0  0  0  0  0  0  0
  153.7816  139.7961  158.5088 O   0  0  0  0  0  0  0  0  0  0  0  0
  154.0612  139.1817  159.7097 C   0  0  0  0  0  0  0  0  0  0  0  0
  154.8159  139.9209  160.6439 C   0  0  0  0  0  0  0  0  0  0  0  0
  155.1453  139.3736  161.8989 C   0  0  0  0  0  0  0  0  0  0  0  0
  154.7216  138.0738  162.2321 C   0  0  0  0  0  0  0  0  0  0  0  0
  153.9701  137.3239  161.3084 C   0  0  0  0  0  0  0  0  0  0  0  0
  153.6405  137.8718  160.0530 C   0  0  0  0  0  0  0  0  0  0  0  0
  149.1253  139.6923  152.2392 H   0  0  0  0  0  0  0  0  0  0  0  0
  147.7459  141.2432  152.6736 H   0  0  0  0  0  0  0  0  0  0  0  0
  147.1308  140.3038  154.0235 H   0  0  0  0  0  0  0  0  0  0  0  0
  149.6947  141.9522  153.9518 H   0  0  0  0  0  0  0  0  0  0  0  0
  148.2906  142.2603  154.9394 H   0  0  0  0  0  0  0  0  0  0  0  0
  148.7456  140.1023  156.2011 H   0  0  0  0  0  0  0  0  0  0  0  0
  150.1530  139.8328  155.2015 H   0  0  0  0  0  0  0  0  0  0  0  0
  151.3080  145.4035  157.4328 H   0  0  0  0  0  0  0  0  0  0  0  0
  152.8967  145.5858  159.3549 H   0  0  0  0  0  0  0  0  0  0  0  0
  153.7216  143.5700  160.5155 H   0  0  0  0  0  0  0  0  0  0  0  0
  152.9960  141.2914  159.8099 H   0  0  0  0  0  0  0  0  0  0  0  0
  151.2840  139.5883  159.1134 H   0  0  0  0  0  0  0  0  0  0  0  0
  150.6841  138.9730  157.5933 H   0  0  0  0  0  0  0  0  0  0  0  0
  152.9080  138.0978  157.7108 H   0  0  0  0  0  0  0  0  0  0  0  0
  153.0379  139.4672  156.6040 H   0  0  0  0  0  0  0  0  0  0  0  0
  155.1455  140.9193  160.3956 H   0  0  0  0  0  0  0  0  0  0  0  0
  155.7235  139.9512  162.6050 H   0  0  0  0  0  0  0  0  0  0  0  0
  154.9730  137.6526  163.1944 H   0  0  0  0  0  0  0  0  0  0  0  0
  153.6453  136.3258  161.5626 H   0  0  0  0  0  0  0  0  0  0  0  0
  153.0643  137.2659  159.3704 H   0  0  0  0  0  0  0  0  0  0  0  0
  149.9200  143.3967  155.8930 H   0  0  0  0  0  0  0  0  0  0  0  0
  1  2  1  0  0  0  0
  1 23  1  0  0  0  0
  2  3  1  0  0  0  0
  2 24  1  0  0  0  0
  2 25  1  0  0  0  0
  3  4  1  0  0  0  0
  3 26  1  0  0  0  0
  3 27  1  0  0  0  0
  4  5  1  0  0  0  0
  4 28  1  0  0  0  0
  4 29  1  0  0  0  0
  5 13  1  0  0  0  0
  5  6  2  0  0  0  0
  6  7  1  0  0  0  0
  6 43  1  0  0  0  0
  7 12  2  0  0  0  0
  7  8  1  0  0  0  0
  8  9  2  0  0  0  0
  8 30  1  0  0  0  0
  9 10  1  0  0  0  0
  9 31  1  0  0  0  0
 10 11  2  0  0  0  0
 10 32  1  0  0  0  0
 11 12  1  0  0  0  0
 11 33  1  0  0  0  0
 12 13  1  0  0  0  0
 13 14  1  0  0  0  0
 14 15  1  0  0  0  0
 14 34  1  0  0  0  0
 14 35  1  0  0  0  0
 15 16  1  0  0  0  0
 15 36  1  0  0  0  0
 15 37  1  0  0  0  0
 16 17  1  0  0  0  0
 17 22  1  0  0  0  0
 17 18  2  0  0  0  0
 18 19  1  0  0  0  0
 18 38  1  0  0  0  0
 19 20  2  0  0  0  0
 19 39  1  0  0  0  0
 20 21  1  0  0  0  0
 20 40  1  0  0  0  0
 21 22  2  0  0  0  0
 21 41  1  0  0  0  0
 22 42  1  0  0  0  0
M  CHG  1   6   1
M  END
> <s_m_source_file>
AV-unprocessed.smi

> <i_m_source_file_index>
1349

> <i_lp_mmshare_version>
43012

> <i_f3d_flags>
0

> <s_epik_input>
W09IXVtDSDJdW0NIMl1bQ0gyXWMobjEpbihjKGMxMilbY0hdW2NIXVtjSF1bY0hdMilbQ0gyXVtDSDJdT2MzW2NIXVtjSF1bY0hdW2NIXVtjSF0z

> <s_epik_cmdline>
J2VwaWtfcHl0aG9uJywgJy1waCcsICc3LjAnLCAnLXRuJywgJzgnLCAnLW1hJywgJzIwMCcsICctbWV0YWxfYmluZGluZycsICctaW1hZScsICc8aW5maWxlLm1hZT4nLCAnLW9tYWUnLCAnPG91dGZpbGUubWFlPic=

> <r_lp_tautomer_probability>
1

> <r_epik_Ionization_Penalty>
0.856072

> <r_epik_Ionization_Penalty_Charging>
0.856072

> <r_epik_Ionization_Penalty_Neutral>
1.64909e-07

> <r_epik_State_Penalty>
0.892118

> <r_epik_Charging_Adjusted_Penalty>
1.74819

> <i_epik_Tot_Q>
1

> <i_epik_Tot_abs_Q>
1

> <r_epik_Metal_State_Penalty>
4.83641

> <b_epik_Metal_Only>
0

> <s_lp_Force_Field>
OPLS_2005

> <r_lp_Energy>
19.1857

> <b_lp_Chiralities_Consistent>
1

> <s_lp_Variant>
AV-unprocessed.smi:1349-2

> <Gold.Version>
5.8.1

> <Gold.Id.Protein>
6NUR|6NUR_protein|mol2

> <Gold.PLP.Fitness>
59.2653

> <Gold.PLP.PLP>
-48.3565

> <Gold.PLP.part.hbond>
-2.9174

> <Gold.PLP.part.metal>
0.0000

> <Gold.PLP.part.buried>
-6.2347

> <Gold.PLP.part.nonpolar>
-40.7618

> <Gold.PLP.part.repulsive>
0.0574

> <Gold.PLP.ligand.clash>
0.0000

> <Gold.PLP.ligand.torsion>
0.5574

> <Gold.PLP.Chemscore.Hbond>
3.9840

> <Gold.PLP.Chemscore.CHOScore>
0.0000

> <Gold.PLP.Chemscore.Metal>
0.0000

> <Gold.Chemscore.Hbonds>
donor molecule, donor type, donor heavy atom, donor atom, acceptor molecule, acceptor atom, score
      L1  H     1    23       P1  7957  0.24
      L1  H     6    43       P1  8028  1.92
      P1  H  7997  8009       L1    16  0.70

> <Gold.PLP.Chemscore.Internal.Correction>
0.0716

> <Gold.Rescore>
     Score         DG    S(hbond)    S(metal)    S(lipo)     H(rot)  DE(clash)    DE(int)     intcor
     22.72     -24.56       2.89        0.00     135.54       2.51       0.04       1.80       ----

> <Gold.Chemscore.Fitness>
22.7209

> <Gold.Chemscore.DG>
-24.5608

> <Gold.Chemscore.ZeroCoef>
-5.4800

> <Gold.Chemscore.Hbond>
2.8904

> <Gold.Chemscore.Metal>
0.0000

> <Gold.Chemscore.Lipo>
135.5420

> <Gold.Chemscore.Internal_Hbond>
0.0000

> <Gold.Chemscore.DEClash>
0.0352

> <Gold.Chemscore.DEInternal>
1.8047

> <Gold.Chemscore.Rot>
2.5123

> <Gold.Chemscore.Internal.Correction>
   9.000000E+99

> <Gold.Chemscore.Hbonds>
donor molecule, donor type, donor heavy atom, donor atom, acceptor molecule, acceptor atom, score
      L1  H     1    23       P1  7957  0.25
      L1  H     6    43       P1  8028  0.92
      P1  H  7997  8009       L1    16  0.07

> <Gold.Chemscore.Hbond.Weighted>
-9.6538

> <Gold.Chemscore.Metal.Weighted>
-0.0000

> <Gold.Chemscore.Lipo.Weighted>
-15.8584

> <Gold.Chemscore.Internal_Hbond.Weighted>
0.0000

> <Gold.Chemscore.DEClash.Weighted>
0.0352

> <Gold.Chemscore.DEInternal.Weighted>
1.8047

> <Gold.Chemscore.Rot.Weighted>
6.4314

> <Gold.Chemscore.Internal.Correction.Weighted>
   9.000000E+99

> <Gold.Protein.RotatedTorsions>
[ 6907 6896 6895 6894 ] final   99.66 input  -60.11 | X-H torsion
[ 7974 7965 7964 7962 ] final -148.38 input  175.53 | X-H torsion
[ 8008 7997 7996 7995 ] final  128.79 input   59.86 | X-H torsion
[ 10167 10162 10161 10158 ] final   78.50 input  -65.29 | X-H torsion
[ 10718 10713 10712 10709 ] final  109.45 input   66.30 | X-H torsion
[ 10763 10752 10751 10750 ] final -178.52 input  -60.55 | X-H torsion
[ 11005 11000 10999 10996 ] final  -14.55 input  -57.11 | X-H torsion

> <Gold.Protein.ActiveResidues>
 VAL166  LYS551  ARG553  GLY616  TRP617  ASP618  TYR619  PRO620  LYS621  CYS622 
 ASP623  PHE694  ASN695  SER759  ASP760  ASP761  ALA762  ILE779  LEU786  VAL792 
 PHE793  MET794  SER795  GLU796  ALA797  LYS798  CYS799  TRP800  GLU811  SER814 

> <Gold.Protein.RotatedAtoms>
  152.5388  134.0395  159.8060 H   0  0  0  0  0  0  0  0  0  0  0  0  # atno 6907 bound_to 6896
  151.0553  133.5582  159.2646 H   0  0  0  0  0  0  0  0  0  0  0  0  # atno 6908 bound_to 6896
  151.2501  135.0627  159.9112 H   0  0  0  0  0  0  0  0  0  0  0  0  # atno 6909 bound_to 6896
  144.8033  140.5204  143.5692 H   0  0  0  0  0  0  0  0  0  0  0  0  # atno 7974 bound_to 7965
  156.2922  140.2636  156.2493 H   0  0  0  0  0  0  0  0  0  0  0  0  # atno 8008 bound_to 7997
  154.9898  140.0389  157.2333 H   0  0  0  0  0  0  0  0  0  0  0  0  # atno 8009 bound_to 7997
  154.7696  140.2775  155.6153 H   0  0  0  0  0  0  0  0  0  0  0  0  # atno 8010 bound_to 7997
  139.9703  144.5899  150.7992 H   0  0  0  0  0  0  0  0  0  0  0  0  # atno 10167 bound_to 10162
  157.6540  131.0914  150.6456 H   0  0  0  0  0  0  0  0  0  0  0  0  # atno 10718 bound_to 10713
  154.5467  135.2810  155.1046 H   0  0  0  0  0  0  0  0  0  0  0  0  # atno 10763 bound_to 10752
  154.2508  135.6340  153.5243 H   0  0  0  0  0  0  0  0  0  0  0  0  # atno 10764 bound_to 10752
  152.9992  135.5582  154.6021 H   0  0  0  0  0  0  0  0  0  0  0  0  # atno 10765 bound_to 10752
  140.7875  133.8314  155.9349 H   0  0  0  0  0  0  0  0  0  0  0  0  # atno 11005 bound_to 11000
  145.5500  139.1476  143.3399 LP  0  0  0  0  0  0  0  0  0  0  0  0  # atno 17320 bound_to 7965
  146.2319  140.5638  142.8971 LP  0  0  0  0  0  0  0  0  0  0  0  0  # atno 17321 bound_to 7965
  140.7524  143.2990  151.3130 LP  0  0  0  0  0  0  0  0  0  0  0  0  # atno 17342 bound_to 10162
  139.6486  144.0404  152.2610 LP  0  0  0  0  0  0  0  0  0  0  0  0  # atno 17343 bound_to 10162
  156.6764  130.4554  149.5641 LP  0  0  0  0  0  0  0  0  0  0  0  0  # atno 17370 bound_to 10713
  156.1960  130.6590  151.1115 LP  0  0  0  0  0  0  0  0  0  0  0  0  # atno 17371 bound_to 10713
  140.9422  134.1886  157.4789 LP  0  0  0  0  0  0  0  0  0  0  0  0  # atno 17394 bound_to 11000
  139.8735  134.9876  156.5376 LP  0  0  0  0  0  0  0  0  0  0  0  0  # atno 17395 bound_to 11000

$$$$
