#       Name:                AV-unprocessed.smi:937
#       Creating user name   scv26
#       Creation time:       Fri Mar 27 02:11:50 2020


#       File generated by GOLD software.
#

@<TRIPOS>MOLECULE
AV-unprocessed.smi:937
    48    49     1
SMALL
NO_CHARGES


@<TRIPOS>ATOM
      1 ****        -2.9292   7.5064  -0.8339 C.3            1 S1                 0.0000
      2 ****        -2.4922   6.0584  -0.7574 C.ar           1 S1                 0.0000
      3 ****        -2.7858   5.2766   0.3797 C.ar           1 S1                 0.0000
      4 ****        -2.3625   3.9336   0.3979 C.ar           1 S1                 0.0000
      5 ****        -1.6657   3.4258  -0.7176 C.ar           1 S1                 0.0000
      6 ****        -1.1861   1.9884  -0.7494 C.3            1 S1                 0.0000
      7 ****         0.2199   1.8341  -0.1481 C.3            1 S1                 0.0000
      8 ****         0.6693   0.4483  -0.1985 N.am           1 S1                 0.0000
      9 ****         1.2137  -0.1461  -1.2738 C.2            1 S1                 0.0000
     10 ****         1.4115   0.4341  -2.3397 O.2            1 S1                 0.0000
     11 ****         1.5317  -1.4421  -1.1036 N.am           1 S1                 0.0000
     12 ****         2.1333  -2.3670  -2.0662 C.3            1 S1                 0.0000
     13 ****         3.6596  -2.1580  -2.1431 C.3            1 S1                 0.0000
     14 ****         4.3140  -3.1759  -3.0882 C.3            1 S1                 0.0000
     15 ****         3.9797  -4.6169  -2.6733 C.3            1 S1                 0.0000
     16 ****         2.4559  -4.8496  -2.5979 C.3            1 S1                 0.0000
     17 ****         2.1132  -6.2980  -2.1918 C.3            1 S1                 0.0000
     18 ****         2.5845  -6.5740  -0.9755 F              1 S1                 0.0000
     19 ****         0.7917  -6.4721  -2.1916 F              1 S1                 0.0000
     20 ****         2.6446  -7.1546  -3.0640 F              1 S1                 0.0000
     21 ****         1.8066  -3.8149  -1.6531 C.3            1 S1                 0.0000
     22 ****        -1.4221   4.2917  -1.8048 C.ar           1 S1                 0.0000
     23 ****        -1.8248   5.5804  -1.8312 N.ar           1 S1                 0.0000
     24 ****        -3.0410   7.9325   0.1635 H              1 S1                 0.0000
     25 ****        -3.8870   7.5827  -1.3491 H              1 S1                 0.0000
     26 ****        -2.1980   8.1065  -1.3768 H              1 S1                 0.0000
     27 ****        -3.3233   5.6941   1.2186 H              1 S1                 0.0000
     28 ****        -2.5693   3.3072   1.2532 H              1 S1                 0.0000
     29 ****        -1.8968   1.3635  -0.2065 H              1 S1                 0.0000
     30 ****        -1.1970   1.6393  -1.7830 H              1 S1                 0.0000
     31 ****         0.9320   2.4780  -0.6675 H              1 S1                 0.0000
     32 ****         0.2164   2.1525   0.8947 H              1 S1                 0.0000
     33 ****         0.5475  -0.1024   0.6387 H              1 S1                 0.0000
     34 ****         1.3477  -1.8270  -0.1884 H              1 S1                 0.0000
     35 ****         1.6981  -2.1982  -3.0530 H              1 S1                 0.0000
     36 ****         3.8909  -1.1477  -2.4821 H              1 S1                 0.0000
     37 ****         4.0962  -2.2561  -1.1480 H              1 S1                 0.0000
     38 ****         3.9720  -2.9995  -4.1089 H              1 S1                 0.0000
     39 ****         5.3951  -3.0336  -3.0958 H              1 S1                 0.0000
     40 ****         4.4306  -5.3105  -3.3833 H              1 S1                 0.0000
     41 ****         4.4344  -4.8294  -1.7050 H              1 S1                 0.0000
     42 ****         2.0471  -4.6870  -3.5966 H              1 S1                 0.0000
     43 ****         2.1481  -3.9902  -0.6317 H              1 S1                 0.0000
     44 ****         0.7249  -3.9531  -1.6422 H              1 S1                 0.0000
     45 ****        -0.8889   3.9424  -2.6769 H              1 S1                 0.0000
     46 ****         1.1636   1.3979  -2.4379 LP             1 S1                 0.0000
     47 ****         1.8203  -0.0578  -3.1084 LP             1 S1                 0.0000
     48 ****        -1.6349   6.1634  -2.6212 LP             1 S1                 0.0000
@<TRIPOS>BOND
    1    1    2 1     
    2    1   24 1     
    3    1   25 1     
    4    1   26 1     
    5    2   23 ar    
    6    2    3 ar    
    7    3    4 ar    
    8    3   27 1     
    9    4    5 ar    
   10    4   28 1     
   11    5    6 1     
   12    5   22 ar    
   13    6    7 1     
   14    6   29 1     
   15    6   30 1     
   16    7    8 1     
   17    7   31 1     
   18    7   32 1     
   19    8    9 am    
   20    8   33 1     
   21    9   10 2     
   22    9   11 am    
   23   11   12 1     
   24   11   34 1     
   25   12   21 1     
   26   12   13 1     
   27   12   35 1     
   28   13   14 1     
   29   13   36 1     
   30   13   37 1     
   31   14   15 1     
   32   14   38 1     
   33   14   39 1     
   34   15   16 1     
   35   15   40 1     
   36   15   41 1     
   37   16   17 1     
   38   16   21 1     
   39   16   42 1     
   40   17   18 1     
   41   17   19 1     
   42   17   20 1     
   43   21   43 1     
   44   21   44 1     
   45   22   23 ar    
   46   22   45 1     
   47   10   46 1     
   48   10   47 1     
   49   23   48 1     
@<TRIPOS>SUBSTRUCTURE
      1 S1             1
@<TRIPOS>SET
LONE_PAIRS      STATIC     ATOMS    <user>   **** ""
3 46 47 48
DONOR_HYDROGENS      STATIC     ATOMS    <user>   **** ""
2 33 34
ATOM$BLUE        STATIC     ATOMS    COLORGROUP SYSTEM
3 46 47 48
ATOM$RED        STATIC     ATOMS    COLORGROUP SYSTEM
2 33 34
