AV-unprocessed.smi:332|AV-procd|sdf|2355|dock10
  -GOLD-   2262022263D 1   1.00000     0.00000
 Structure written by MMmdl.
 42 44  0  0  0  0  0  0  0  0  1 V2000
  148.2584  142.3143  159.0573 C   0  0  0  0  0  0  0  0  0  0  0  0
  149.7321  142.4989  158.6570 C   0  0  1  0  0  0  0  0  0  0  0  0
  149.9150  142.1237  157.2590 N   0  0  0  0  0  0  0  0  0  0  0  0
  150.7390  141.1686  156.7960 C   0  0  0  0  0  0  0  0  0  0  0  0
  151.4152  140.4548  157.5357 O   0  0  0  0  0  0  0  0  0  0  0  0
  150.8463  140.9820  155.2725 C   0  0  0  0  0  0  0  0  0  0  0  0
  149.6446  140.4131  154.6359 N   0  0  0  0  0  0  0  0  0  0  0  0
  148.5074  141.2428  154.5703 C   0  0  0  0  0  0  0  0  0  0  0  0
  147.3526  140.8240  154.0293 C   0  0  0  0  0  0  0  0  0  0  0  0
  147.2938  139.4816  153.5017 C   0  0  0  0  0  0  0  0  0  0  0  0
  148.3743  138.6780  153.5634 C   0  0  0  0  0  0  0  0  0  0  0  0
  149.6363  139.1289  154.1613 C   0  0  0  0  0  0  0  0  0  0  0  0
  150.6214  138.3948  154.2389 O   0  0  0  0  0  0  0  0  0  0  0  0
  150.2100  143.9558  158.8620 C   0  0  1  0  0  0  0  0  0  0  0  0
  150.2926  144.4101  160.3365 C   0  0  0  0  0  0  0  0  0  0  0  0
  151.7039  145.0200  160.4322 C   0  0  1  0  0  0  0  0  0  0  0  0
  152.7441  143.8846  160.4229 C   0  0  0  0  0  0  0  0  0  0  0  0
  152.7076  143.4049  158.9606 C   0  0  0  0  0  0  0  0  0  0  0  0
  151.6245  144.3056  158.3324 C   0  0  2  0  0  0  0  0  0  0  0  0
  151.8884  145.6273  159.0462 C   0  0  0  0  0  0  0  0  0  0  0  0
  148.0964  142.5748  160.1034 H   0  0  0  0  0  0  0  0  0  0  0  0
  147.9410  141.2792  158.9283 H   0  0  0  0  0  0  0  0  0  0  0  0
  147.6012  142.9406  158.4533 H   0  0  0  0  0  0  0  0  0  0  0  0
  150.3361  141.8399  159.2826 H   0  0  0  0  0  0  0  0  0  0  0  0
  149.3947  142.6598  156.5801 H   0  0  0  0  0  0  0  0  0  0  0  0
  151.0712  141.9531  154.8290 H   0  0  0  0  0  0  0  0  0  0  0  0
  151.7239  140.3688  155.0608 H   0  0  0  0  0  0  0  0  0  0  0  0
  148.6331  142.2288  154.9942 H   0  0  0  0  0  0  0  0  0  0  0  0
  146.4896  141.4725  153.9931 H   0  0  0  0  0  0  0  0  0  0  0  0
  146.3793  139.1200  153.0555 H   0  0  0  0  0  0  0  0  0  0  0  0
  148.3111  137.6764  153.1639 H   0  0  0  0  0  0  0  0  0  0  0  0
  149.5055  144.6105  158.3453 H   0  0  0  0  0  0  0  0  0  0  0  0
  149.5274  145.1575  160.5486 H   0  0  0  0  0  0  0  0  0  0  0  0
  150.1594  143.5917  161.0449 H   0  0  0  0  0  0  0  0  0  0  0  0
  151.8244  145.7161  161.2625 H   0  0  0  0  0  0  0  0  0  0  0  0
  153.7355  144.2614  160.6778 H   0  0  0  0  0  0  0  0  0  0  0  0
  152.4961  143.0901  161.1279 H   0  0  0  0  0  0  0  0  0  0  0  0
  153.6714  143.5813  158.4814 H   0  0  0  0  0  0  0  0  0  0  0  0
  152.4927  142.3408  158.8691 H   0  0  0  0  0  0  0  0  0  0  0  0
  151.6833  144.3624  157.2448 H   0  0  0  0  0  0  0  0  0  0  0  0
  151.1570  146.4029  158.8119 H   0  0  0  0  0  0  0  0  0  0  0  0
  152.8923  146.0201  158.8755 H   0  0  0  0  0  0  0  0  0  0  0  0
  1  2  1  0  0  0  0
  1 21  1  0  0  0  0
  1 22  1  0  0  0  0
  1 23  1  0  0  0  0
  2  3  1  0  0  0  0
  2 14  1  0  0  0  0
  2 24  1  0  0  0  0
  3  4  1  0  0  0  0
  3 25  1  0  0  0  0
  4  5  2  0  0  0  0
  4  6  1  0  0  0  0
  6  7  1  0  0  0  0
  6 26  1  0  0  0  0
  6 27  1  0  0  0  0
  7 12  1  0  0  0  0
  7  8  1  0  0  0  0
  8  9  2  0  0  0  0
  8 28  1  0  0  0  0
  9 10  1  0  0  0  0
  9 29  1  0  0  0  0
 10 11  2  0  0  0  0
 10 30  1  0  0  0  0
 11 12  1  0  0  0  0
 11 31  1  0  0  0  0
 12 13  2  0  0  0  0
 14 19  1  0  0  0  0
 14 15  1  0  0  0  0
 14 32  1  0  0  0  0
 15 16  1  0  0  0  0
 15 33  1  0  0  0  0
 15 34  1  0  0  0  0
 16 20  1  0  0  0  0
 16 17  1  0  0  0  0
 16 35  1  0  0  0  0
 17 18  1  0  0  0  0
 17 36  1  0  0  0  0
 17 37  1  0  0  0  0
 18 19  1  0  0  0  0
 18 38  1  0  0  0  0
 18 39  1  0  0  0  0
 19 20  1  0  0  0  0
 19 40  1  0  0  0  0
 20 41  1  0  0  0  0
 20 42  1  0  0  0  0
M  END
> <s_m_source_file>
AV-unprocessed.smi

> <i_m_source_file_index>
332

> <i_lp_mmshare_version>
43012

> <i_f3d_flags>
0

> <s_epik_input>
W0NIMl0xW0NIMl1bQ0BIXShbQ0gyXTIpW0NAQEhdKFtDSDJdW0NAQEhdMTIpW0NASF0oW0NIM10pW05IXUMoPU8pW0NIMl1uM1tjSF1bY0hdW2NIXVtjSF1jMz1P

> <s_epik_cmdline>
J2VwaWtfcHl0aG9uJywgJy1waCcsICc3LjAnLCAnLXRuJywgJzgnLCAnLW1hJywgJzIwMCcsICctbWV0YWxfYmluZGluZycsICctaW1hZScsICc8aW5maWxlLm1hZT4nLCAnLW9tYWUnLCAnPG91dGZpbGUubWFlPic=

> <r_lp_tautomer_probability>
1

> <r_epik_Ionization_Penalty>
4.05802e-07

> <r_epik_Ionization_Penalty_Charging>
3.84175e-07

> <r_epik_Ionization_Penalty_Neutral>
2.16269e-08

> <r_epik_State_Penalty>
-0

> <r_epik_Charging_Adjusted_Penalty>
3.84175e-07

> <i_epik_Tot_Q>
0

> <i_epik_Tot_abs_Q>
0

> <r_epik_Metal_State_Penalty>
-0

> <b_epik_Metal_Only>
0

> <s_lp_Force_Field>
OPLS_2005

> <r_lp_Energy>
59.7758

> <b_lp_Chiralities_Consistent>
1

> <s_lp_Variant>
AV-unprocessed.smi:332-4

> <Gold.Version>
5.8.1

> <Gold.Id.Protein>
6NUR|6NUR_protein|mol2

> <Gold.PLP.Fitness>
50.8239

> <Gold.PLP.PLP>
-45.4241

> <Gold.PLP.part.hbond>
-1.0000

> <Gold.PLP.part.metal>
0.0000

> <Gold.PLP.part.buried>
-2.4947

> <Gold.PLP.part.nonpolar>
-42.0640

> <Gold.PLP.part.repulsive>
0.2072

> <Gold.PLP.ligand.clash>
0.0000

> <Gold.PLP.ligand.torsion>
0.2877

> <Gold.PLP.Chemscore.Hbond>
0.9833

> <Gold.PLP.Chemscore.CHOScore>
1.0000

> <Gold.PLP.Chemscore.Metal>
0.0000

> <Gold.Chemscore.Hbonds>
donor molecule, donor type, donor heavy atom, donor atom, acceptor molecule, acceptor atom, score
      L1  H     3    25       P1  8028  0.29
      L1  C     8    28       P1  8028  0.88

> <Gold.PLP.Chemscore.Internal.Correction>
0.0252

> <Gold.Rescore>
     Score         DG    S(hbond)    S(metal)    S(lipo)     H(rot)  DE(clash)    DE(int)     intcor
     18.13     -18.47       0.99        0.00     116.45       1.54       0.08       0.26       ----

> <Gold.Chemscore.Fitness>
18.1251

> <Gold.Chemscore.DG>
-18.4660

> <Gold.Chemscore.ZeroCoef>
-5.4800

> <Gold.Chemscore.Hbond>
0.9890

> <Gold.Chemscore.Metal>
0.0000

> <Gold.Chemscore.Lipo>
116.4487

> <Gold.Chemscore.Internal_Hbond>
0.0000

> <Gold.Chemscore.DEClash>
0.0795

> <Gold.Chemscore.DEInternal>
0.2613

> <Gold.Chemscore.Rot>
1.5398

> <Gold.Chemscore.Internal.Correction>
   9.000000E+99

> <Gold.Chemscore.Hbonds>
donor molecule, donor type, donor heavy atom, donor atom, acceptor molecule, acceptor atom, score
      L1  H     3    25       P1  8028  0.27

> <Gold.Chemscore.Hbond.Weighted>
-3.3034

> <Gold.Chemscore.Metal.Weighted>
-0.0000

> <Gold.Chemscore.Lipo.Weighted>
-13.6245

> <Gold.Chemscore.Internal_Hbond.Weighted>
0.0000

> <Gold.Chemscore.DEClash.Weighted>
0.0795

> <Gold.Chemscore.DEInternal.Weighted>
0.2613

> <Gold.Chemscore.Rot.Weighted>
3.9419

> <Gold.Chemscore.Internal.Correction.Weighted>
   9.000000E+99

> <Gold.Protein.RotatedTorsions>
[ 6907 6896 6895 6894 ] final  -50.08 input  -60.11 | X-H torsion
[ 7974 7965 7964 7962 ] final  -42.29 input  175.53 | X-H torsion
[ 8008 7997 7996 7995 ] final  -94.38 input   59.86 | X-H torsion
[ 10167 10162 10161 10158 ] final  -73.02 input  -65.29 | X-H torsion
[ 10718 10713 10712 10709 ] final    1.38 input   66.30 | X-H torsion
[ 10763 10752 10751 10750 ] final  142.29 input  -60.55 | X-H torsion
[ 11005 11000 10999 10996 ] final -126.47 input  -57.11 | X-H torsion

> <Gold.Protein.ActiveResidues>
 VAL166  LYS551  ARG553  GLY616  TRP617  ASP618  TYR619  PRO620  LYS621  CYS622 
 ASP623  PHE694  ASN695  SER759  ASP760  ASP761  ALA762  ILE779  LEU786  VAL792 
 PHE793  MET794  SER795  GLU796  ALA797  LYS798  CYS799  TRP800  GLU811  SER814 

> <Gold.Protein.RotatedAtoms>
  150.8742  134.8122  159.7176 H   0  0  0  0  0  0  0  0  0  0  0  0  # atno 6907 bound_to 6896
  152.4735  134.4898  159.9702 H   0  0  0  0  0  0  0  0  0  0  0  0  # atno 6908 bound_to 6896
  151.4982  133.3471  159.2900 H   0  0  0  0  0  0  0  0  0  0  0  0  # atno 6909 bound_to 6896
  146.0130  140.6941  142.9215 H   0  0  0  0  0  0  0  0  0  0  0  0  # atno 7974 bound_to 7965
  154.7477  140.0490  157.0866 H   0  0  0  0  0  0  0  0  0  0  0  0  # atno 8008 bound_to 7997
  155.0097  140.3134  155.4815 H   0  0  0  0  0  0  0  0  0  0  0  0  # atno 8009 bound_to 7997
  156.2878  140.2186  156.5210 H   0  0  0  0  0  0  0  0  0  0  0  0  # atno 8010 bound_to 7997
  140.5145  143.2340  151.7537 H   0  0  0  0  0  0  0  0  0  0  0  0  # atno 10167 bound_to 10162
  156.8474  130.5542  149.5672 H   0  0  0  0  0  0  0  0  0  0  0  0  # atno 10718 bound_to 10713
  153.9534  135.2967  155.3437 H   0  0  0  0  0  0  0  0  0  0  0  0  # atno 10763 bound_to 10752
  154.7414  135.5023  153.9132 H   0  0  0  0  0  0  0  0  0  0  0  0  # atno 10764 bound_to 10752
  153.0982  135.6727  153.9831 H   0  0  0  0  0  0  0  0  0  0  0  0  # atno 10765 bound_to 10752
  140.9679  134.0847  157.3901 H   0  0  0  0  0  0  0  0  0  0  0  0  # atno 11005 bound_to 11000
  144.6960  140.3432  143.7195 LP  0  0  0  0  0  0  0  0  0  0  0  0  # atno 17320 bound_to 7965
  145.7312  139.1737  143.2429 LP  0  0  0  0  0  0  0  0  0  0  0  0  # atno 17321 bound_to 7965
  139.4905  144.4344  151.9836 LP  0  0  0  0  0  0  0  0  0  0  0  0  # atno 17342 bound_to 10162
  140.3437  144.3172  150.5962 LP  0  0  0  0  0  0  0  0  0  0  0  0  # atno 17343 bound_to 10162
  156.0847  130.5848  150.9627 LP  0  0  0  0  0  0  0  0  0  0  0  0  # atno 17370 bound_to 10713
  157.6322  131.0920  150.8418 LP  0  0  0  0  0  0  0  0  0  0  0  0  # atno 17371 bound_to 10713
  139.8901  135.0110  156.6717 LP  0  0  0  0  0  0  0  0  0  0  0  0  # atno 17394 bound_to 11000
  140.7373  133.9008  155.8253 LP  0  0  0  0  0  0  0  0  0  0  0  0  # atno 17395 bound_to 11000

$$$$
