AV-unprocessed.smi:249|AV-procd|sdf|1919|dock6
  -GOLD-   2262021 23D 1   1.00000     0.00000
 Structure written by MMmdl.
 64 67  0  0  0  0  0  0  0  0  2 V2000
  151.9114  144.1560  159.3516 C   0  0  0  0  0  0  0  0  0  0  0  0
  150.6826  144.5073  158.4970 C   0  0  0  0  0  0  0  0  0  0  0  0
  150.2164  143.3808  157.6375 N   0  3  1  0  0  0  0  0  0  0  0  0
  151.3615  142.6564  157.0132 C   0  0  0  0  0  0  0  0  0  0  0  0
  150.8999  141.5365  156.0668 C   0  0  0  0  0  0  0  0  0  0  0  0
  150.0148  140.5128  156.7961 C   0  0  1  0  0  0  0  0  0  0  0  0
  150.7658  139.7418  157.8012 N   0  0  0  0  0  0  0  0  0  0  0  0
  152.2226  139.8162  157.7642 C   0  0  0  0  0  0  0  0  0  0  0  0
  150.3614  138.4695  158.0156 C   0  0  0  0  0  0  0  0  0  0  0  0
  149.8485  138.1824  159.2373 N   0  0  0  0  0  0  0  0  0  0  0  0
  149.4134  136.9473  159.5042 C   0  0  0  0  0  0  0  0  0  0  0  0
  149.3971  135.8775  158.7062 N   0  0  0  0  0  0  0  0  0  0  0  0
  149.9220  136.1631  157.4801 C   0  0  0  0  0  0  0  0  0  0  0  0
  150.4334  137.4210  157.0557 C   0  0  0  0  0  0  0  0  0  0  0  0
  150.8936  137.3303  155.7476 N   0  0  0  0  0  0  0  0  0  0  0  0
  150.6518  136.0928  155.4109 C   0  0  0  0  0  0  0  0  0  0  0  0
  150.0540  135.3268  156.3858 N   0  0  0  0  0  0  0  0  0  0  0  0
  149.6515  133.9363  156.2673 C   0  0  0  0  0  0  0  0  0  0  0  0
  150.7185  133.0519  155.5730 C   0  0  1  0  0  0  0  0  0  0  0  0
  151.8193  132.6399  156.5796 C   0  0  0  0  0  0  0  0  0  0  0  0
  151.2476  132.1921  157.7911 O   0  0  0  0  0  0  0  0  0  0  0  0
  150.0892  131.8540  154.8039 C   0  0  2  0  0  0  0  0  0  0  0  0
  149.1051  132.1982  153.6861 C   0  0  0  0  0  0  0  0  0  0  0  0
  147.9974  131.1508  153.8270 C   0  0  0  0  0  0  0  0  0  0  0  0
  148.5389  130.1571  154.6847 O   0  0  0  0  0  0  0  0  0  0  0  0
  149.3246  130.8331  155.6513 C   0  0  0  0  0  0  0  0  0  0  0  0
  148.8264  141.3080  157.3797 C   0  0  0  0  0  0  0  0  0  0  0  0
  149.2712  142.4444  158.3296 C   0  0  2  0  0  0  0  0  0  0  0  0
  148.0099  143.1488  158.8720 C   0  0  0  0  0  0  0  0  0  0  0  0
  152.3071  145.0508  159.8330 H   0  0  0  0  0  0  0  0  0  0  0  0
  152.7092  143.7317  158.7414 H   0  0  0  0  0  0  0  0  0  0  0  0
  151.6762  143.4497  160.1473 H   0  0  0  0  0  0  0  0  0  0  0  0
  149.8649  144.8548  159.1301 H   0  0  0  0  0  0  0  0  0  0  0  0
  150.9807  145.3555  157.8856 H   0  0  0  0  0  0  0  0  0  0  0  0
  151.9735  143.3439  156.4321 H   0  0  0  0  0  0  0  0  0  0  0  0
  152.0050  142.2489  157.7944 H   0  0  0  0  0  0  0  0  0  0  0  0
  150.3375  141.9771  155.2425 H   0  0  0  0  0  0  0  0  0  0  0  0
  151.7608  141.0541  155.6040 H   0  0  0  0  0  0  0  0  0  0  0  0
  149.6355  139.8090  156.0547 H   0  0  0  0  0  0  0  0  0  0  0  0
  152.6906  139.0281  158.3571 H   0  0  0  0  0  0  0  0  0  0  0  0
  152.5619  140.7692  158.1696 H   0  0  0  0  0  0  0  0  0  0  0  0
  152.5861  139.7298  156.7396 H   0  0  0  0  0  0  0  0  0  0  0  0
  149.0168  136.7952  160.4973 H   0  0  0  0  0  0  0  0  0  0  0  0
  150.8918  135.7050  154.4313 H   0  0  0  0  0  0  0  0  0  0  0  0
  149.4417  133.5687  157.2721 H   0  0  0  0  0  0  0  0  0  0  0  0
  148.7091  133.8886  155.7210 H   0  0  0  0  0  0  0  0  0  0  0  0
  151.2002  133.6703  154.8135 H   0  0  0  0  0  0  0  0  0  0  0  0
  152.4496  131.8470  156.1773 H   0  0  0  0  0  0  0  0  0  0  0  0
  152.4746  133.4727  156.8255 H   0  0  0  0  0  0  0  0  0  0  0  0
  150.3139  132.1102  157.6714 H   0  0  0  0  0  0  0  0  0  0  0  0
  150.8921  131.2768  154.3444 H   0  0  0  0  0  0  0  0  0  0  0  0
  148.6921  133.2033  153.7629 H   0  0  0  0  0  0  0  0  0  0  0  0
  149.5932  132.1207  152.7145 H   0  0  0  0  0  0  0  0  0  0  0  0
  147.1167  131.5885  154.2992 H   0  0  0  0  0  0  0  0  0  0  0  0
  147.6951  130.7277  152.8688 H   0  0  0  0  0  0  0  0  0  0  0  0
  149.9882  130.1460  156.1770 H   0  0  0  0  0  0  0  0  0  0  0  0
  148.6623  131.2936  156.3830 H   0  0  0  0  0  0  0  0  0  0  0  0
  148.2569  141.7392  156.5550 H   0  0  0  0  0  0  0  0  0  0  0  0
  148.1251  140.6449  157.8867 H   0  0  0  0  0  0  0  0  0  0  0  0
  149.7971  142.0018  159.1770 H   0  0  0  0  0  0  0  0  0  0  0  0
  147.2764  142.4205  159.2196 H   0  0  0  0  0  0  0  0  0  0  0  0
  147.5295  143.7546  158.1028 H   0  0  0  0  0  0  0  0  0  0  0  0
  148.2232  143.7874  159.7281 H   0  0  0  0  0  0  0  0  0  0  0  0
  149.6920  143.7961  156.8809 H   0  0  0  0  0  0  0  0  0  0  0  0
  1  2  1  0  0  0  0
  1 30  1  0  0  0  0
  1 31  1  0  0  0  0
  1 32  1  0  0  0  0
  2  3  1  0  0  0  0
  2 33  1  0  0  0  0
  2 34  1  0  0  0  0
  3 28  1  0  0  0  0
  3  4  1  0  0  0  0
  3 64  1  0  0  0  0
  4  5  1  0  0  0  0
  4 35  1  0  0  0  0
  4 36  1  0  0  0  0
  5  6  1  0  0  0  0
  5 37  1  0  0  0  0
  5 38  1  0  0  0  0
  6  7  1  0  0  0  0
  6 27  1  0  0  0  0
  6 39  1  0  0  0  0
  7  8  1  0  0  0  0
  7  9  1  0  0  0  0
  8 40  1  0  0  0  0
  8 41  1  0  0  0  0
  8 42  1  0  0  0  0
  9 14  1  0  0  0  0
  9 10  2  0  0  0  0
 10 11  1  0  0  0  0
 11 12  2  0  0  0  0
 11 43  1  0  0  0  0
 12 13  1  0  0  0  0
 13 17  1  0  0  0  0
 13 14  2  0  0  0  0
 14 15  1  0  0  0  0
 15 16  2  0  0  0  0
 16 17  1  0  0  0  0
 16 44  1  0  0  0  0
 17 18  1  0  0  0  0
 18 19  1  0  0  0  0
 18 45  1  0  0  0  0
 18 46  1  0  0  0  0
 19 20  1  0  0  0  0
 19 22  1  0  0  0  0
 19 47  1  0  0  0  0
 20 21  1  0  0  0  0
 20 48  1  0  0  0  0
 20 49  1  0  0  0  0
 21 50  1  0  0  0  0
 22 26  1  0  0  0  0
 22 23  1  0  0  0  0
 22 51  1  0  0  0  0
 23 24  1  0  0  0  0
 23 52  1  0  0  0  0
 23 53  1  0  0  0  0
 24 25  1  0  0  0  0
 24 54  1  0  0  0  0
 24 55  1  0  0  0  0
 25 26  1  0  0  0  0
 26 56  1  0  0  0  0
 26 57  1  0  0  0  0
 27 28  1  0  0  0  0
 27 58  1  0  0  0  0
 27 59  1  0  0  0  0
 28 29  1  0  0  0  0
 28 60  1  0  0  0  0
 29 61  1  0  0  0  0
 29 62  1  0  0  0  0
 29 63  1  0  0  0  0
M  CHG  1   3   1
M  END
> <s_m_source_file>
AV-unprocessed.smi

> <i_m_source_file_index>
249

> <i_lp_mmshare_version>
43012

> <i_f3d_flags>
0

> <s_epik_input>
W0NIM11bQ0gyXU4xW0NIMl1bQ0gyXVtDQEhdKFtDSDJdW0NASF0xW0NIM10pTihbQ0gzXSljKG5bY0hdbjIpYyhjMjMpbltjSF1uM1tDSDJdW0NASF0oW0NIMl1bT0hdKVtDQEBIXTRbQ0gyXVtDSDJdT1tDSDJdNA==

> <s_epik_cmdline>
J2VwaWtfcHl0aG9uJywgJy1waCcsICc3LjAnLCAnLXRuJywgJzgnLCAnLW1hJywgJzIwMCcsICctbWV0YWxfYmluZGluZycsICctaW1hZScsICc8aW5maWxlLm1hZT4nLCAnLW9tYWUnLCAnPG91dGZpbGUubWFlPic=

> <r_lp_tautomer_probability>
1

> <r_epik_Ionization_Penalty>
0.00294688

> <r_epik_Ionization_Penalty_Charging>
0.00169971

> <r_epik_Ionization_Penalty_Neutral>
0.00124717

> <r_epik_State_Penalty>
-0

> <r_epik_Charging_Adjusted_Penalty>
0.00169971

> <i_epik_Tot_Q>
1

> <i_epik_Tot_abs_Q>
1

> <r_epik_Metal_State_Penalty>
-0

> <b_epik_Metal_Only>
0

> <s_lp_Force_Field>
OPLS_2005

> <r_lp_Energy>
56.7339

> <b_lp_Chiralities_Consistent>
1

> <s_lp_Variant>
AV-unprocessed.smi:249-22

> <Gold.Version>
5.8.1

> <Gold.Id.Protein>
6NUR|6NUR_protein|mol2

> <Gold.PLP.Fitness>
48.2075

> <Gold.PLP.PLP>
-39.6160

> <Gold.PLP.part.hbond>
-4.0000

> <Gold.PLP.part.metal>
0.0000

> <Gold.PLP.part.buried>
-7.3388

> <Gold.PLP.part.nonpolar>
-27.6048

> <Gold.PLP.part.repulsive>
0.1100

> <Gold.PLP.ligand.clash>
0.0000

> <Gold.PLP.ligand.torsion>
2.1247

> <Gold.PLP.Chemscore.Hbond>
3.9920

> <Gold.PLP.Chemscore.CHOScore>
0.0677

> <Gold.PLP.Chemscore.Metal>
0.0000

> <Gold.Chemscore.Hbonds>
donor molecule, donor type, donor heavy atom, donor atom, acceptor molecule, acceptor atom, score
      L1  H     3    64       P1  8028  2.00
      P1  H  6896  6907       L1    12  1.00
      P1  H  6896  6909       L1    21  1.00

> <Gold.PLP.Chemscore.Internal.Correction>
0.6618

> <Gold.Rescore>
     Score         DG    S(hbond)    S(metal)    S(lipo)     H(rot)  DE(clash)    DE(int)     intcor
     12.98     -15.46       2.09        0.00      89.17       2.90       0.43       2.05       ----

> <Gold.Chemscore.Fitness>
12.9761

> <Gold.Chemscore.DG>
-15.4590

> <Gold.Chemscore.ZeroCoef>
-5.4800

> <Gold.Chemscore.Hbond>
2.0872

> <Gold.Chemscore.Metal>
0.0000

> <Gold.Chemscore.Lipo>
89.1738

> <Gold.Chemscore.Internal_Hbond>
0.0000

> <Gold.Chemscore.DEClash>
0.4326

> <Gold.Chemscore.DEInternal>
2.0503

> <Gold.Chemscore.Rot>
2.9006

> <Gold.Chemscore.Internal.Correction>
   9.000000E+99

> <Gold.Chemscore.Hbonds>
donor molecule, donor type, donor heavy atom, donor atom, acceptor molecule, acceptor atom, score
      L1  H     3    64       P1  8028  0.96
      P1  H  6896  6907       L1    12  0.21
      P1  H  6896  6909       L1    21  0.69

> <Gold.Chemscore.Hbond.Weighted>
-6.9713

> <Gold.Chemscore.Metal.Weighted>
-0.0000

> <Gold.Chemscore.Lipo.Weighted>
-10.4333

> <Gold.Chemscore.Internal_Hbond.Weighted>
0.0000

> <Gold.Chemscore.DEClash.Weighted>
0.4326

> <Gold.Chemscore.DEInternal.Weighted>
2.0503

> <Gold.Chemscore.Rot.Weighted>
7.4256

> <Gold.Chemscore.Internal.Correction.Weighted>
   9.000000E+99

> <Gold.Protein.RotatedTorsions>
[ 6907 6896 6895 6894 ] final  -65.40 input  -60.11 | X-H torsion
[ 7974 7965 7964 7962 ] final  -12.36 input  175.53 | X-H torsion
[ 8008 7997 7996 7995 ] final  -28.17 input   59.86 | X-H torsion
[ 10167 10162 10161 10158 ] final  127.52 input  -65.29 | X-H torsion
[ 10718 10713 10712 10709 ] final  -83.63 input   66.30 | X-H torsion
[ 10763 10752 10751 10750 ] final  -70.77 input  -60.55 | X-H torsion
[ 11005 11000 10999 10996 ] final   -2.31 input  -57.11 | X-H torsion

> <Gold.Protein.ActiveResidues>
 VAL166  LYS551  ARG553  GLY616  TRP617  ASP618  TYR619  PRO620  LYS621  CYS622 
 ASP623  PHE694  ASN695  SER759  ASP760  ASP761  ALA762  ILE779  LEU786  VAL792 
 PHE793  MET794  SER795  GLU796  ALA797  LYS798  CYS799  TRP800  GLU811  SER814 

> <Gold.Protein.RotatedAtoms>
  150.7527  134.6166  159.6113 H   0  0  0  0  0  0  0  0  0  0  0  0  # atno 6907 bound_to 6896
  152.3484  134.7036  160.0252 H   0  0  0  0  0  0  0  0  0  0  0  0  # atno 6908 bound_to 6896
  151.7465  133.3289  159.3416 H   0  0  0  0  0  0  0  0  0  0  0  0  # atno 6909 bound_to 6896
  146.2155  140.3046  142.8378 H   0  0  0  0  0  0  0  0  0  0  0  0  # atno 7974 bound_to 7965
  154.4344  140.1852  156.1048 H   0  0  0  0  0  0  0  0  0  0  0  0  # atno 8008 bound_to 7997
  156.0264  140.3335  155.7067 H   0  0  0  0  0  0  0  0  0  0  0  0  # atno 8009 bound_to 7997
  155.5903  140.0630  157.2751 H   0  0  0  0  0  0  0  0  0  0  0  0  # atno 8010 bound_to 7997
  139.5574  144.6858  151.4142 H   0  0  0  0  0  0  0  0  0  0  0  0  # atno 10167 bound_to 10162
  156.0016  130.4672  150.4287 H   0  0  0  0  0  0  0  0  0  0  0  0  # atno 10718 bound_to 10713
  154.4223  135.5983  153.6017 H   0  0  0  0  0  0  0  0  0  0  0  0  # atno 10763 bound_to 10752
  152.9794  135.5955  154.3940 H   0  0  0  0  0  0  0  0  0  0  0  0  # atno 10764 bound_to 10752
  154.3767  135.2841  155.2214 H   0  0  0  0  0  0  0  0  0  0  0  0  # atno 10765 bound_to 10752
  140.6569  133.9355  155.8413 H   0  0  0  0  0  0  0  0  0  0  0  0  # atno 11005 bound_to 11000
  144.9032  140.7668  143.5854 LP  0  0  0  0  0  0  0  0  0  0  0  0  # atno 17320 bound_to 7965
  145.2973  139.1862  143.4708 LP  0  0  0  0  0  0  0  0  0  0  0  0  # atno 17321 bound_to 7965
  140.6849  143.7997  150.7172 LP  0  0  0  0  0  0  0  0  0  0  0  0  # atno 17342 bound_to 10162
  140.1461  143.4398  152.2162 LP  0  0  0  0  0  0  0  0  0  0  0  0  # atno 17343 bound_to 10162
  157.2338  131.0510  151.2477 LP  0  0  0  0  0  0  0  0  0  0  0  0  # atno 17370 bound_to 10713
  157.3686  130.7169  149.6549 LP  0  0  0  0  0  0  0  0  0  0  0  0  # atno 17371 bound_to 10713
  141.0495  134.0506  157.3802 LP  0  0  0  0  0  0  0  0  0  0  0  0  # atno 17394 bound_to 11000
  139.9026  135.0170  156.7341 LP  0  0  0  0  0  0  0  0  0  0  0  0  # atno 17395 bound_to 11000

$$$$
