AV-unprocessed.smi:1|AV-procd|sdf|2|dock5
  -GOLD-   2262015 83D 1   1.00000     0.00000
 Structure written by MMmdl.
 57 62  0  0  0  0  0  0  0  0  1 V2000
  153.9352  139.8706  158.8966 O   0  0  0  0  0  0  0  0  0  0  0  0
  153.6108  140.1722  160.0456 C   0  0  0  0  0  0  0  0  0  0  0  0
  153.6042  139.2033  161.1274 N   0  0  0  0  0  0  0  0  0  0  0  0
  153.9907  137.9064  161.0911 C   0  0  0  0  0  0  0  0  0  0  0  0
  154.3692  137.2896  159.9404 N   0  0  0  0  0  0  0  0  0  0  0  0
  154.7392  136.0059  159.9557 C   0  0  0  0  0  0  0  0  0  0  0  0
  154.8054  135.1701  160.9940 N   0  0  0  0  0  0  0  0  0  0  0  0
  154.4324  135.7829  162.1537 C   0  0  0  0  0  0  0  0  0  0  0  0
  154.0162  137.1371  162.2836 C   0  0  0  0  0  0  0  0  0  0  0  0
  153.7138  137.4105  163.6115 N   0  0  0  0  0  0  0  0  0  0  0  0
  153.9397  136.2804  164.2265 C   0  0  0  0  0  0  0  0  0  0  0  0
  154.3765  135.2497  163.4246 N   0  0  0  0  0  0  0  0  0  0  0  0
  154.7169  133.8572  163.8345 C   0  0  1  0  0  0  0  0  0  0  0  0
  153.5722  133.2182  164.2956 O   0  0  0  0  0  0  0  0  0  0  0  0
  153.7168  131.8121  164.0983 C   0  0  1  0  0  0  0  0  0  0  0  0
  152.3887  131.2348  163.5859 C   0  0  0  0  0  0  0  0  0  0  0  0
  151.7730  130.4606  164.6036 O   0  0  0  0  0  0  0  0  0  0  0  0
  150.7185  129.6744  164.3193 C   0  0  0  0  0  0  0  0  0  0  0  0
  150.2465  129.5448  163.1880 O   0  0  0  0  0  0  0  0  0  0  0  0
  150.1909  128.9651  165.5200 C   0  0  0  0  0  0  0  0  0  0  0  0
  148.9711  128.2559  165.4271 C   0  0  0  0  0  0  0  0  0  0  0  0
  148.4577  127.5635  166.5410 C   0  0  0  0  0  0  0  0  0  0  0  0
  149.1568  127.5745  167.7621 C   0  0  0  0  0  0  0  0  0  0  0  0
  150.3683  128.2817  167.8693 C   0  0  0  0  0  0  0  0  0  0  0  0
  150.8821  128.9754  166.7567 C   0  0  0  0  0  0  0  0  0  0  0  0
  154.9077  131.6167  163.1427 C   0  0  2  0  0  0  0  0  0  0  0  0
  156.0339  131.1379  163.8591 O   0  0  0  0  0  0  0  0  0  0  0  0
  157.3846  131.9883  163.3635 S   0  0  0  0  0  0  0  0  0  0  0  0
  157.9948  132.6120  164.5475 O   0  0  0  0  0  0  0  0  0  0  0  0
  158.1459  131.1433  162.4311 O   0  0  0  0  0  0  0  0  0  0  0  0
  156.6170  133.1801  162.4797 O   0  0  0  0  0  0  0  0  0  0  0  0
  155.2193  133.0348  162.6522 C   0  0  2  0  0  0  0  0  0  0  0  0
  153.1149  141.5464  160.3901 C   0  0  0  0  0  0  0  0  0  0  0  0
  152.7965  142.4610  159.3611 C   0  0  0  0  0  0  0  0  0  0  0  0
  152.3439  143.7576  159.6745 C   0  0  0  0  0  0  0  0  0  0  0  0
  152.2135  144.1532  161.0190 C   0  0  0  0  0  0  0  0  0  0  0  0
  152.5401  143.2525  162.0503 C   0  0  0  0  0  0  0  0  0  0  0  0
  152.9924  141.9554  161.7383 C   0  0  0  0  0  0  0  0  0  0  0  0
  153.2743  139.5414  162.0197 H   0  0  0  0  0  0  0  0  0  0  0  0
  155.0240  135.5902  159.0002 H   0  0  0  0  0  0  0  0  0  0  0  0
  153.7965  136.1679  165.2914 H   0  0  0  0  0  0  0  0  0  0  0  0
  155.4429  133.9544  164.6432 H   0  0  0  0  0  0  0  0  0  0  0  0
  153.9423  131.3614  165.0656 H   0  0  0  0  0  0  0  0  0  0  0  0
  151.7153  132.0439  163.3010 H   0  0  0  0  0  0  0  0  0  0  0  0
  152.5670  130.6283  162.6969 H   0  0  0  0  0  0  0  0  0  0  0  0
  148.4194  128.2293  164.4984 H   0  0  0  0  0  0  0  0  0  0  0  0
  147.5270  127.0219  166.4575 H   0  0  0  0  0  0  0  0  0  0  0  0
  148.7635  127.0420  168.6155 H   0  0  0  0  0  0  0  0  0  0  0  0
  150.9059  128.2924  168.8059 H   0  0  0  0  0  0  0  0  0  0  0  0
  151.8151  129.5068  166.8728 H   0  0  0  0  0  0  0  0  0  0  0  0
  154.6980  130.9329  162.3191 H   0  0  0  0  0  0  0  0  0  0  0  0
  154.6591  133.2767  161.7489 H   0  0  0  0  0  0  0  0  0  0  0  0
  152.8916  142.1727  158.3241 H   0  0  0  0  0  0  0  0  0  0  0  0
  152.0978  144.4492  158.8822 H   0  0  0  0  0  0  0  0  0  0  0  0
  151.8668  145.1475  161.2588 H   0  0  0  0  0  0  0  0  0  0  0  0
  152.4463  143.5578  163.0820 H   0  0  0  0  0  0  0  0  0  0  0  0
  153.2465  141.2832  162.5450 H   0  0  0  0  0  0  0  0  0  0  0  0
  1  2  2  0  0  0  0
  2  3  1  0  0  0  0
  2 33  1  0  0  0  0
  3  4  1  0  0  0  0
  3 39  1  0  0  0  0
  4  9  1  0  0  0  0
  4  5  2  0  0  0  0
  5  6  1  0  0  0  0
  6  7  2  0  0  0  0
  6 40  1  0  0  0  0
  7  8  1  0  0  0  0
  8 12  1  0  0  0  0
  8  9  2  0  0  0  0
  9 10  1  0  0  0  0
 10 11  2  0  0  0  0
 11 12  1  0  0  0  0
 11 41  1  0  0  0  0
 12 13  1  0  0  0  0
 13 32  1  0  0  0  0
 13 14  1  0  0  0  0
 13 42  1  0  0  0  0
 14 15  1  0  0  0  0
 15 16  1  0  0  0  0
 15 26  1  0  0  0  0
 15 43  1  0  0  0  0
 16 17  1  0  0  0  0
 16 44  1  0  0  0  0
 16 45  1  0  0  0  0
 17 18  1  0  0  0  0
 18 19  2  0  0  0  0
 18 20  1  0  0  0  0
 20 25  1  0  0  0  0
 20 21  2  0  0  0  0
 21 22  1  0  0  0  0
 21 46  1  0  0  0  0
 22 23  2  0  0  0  0
 22 47  1  0  0  0  0
 23 24  1  0  0  0  0
 23 48  1  0  0  0  0
 24 25  2  0  0  0  0
 24 49  1  0  0  0  0
 25 50  1  0  0  0  0
 26 32  1  0  0  0  0
 26 27  1  0  0  0  0
 26 51  1  0  0  0  0
 27 28  1  0  0  0  0
 28 29  2  0  0  0  0
 28 30  2  0  0  0  0
 28 31  1  0  0  0  0
 31 32  1  0  0  0  0
 32 52  1  0  0  0  0
 33 38  1  0  0  0  0
 33 34  2  0  0  0  0
 34 35  1  0  0  0  0
 34 53  1  0  0  0  0
 35 36  2  0  0  0  0
 35 54  1  0  0  0  0
 36 37  1  0  0  0  0
 36 55  1  0  0  0  0
 37 38  2  0  0  0  0
 37 56  1  0  0  0  0
 38 57  1  0  0  0  0
M  END
> <s_m_source_file>
AV-unprocessed.smi

> <i_m_source_file_index>
1

> <i_lp_mmshare_version>
43012

> <i_f3d_flags>
0

> <s_epik_input>
W2NIXTFbY0hdW2NIXVtjSF1bY0hdYzFDKD1PKVtOSF1jKG5bY0hdbjIpYyhjMjMpbltjSF1uM1tDQEBIXShbQ0BIXShbQ0BIXTQ1KU9TKE81KSg9Tyk9TylPW0NASF00W0NIMl1PQyg9TyljNltjSF1bY0hdW2NIXVtjSF1bY0hdNg==

> <s_epik_cmdline>
J2VwaWtfcHl0aG9uJywgJy1waCcsICc3LjAnLCAnLXRuJywgJzgnLCAnLW1hJywgJzIwMCcsICctbWV0YWxfYmluZGluZycsICctaW1hZScsICc8aW5maWxlLm1hZT4nLCAnLW9tYWUnLCAnPG91dGZpbGUubWFlPic=

> <r_lp_tautomer_probability>
1

> <r_epik_Ionization_Penalty>
0.00195722

> <r_epik_Ionization_Penalty_Charging>
0

> <r_epik_Ionization_Penalty_Neutral>
0.00195722

> <r_epik_State_Penalty>
0.00633741

> <r_epik_Charging_Adjusted_Penalty>
0.00633741

> <i_epik_Tot_Q>
0

> <i_epik_Tot_abs_Q>
0

> <r_epik_Metal_State_Penalty>
0.341185

> <b_epik_Metal_Only>
0

> <s_epik_Chemistry_Notes>
This compound has an ester and may undergo hydrolysis at high or low pH. This compound contains an acetal/aminal-like group ( X-CH(R)-Y where X, Y are N, S, or O) that may be acid/base labile, releasing an aldehyde.

> <s_lp_Force_Field>
OPLS_2005

> <r_lp_Energy>
43.8604

> <b_lp_Chiralities_Consistent>
1

> <s_lp_Variant>
AV-unprocessed.smi:1-2

> <Gold.Version>
5.8.1

> <Gold.Id.Protein>
6NUR|6NUR_protein|mol2

> <Gold.PLP.Fitness>
63.8779

> <Gold.PLP.PLP>
-63.1187

> <Gold.PLP.part.hbond>
-1.0000

> <Gold.PLP.part.metal>
0.0000

> <Gold.PLP.part.buried>
-5.7071

> <Gold.PLP.part.nonpolar>
-56.5125

> <Gold.PLP.part.repulsive>
0.2376

> <Gold.PLP.ligand.clash>
0.5422

> <Gold.PLP.ligand.torsion>
0.8788

> <Gold.PLP.Chemscore.Hbond>
1.0000

> <Gold.PLP.Chemscore.CHOScore>
0.0000

> <Gold.PLP.Chemscore.Metal>
0.0000

> <Gold.Chemscore.Hbonds>
donor molecule, donor type, donor heavy atom, donor atom, acceptor molecule, acceptor atom, score
      P1  H  7997  8008       L1     1  1.00

> <Gold.PLP.Chemscore.Internal.Correction>
0.0590

> <Gold.Rescore>
     Score         DG    S(hbond)    S(metal)    S(lipo)     H(rot)  DE(clash)    DE(int)     intcor
     16.95     -20.97       0.99        0.00     150.74       2.13       0.32       3.70       ----

> <Gold.Chemscore.Fitness>
16.9519

> <Gold.Chemscore.DG>
-20.9719

> <Gold.Chemscore.ZeroCoef>
-5.4800

> <Gold.Chemscore.Hbond>
0.9932

> <Gold.Chemscore.Metal>
0.0000

> <Gold.Chemscore.Lipo>
150.7356

> <Gold.Chemscore.Internal_Hbond>
0.0000

> <Gold.Chemscore.DEClash>
0.3159

> <Gold.Chemscore.DEInternal>
3.7041

> <Gold.Chemscore.Rot>
2.1333

> <Gold.Chemscore.Internal.Correction>
   9.000000E+99

> <Gold.Chemscore.Hbonds>
donor molecule, donor type, donor heavy atom, donor atom, acceptor molecule, acceptor atom, score
      P1  H  7997  8008       L1     1  0.98

> <Gold.Chemscore.Hbond.Weighted>
-3.3172

> <Gold.Chemscore.Metal.Weighted>
-0.0000

> <Gold.Chemscore.Lipo.Weighted>
-17.6361

> <Gold.Chemscore.Internal_Hbond.Weighted>
0.0000

> <Gold.Chemscore.DEClash.Weighted>
0.3159

> <Gold.Chemscore.DEInternal.Weighted>
3.7041

> <Gold.Chemscore.Rot.Weighted>
5.4614

> <Gold.Chemscore.Internal.Correction.Weighted>
   9.000000E+99

> <Gold.Protein.RotatedTorsions>
[ 6907 6896 6895 6894 ] final   42.93 input  -60.11 | X-H torsion
[ 7974 7965 7964 7962 ] final  127.80 input  175.53 | X-H torsion
[ 8008 7997 7996 7995 ] final -102.12 input   59.86 | X-H torsion
[ 10167 10162 10161 10158 ] final -162.68 input  -65.29 | X-H torsion
[ 10718 10713 10712 10709 ] final  128.80 input   66.30 | X-H torsion
[ 10763 10752 10751 10750 ] final -123.58 input  -60.55 | X-H torsion
[ 11005 11000 10999 10996 ] final   97.42 input  -57.11 | X-H torsion

> <Gold.Protein.ActiveResidues>
 VAL166  LYS551  ARG553  GLY616  TRP617  ASP618  TYR619  PRO620  LYS621  CYS622 
 ASP623  PHE694  ASN695  SER759  ASP760  ASP761  ALA762  ILE779  LEU786  VAL792 
 PHE793  MET794  SER795  GLU796  ALA797  LYS798  CYS799  TRP800  GLU811  SER814 

> <Gold.Protein.RotatedAtoms>
  152.2140  134.8475  160.0493 H   0  0  0  0  0  0  0  0  0  0  0  0  # atno 6907 bound_to 6896
  151.9283  133.3599  159.3930 H   0  0  0  0  0  0  0  0  0  0  0  0  # atno 6908 bound_to 6896
  150.6983  134.4489  159.5371 H   0  0  0  0  0  0  0  0  0  0  0  0  # atno 6909 bound_to 6896
  145.0466  139.3918  143.5075 H   0  0  0  0  0  0  0  0  0  0  0  0  # atno 7974 bound_to 7965
  154.8521  140.0430  157.1611 H   0  0  0  0  0  0  0  0  0  0  0  0  # atno 8008 bound_to 7997
  154.8931  140.2989  155.5339 H   0  0  0  0  0  0  0  0  0  0  0  0  # atno 8009 bound_to 7997
  156.2996  140.2390  156.3949 H   0  0  0  0  0  0  0  0  0  0  0  0  # atno 8010 bound_to 7997
  139.6375  144.0323  152.2065 H   0  0  0  0  0  0  0  0  0  0  0  0  # atno 10167 bound_to 10162
  157.5212  131.1098  150.9150 H   0  0  0  0  0  0  0  0  0  0  0  0  # atno 10718 bound_to 10713
  154.8710  135.4093  154.2967 H   0  0  0  0  0  0  0  0  0  0  0  0  # atno 10763 bound_to 10752
  153.3833  135.7012  153.6554 H   0  0  0  0  0  0  0  0  0  0  0  0  # atno 10764 bound_to 10752
  153.5367  135.3656  155.2672 H   0  0  0  0  0  0  0  0  0  0  0  0  # atno 10765 bound_to 10752
  139.8776  134.9000  156.4305 H   0  0  0  0  0  0  0  0  0  0  0  0  # atno 11005 bound_to 11000
  146.3514  140.0094  142.8668 LP  0  0  0  0  0  0  0  0  0  0  0  0  # atno 17320 bound_to 7965
  145.1580  140.9658  143.4394 LP  0  0  0  0  0  0  0  0  0  0  0  0  # atno 17321 bound_to 7965
  140.0004  144.6298  150.7735 LP  0  0  0  0  0  0  0  0  0  0  0  0  # atno 17342 bound_to 10162
  140.7473  143.2904  151.3346 LP  0  0  0  0  0  0  0  0  0  0  0  0  # atno 17343 bound_to 10162
  156.9760  130.5509  149.5293 LP  0  0  0  0  0  0  0  0  0  0  0  0  # atno 17370 bound_to 10713
  156.0355  130.5443  150.8642 LP  0  0  0  0  0  0  0  0  0  0  0  0  # atno 17371 bound_to 10713
  140.9070  133.7739  155.9747 LP  0  0  0  0  0  0  0  0  0  0  0  0  # atno 17394 bound_to 11000
  140.8588  134.2865  157.5243 LP  0  0  0  0  0  0  0  0  0  0  0  0  # atno 17395 bound_to 11000

$$$$
