AV-unprocessed.smi:102|AV-procd|sdf|958|dock10
  -GOLD-   2262017493D 1   1.00000     0.00000
 Structure written by MMmdl.
 44 45  0  0  0  0  0  0  0  0  1 V2000
  143.1510  138.5434  160.0773 C   0  0  0  0  0  0  0  0  0  0  0  0
  144.6651  138.3808  160.0654 C   0  0  0  0  0  0  0  0  0  0  0  0
  145.3382  138.5549  161.0817 O   0  0  0  0  0  0  0  0  0  0  0  0
  145.1337  138.0376  158.8514 O   0  0  0  0  0  0  0  0  0  0  0  0
  146.5160  138.1717  158.5514 C   0  0  0  0  0  0  0  0  0  0  0  0
  147.0213  136.9773  157.7274 C   0  0  1  0  0  0  0  0  0  0  0  0
  147.4769  137.4057  156.4475 O   0  0  0  0  0  0  0  0  0  0  0  0
  148.5223  136.5943  156.0028 C   0  0  1  0  0  0  0  0  0  0  0  0
  149.7000  137.4703  155.6471 N   0  0  0  0  0  0  0  0  0  0  0  0
  149.6594  138.8461  155.8347 C   0  0  0  0  0  0  0  0  0  0  0  0
  150.6996  139.6608  155.5391 C   0  0  0  0  0  0  0  0  0  0  0  0
  150.5872  140.9837  155.7482 F   0  0  0  0  0  0  0  0  0  0  0  0
  151.9431  139.1153  155.0028 C   0  0  0  0  0  0  0  0  0  0  0  0
  152.9378  139.7717  154.7015 O   0  0  0  0  0  0  0  0  0  0  0  0
  151.9437  137.7262  154.8457 N   0  0  0  0  0  0  0  0  0  0  0  0
  150.8801  136.8745  155.1494 C   0  0  0  0  0  0  0  0  0  0  0  0
  150.9988  135.6613  154.9847 O   0  0  0  0  0  0  0  0  0  0  0  0
  148.9051  135.6418  157.1433 C   0  0  2  0  0  0  0  0  0  0  0  0
  148.3459  134.3553  156.8944 O   0  0  0  0  0  0  0  0  0  0  0  0
  148.8124  133.2743  157.5420 C   0  0  0  0  0  0  0  0  0  0  0  0
  147.8880  132.0724  157.4027 C   0  0  0  0  0  0  0  0  0  0  0  0
  149.8593  133.2085  158.1858 O   0  0  0  0  0  0  0  0  0  0  0  0
  148.2482  136.3098  158.3435 C   0  0  2  0  0  0  0  0  0  0  0  0
  147.8984  135.3847  159.3665 O   0  0  0  0  0  0  0  0  0  0  0  0
  147.6196  135.8235  160.6060 C   0  0  0  0  0  0  0  0  0  0  0  0
  147.1962  134.6974  161.5394 C   0  0  0  0  0  0  0  0  0  0  0  0
  147.6923  136.9891  160.9952 O   0  0  0  0  0  0  0  0  0  0  0  0
  152.7870  137.3031  154.4862 H   0  0  0  0  0  0  0  0  0  0  0  0
  142.6676  137.5986  159.8287 H   0  0  0  0  0  0  0  0  0  0  0  0
  142.8442  139.2936  159.3481 H   0  0  0  0  0  0  0  0  0  0  0  0
  142.8077  138.8586  161.0629 H   0  0  0  0  0  0  0  0  0  0  0  0
  146.7320  139.1172  158.0517 H   0  0  0  0  0  0  0  0  0  0  0  0
  147.0485  138.1982  159.5021 H   0  0  0  0  0  0  0  0  0  0  0  0
  146.2310  136.2377  157.5867 H   0  0  0  0  0  0  0  0  0  0  0  0
  148.2098  136.0941  155.0843 H   0  0  0  0  0  0  0  0  0  0  0  0
  148.7676  139.3033  156.2372 H   0  0  0  0  0  0  0  0  0  0  0  0
  149.9881  135.5912  157.2686 H   0  0  0  0  0  0  0  0  0  0  0  0
  146.8481  132.3736  157.5299 H   0  0  0  0  0  0  0  0  0  0  0  0
  148.1232  131.3198  158.1556 H   0  0  0  0  0  0  0  0  0  0  0  0
  148.0008  131.6220  156.4166 H   0  0  0  0  0  0  0  0  0  0  0  0
  148.9095  137.0862  158.7317 H   0  0  0  0  0  0  0  0  0  0  0  0
  146.4902  134.0327  161.0410 H   0  0  0  0  0  0  0  0  0  0  0  0
  146.7185  135.1002  162.4329 H   0  0  0  0  0  0  0  0  0  0  0  0
  148.0658  134.1154  161.8451 H   0  0  0  0  0  0  0  0  0  0  0  0
  1  2  1  0  0  0  0
  1 29  1  0  0  0  0
  1 30  1  0  0  0  0
  1 31  1  0  0  0  0
  2  3  2  0  0  0  0
  2  4  1  0  0  0  0
  4  5  1  0  0  0  0
  5  6  1  0  0  0  0
  5 32  1  0  0  0  0
  5 33  1  0  0  0  0
  6 23  1  0  0  0  0
  6  7  1  0  0  0  0
  6 34  1  0  0  0  0
  7  8  1  0  0  0  0
  8  9  1  0  0  0  0
  8 18  1  0  0  0  0
  8 35  1  0  0  0  0
  9 16  1  0  0  0  0
  9 10  1  0  0  0  0
 10 11  2  0  0  0  0
 10 36  1  0  0  0  0
 11 12  1  0  0  0  0
 11 13  1  0  0  0  0
 13 14  2  0  0  0  0
 13 15  1  0  0  0  0
 15 28  1  0  0  0  0
 15 16  1  0  0  0  0
 16 17  2  0  0  0  0
 18 19  1  0  0  0  0
 18 23  1  0  0  0  0
 18 37  1  0  0  0  0
 19 20  1  0  0  0  0
 20 21  1  0  0  0  0
 20 22  2  0  0  0  0
 21 38  1  0  0  0  0
 21 39  1  0  0  0  0
 21 40  1  0  0  0  0
 23 24  1  0  0  0  0
 23 41  1  0  0  0  0
 24 25  1  0  0  0  0
 25 26  1  0  0  0  0
 25 27  2  0  0  0  0
 26 42  1  0  0  0  0
 26 43  1  0  0  0  0
 26 44  1  0  0  0  0
M  END
> <s_m_source_file>
AV-unprocessed.smi

> <i_m_source_file_index>
102

> <i_lp_mmshare_version>
43012

> <i_f3d_flags>
0

> <s_epik_input>
W0NIM11DKD1PKU9bQ0gyXVtDQEBIXTFPW0NASF0oW0NAQEhdKE9DKD1PKVtDSDNdKVtDQEhdMU9DKD1PKVtDSDNdKW4yW2NIXWMoRiljKD1PKVtuSF1jMj1P

> <s_epik_cmdline>
J2VwaWtfcHl0aG9uJywgJy1waCcsICc3LjAnLCAnLXRuJywgJzgnLCAnLW1hJywgJzIwMCcsICctbWV0YWxfYmluZGluZycsICctaW1hZScsICc8aW5maWxlLm1hZT4nLCAnLW9tYWUnLCAnPG91dGZpbGUubWFlPic=

> <r_lp_tautomer_probability>
0.999537

> <r_epik_Ionization_Penalty>
0.058267

> <r_epik_Ionization_Penalty_Charging>
0.058267

> <r_epik_Ionization_Penalty_Neutral>
6.57791e-16

> <r_epik_State_Penalty>
0.0503774

> <r_epik_Charging_Adjusted_Penalty>
0.108644

> <i_epik_Tot_Q>
0

> <i_epik_Tot_abs_Q>
0

> <r_epik_Metal_State_Penalty>
2.6644

> <b_epik_Metal_Only>
0

> <s_epik_Chemistry_Notes>
This compound has an ester and may undergo hydrolysis at high or low pH. This compound contains an acetal/aminal-like group ( X-CH(R)-Y where X, Y are N, S, or O) that may be acid/base labile, releasing an aldehyde.

> <s_lp_Force_Field>
OPLS_2005

> <r_lp_Energy>
14.1022

> <b_lp_Chiralities_Consistent>
1

> <s_lp_Variant>
AV-unprocessed.smi:102-14

> <Gold.Version>
5.8.1

> <Gold.Id.Protein>
6NUR|6NUR_protein|mol2

> <Gold.PLP.Fitness>
37.2875

> <Gold.PLP.PLP>
-25.8464

> <Gold.PLP.part.hbond>
-6.8863

> <Gold.PLP.part.metal>
0.0000

> <Gold.PLP.part.buried>
-2.5162

> <Gold.PLP.part.nonpolar>
-16.9926

> <Gold.PLP.part.repulsive>
0.3338

> <Gold.PLP.ligand.clash>
0.0000

> <Gold.PLP.ligand.torsion>
1.8094

> <Gold.PLP.Chemscore.Hbond>
4.9778

> <Gold.PLP.Chemscore.CHOScore>
0.0000

> <Gold.PLP.Chemscore.Metal>
0.0000

> <Gold.Chemscore.Hbonds>
donor molecule, donor type, donor heavy atom, donor atom, acceptor molecule, acceptor atom, score
      P1  H  6896  6909       L1    22  0.99
      P1  H  6931  6943       L1    27  0.92
      P1  H  6934  6947       L1    27  0.78
      P1  H  7989  7998       L1    14  0.12
      P1  H  7997  8008       L1    14  1.00
      P1  H 10752 10765       L1    17  0.95

> <Gold.PLP.Chemscore.Internal.Correction>
0.1263

> <Gold.Rescore>
     Score         DG    S(hbond)    S(metal)    S(lipo)     H(rot)  DE(clash)    DE(int)     intcor
      5.20     -11.15       3.95        0.00      24.25       4.05       0.13       5.82       ----

> <Gold.Chemscore.Fitness>
5.2000

> <Gold.Chemscore.DG>
-11.1505

> <Gold.Chemscore.ZeroCoef>
-5.4800

> <Gold.Chemscore.Hbond>
3.9539

> <Gold.Chemscore.Metal>
0.0000

> <Gold.Chemscore.Lipo>
24.2530

> <Gold.Chemscore.Internal_Hbond>
0.0000

> <Gold.Chemscore.DEClash>
0.1310

> <Gold.Chemscore.DEInternal>
5.8195

> <Gold.Chemscore.Rot>
4.0520

> <Gold.Chemscore.Internal.Correction>
   9.000000E+99

> <Gold.Chemscore.Hbonds>
donor molecule, donor type, donor heavy atom, donor atom, acceptor molecule, acceptor atom, score
      P1  H  6896  6909       L1    22  0.92
      P1  H  6931  6943       L1    27  0.84
      P1  H  6934  6947       L1    27  0.74
      P1  H  7997  8008       L1    14  0.94
      P1  H 10752 10765       L1    17  0.21

> <Gold.Chemscore.Hbond.Weighted>
-13.2061

> <Gold.Chemscore.Metal.Weighted>
-0.0000

> <Gold.Chemscore.Lipo.Weighted>
-2.8376

> <Gold.Chemscore.Internal_Hbond.Weighted>
0.0000

> <Gold.Chemscore.DEClash.Weighted>
0.1310

> <Gold.Chemscore.DEInternal.Weighted>
5.8195

> <Gold.Chemscore.Rot.Weighted>
10.3732

> <Gold.Chemscore.Internal.Correction.Weighted>
   9.000000E+99

> <Gold.Protein.RotatedTorsions>
[ 6907 6896 6895 6894 ] final   -7.31 input  -60.11 | X-H torsion
[ 7974 7965 7964 7962 ] final  141.98 input  175.53 | X-H torsion
[ 8008 7997 7996 7995 ] final  -25.69 input   59.86 | X-H torsion
[ 10167 10162 10161 10158 ] final  113.31 input  -65.29 | X-H torsion
[ 10718 10713 10712 10709 ] final  -72.92 input   66.30 | X-H torsion
[ 10763 10752 10751 10750 ] final  172.70 input  -60.55 | X-H torsion
[ 11005 11000 10999 10996 ] final -175.93 input  -57.11 | X-H torsion

> <Gold.Protein.ActiveResidues>
 VAL166  LYS551  ARG553  GLY616  TRP617  ASP618  TYR619  PRO620  LYS621  CYS622 
 ASP623  PHE694  ASN695  SER759  ASP760  ASP761  ALA762  ILE779  LEU786  VAL792 
 PHE793  MET794  SER795  GLU796  ALA797  LYS798  CYS799  TRP800  GLU811  SER814 

> <Gold.Protein.RotatedAtoms>
  151.4517  135.1030  159.9699 H   0  0  0  0  0  0  0  0  0  0  0  0  # atno 6907 bound_to 6896
  152.4886  133.8434  159.7175 H   0  0  0  0  0  0  0  0  0  0  0  0  # atno 6908 bound_to 6896
  150.9018  133.7050  159.2904 H   0  0  0  0  0  0  0  0  0  0  0  0  # atno 6909 bound_to 6896
  144.9048  139.5373  143.5736 H   0  0  0  0  0  0  0  0  0  0  0  0  # atno 7974 bound_to 7965
  154.4463  140.1920  156.0658 H   0  0  0  0  0  0  0  0  0  0  0  0  # atno 8008 bound_to 7997
  156.0548  140.3304  155.7366 H   0  0  0  0  0  0  0  0  0  0  0  0  # atno 8009 bound_to 7997
  155.5502  140.0594  157.2842 H   0  0  0  0  0  0  0  0  0  0  0  0  # atno 8010 bound_to 7997
  139.6471  144.7127  151.2122 H   0  0  0  0  0  0  0  0  0  0  0  0  # atno 10167 bound_to 10162
  156.0301  130.4383  150.2665 H   0  0  0  0  0  0  0  0  0  0  0  0  # atno 10718 bound_to 10713
  154.4298  135.2759  155.1920 H   0  0  0  0  0  0  0  0  0  0  0  0  # atno 10763 bound_to 10752
  154.3831  135.6083  153.5805 H   0  0  0  0  0  0  0  0  0  0  0  0  # atno 10764 bound_to 10752
  152.9836  135.5885  154.4607 H   0  0  0  0  0  0  0  0  0  0  0  0  # atno 10765 bound_to 10752
  140.4578  134.6283  157.4829 H   0  0  0  0  0  0  0  0  0  0  0  0  # atno 11005 bound_to 11000
  146.3128  139.7807  142.9007 LP  0  0  0  0  0  0  0  0  0  0  0  0  # atno 17320 bound_to 7965
  145.3554  141.0316  143.3315 LP  0  0  0  0  0  0  0  0  0  0  0  0  # atno 17321 bound_to 7965
  140.7519  143.6213  150.8510 LP  0  0  0  0  0  0  0  0  0  0  0  0  # atno 17342 bound_to 10162
  139.9857  143.5902  152.2927 LP  0  0  0  0  0  0  0  0  0  0  0  0  # atno 17343 bound_to 10162
  157.0767  131.0132  151.3171 LP  0  0  0  0  0  0  0  0  0  0  0  0  # atno 17370 bound_to 10713
  157.4958  130.7850  149.7554 LP  0  0  0  0  0  0  0  0  0  0  0  0  # atno 17371 bound_to 10713
  139.9965  134.6904  155.9601 LP  0  0  0  0  0  0  0  0  0  0  0  0  # atno 17394 bound_to 11000
  141.1635  133.6538  156.4399 LP  0  0  0  0  0  0  0  0  0  0  0  0  # atno 17395 bound_to 11000

$$$$
