AV-unprocessed.smi:639|AV-procd|sdf|3147|dock3
  -GOLD-   22720 0 73D 1   1.00000     0.00000
 Structure written by MMmdl.
 23 24  0  0  0  0  0  0  0  0  2 V2000
  151.7799  145.1389  158.9156 C   0  0  0  0  0  0  0  0  0  0  0  0
  152.1029  143.7484  158.6788 N   0  0  0  0  0  0  0  0  0  0  0  0
  151.5234  142.8692  157.7907 C   0  0  0  0  0  0  0  0  0  0  0  0
  152.1619  141.6656  157.9177 C   0  0  0  0  0  0  0  0  0  0  0  0
  151.9022  140.3731  157.1658 C   0  0  2  0  0  0  0  0  0  0  0  0
  151.5052  139.2244  158.1131 C   0  0  0  0  0  0  0  0  0  0  0  0
  153.0266  139.9758  156.3435 N   0  0  0  0  0  0  0  0  0  0  0  0
  152.7115  139.9869  155.0492 C   0  0  0  0  0  0  0  0  0  0  0  0
  153.5307  139.6904  154.1826 O   0  0  0  0  0  0  0  0  0  0  0  0
  151.4253  140.3542  154.8869 N   0  5  0  0  0  0  0  0  0  0  0  0
  150.8425  140.6005  156.0807 C   0  0  0  0  0  0  0  0  0  0  0  0
  149.6888  140.9387  156.3448 O   0  0  0  0  0  0  0  0  0  0  0  0
  153.1332  141.9248  158.9301 C   0  0  0  0  0  0  0  0  0  0  0  0
  153.0933  143.1670  159.3842 N   0  0  0  0  0  0  0  0  0  0  0  0
  150.9620  145.4491  158.2647 H   0  0  0  0  0  0  0  0  0  0  0  0
  152.6520  145.7600  158.7094 H   0  0  0  0  0  0  0  0  0  0  0  0
  151.4787  145.2760  159.9545 H   0  0  0  0  0  0  0  0  0  0  0  0
  150.7131  143.1677  157.1418 H   0  0  0  0  0  0  0  0  0  0  0  0
  150.6134  139.4719  158.6900 H   0  0  0  0  0  0  0  0  0  0  0  0
  152.3055  139.0070  158.8210 H   0  0  0  0  0  0  0  0  0  0  0  0
  151.2943  138.3059  157.5638 H   0  0  0  0  0  0  0  0  0  0  0  0
  153.9337  139.7363  156.7155 H   0  0  0  0  0  0  0  0  0  0  0  0
  153.8638  141.2479  159.3481 H   0  0  0  0  0  0  0  0  0  0  0  0
  1  2  1  0  0  0  0
  1 15  1  0  0  0  0
  1 16  1  0  0  0  0
  1 17  1  0  0  0  0
  2 14  1  0  0  0  0
  2  3  1  0  0  0  0
  3  4  2  0  0  0  0
  3 18  1  0  0  0  0
  4  5  1  0  0  0  0
  4 13  1  0  0  0  0
  5 11  1  0  0  0  0
  5  6  1  0  0  0  0
  5  7  1  0  0  0  0
  6 19  1  0  0  0  0
  6 20  1  0  0  0  0
  6 21  1  0  0  0  0
  7  8  1  0  0  0  0
  7 22  1  0  0  0  0
  8  9  2  0  0  0  0
  8 10  1  0  0  0  0
 10 11  1  0  0  0  0
 11 12  2  0  0  0  0
 13 14  2  0  0  0  0
 13 23  1  0  0  0  0
M  CHG  1  10  -1
M  END
> <s_m_source_file>
AV-unprocessed.smi

> <i_m_source_file_index>
639

> <i_lp_mmshare_version>
43012

> <i_f3d_flags>
0

> <s_epik_input>
W0NIM11uMVtjSF1jKFtjSF1uMSlbQ0BAXTIoW0NIM10pW05IXUMoPU8pW05IXUMyPU8=

> <s_epik_cmdline>
J2VwaWtfcHl0aG9uJywgJy1waCcsICc3LjAnLCAnLXRuJywgJzgnLCAnLW1hJywgJzIwMCcsICctbWV0YWxfYmluZGluZycsICctaW1hZScsICc8aW5maWxlLm1hZT4nLCAnLW9tYWUnLCAnPG91dGZpbGUubWFlPic=

> <r_lp_tautomer_probability>
1

> <r_epik_Ionization_Penalty>
1.82128

> <r_epik_Ionization_Penalty_Charging>
1.82122

> <r_epik_Ionization_Penalty_Neutral>
5.526e-05

> <r_epik_State_Penalty>
1.93645

> <r_epik_Charging_Adjusted_Penalty>
3.75767

> <i_epik_Tot_Q>
-1

> <i_epik_Tot_abs_Q>
1

> <r_epik_Metal_State_Penalty>
0.532903

> <b_epik_Metal_Only>
0

> <s_lp_Force_Field>
OPLS_2005

> <r_lp_Energy>
3.65424

> <b_lp_Chiralities_Consistent>
1

> <s_lp_Variant>
AV-unprocessed.smi:639-4

> <Gold.Version>
5.8.1

> <Gold.Id.Protein>
6NUR|6NUR_protein|mol2

> <Gold.PLP.Fitness>
36.2516

> <Gold.PLP.PLP>
-27.2814

> <Gold.PLP.part.hbond>
-2.0000

> <Gold.PLP.part.metal>
0.0000

> <Gold.PLP.part.buried>
-4.4116

> <Gold.PLP.part.nonpolar>
-21.1145

> <Gold.PLP.part.repulsive>
0.6528

> <Gold.PLP.ligand.clash>
0.0000

> <Gold.PLP.ligand.torsion>
0.0445

> <Gold.PLP.Chemscore.Hbond>
1.9920

> <Gold.PLP.Chemscore.CHOScore>
0.9984

> <Gold.PLP.Chemscore.Metal>
0.0000

> <Gold.Chemscore.Hbonds>
donor molecule, donor type, donor heavy atom, donor atom, acceptor molecule, acceptor atom, score
      P1  H  7989  7998       L1    10  0.63
      L1  C     3    18       P1  8028  0.31

> <Gold.PLP.Chemscore.Internal.Correction>
0.0881

> <Gold.Rescore>
     Score         DG    S(hbond)    S(metal)    S(lipo)     H(rot)  DE(clash)    DE(int)     intcor
     11.31     -12.29       1.28        0.00      43.55       1.00       0.06       0.92       ----

> <Gold.Chemscore.Fitness>
11.3109

> <Gold.Chemscore.DG>
-12.2930

> <Gold.Chemscore.ZeroCoef>
-5.4800

> <Gold.Chemscore.Hbond>
1.2808

> <Gold.Chemscore.Metal>
0.0000

> <Gold.Chemscore.Lipo>
43.5464

> <Gold.Chemscore.Internal_Hbond>
0.0000

> <Gold.Chemscore.DEClash>
0.0585

> <Gold.Chemscore.DEInternal>
0.9235

> <Gold.Chemscore.Rot>
1.0000

> <Gold.Chemscore.Internal.Correction>
   9.000000E+99

> <Gold.Chemscore.Hbonds>
donor molecule, donor type, donor heavy atom, donor atom, acceptor molecule, acceptor atom, score
      P1  H  7989  7998       L1    10  0.06

> <Gold.Chemscore.Hbond.Weighted>
-4.2780

> <Gold.Chemscore.Metal.Weighted>
-0.0000

> <Gold.Chemscore.Lipo.Weighted>
-5.0949

> <Gold.Chemscore.Internal_Hbond.Weighted>
0.0000

> <Gold.Chemscore.DEClash.Weighted>
0.0585

> <Gold.Chemscore.DEInternal.Weighted>
0.9235

> <Gold.Chemscore.Rot.Weighted>
2.5600

> <Gold.Chemscore.Internal.Correction.Weighted>
   9.000000E+99

> <Gold.Protein.RotatedTorsions>
[ 6907 6896 6895 6894 ] final  -10.27 input  -60.11 | X-H torsion
[ 7974 7965 7964 7962 ] final  -99.55 input  175.53 | X-H torsion
[ 8008 7997 7996 7995 ] final    2.09 input   59.86 | X-H torsion
[ 10167 10162 10161 10158 ] final  127.39 input  -65.29 | X-H torsion
[ 10718 10713 10712 10709 ] final  -53.79 input   66.30 | X-H torsion
[ 10763 10752 10751 10750 ] final  -69.82 input  -60.55 | X-H torsion
[ 11005 11000 10999 10996 ] final  -50.17 input  -57.11 | X-H torsion

> <Gold.Protein.ActiveResidues>
 VAL166  LYS551  ARG553  GLY616  TRP617  ASP618  TYR619  PRO620  LYS621  CYS622 
 ASP623  PHE694  ASN695  SER759  ASP760  ASP761  ALA762  ILE779  LEU786  VAL792 
 PHE793  MET794  SER795  GLU796  ALA797  LYS798  CYS799  TRP800  GLU811  SER814 

> <Gold.Protein.RotatedAtoms>
  151.4047  135.0976  159.9566 H   0  0  0  0  0  0  0  0  0  0  0  0  # atno 6907 bound_to 6896
  152.5039  133.8855  159.7378 H   0  0  0  0  0  0  0  0  0  0  0  0  # atno 6908 bound_to 6896
  150.9336  133.6681  159.2834 H   0  0  0  0  0  0  0  0  0  0  0  0  # atno 6909 bound_to 6896
  145.3061  140.9389  143.2796 H   0  0  0  0  0  0  0  0  0  0  0  0  # atno 7974 bound_to 7965
  154.6875  140.2646  155.6846 H   0  0  0  0  0  0  0  0  0  0  0  0  # atno 8008 bound_to 7997
  156.2720  140.2798  156.1364 H   0  0  0  0  0  0  0  0  0  0  0  0  # atno 8009 bound_to 7997
  155.0943  140.0374  157.2668 H   0  0  0  0  0  0  0  0  0  0  0  0  # atno 8010 bound_to 7997
  139.5580  144.6862  151.4124 H   0  0  0  0  0  0  0  0  0  0  0  0  # atno 10167 bound_to 10162
  156.1505  130.4151  149.9952 H   0  0  0  0  0  0  0  0  0  0  0  0  # atno 10718 bound_to 10713
  154.4088  135.6014  153.5940 H   0  0  0  0  0  0  0  0  0  0  0  0  # atno 10763 bound_to 10752
  152.9790  135.5924  154.4095 H   0  0  0  0  0  0  0  0  0  0  0  0  # atno 10764 bound_to 10752
  154.3904  135.2842  155.2136 H   0  0  0  0  0  0  0  0  0  0  0  0  # atno 10765 bound_to 10752
  141.0801  133.6655  156.3692 H   0  0  0  0  0  0  0  0  0  0  0  0  # atno 11005 bound_to 11000
  144.9053  139.4597  143.6613 LP  0  0  0  0  0  0  0  0  0  0  0  0  # atno 17320 bound_to 7965
  146.3134  139.7831  142.9002 LP  0  0  0  0  0  0  0  0  0  0  0  0  # atno 17321 bound_to 7965
  140.6856  143.7981  150.7182 LP  0  0  0  0  0  0  0  0  0  0  0  0  # atno 17342 bound_to 10162
  140.1447  143.4410  152.2170 LP  0  0  0  0  0  0  0  0  0  0  0  0  # atno 17343 bound_to 10162
  156.7811  130.9222  151.3646 LP  0  0  0  0  0  0  0  0  0  0  0  0  # atno 17370 bound_to 10713
  157.6653  130.9002  149.9918 LP  0  0  0  0  0  0  0  0  0  0  0  0  # atno 17371 bound_to 10713
  140.5488  134.6048  157.5401 LP  0  0  0  0  0  0  0  0  0  0  0  0  # atno 17394 bound_to 11000
  139.9614  134.7446  156.0228 LP  0  0  0  0  0  0  0  0  0  0  0  0  # atno 17395 bound_to 11000

$$$$
