#       Name:                AV-unprocessed.smi:208
#       Creating user name   scv26
#       Creation time:       Thu Mar 26 19:52:17 2020


#       File generated by GOLD software.
#

@<TRIPOS>MOLECULE
AV-unprocessed.smi:208
    59    62     1
SMALL
NO_CHARGES


@<TRIPOS>ATOM
      1 ****        -3.9031  -3.0834  -1.6926 C.3            1 S1                 0.0000
      2 ****        -2.8400  -2.8501  -0.6064 C.3            1 S1                 0.0000
      3 ****        -2.3582  -1.3899  -0.4219 C.3            1 S1                 0.0000
      4 ****        -3.4913  -0.4353   0.0282 C.2            1 S1                 0.0000
      5 ****        -4.1399  -0.7324   1.0325 O.2            1 S1                 0.0000
      6 ****        -3.7320   0.6968  -0.6763 N.am           1 S1                 0.0000
      7 ****        -4.7762   1.6325  -0.2573 C.3            1 S1                 0.0000
      8 ****        -2.9769   1.0914  -1.8718 C.3            1 S1                 0.0000
      9 ****        -2.3303  -0.1051  -2.5811 C.3            1 S1                 0.0000
     10 ****        -1.6282  -0.9419  -1.6159 N.pl3          1 S1                 0.0000
     11 ****        -0.3143  -0.6489  -1.4783 C.ar           1 S1                 0.0000
     12 ****         0.5402  -1.2026  -2.3737 N.ar           1 S1                 0.0000
     13 ****         1.8489  -0.9429  -2.2976 C.ar           1 S1                 0.0000
     14 ****         2.4970  -0.1673  -1.4259 N.ar           1 S1                 0.0000
     15 ****         1.6390   0.4001  -0.5305 C.ar           1 S1                 0.0000
     16 ****         0.2279   0.2187  -0.4876 C.ar           1 S1                 0.0000
     17 ****        -0.3147   0.9714   0.5470 N.2            1 S1                 0.0000
     18 ****         0.7166   1.5586   1.0885 C.2            1 S1                 0.0000
     19 ****         1.9317   1.2622   0.5124 N.pl3          1 S1                 0.0000
     20 ****         3.2312   1.7760   0.9184 C.3            1 S1                 0.0000
     21 ****         4.0344   0.8192   1.8244 C.3            1 S1                 0.0000
     22 ****         3.2010   0.3897   3.0451 C.3            1 S1                 0.0000
     23 ****         2.8182   1.5022   3.8285 O.3            1 S1                 0.0000
     24 ****         4.7521  -0.3373   1.1135 C.3            1 S1                 0.0000
     25 ****         6.0028  -0.0338   1.7662 O.3            1 S1                 0.0000
     26 ****         5.4712   1.2527   2.1474 C.3            1 S1                 0.0000
     27 ****        -4.2391  -4.1203  -1.6793 H              1 S1                 0.0000
     28 ****        -3.5059  -2.8894  -2.6882 H              1 S1                 0.0000
     29 ****        -4.7808  -2.4540  -1.5454 H              1 S1                 0.0000
     30 ****        -3.2385  -3.2116   0.3425 H              1 S1                 0.0000
     31 ****        -1.9786  -3.4857  -0.8155 H              1 S1                 0.0000
     32 ****        -1.6678  -1.4218   0.4224 H              1 S1                 0.0000
     33 ****        -5.7627   1.1952  -0.4163 H              1 S1                 0.0000
     34 ****        -4.7325   2.5705  -0.8121 H              1 S1                 0.0000
     35 ****        -4.6779   1.8813   0.8005 H              1 S1                 0.0000
     36 ****        -3.6244   1.6147  -2.5765 H              1 S1                 0.0000
     37 ****        -2.2079   1.8023  -1.5676 H              1 S1                 0.0000
     38 ****        -3.1003  -0.6964  -3.0745 H              1 S1                 0.0000
     39 ****        -1.6637   0.2416  -3.3729 H              1 S1                 0.0000
     40 ****         2.4648  -1.4253  -3.0421 H              1 S1                 0.0000
     41 ****         0.6197   2.2238   1.9344 H              1 S1                 0.0000
     42 ****         3.7941   2.0089   0.0139 H              1 S1                 0.0000
     43 ****         3.0768   2.7334   1.4174 H              1 S1                 0.0000
     44 ****         2.3103  -0.1657   2.7513 H              1 S1                 0.0000
     45 ****         3.7760  -0.2826   3.6830 H              1 S1                 0.0000
     46 ****         2.3415   1.1891   4.5822 H              1 S1                 0.0000
     47 ****         4.3692  -1.3255   1.3704 H              1 S1                 0.0000
     48 ****         4.8310  -0.2192   0.0322 H              1 S1                 0.0000
     49 ****         5.8482   2.0520   1.5070 H              1 S1                 0.0000
     50 ****         5.6426   1.4837   3.1994 H              1 S1                 0.0000
     51 ****        -3.9288  -1.5714   1.5339 LP             1 S1                 0.0000
     52 ****        -4.8775  -0.1345   1.3463 LP             1 S1                 0.0000
     53 ****         0.1910  -1.8054  -3.0912 LP             1 S1                 0.0000
     54 ****         3.4862  -0.0208  -1.4290 LP             1 S1                 0.0000
     55 ****        -1.2753   1.0458   0.8148 LP             1 S1                 0.0000
     56 ****         2.2350   2.1097   3.2892 LP             1 S1                 0.0000
     57 ****         3.6322   2.0002   4.1274 LP             1 S1                 0.0000
     58 ****         6.7878   0.0128   1.1484 LP             1 S1                 0.0000
     59 ****         6.2201  -0.6331   2.5366 LP             1 S1                 0.0000
@<TRIPOS>BOND
    1    1    2 1     
    2    1   27 1     
    3    1   28 1     
    4    1   29 1     
    5    2    3 1     
    6    2   30 1     
    7    2   31 1     
    8    3   10 1     
    9    3    4 1     
   10    3   32 1     
   11    4    5 2     
   12    4    6 am    
   13    6    7 1     
   14    6    8 1     
   15    7   33 1     
   16    7   34 1     
   17    7   35 1     
   18    8    9 1     
   19    8   36 1     
   20    8   37 1     
   21    9   10 1     
   22    9   38 1     
   23    9   39 1     
   24   10   11 1     
   25   11   16 ar    
   26   11   12 ar    
   27   12   13 ar    
   28   13   14 ar    
   29   13   40 1     
   30   14   15 ar    
   31   15   19 1     
   32   15   16 ar    
   33   16   17 1     
   34   17   18 2     
   35   18   19 1     
   36   18   41 1     
   37   19   20 1     
   38   20   21 1     
   39   20   42 1     
   40   20   43 1     
   41   21   26 1     
   42   21   22 1     
   43   21   24 1     
   44   22   23 1     
   45   22   44 1     
   46   22   45 1     
   47   23   46 1     
   48   24   25 1     
   49   24   47 1     
   50   24   48 1     
   51   25   26 1     
   52   26   49 1     
   53   26   50 1     
   54    5   51 1     
   55    5   52 1     
   56   12   53 1     
   57   14   54 1     
   58   17   55 1     
   59   23   56 1     
   60   23   57 1     
   61   25   58 1     
   62   25   59 1     
@<TRIPOS>SUBSTRUCTURE
      1 S1             1
@<TRIPOS>SET
LONE_PAIRS      STATIC     ATOMS    <user>   **** ""
9 51 52 53 54 55 56 57 58 59
DONOR_HYDROGENS      STATIC     ATOMS    <user>   **** ""
1 46
ATOM$BLUE        STATIC     ATOMS    COLORGROUP SYSTEM
9 51 52 53 54 55 56 57 58 59
ATOM$RED        STATIC     ATOMS    COLORGROUP SYSTEM
1 46
