AV-unprocessed.smi:1401|AV-procd|sdf|5689|dock5
  -GOLD-   22720 5313D 1   1.00000     0.00000
 Structure written by MMmdl.
 48 50  0  0  0  0  0  0  0  0  1 V2000
  153.9230  136.7403  164.3092 C   0  0  0  0  0  0  0  0  0  0  0  0
  154.5841  136.8074  162.9593 C   0  0  0  0  0  0  0  0  0  0  0  0
  154.7520  137.9846  162.4540 N   0  0  0  0  0  0  0  0  0  0  0  0
  155.3254  138.1604  161.2086 N   0  0  0  0  0  0  0  0  0  0  0  0
  155.3310  139.5621  160.7549 C   0  0  0  0  0  0  0  0  0  0  0  0
  153.9251  140.1561  160.5555 C   0  0  0  0  0  0  0  0  0  0  0  0
  153.1022  139.5474  159.8729 O   0  0  0  0  0  0  0  0  0  0  0  0
  153.6732  141.3531  161.1106 N   0  0  0  0  0  0  0  0  0  0  0  0
  152.4942  142.1819  160.8920 C   0  0  1  0  0  0  0  0  0  0  0  0
  152.4951  143.3788  161.8583 C   0  0  0  0  0  0  0  0  0  0  0  0
  152.4639  142.6329  159.4120 C   0  0  2  0  0  0  0  0  0  0  0  0
  153.4719  143.7470  159.0533 C   0  0  0  0  0  0  0  0  0  0  0  0
  152.5966  144.7810  158.3190 C   0  0  2  0  0  0  0  0  0  0  0  0
  151.7074  145.5102  159.3437 C   0  0  0  0  0  0  0  0  0  0  0  0
  150.6729  144.4343  159.7210 C   0  0  0  0  0  0  0  0  0  0  0  0
  151.1275  143.2194  158.8873 C   0  0  1  0  0  0  0  0  0  0  0  0
  151.5851  143.8961  157.6000 C   0  0  0  0  0  0  0  0  0  0  0  0
  155.7782  137.1478  160.4139 C   0  0  0  0  0  0  0  0  0  0  0  0
  156.2664  137.3465  159.3008 O   0  0  0  0  0  0  0  0  0  0  0  0
  155.5997  135.8173  161.0002 C   0  0  0  0  0  0  0  0  0  0  0  0
  156.0575  134.7278  160.1996 C   0  0  0  0  0  0  0  0  0  0  0  0
  156.4461  133.8437  159.5615 N   0  0  0  0  0  0  0  0  0  0  0  0
  155.0255  135.6328  162.2154 C   0  0  0  0  0  0  0  0  0  0  0  0
  154.8012  134.2724  162.8611 C   0  0  0  0  0  0  0  0  0  0  0  0
  154.5849  136.2789  165.0423 H   0  0  0  0  0  0  0  0  0  0  0  0
  153.0064  136.1522  164.2611 H   0  0  0  0  0  0  0  0  0  0  0  0
  153.6570  137.7309  164.6816 H   0  0  0  0  0  0  0  0  0  0  0  0
  155.8592  140.1738  161.4887 H   0  0  0  0  0  0  0  0  0  0  0  0
  155.8928  139.6787  159.8269 H   0  0  0  0  0  0  0  0  0  0  0  0
  154.4077  141.7649  161.6675 H   0  0  0  0  0  0  0  0  0  0  0  0
  151.6072  141.5798  161.0952 H   0  0  0  0  0  0  0  0  0  0  0  0
  151.6142  144.0041  161.7119 H   0  0  0  0  0  0  0  0  0  0  0  0
  153.3754  144.0059  161.7133 H   0  0  0  0  0  0  0  0  0  0  0  0
  152.4900  143.0495  162.8976 H   0  0  0  0  0  0  0  0  0  0  0  0
  152.6889  141.7603  158.7957 H   0  0  0  0  0  0  0  0  0  0  0  0
  153.9610  144.1797  159.9268 H   0  0  0  0  0  0  0  0  0  0  0  0
  154.2522  143.3581  158.3981 H   0  0  0  0  0  0  0  0  0  0  0  0
  153.1626  145.4542  157.6746 H   0  0  0  0  0  0  0  0  0  0  0  0
  152.2738  145.8637  160.2062 H   0  0  0  0  0  0  0  0  0  0  0  0
  151.2154  146.3718  158.8905 H   0  0  0  0  0  0  0  0  0  0  0  0
  150.6403  144.2359  160.7918 H   0  0  0  0  0  0  0  0  0  0  0  0
  149.6726  144.7481  159.4199 H   0  0  0  0  0  0  0  0  0  0  0  0
  150.3474  142.4710  158.7458 H   0  0  0  0  0  0  0  0  0  0  0  0
  150.7939  144.4586  157.1009 H   0  0  0  0  0  0  0  0  0  0  0  0
  152.0410  143.2088  156.8850 H   0  0  0  0  0  0  0  0  0  0  0  0
  155.1769  133.4554  162.2456 H   0  0  0  0  0  0  0  0  0  0  0  0
  153.7365  134.0983  163.0225 H   0  0  0  0  0  0  0  0  0  0  0  0
  155.3096  134.2164  163.8243 H   0  0  0  0  0  0  0  0  0  0  0  0
  1  2  1  0  0  0  0
  1 25  1  0  0  0  0
  1 26  1  0  0  0  0
  1 27  1  0  0  0  0
  2 23  1  0  0  0  0
  2  3  2  0  0  0  0
  3  4  1  0  0  0  0
  4  5  1  0  0  0  0
  4 18  1  0  0  0  0
  5  6  1  0  0  0  0
  5 28  1  0  0  0  0
  5 29  1  0  0  0  0
  6  7  2  0  0  0  0
  6  8  1  0  0  0  0
  8  9  1  0  0  0  0
  8 30  1  0  0  0  0
  9 10  1  0  0  0  0
  9 11  1  0  0  0  0
  9 31  1  0  0  0  0
 10 32  1  0  0  0  0
 10 33  1  0  0  0  0
 10 34  1  0  0  0  0
 11 16  1  0  0  0  0
 11 12  1  0  0  0  0
 11 35  1  0  0  0  0
 12 13  1  0  0  0  0
 12 36  1  0  0  0  0
 12 37  1  0  0  0  0
 13 17  1  0  0  0  0
 13 14  1  0  0  0  0
 13 38  1  0  0  0  0
 14 15  1  0  0  0  0
 14 39  1  0  0  0  0
 14 40  1  0  0  0  0
 15 16  1  0  0  0  0
 15 41  1  0  0  0  0
 15 42  1  0  0  0  0
 16 17  1  0  0  0  0
 16 43  1  0  0  0  0
 17 44  1  0  0  0  0
 17 45  1  0  0  0  0
 18 19  2  0  0  0  0
 18 20  1  0  0  0  0
 20 21  1  0  0  0  0
 20 23  2  0  0  0  0
 21 22  3  0  0  0  0
 23 24  1  0  0  0  0
 24 46  1  0  0  0  0
 24 47  1  0  0  0  0
 24 48  1  0  0  0  0
M  END
> <s_m_source_file>
AV-unprocessed.smi

> <i_m_source_file_index>
1401

> <i_lp_mmshare_version>
43012

> <i_f3d_flags>
0

> <s_epik_input>
TiNDYyhjMVtDSDNdKWMoPU8pbihuYzFbQ0gzXSlbQ0gyXUMoPU8pW05IXVtDQEhdKFtDSDNdKVtDQEhdKFtDSDJdW0NASF0yMylbQ0BIXShbQ0gyXTMpW0NIMl1bQ0gyXTI=

> <s_epik_cmdline>
J2VwaWtfcHl0aG9uJywgJy1waCcsICc3LjAnLCAnLXRuJywgJzgnLCAnLW1hJywgJzIwMCcsICctbWV0YWxfYmluZGluZycsICctaW1hZScsICc8aW5maWxlLm1hZT4nLCAnLW9tYWUnLCAnPG91dGZpbGUubWFlPic=

> <r_lp_tautomer_probability>
1

> <r_epik_Ionization_Penalty>
2.16501e-08

> <r_epik_Ionization_Penalty_Charging>
2.29436e-11

> <r_epik_Ionization_Penalty_Neutral>
2.16271e-08

> <r_epik_State_Penalty>
-0

> <r_epik_Charging_Adjusted_Penalty>
2.29436e-11

> <i_epik_Tot_Q>
0

> <i_epik_Tot_abs_Q>
0

> <r_epik_Metal_State_Penalty>
-0

> <b_epik_Metal_Only>
0

> <s_lp_Force_Field>
OPLS_2005

> <r_lp_Energy>
65.4856

> <b_lp_Chiralities_Consistent>
1

> <s_lp_Variant>
AV-unprocessed.smi:1401-2

> <Gold.Version>
5.8.1

> <Gold.Id.Protein>
6NUR|6NUR_protein|mol2

> <Gold.PLP.Fitness>
47.5795

> <Gold.PLP.PLP>
-48.2568

> <Gold.PLP.part.hbond>
0.0000

> <Gold.PLP.part.metal>
0.0000

> <Gold.PLP.part.buried>
-5.9318

> <Gold.PLP.part.nonpolar>
-42.4989

> <Gold.PLP.part.repulsive>
0.0464

> <Gold.PLP.ligand.clash>
0.0000

> <Gold.PLP.ligand.torsion>
0.3583

> <Gold.PLP.Chemscore.Hbond>
0.0000

> <Gold.PLP.Chemscore.CHOScore>
0.0000

> <Gold.PLP.Chemscore.Metal>
0.0000

> <Gold.PLP.Chemscore.Internal.Correction>
0.0393

> <Gold.Rescore>
     Score         DG    S(hbond)    S(metal)    S(lipo)     H(rot)  DE(clash)    DE(int)     intcor
     17.33     -18.04       0.00        0.00     143.00       1.63       0.19       0.53       ----

> <Gold.Chemscore.Fitness>
17.3279

> <Gold.Chemscore.DG>
-18.0429

> <Gold.Chemscore.ZeroCoef>
-5.4800

> <Gold.Chemscore.Hbond>
0.0000

> <Gold.Chemscore.Metal>
0.0000

> <Gold.Chemscore.Lipo>
142.9975

> <Gold.Chemscore.Internal_Hbond>
0.0000

> <Gold.Chemscore.DEClash>
0.1877

> <Gold.Chemscore.DEInternal>
0.5272

> <Gold.Chemscore.Rot>
1.6281

> <Gold.Chemscore.Internal.Correction>
   9.000000E+99

> <Gold.Chemscore.Hbond.Weighted>
-0.0000

> <Gold.Chemscore.Metal.Weighted>
-0.0000

> <Gold.Chemscore.Lipo.Weighted>
-16.7307

> <Gold.Chemscore.Internal_Hbond.Weighted>
0.0000

> <Gold.Chemscore.DEClash.Weighted>
0.1877

> <Gold.Chemscore.DEInternal.Weighted>
0.5272

> <Gold.Chemscore.Rot.Weighted>
4.1678

> <Gold.Chemscore.Internal.Correction.Weighted>
   9.000000E+99

> <Gold.Protein.RotatedTorsions>
[ 6907 6896 6895 6894 ] final  -35.35 input  -60.11 | X-H torsion
[ 7974 7965 7964 7962 ] final  156.96 input  175.53 | X-H torsion
[ 8008 7997 7996 7995 ] final   68.14 input   59.86 | X-H torsion
[ 10167 10162 10161 10158 ] final -114.18 input  -65.29 | X-H torsion
[ 10718 10713 10712 10709 ] final   31.52 input   66.30 | X-H torsion
[ 10763 10752 10751 10750 ] final   94.90 input  -60.55 | X-H torsion
[ 11005 11000 10999 10996 ] final  -98.92 input  -57.11 | X-H torsion

> <Gold.Protein.ActiveResidues>
 VAL166  LYS551  ARG553  GLY616  TRP617  ASP618  TYR619  PRO620  LYS621  CYS622 
 ASP623  PHE694  ASN695  SER759  ASP760  ASP761  ALA762  ILE779  LEU786  VAL792 
 PHE793  MET794  SER795  GLU796  ALA797  LYS798  CYS799  TRP800  GLU811  SER814 

> <Gold.Protein.RotatedAtoms>
  151.0409  134.9606  159.8160 H   0  0  0  0  0  0  0  0  0  0  0  0  # atno 6907 bound_to 6896
  152.5364  134.2659  159.8963 H   0  0  0  0  0  0  0  0  0  0  0  0  # atno 6908 bound_to 6896
  151.2671  133.4231  159.2653 H   0  0  0  0  0  0  0  0  0  0  0  0  # atno 6909 bound_to 6896
  144.7931  139.7275  143.6213 H   0  0  0  0  0  0  0  0  0  0  0  0  # atno 7974 bound_to 7965
  155.7038  140.3495  155.4944 H   0  0  0  0  0  0  0  0  0  0  0  0  # atno 8008 bound_to 7997
  155.9417  140.1103  157.1072 H   0  0  0  0  0  0  0  0  0  0  0  0  # atno 8009 bound_to 7997
  154.4104  140.1211  156.4922 H   0  0  0  0  0  0  0  0  0  0  0  0  # atno 8010 bound_to 7997
  140.1038  143.4589  152.1796 H   0  0  0  0  0  0  0  0  0  0  0  0  # atno 10167 bound_to 10162
  157.2735  130.7220  149.6517 H   0  0  0  0  0  0  0  0  0  0  0  0  # atno 10718 bound_to 10713
  153.2470  135.4273  155.0758 H   0  0  0  0  0  0  0  0  0  0  0  0  # atno 10763 bound_to 10752
  154.8365  135.3416  154.6567 H   0  0  0  0  0  0  0  0  0  0  0  0  # atno 10764 bound_to 10752
  153.6989  135.7029  153.5125 H   0  0  0  0  0  0  0  0  0  0  0  0  # atno 10765 bound_to 10752
  141.1327  133.8282  157.0903 H   0  0  0  0  0  0  0  0  0  0  0  0  # atno 11005 bound_to 11000
  146.2191  139.5602  142.9630 LP  0  0  0  0  0  0  0  0  0  0  0  0  # atno 17320 bound_to 7965
  145.5742  141.0390  143.2157 LP  0  0  0  0  0  0  0  0  0  0  0  0  # atno 17321 bound_to 7965
  139.5657  144.7433  151.4030 LP  0  0  0  0  0  0  0  0  0  0  0  0  # atno 17342 bound_to 10162
  140.6963  143.7740  150.7332 LP  0  0  0  0  0  0  0  0  0  0  0  0  # atno 17343 bound_to 10162
  155.9663  130.4360  150.5116 LP  0  0  0  0  0  0  0  0  0  0  0  0  # atno 17370 bound_to 10713
  157.3045  131.0651  151.2045 LP  0  0  0  0  0  0  0  0  0  0  0  0  # atno 17371 bound_to 10713
  140.0396  134.9861  157.0937 LP  0  0  0  0  0  0  0  0  0  0  0  0  # atno 17394 bound_to 11000
  140.4156  134.1935  155.7163 LP  0  0  0  0  0  0  0  0  0  0  0  0  # atno 17395 bound_to 11000

$$$$
