AV-unprocessed.smi:1574|AV-procd|sdf|6336|dock8
  -GOLD-   22720 6553D 1   1.00000     0.00000
 Structure written by MMmdl.
 40 41  0  0  0  0  0  0  0  0  1 V2000
  151.6045  145.2700  159.3160 C   0  0  0  0  0  0  0  0  0  0  0  0
  152.4854  144.0702  159.6965 C   0  0  1  0  0  0  0  0  0  0  0  0
  152.3173  143.6922  161.1817 C   0  0  0  0  0  0  0  0  0  0  0  0
  153.2351  142.5239  161.5748 C   0  0  0  0  0  0  0  0  0  0  0  0
  153.0075  141.3048  160.6687 C   0  0  0  0  0  0  0  0  0  0  0  0
  153.1728  141.6741  159.1846 C   0  0  0  0  0  0  0  0  0  0  0  0
  152.2580  142.8444  158.7797 C   0  0  1  0  0  0  0  0  0  0  0  0
  150.9134  142.3960  158.8930 O   0  0  0  0  0  0  0  0  0  0  0  0
  150.5844  141.2864  158.0727 C   0  0  0  0  0  0  0  0  0  0  0  0
  150.5419  141.7407  156.6070 C   0  0  0  0  0  0  0  0  0  0  0  0
  150.3087  140.6169  155.7060 N   0  0  0  0  0  0  0  0  0  0  0  0
  151.2660  139.8613  155.1450 C   0  0  0  0  0  0  0  0  0  0  0  0
  152.4703  140.0469  155.3174 O   0  0  0  0  0  0  0  0  0  0  0  0
  150.7939  138.7187  154.2471 C   0  0  0  0  0  0  0  0  0  0  0  0
  151.1088  137.4345  154.8421 N   0  0  0  0  0  0  0  0  0  0  0  0
  150.4872  136.2561  154.7640 C   0  0  0  0  0  0  0  0  0  0  0  0
  151.1057  135.3292  155.4797 N   0  0  0  0  0  0  0  0  0  0  0  0
  152.1783  136.0156  156.0242 N   0  0  0  0  0  0  0  0  0  0  0  0
  152.1853  137.2655  155.6496 N   0  0  0  0  0  0  0  0  0  0  0  0
  150.5473  145.0550  159.4726 H   0  0  0  0  0  0  0  0  0  0  0  0
  151.7407  145.5416  158.2689 H   0  0  0  0  0  0  0  0  0  0  0  0
  151.8548  146.1438  159.9178 H   0  0  0  0  0  0  0  0  0  0  0  0
  153.5203  144.3862  159.5573 H   0  0  0  0  0  0  0  0  0  0  0  0
  152.5370  144.5541  161.8125 H   0  0  0  0  0  0  0  0  0  0  0  0
  151.2793  143.4236  161.3815 H   0  0  0  0  0  0  0  0  0  0  0  0
  154.2769  142.8393  161.5072 H   0  0  0  0  0  0  0  0  0  0  0  0
  153.0613  142.2497  162.6159 H   0  0  0  0  0  0  0  0  0  0  0  0
  153.7050  140.5097  160.9333 H   0  0  0  0  0  0  0  0  0  0  0  0
  152.0068  140.9051  160.8394 H   0  0  0  0  0  0  0  0  0  0  0  0
  154.2119  141.9456  158.9949 H   0  0  0  0  0  0  0  0  0  0  0  0
  152.9647  140.8052  158.5595 H   0  0  0  0  0  0  0  0  0  0  0  0
  152.4920  143.1144  157.7478 H   0  0  0  0  0  0  0  0  0  0  0  0
  151.3073  140.4784  158.1942 H   0  0  0  0  0  0  0  0  0  0  0  0
  149.6095  140.8990  158.3716 H   0  0  0  0  0  0  0  0  0  0  0  0
  149.7215  142.4455  156.4715 H   0  0  0  0  0  0  0  0  0  0  0  0
  151.4554  142.2749  156.3403 H   0  0  0  0  0  0  0  0  0  0  0  0
  149.3463  140.3915  155.5001 H   0  0  0  0  0  0  0  0  0  0  0  0
  149.7146  138.7828  154.1026 H   0  0  0  0  0  0  0  0  0  0  0  0
  151.2561  138.7887  153.2610 H   0  0  0  0  0  0  0  0  0  0  0  0
  149.5883  136.0813  154.1914 H   0  0  0  0  0  0  0  0  0  0  0  0
  1  2  1  0  0  0  0
  1 20  1  0  0  0  0
  1 21  1  0  0  0  0
  1 22  1  0  0  0  0
  2  7  1  0  0  0  0
  2  3  1  0  0  0  0
  2 23  1  0  0  0  0
  3  4  1  0  0  0  0
  3 24  1  0  0  0  0
  3 25  1  0  0  0  0
  4  5  1  0  0  0  0
  4 26  1  0  0  0  0
  4 27  1  0  0  0  0
  5  6  1  0  0  0  0
  5 28  1  0  0  0  0
  5 29  1  0  0  0  0
  6  7  1  0  0  0  0
  6 30  1  0  0  0  0
  6 31  1  0  0  0  0
  7  8  1  0  0  0  0
  7 32  1  0  0  0  0
  8  9  1  0  0  0  0
  9 10  1  0  0  0  0
  9 33  1  0  0  0  0
  9 34  1  0  0  0  0
 10 11  1  0  0  0  0
 10 35  1  0  0  0  0
 10 36  1  0  0  0  0
 11 12  1  0  0  0  0
 11 37  1  0  0  0  0
 12 13  2  0  0  0  0
 12 14  1  0  0  0  0
 14 15  1  0  0  0  0
 14 38  1  0  0  0  0
 14 39  1  0  0  0  0
 15 19  1  0  0  0  0
 15 16  1  0  0  0  0
 16 17  2  0  0  0  0
 16 40  1  0  0  0  0
 17 18  1  0  0  0  0
 18 19  2  0  0  0  0
M  END
> <s_m_source_file>
AV-unprocessed.smi

> <i_m_source_file_index>
1574

> <i_lp_mmshare_version>
43012

> <i_f3d_flags>
0

> <s_epik_input>
W0NIM11bQ0BASF0xW0NIMl1bQ0gyXVtDSDJdW0NIMl1bQ0BIXTFPW0NIMl1bQ0gyXVtOSF1DKD1PKVtDSDJdbjJbY0hdbm5uMg==

> <s_epik_cmdline>
J2VwaWtfcHl0aG9uJywgJy1waCcsICc3LjAnLCAnLXRuJywgJzgnLCAnLW1hJywgJzIwMCcsICctbWV0YWxfYmluZGluZycsICctaW1hZScsICc8aW5maWxlLm1hZT4nLCAnLW9tYWUnLCAnPG91dGZpbGUubWFlPic=

> <r_lp_tautomer_probability>
1

> <r_epik_Ionization_Penalty>
1.44269e-06

> <r_epik_Ionization_Penalty_Charging>
0

> <r_epik_Ionization_Penalty_Neutral>
1.44269e-06

> <r_epik_State_Penalty>
-0

> <r_epik_Charging_Adjusted_Penalty>
0

> <i_epik_Tot_Q>
0

> <i_epik_Tot_abs_Q>
0

> <r_epik_Metal_State_Penalty>
-0

> <b_epik_Metal_Only>
0

> <s_lp_Force_Field>
OPLS_2005

> <r_lp_Energy>
13.6049

> <b_lp_Chiralities_Consistent>
1

> <s_lp_Variant>
AV-unprocessed.smi:1574-2

> <Gold.Version>
5.8.1

> <Gold.Id.Protein>
6NUR|6NUR_protein|mol2

> <Gold.PLP.Fitness>
51.1437

> <Gold.PLP.PLP>
-43.3816

> <Gold.PLP.part.hbond>
-5.0000

> <Gold.PLP.part.metal>
0.0000

> <Gold.PLP.part.buried>
-3.9448

> <Gold.PLP.part.nonpolar>
-35.3772

> <Gold.PLP.part.repulsive>
0.2269

> <Gold.PLP.ligand.clash>
0.0000

> <Gold.PLP.ligand.torsion>
0.6478

> <Gold.PLP.Chemscore.Hbond>
2.0000

> <Gold.PLP.Chemscore.CHOScore>
1.0000

> <Gold.PLP.Chemscore.Metal>
0.0000

> <Gold.Chemscore.Hbonds>
donor molecule, donor type, donor heavy atom, donor atom, acceptor molecule, acceptor atom, score
      P1  H  7997  8008       L1    13  0.96
      P1  H 10752 10763       L1    18  0.98
      L1  C    16    40       P1  7948  1.00

> <Gold.PLP.Chemscore.Internal.Correction>
0.0577

> <Gold.Rescore>
     Score         DG    S(hbond)    S(metal)    S(lipo)     H(rot)  DE(clash)    DE(int)     intcor
     11.52     -14.02       1.18        0.00     102.87       2.90       0.54       1.95       ----

> <Gold.Chemscore.Fitness>
11.5219

> <Gold.Chemscore.DG>
-14.0187

> <Gold.Chemscore.ZeroCoef>
-5.4800

> <Gold.Chemscore.Hbond>
1.1795

> <Gold.Chemscore.Metal>
0.0000

> <Gold.Chemscore.Lipo>
102.8712

> <Gold.Chemscore.Internal_Hbond>
0.0000

> <Gold.Chemscore.DEClash>
0.5444

> <Gold.Chemscore.DEInternal>
1.9524

> <Gold.Chemscore.Rot>
2.9050

> <Gold.Chemscore.Internal.Correction>
   9.000000E+99

> <Gold.Chemscore.Hbonds>
donor molecule, donor type, donor heavy atom, donor atom, acceptor molecule, acceptor atom, score
      P1  H  7997  8008       L1    13  0.90
      P1  H 10752 10763       L1    18  0.12

> <Gold.Chemscore.Hbond.Weighted>
-3.9395

> <Gold.Chemscore.Metal.Weighted>
-0.0000

> <Gold.Chemscore.Lipo.Weighted>
-12.0359

> <Gold.Chemscore.Internal_Hbond.Weighted>
0.0000

> <Gold.Chemscore.DEClash.Weighted>
0.5444

> <Gold.Chemscore.DEInternal.Weighted>
1.9524

> <Gold.Chemscore.Rot.Weighted>
7.4367

> <Gold.Chemscore.Internal.Correction.Weighted>
   9.000000E+99

> <Gold.Protein.RotatedTorsions>
[ 6907 6896 6895 6894 ] final   -4.79 input  -60.11 | X-H torsion
[ 7974 7965 7964 7962 ] final -103.88 input  175.53 | X-H torsion
[ 8008 7997 7996 7995 ] final  -27.25 input   59.86 | X-H torsion
[ 10167 10162 10161 10158 ] final  -41.95 input  -65.29 | X-H torsion
[ 10718 10713 10712 10709 ] final   20.73 input   66.30 | X-H torsion
[ 10763 10752 10751 10750 ] final  110.26 input  -60.55 | X-H torsion
[ 11005 11000 10999 10996 ] final   54.99 input  -57.11 | X-H torsion

> <Gold.Protein.ActiveResidues>
 VAL166  LYS551  ARG553  GLY616  TRP617  ASP618  TYR619  PRO620  LYS621  CYS622 
 ASP623  PHE694  ASN695  SER759  ASP760  ASP761  ALA762  ILE779  LEU786  VAL792 
 PHE793  MET794  SER795  GLU796  ALA797  LYS798  CYS799  TRP800  GLU811  SER814 

> <Gold.Protein.RotatedAtoms>
  151.4921  135.1058  159.9805 H   0  0  0  0  0  0  0  0  0  0  0  0  # atno 6907 bound_to 6896
  152.4737  133.8084  159.7001 H   0  0  0  0  0  0  0  0  0  0  0  0  # atno 6908 bound_to 6896
  150.8761  133.7375  159.2972 H   0  0  0  0  0  0  0  0  0  0  0  0  # atno 6909 bound_to 6896
  145.2502  140.9235  143.3099 H   0  0  0  0  0  0  0  0  0  0  0  0  # atno 7974 bound_to 7965
  154.4386  140.1877  156.0902 H   0  0  0  0  0  0  0  0  0  0  0  0  # atno 8008 bound_to 7997
  156.0372  140.3324  155.7177 H   0  0  0  0  0  0  0  0  0  0  0  0  # atno 8009 bound_to 7997
  155.5753  140.0616  157.2787 H   0  0  0  0  0  0  0  0  0  0  0  0  # atno 8010 bound_to 7997
  140.6985  143.3065  151.3140 H   0  0  0  0  0  0  0  0  0  0  0  0  # atno 10167 bound_to 10162
  157.1285  130.6581  149.5945 H   0  0  0  0  0  0  0  0  0  0  0  0  # atno 10718 bound_to 10713
  153.4464  135.3754  155.2258 H   0  0  0  0  0  0  0  0  0  0  0  0  # atno 10763 bound_to 10752
  154.8755  135.3875  154.4090 H   0  0  0  0  0  0  0  0  0  0  0  0  # atno 10764 bound_to 10752
  153.4643  135.7087  153.6095 H   0  0  0  0  0  0  0  0  0  0  0  0  # atno 10765 bound_to 10752
  140.0642  134.5559  155.9117 H   0  0  0  0  0  0  0  0  0  0  0  0  # atno 11005 bound_to 11000
  144.9510  139.4083  143.6402 LP  0  0  0  0  0  0  0  0  0  0  0  0  # atno 17320 bound_to 7965
  146.3304  139.8517  142.8872 LP  0  0  0  0  0  0  0  0  0  0  0  0  # atno 17321 bound_to 7965
  139.6473  144.0428  152.2600 LP  0  0  0  0  0  0  0  0  0  0  0  0  # atno 17342 bound_to 10162
  139.9953  144.6332  150.7778 LP  0  0  0  0  0  0  0  0  0  0  0  0  # atno 17343 bound_to 10162
  155.9813  130.4819  150.6819 LP  0  0  0  0  0  0  0  0  0  0  0  0  # atno 17370 bound_to 10713
  157.4413  131.0861  151.0940 LP  0  0  0  0  0  0  0  0  0  0  0  0  # atno 17371 bound_to 10713
  141.1986  133.6602  156.5800 LP  0  0  0  0  0  0  0  0  0  0  0  0  # atno 17394 bound_to 11000
  140.3723  134.7595  157.4607 LP  0  0  0  0  0  0  0  0  0  0  0  0  # atno 17395 bound_to 11000

$$$$
