#       Name:                AV-unprocessed.smi:1705
#       Creating user name   scv26
#       Creation time:       Fri Mar 27 08:08:53 2020


#       File generated by GOLD software.
#

@<TRIPOS>MOLECULE
AV-unprocessed.smi:1705
    45    46     1
SMALL
NO_CHARGES


@<TRIPOS>ATOM
      1 ****        -2.5786  -0.4320  -0.3767 C.3            1 S1                 0.0000
      2 ****        -1.4113  -1.0156  -1.1878 C.3            1 S1                 0.0000
      3 ****        -0.3043  -0.0710  -1.2062 N.pl3          1 S1                 0.0000
      4 ****         1.0154  -0.3321  -0.8510 C.2            1 S1                 0.0000
      5 ****         1.9796   0.6296  -0.9070 C.2            1 S1                 0.0000
      6 ****         1.7440   1.9611  -1.3693 C.1            1 S1                 0.0000
      7 ****         1.5844   3.0467  -1.7399 N.1            1 S1                 0.0000
      8 ****         3.3641   0.3615  -0.5239 C.2            1 S1                 0.0000
      9 ****         4.2617   1.2069  -0.5557 O.2            1 S1                 0.0000
     10 ****         3.6154  -0.9583  -0.0982 N.am           1 S1                 0.0000
     11 ****         4.9761  -1.2556   0.3043 C.3            1 S1                 0.0000
     12 ****         2.6366  -1.9713  -0.0271 C.2            1 S1                 0.0000
     13 ****         2.9059  -3.1075   0.3743 O.2            1 S1                 0.0000
     14 ****         1.3225  -1.6303  -0.4319 N.am           1 S1                 0.0000
     15 ****         0.3614  -2.7103  -0.3287 C.3            1 S1                 0.0000
     16 ****        -1.8180  -1.3564  -2.6332 C.3            1 S1                 0.0000
     17 ****        -2.9366  -2.3894  -2.7602 C.3            1 S1                 0.0000
     18 ****        -2.7267  -2.9595  -4.1526 C.3            1 S1                 0.0000
     19 ****        -1.2685  -2.6201  -4.4753 C.3            1 S1                 0.0000
     20 ****        -0.7499  -2.0139  -3.2989 O.3            1 S1                 0.0000
     21 ****        -3.3907  -1.1517  -0.2744 H              1 S1                 0.0000
     22 ****        -2.9827   0.4618  -0.8532 H              1 S1                 0.0000
     23 ****        -2.2637  -0.1543   0.6290 H              1 S1                 0.0000
     24 ****        -1.0847  -1.9390  -0.7104 H              1 S1                 0.0000
     25 ****        -0.3995   0.6011  -1.9540 H              1 S1                 0.0000
     26 ****         5.1076  -2.3147   0.5221 H              1 S1                 0.0000
     27 ****         5.1837  -0.6593   1.1944 H              1 S1                 0.0000
     28 ****         5.6319  -0.9778  -0.5229 H              1 S1                 0.0000
     29 ****         0.2458  -2.9389   0.7321 H              1 S1                 0.0000
     30 ****         0.7521  -3.5621  -0.8889 H              1 S1                 0.0000
     31 ****        -0.5955  -2.4171  -0.7543 H              1 S1                 0.0000
     32 ****        -2.0806  -0.4518  -3.1855 H              1 S1                 0.0000
     33 ****        -2.8052  -3.1781  -2.0180 H              1 S1                 0.0000
     34 ****        -3.9294  -1.9595  -2.6255 H              1 S1                 0.0000
     35 ****        -2.9155  -4.0331  -4.1770 H              1 S1                 0.0000
     36 ****        -3.3936  -2.4841  -4.8730 H              1 S1                 0.0000
     37 ****        -0.6849  -3.5016  -4.7415 H              1 S1                 0.0000
     38 ****        -1.2123  -1.9117  -5.3030 H              1 S1                 0.0000
     39 ****         1.4466   3.9841  -2.0599 LP             1 S1                 0.0000
     40 ****         4.0603   2.1390  -0.8569 LP             1 S1                 0.0000
     41 ****         5.1908   0.9603  -0.2803 LP             1 S1                 0.0000
     42 ****         3.8384  -3.3290   0.6596 LP             1 S1                 0.0000
     43 ****         2.1915  -3.8061   0.4141 LP             1 S1                 0.0000
     44 ****        -0.3579  -2.7136  -2.7017 LP             1 S1                 0.0000
     45 ****        -0.0430  -1.3500  -3.5432 LP             1 S1                 0.0000
@<TRIPOS>BOND
    1    1    2 1     
    2    1   21 1     
    3    1   22 1     
    4    1   23 1     
    5    2    3 1     
    6    2   16 1     
    7    2   24 1     
    8    3    4 1     
    9    3   25 1     
   10    4   14 1     
   11    4    5 2     
   12    5    6 1     
   13    5    8 1     
   14    6    7 3     
   15    8    9 2     
   16    8   10 am    
   17   10   11 1     
   18   10   12 am    
   19   11   26 1     
   20   11   27 1     
   21   11   28 1     
   22   12   13 2     
   23   12   14 am    
   24   14   15 1     
   25   15   29 1     
   26   15   30 1     
   27   15   31 1     
   28   16   20 1     
   29   16   17 1     
   30   16   32 1     
   31   17   18 1     
   32   17   33 1     
   33   17   34 1     
   34   18   19 1     
   35   18   35 1     
   36   18   36 1     
   37   19   20 1     
   38   19   37 1     
   39   19   38 1     
   40    7   39 1     
   41    9   40 1     
   42    9   41 1     
   43   13   42 1     
   44   13   43 1     
   45   20   44 1     
   46   20   45 1     
@<TRIPOS>SUBSTRUCTURE
      1 S1             1
@<TRIPOS>SET
LONE_PAIRS      STATIC     ATOMS    <user>   **** ""
7 39 40 41 42 43 44 45
DONOR_HYDROGENS      STATIC     ATOMS    <user>   **** ""
1 25
ATOM$BLUE        STATIC     ATOMS    COLORGROUP SYSTEM
7 39 40 41 42 43 44 45
ATOM$RED        STATIC     ATOMS    COLORGROUP SYSTEM
1 25
