AV-unprocessed.smi:2390|AV-procd|sdf|9473|dock6
  -GOLD-   2272013103D 1   1.00000     0.00000
 Structure written by MMmdl.
 45 46  0  0  0  0  0  0  0  0  1 V2000
  153.7784  141.3280  159.7250 C   0  0  0  0  0  0  0  0  0  0  0  0
  153.0636  142.4874  159.0632 C   0  0  0  0  0  0  0  0  0  0  0  0
  153.3991  143.8195  159.3745 C   0  0  0  0  0  0  0  0  0  0  0  0
  152.6967  144.8490  158.7224 C   0  0  0  0  0  0  0  0  0  0  0  0
  151.6942  144.5066  157.7944 C   0  0  0  0  0  0  0  0  0  0  0  0
  151.4158  143.1442  157.5430 C   0  0  0  0  0  0  0  0  0  0  0  0
  150.3833  142.9028  156.5977 N   0  0  0  0  0  0  0  0  0  0  0  0
  150.2015  141.8153  155.8273 C   0  0  0  0  0  0  0  0  0  0  0  0
  150.9435  140.8331  155.7996 O   0  0  0  0  0  0  0  0  0  0  0  0
  149.0907  141.9290  155.0841 N   0  0  0  0  0  0  0  0  0  0  0  0
  148.5520  140.9097  154.1823 C   0  0  2  0  0  0  0  0  0  0  0  0
  147.2660  141.4410  153.5240 C   0  0  0  0  0  0  0  0  0  0  0  0
  148.3644  139.5465  154.9243 C   0  0  2  0  0  0  0  0  0  0  0  0
  147.5700  139.7732  156.2376 C   0  0  0  0  0  0  0  0  0  0  0  0
  149.6289  138.7988  155.1410 N   0  0  0  0  0  0  0  0  0  0  0  0
  150.4980  138.7771  153.9576 C   0  0  0  0  0  0  0  0  0  0  0  0
  151.8025  137.9964  154.1923 C   0  0  0  0  0  0  0  0  0  0  0  0
  151.5003  136.6674  154.5940 O   0  0  0  0  0  0  0  0  0  0  0  0
  150.7151  136.6339  155.7776 C   0  0  0  0  0  0  0  0  0  0  0  0
  149.4046  137.4082  155.5533 C   0  0  0  0  0  0  0  0  0  0  0  0
  152.1006  142.1591  158.1757 N   0  0  0  0  0  0  0  0  0  0  0  0
  154.6547  141.6681  160.2774 H   0  0  0  0  0  0  0  0  0  0  0  0
  154.1082  140.6059  158.9773 H   0  0  0  0  0  0  0  0  0  0  0  0
  153.1101  140.8210  160.4215 H   0  0  0  0  0  0  0  0  0  0  0  0
  154.1732  144.0489  160.0920 H   0  0  0  0  0  0  0  0  0  0  0  0
  152.9222  145.8844  158.9306 H   0  0  0  0  0  0  0  0  0  0  0  0
  151.1450  145.2859  157.2861 H   0  0  0  0  0  0  0  0  0  0  0  0
  149.6916  143.6329  156.5147 H   0  0  0  0  0  0  0  0  0  0  0  0
  148.5486  142.7754  155.1757 H   0  0  0  0  0  0  0  0  0  0  0  0
  149.2227  140.7771  153.3363 H   0  0  0  0  0  0  0  0  0  0  0  0
  146.8008  140.6784  152.8991 H   0  0  0  0  0  0  0  0  0  0  0  0
  147.4889  142.2944  152.8825 H   0  0  0  0  0  0  0  0  0  0  0  0
  146.5280  141.7769  154.2515 H   0  0  0  0  0  0  0  0  0  0  0  0
  147.7313  138.9312  154.2830 H   0  0  0  0  0  0  0  0  0  0  0  0
  146.6903  140.3963  156.0909 H   0  0  0  0  0  0  0  0  0  0  0  0
  148.1858  140.2486  157.0018 H   0  0  0  0  0  0  0  0  0  0  0  0
  147.1896  138.8393  156.6496 H   0  0  0  0  0  0  0  0  0  0  0  0
  149.9622  138.3426  153.1126 H   0  0  0  0  0  0  0  0  0  0  0  0
  150.7891  139.7816  153.6628 H   0  0  0  0  0  0  0  0  0  0  0  0
  152.3951  137.9652  153.2780 H   0  0  0  0  0  0  0  0  0  0  0  0
  152.4133  138.4864  154.9524 H   0  0  0  0  0  0  0  0  0  0  0  0
  150.5032  135.5959  156.0342 H   0  0  0  0  0  0  0  0  0  0  0  0
  151.2771  137.0607  156.6100 H   0  0  0  0  0  0  0  0  0  0  0  0
  148.8498  137.3685  156.4891 H   0  0  0  0  0  0  0  0  0  0  0  0
  148.8020  136.8925  154.8042 H   0  0  0  0  0  0  0  0  0  0  0  0
  1  2  1  0  0  0  0
  1 22  1  0  0  0  0
  1 23  1  0  0  0  0
  1 24  1  0  0  0  0
  2 21  1  0  0  0  0
  2  3  2  0  0  0  0
  3  4  1  0  0  0  0
  3 25  1  0  0  0  0
  4  5  2  0  0  0  0
  4 26  1  0  0  0  0
  5  6  1  0  0  0  0
  5 27  1  0  0  0  0
  6  7  1  0  0  0  0
  6 21  2  0  0  0  0
  7  8  1  0  0  0  0
  7 28  1  0  0  0  0
  8  9  2  0  0  0  0
  8 10  1  0  0  0  0
 10 11  1  0  0  0  0
 10 29  1  0  0  0  0
 11 12  1  0  0  0  0
 11 13  1  0  0  0  0
 11 30  1  0  0  0  0
 12 31  1  0  0  0  0
 12 32  1  0  0  0  0
 12 33  1  0  0  0  0
 13 14  1  0  0  0  0
 13 15  1  0  0  0  0
 13 34  1  0  0  0  0
 14 35  1  0  0  0  0
 14 36  1  0  0  0  0
 14 37  1  0  0  0  0
 15 20  1  0  0  0  0
 15 16  1  0  0  0  0
 16 17  1  0  0  0  0
 16 38  1  0  0  0  0
 16 39  1  0  0  0  0
 17 18  1  0  0  0  0
 17 40  1  0  0  0  0
 17 41  1  0  0  0  0
 18 19  1  0  0  0  0
 19 20  1  0  0  0  0
 19 42  1  0  0  0  0
 19 43  1  0  0  0  0
 20 44  1  0  0  0  0
 20 45  1  0  0  0  0
M  END
> <s_m_source_file>
AV-unprocessed.smi

> <i_m_source_file_index>
2390

> <i_lp_mmshare_version>
43012

> <i_f3d_flags>
0

> <s_epik_input>
W0NIM11jMVtjSF1bY0hdW2NIXWMobjEpW05IXUMoPU8pW05IXVtDQEhdKFtDSDNdKVtDQEhdKFtDSDNdKU4yW0NIMl1bQ0gyXU9bQ0gyXVtDSDJdMg==

> <s_epik_cmdline>
J2VwaWtfcHl0aG9uJywgJy1waCcsICc3LjAnLCAnLXRuJywgJzgnLCAnLW1hJywgJzIwMCcsICctbWV0YWxfYmluZGluZycsICctaW1hZScsICc8aW5maWxlLm1hZT4nLCAnLW9tYWUnLCAnPG91dGZpbGUubWFlPic=

> <r_epik_Ionization_Penalty>
0.266074

> <r_epik_Ionization_Penalty_Charging>
0

> <r_epik_Ionization_Penalty_Neutral>
0.266074

> <r_epik_State_Penalty>
0.257924

> <r_epik_Charging_Adjusted_Penalty>
0.257924

> <i_epik_Tot_Q>
0

> <i_epik_Tot_abs_Q>
0

> <r_epik_Metal_State_Penalty>
0.257919

> <b_epik_Metal_Only>
0

> <s_lp_Force_Field>
OPLS_2005

> <r_lp_Energy>
37.1524

> <b_lp_Chiralities_Consistent>
1

> <s_lp_Variant>
AV-unprocessed.smi:2390-1

> <Gold.Version>
5.8.1

> <Gold.Id.Protein>
6NUR|6NUR_protein|mol2

> <Gold.PLP.Fitness>
50.6060

> <Gold.PLP.PLP>
-43.2134

> <Gold.PLP.part.hbond>
-3.0000

> <Gold.PLP.part.metal>
0.0000

> <Gold.PLP.part.buried>
-7.6077

> <Gold.PLP.part.nonpolar>
-33.6489

> <Gold.PLP.part.repulsive>
0.4909

> <Gold.PLP.ligand.clash>
0.0000

> <Gold.PLP.ligand.torsion>
0.5204

> <Gold.PLP.Chemscore.Hbond>
2.7771

> <Gold.PLP.Chemscore.CHOScore>
0.0000

> <Gold.PLP.Chemscore.Metal>
0.0000

> <Gold.Chemscore.Hbonds>
donor molecule, donor type, donor heavy atom, donor atom, acceptor molecule, acceptor atom, score
      L1  H     7    28       P1  8028  1.00
      L1  H    10    29       P1  8028  0.77
      P1  H  7989  7998       L1     9  0.07
      P1  H 10752 10765       L1    18  1.00

> <Gold.PLP.Chemscore.Internal.Correction>
0.1020

> <Gold.Rescore>
     Score         DG    S(hbond)    S(metal)    S(lipo)     H(rot)  DE(clash)    DE(int)     intcor
     17.01     -22.94       2.54        0.00     108.23       1.44       1.01       4.92       ----

> <Gold.Chemscore.Fitness>
17.0065

> <Gold.Chemscore.DG>
-22.9387

> <Gold.Chemscore.ZeroCoef>
-5.4800

> <Gold.Chemscore.Hbond>
2.5393

> <Gold.Chemscore.Metal>
0.0000

> <Gold.Chemscore.Lipo>
108.2296

> <Gold.Chemscore.Internal_Hbond>
0.0000

> <Gold.Chemscore.DEClash>
1.0087

> <Gold.Chemscore.DEInternal>
4.9235

> <Gold.Chemscore.Rot>
1.4396

> <Gold.Chemscore.Internal.Correction>
   9.000000E+99

> <Gold.Chemscore.Hbonds>
donor molecule, donor type, donor heavy atom, donor atom, acceptor molecule, acceptor atom, score
      L1  H     7    28       P1  8028  0.95
      L1  H    10    29       P1  8028  0.72
      P1  H  7989  7998       L1     9  0.02
      P1  H 10752 10765       L1    18  0.77

> <Gold.Chemscore.Hbond.Weighted>
-8.4813

> <Gold.Chemscore.Metal.Weighted>
-0.0000

> <Gold.Chemscore.Lipo.Weighted>
-12.6629

> <Gold.Chemscore.Internal_Hbond.Weighted>
0.0000

> <Gold.Chemscore.DEClash.Weighted>
1.0087

> <Gold.Chemscore.DEInternal.Weighted>
4.9235

> <Gold.Chemscore.Rot.Weighted>
3.6855

> <Gold.Chemscore.Internal.Correction.Weighted>
   9.000000E+99

> <Gold.Protein.RotatedTorsions>
[ 6907 6896 6895 6894 ] final -114.14 input  -60.11 | X-H torsion
[ 7974 7965 7964 7962 ] final   19.89 input  175.53 | X-H torsion
[ 8008 7997 7996 7995 ] final  158.78 input   59.86 | X-H torsion
[ 10167 10162 10161 10158 ] final -108.82 input  -65.29 | X-H torsion
[ 10718 10713 10712 10709 ] final  104.40 input   66.30 | X-H torsion
[ 10763 10752 10751 10750 ] final -177.69 input  -60.55 | X-H torsion
[ 11005 11000 10999 10996 ] final    0.28 input  -57.11 | X-H torsion

> <Gold.Protein.ActiveResidues>
 VAL166  LYS551  ARG553  GLY616  TRP617  ASP618  TYR619  PRO620  LYS621  CYS622 
 ASP623  PHE694  ASN695  SER759  ASP760  ASP761  ALA762  ILE779  LEU786  VAL792 
 PHE793  MET794  SER795  GLU796  ALA797  LYS798  CYS799  TRP800  GLU811  SER814 

> <Gold.Protein.RotatedAtoms>
  150.7880  133.8844  159.3295 H   0  0  0  0  0  0  0  0  0  0  0  0  # atno 6907 bound_to 6896
  151.6690  135.0977  160.0203 H   0  0  0  0  0  0  0  0  0  0  0  0  # atno 6908 bound_to 6896
  152.3948  133.6692  159.6302 H   0  0  0  0  0  0  0  0  0  0  0  0  # atno 6909 bound_to 6896
  146.2132  139.8248  142.8672 H   0  0  0  0  0  0  0  0  0  0  0  0  # atno 7974 bound_to 7965
  156.2281  140.1849  156.7313 H   0  0  0  0  0  0  0  0  0  0  0  0  # atno 8008 bound_to 7997
  154.5975  140.0641  156.9351 H   0  0  0  0  0  0  0  0  0  0  0  0  # atno 8009 bound_to 7997
  155.2231  140.3309  155.4315 H   0  0  0  0  0  0  0  0  0  0  0  0  # atno 8010 bound_to 7997
  140.1620  143.4112  152.1418 H   0  0  0  0  0  0  0  0  0  0  0  0  # atno 10167 bound_to 10162
  157.6741  131.0803  150.5700 H   0  0  0  0  0  0  0  0  0  0  0  0  # atno 10718 bound_to 10713
  154.5570  135.2817  155.0955 H   0  0  0  0  0  0  0  0  0  0  0  0  # atno 10763 bound_to 10752
  154.2378  135.6362  153.5201 H   0  0  0  0  0  0  0  0  0  0  0  0  # atno 10764 bound_to 10752
  153.0018  135.5553  154.6153 H   0  0  0  0  0  0  0  0  0  0  0  0  # atno 10765 bound_to 10752
  140.6283  133.9599  155.8260 H   0  0  0  0  0  0  0  0  0  0  0  0  # atno 11005 bound_to 11000
  145.3058  141.0206  143.3582 LP  0  0  0  0  0  0  0  0  0  0  0  0  # atno 17320 bound_to 7965
  144.8972  139.4697  143.6650 LP  0  0  0  0  0  0  0  0  0  0  0  0  # atno 17321 bound_to 7965
  139.5377  144.7226  151.4839 LP  0  0  0  0  0  0  0  0  0  0  0  0  # atno 17342 bound_to 10162
  140.6637  143.8444  150.6917 LP  0  0  0  0  0  0  0  0  0  0  0  0  # atno 17343 bound_to 10162
  156.6001  130.4352  149.5900 LP  0  0  0  0  0  0  0  0  0  0  0  0  # atno 17370 bound_to 10713
  156.2513  130.6909  151.1647 LP  0  0  0  0  0  0  0  0  0  0  0  0  # atno 17371 bound_to 10713
  141.0694  134.0228  157.3548 LP  0  0  0  0  0  0  0  0  0  0  0  0  # atno 17394 bound_to 11000
  139.9126  135.0192  156.7754 LP  0  0  0  0  0  0  0  0  0  0  0  0  # atno 17395 bound_to 11000

$$$$
