AV-unprocessed.smi:1080|AV-procd|sdf|4708|dock9
  -GOLD-   22720 3233D 1   1.00000     0.00000
 Structure written by MMmdl.
 49 51  0  0  0  0  0  0  0  0  2 V2000
  150.3948  137.1112  156.6903 O   0  0  0  0  0  0  0  0  0  0  0  0
  150.2360  137.1855  155.4721 C   0  0  0  0  0  0  0  0  0  0  0  0
  150.0775  136.1385  154.6435 N   0  0  0  0  0  0  0  0  0  0  0  0
  150.0889  134.7504  154.9518 C   0  0  0  0  0  0  0  0  0  0  0  0
  149.4648  133.8747  154.0354 C   0  0  0  0  0  0  0  0  0  0  0  0
  149.4626  132.4879  154.2882 C   0  0  0  0  0  0  0  0  0  0  0  0
  150.0630  132.0057  155.3972 N   0  3  0  0  0  0  0  0  0  0  0  0
  150.6838  132.8005  156.2949 C   0  0  0  0  0  0  0  0  0  0  0  0
  150.7191  134.1957  156.0953 C   0  0  0  0  0  0  0  0  0  0  0  0
  150.1800  138.3464  154.8031 N   0  0  0  0  0  0  0  0  0  0  0  0
  150.3172  139.6714  155.4011 C   0  0  2  0  0  0  0  0  0  0  0  0
  151.7347  139.8690  155.9759 C   0  0  0  0  0  0  0  0  0  0  0  0
  151.8717  141.2285  156.6804 C   0  0  0  0  0  0  0  0  0  0  0  0
  150.8133  141.3993  157.7898 C   0  0  1  0  0  0  0  0  0  0  0  0
  150.9734  142.7678  158.4882 C   0  0  0  0  0  0  0  0  0  0  0  0
  150.0474  143.5765  158.4036 O   0  0  0  0  0  0  0  0  0  0  0  0
  152.0973  143.0410  159.1985 N   0  0  0  0  0  0  0  0  0  0  0  0
  152.2101  144.2238  160.0613 C   0  0  0  0  0  0  0  0  0  0  0  0
  151.9891  143.7961  161.5227 C   0  0  0  0  0  0  0  0  0  0  0  0
  153.2611  142.6089  162.0617 S   0  0  0  0  0  0  0  0  0  0  0  0
  153.1927  141.4290  160.6765 C   0  0  0  0  0  0  0  0  0  0  0  0
  153.2682  142.1654  159.3294 C   0  0  0  0  0  0  0  0  0  0  0  0
  149.3983  141.2183  157.1947 C   0  0  0  0  0  0  0  0  0  0  0  0
  149.2548  139.8546  156.5003 C   0  0  0  0  0  0  0  0  0  0  0  0
  149.8759  136.3658  153.6807 H   0  0  0  0  0  0  0  0  0  0  0  0
  148.9859  134.2598  153.1465 H   0  0  0  0  0  0  0  0  0  0  0  0
  149.0035  131.7552  153.6406 H   0  0  0  0  0  0  0  0  0  0  0  0
  151.1368  132.2999  157.1383 H   0  0  0  0  0  0  0  0  0  0  0  0
  151.2383  134.8076  156.8167 H   0  0  0  0  0  0  0  0  0  0  0  0
  150.0399  138.3148  153.8039 H   0  0  0  0  0  0  0  0  0  0  0  0
  150.1405  140.4268  154.6327 H   0  0  0  0  0  0  0  0  0  0  0  0
  151.9619  139.0709  156.6841 H   0  0  0  0  0  0  0  0  0  0  0  0
  152.4776  139.7964  155.1809 H   0  0  0  0  0  0  0  0  0  0  0  0
  152.8758  141.3196  157.0962 H   0  0  0  0  0  0  0  0  0  0  0  0
  151.7723  142.0276  155.9440 H   0  0  0  0  0  0  0  0  0  0  0  0
  150.9273  140.6003  158.5209 H   0  0  0  0  0  0  0  0  0  0  0  0
  153.1926  144.6841  159.9469 H   0  0  0  0  0  0  0  0  0  0  0  0
  151.4949  145.0025  159.7936 H   0  0  0  0  0  0  0  0  0  0  0  0
  152.0183  144.6637  162.1819 H   0  0  0  0  0  0  0  0  0  0  0  0
  151.0054  143.3397  161.6392 H   0  0  0  0  0  0  0  0  0  0  0  0
  154.0204  140.7266  160.7745 H   0  0  0  0  0  0  0  0  0  0  0  0
  152.2709  140.8501  160.7455 H   0  0  0  0  0  0  0  0  0  0  0  0
  153.3646  141.4601  158.5054 H   0  0  0  0  0  0  0  0  0  0  0  0
  154.1823  142.7594  159.2859 H   0  0  0  0  0  0  0  0  0  0  0  0
  148.6467  141.3076  157.9803 H   0  0  0  0  0  0  0  0  0  0  0  0
  149.1837  142.0057  156.4702 H   0  0  0  0  0  0  0  0  0  0  0  0
  148.2555  139.7654  156.0727 H   0  0  0  0  0  0  0  0  0  0  0  0
  149.3458  139.0597  157.2422 H   0  0  0  0  0  0  0  0  0  0  0  0
  150.0513  130.9986  155.5614 H   0  0  0  0  0  0  0  0  0  0  0  0
  1  2  2  0  0  0  0
  2  3  1  0  0  0  0
  2 10  1  0  0  0  0
  3  4  1  0  0  0  0
  3 25  1  0  0  0  0
  4  9  1  0  0  0  0
  4  5  2  0  0  0  0
  5  6  1  0  0  0  0
  5 26  1  0  0  0  0
  6  7  2  0  0  0  0
  6 27  1  0  0  0  0
  7  8  1  0  0  0  0
  7 49  1  0  0  0  0
  8  9  2  0  0  0  0
  8 28  1  0  0  0  0
  9 29  1  0  0  0  0
 10 11  1  0  0  0  0
 10 30  1  0  0  0  0
 11 24  1  0  0  0  0
 11 12  1  0  0  0  0
 11 31  1  0  0  0  0
 12 13  1  0  0  0  0
 12 32  1  0  0  0  0
 12 33  1  0  0  0  0
 13 14  1  0  0  0  0
 13 34  1  0  0  0  0
 13 35  1  0  0  0  0
 14 15  1  0  0  0  0
 14 23  1  0  0  0  0
 14 36  1  0  0  0  0
 15 16  2  0  0  0  0
 15 17  1  0  0  0  0
 17 22  1  0  0  0  0
 17 18  1  0  0  0  0
 18 19  1  0  0  0  0
 18 37  1  0  0  0  0
 18 38  1  0  0  0  0
 19 20  1  0  0  0  0
 19 39  1  0  0  0  0
 19 40  1  0  0  0  0
 20 21  1  0  0  0  0
 21 22  1  0  0  0  0
 21 41  1  0  0  0  0
 21 42  1  0  0  0  0
 22 43  1  0  0  0  0
 22 44  1  0  0  0  0
 23 24  1  0  0  0  0
 23 45  1  0  0  0  0
 23 46  1  0  0  0  0
 24 47  1  0  0  0  0
 24 48  1  0  0  0  0
M  CHG  1   7   1
M  END
> <s_m_source_file>
AV-unprocessed.smi

> <i_m_source_file_index>
1080

> <i_lp_mmshare_version>
43012

> <i_f3d_flags>
0

> <s_epik_input>
W2NIXTFbY0hdbltjSF1bY0hdYzFbTkhdQyg9TylbTkhdW0NAQEhdMltDSDJdW0NIMl1bQ0BIXShbQ0gyXVtDSDJdMilDKD1PKU4zW0NIMl1bQ0gyXVNbQ0gyXVtDSDJdMw==

> <s_epik_cmdline>
J2VwaWtfcHl0aG9uJywgJy1waCcsICc3LjAnLCAnLXRuJywgJzgnLCAnLW1hJywgJzIwMCcsICctbWV0YWxfYmluZGluZycsICctaW1hZScsICc8aW5maWxlLm1hZT4nLCAnLW9tYWUnLCAnPG91dGZpbGUubWFlPic=

> <r_epik_Ionization_Penalty>
1.01281

> <r_epik_Ionization_Penalty_Charging>
1.01278

> <r_epik_Ionization_Penalty_Neutral>
2.07681e-05

> <r_epik_State_Penalty>
1.06237

> <r_epik_Charging_Adjusted_Penalty>
2.07515

> <i_epik_Tot_Q>
1

> <i_epik_Tot_abs_Q>
1

> <r_epik_Metal_State_Penalty>
1.16243

> <b_epik_Metal_Only>
0

> <s_lp_Force_Field>
OPLS_2005

> <r_lp_Energy>
38.1228

> <b_lp_Chiralities_Consistent>
1

> <s_lp_Variant>
AV-unprocessed.smi:1080-3

> <Gold.Version>
5.8.1

> <Gold.Id.Protein>
6NUR|6NUR_protein|mol2

> <Gold.PLP.Fitness>
48.2938

> <Gold.PLP.PLP>
-45.6518

> <Gold.PLP.part.hbond>
-1.0187

> <Gold.PLP.part.metal>
0.0000

> <Gold.PLP.part.buried>
-6.9068

> <Gold.PLP.part.nonpolar>
-37.9442

> <Gold.PLP.part.repulsive>
0.2895

> <Gold.PLP.ligand.clash>
0.0000

> <Gold.PLP.ligand.torsion>
0.2091

> <Gold.PLP.Chemscore.Hbond>
1.0000

> <Gold.PLP.Chemscore.CHOScore>
0.0000

> <Gold.PLP.Chemscore.Metal>
0.0000

> <Gold.Chemscore.Hbonds>
donor molecule, donor type, donor heavy atom, donor atom, acceptor molecule, acceptor atom, score
      L1  H     3    25       P1  7948  1.00

> <Gold.PLP.Chemscore.Internal.Correction>
0.0601

> <Gold.Rescore>
     Score         DG    S(hbond)    S(metal)    S(lipo)     H(rot)  DE(clash)    DE(int)     intcor
     15.96     -18.34       0.94        0.00     110.31       1.25       0.02       2.35       ----

> <Gold.Chemscore.Fitness>
15.9639

> <Gold.Chemscore.DG>
-18.3408

> <Gold.Chemscore.ZeroCoef>
-5.4800

> <Gold.Chemscore.Hbond>
0.9433

> <Gold.Chemscore.Metal>
0.0000

> <Gold.Chemscore.Lipo>
110.3111

> <Gold.Chemscore.Internal_Hbond>
0.0000

> <Gold.Chemscore.DEClash>
0.0224

> <Gold.Chemscore.DEInternal>
2.3545

> <Gold.Chemscore.Rot>
1.2486

> <Gold.Chemscore.Internal.Correction>
   9.000000E+99

> <Gold.Chemscore.Hbonds>
donor molecule, donor type, donor heavy atom, donor atom, acceptor molecule, acceptor atom, score
      L1  H     3    25       P1  7948  0.24

> <Gold.Chemscore.Hbond.Weighted>
-3.1507

> <Gold.Chemscore.Metal.Weighted>
-0.0000

> <Gold.Chemscore.Lipo.Weighted>
-12.9064

> <Gold.Chemscore.Internal_Hbond.Weighted>
0.0000

> <Gold.Chemscore.DEClash.Weighted>
0.0224

> <Gold.Chemscore.DEInternal.Weighted>
2.3545

> <Gold.Chemscore.Rot.Weighted>
3.1963

> <Gold.Chemscore.Internal.Correction.Weighted>
   9.000000E+99

> <Gold.Protein.RotatedTorsions>
[ 6907 6896 6895 6894 ] final  120.96 input  -60.11 | X-H torsion
[ 7974 7965 7964 7962 ] final  -29.87 input  175.53 | X-H torsion
[ 8008 7997 7996 7995 ] final  -25.74 input   59.86 | X-H torsion
[ 10167 10162 10161 10158 ] final   86.23 input  -65.29 | X-H torsion
[ 10718 10713 10712 10709 ] final   52.76 input   66.30 | X-H torsion
[ 10763 10752 10751 10750 ] final  170.67 input  -60.55 | X-H torsion
[ 11005 11000 10999 10996 ] final   -9.92 input  -57.11 | X-H torsion

> <Gold.Protein.ActiveResidues>
 VAL166  LYS551  ARG553  GLY616  TRP617  ASP618  TYR619  PRO620  LYS621  CYS622 
 ASP623  PHE694  ASN695  SER759  ASP760  ASP761  ALA762  ILE779  LEU786  VAL792 
 PHE793  MET794  SER795  GLU796  ALA797  LYS798  CYS799  TRP800  GLU811  SER814 

> <Gold.Protein.RotatedAtoms>
  152.4359  133.7359  159.6613 H   0  0  0  0  0  0  0  0  0  0  0  0  # atno 6907 bound_to 6896
  150.8242  133.8189  159.3132 H   0  0  0  0  0  0  0  0  0  0  0  0  # atno 6908 bound_to 6896
  151.5862  135.1058  160.0080 H   0  0  0  0  0  0  0  0  0  0  0  0  # atno 6909 bound_to 6896
  146.1185  140.5468  142.8746 H   0  0  0  0  0  0  0  0  0  0  0  0  # atno 7974 bound_to 7965
  154.4460  140.1918  156.0666 H   0  0  0  0  0  0  0  0  0  0  0  0  # atno 8008 bound_to 7997
  156.0543  140.3305  155.7360 H   0  0  0  0  0  0  0  0  0  0  0  0  # atno 8009 bound_to 7997
  155.5510  140.0595  157.2841 H   0  0  0  0  0  0  0  0  0  0  0  0  # atno 8010 bound_to 7997
  139.8897  144.6393  150.8753 H   0  0  0  0  0  0  0  0  0  0  0  0  # atno 10167 bound_to 10162
  157.5105  130.8497  149.8428 H   0  0  0  0  0  0  0  0  0  0  0  0  # atno 10718 bound_to 10713
  154.4010  135.2755  155.2097 H   0  0  0  0  0  0  0  0  0  0  0  0  # atno 10763 bound_to 10752
  154.4123  135.6019  153.5963 H   0  0  0  0  0  0  0  0  0  0  0  0  # atno 10764 bound_to 10752
  152.9831  135.5952  154.4277 H   0  0  0  0  0  0  0  0  0  0  0  0  # atno 10765 bound_to 10752
  140.7392  133.8684  155.8954 H   0  0  0  0  0  0  0  0  0  0  0  0  # atno 11005 bound_to 11000
  144.7575  140.5342  143.6759 LP  0  0  0  0  0  0  0  0  0  0  0  0  # atno 17320 bound_to 7965
  145.5517  139.1477  143.3390 LP  0  0  0  0  0  0  0  0  0  0  0  0  # atno 17321 bound_to 7965
  140.7729  143.3520  151.1995 LP  0  0  0  0  0  0  0  0  0  0  0  0  # atno 17342 bound_to 10162
  139.7121  143.9359  152.2952 LP  0  0  0  0  0  0  0  0  0  0  0  0  # atno 17343 bound_to 10162
  156.0286  130.3772  150.1753 LP  0  0  0  0  0  0  0  0  0  0  0  0  # atno 17370 bound_to 10713
  156.9942  130.9902  151.3407 LP  0  0  0  0  0  0  0  0  0  0  0  0  # atno 17371 bound_to 10713
  140.9852  134.1353  157.4459 LP  0  0  0  0  0  0  0  0  0  0  0  0  # atno 17394 bound_to 11000
  139.8809  135.0023  156.6119 LP  0  0  0  0  0  0  0  0  0  0  0  0  # atno 17395 bound_to 11000

$$$$
