AV-unprocessed.smi:3208|AV-procd|sdf|12262|dock8
  -GOLD-   2272018 93D 1   1.00000     0.00000
 Structure written by MMmdl.
 30 30  0  0  0  0  0  0  0  0  3 V2000
  150.5909  136.9674  154.7503 C   0  0  0  0  0  0  0  0  0  0  0  0
  151.0918  138.1451  154.3482 C   0  0  0  0  0  0  0  0  0  0  0  0
  151.6962  139.1802  155.2709 C   0  0  0  0  0  0  0  0  0  0  0  0
  151.1254  140.4582  155.0168 O   0  0  0  0  0  0  0  0  0  0  0  0
  149.7974  140.6452  155.5002 C   0  0  2  0  0  0  0  0  0  0  0  0
  148.9340  141.1035  154.3150 C   0  0  0  0  0  0  0  0  0  0  0  0
  149.7812  141.6774  156.6395 C   0  0  0  0  0  0  0  0  0  0  0  0
  148.7102  142.0054  157.1527 O   0  0  0  0  0  0  0  0  0  0  0  0
  150.9818  142.1730  156.9928 N   0  0  0  0  0  0  0  0  0  0  0  0
  151.2895  143.1337  157.9955 C   0  0  0  0  0  0  0  0  0  0  0  0
  150.7624  144.3839  157.9849 N   0  3  0  0  0  0  0  0  0  0  0  0
  151.0328  145.3170  158.9228 C   0  0  0  0  0  0  0  0  0  0  0  0
  151.9053  145.0100  159.9843 C   0  0  0  0  0  0  0  0  0  0  0  0
  152.4814  143.7257  160.0443 C   0  0  0  0  0  0  0  0  0  0  0  0
  152.1732  142.7794  159.0438 C   0  0  0  0  0  0  0  0  0  0  0  0
  152.7335  141.5338  159.1017 O   0  5  0  0  0  0  0  0  0  0  0  0
  150.5917  136.6822  155.7922 H   0  0  0  0  0  0  0  0  0  0  0  0
  150.1723  136.2710  154.0386 H   0  0  0  0  0  0  0  0  0  0  0  0
  151.0739  138.3953  153.2974 H   0  0  0  0  0  0  0  0  0  0  0  0
  151.4977  138.8776  156.2999 H   0  0  0  0  0  0  0  0  0  0  0  0
  152.7783  139.1998  155.1354 H   0  0  0  0  0  0  0  0  0  0  0  0
  149.4050  139.6911  155.8578 H   0  0  0  0  0  0  0  0  0  0  0  0
  147.9017  141.2785  154.6201 H   0  0  0  0  0  0  0  0  0  0  0  0
  148.9205  140.3447  153.5323 H   0  0  0  0  0  0  0  0  0  0  0  0
  149.3145  142.0246  153.8718 H   0  0  0  0  0  0  0  0  0  0  0  0
  151.7803  141.8251  156.4814 H   0  0  0  0  0  0  0  0  0  0  0  0
  150.5456  146.2727  158.7959 H   0  0  0  0  0  0  0  0  0  0  0  0
  152.1298  145.7470  160.7412 H   0  0  0  0  0  0  0  0  0  0  0  0
  153.1529  143.4702  160.8511 H   0  0  0  0  0  0  0  0  0  0  0  0
  150.1264  144.6304  157.2255 H   0  0  0  0  0  0  0  0  0  0  0  0
  1  2  2  0  0  0  0
  1 17  1  0  0  0  0
  1 18  1  0  0  0  0
  2  3  1  0  0  0  0
  2 19  1  0  0  0  0
  3  4  1  0  0  0  0
  3 20  1  0  0  0  0
  3 21  1  0  0  0  0
  4  5  1  0  0  0  0
  5  6  1  0  0  0  0
  5  7  1  0  0  0  0
  5 22  1  0  0  0  0
  6 23  1  0  0  0  0
  6 24  1  0  0  0  0
  6 25  1  0  0  0  0
  7  8  2  0  0  0  0
  7  9  1  0  0  0  0
  9 26  1  0  0  0  0
  9 10  1  0  0  0  0
 10 15  2  0  0  0  0
 10 11  1  0  0  0  0
 11 30  1  0  0  0  0
 11 12  2  0  0  0  0
 12 27  1  0  0  0  0
 12 13  1  0  0  0  0
 13 28  1  0  0  0  0
 13 14  2  0  0  0  0
 14 15  1  0  0  0  0
 14 29  1  0  0  0  0
 15 16  1  0  0  0  0
M  CHG  1  11   1
M  CHG  1  16  -1
M  END
> <s_m_source_file>
AV-unprocessed.smi

> <i_m_source_file_index>
3208

> <i_lp_mmshare_version>
43012

> <i_f3d_flags>
0

> <s_epik_input>
W0NIMl09W0NIXVtDSDJdT1tDQEhdKFtDSDNdKUMoPU8pW05IXWMxbltjSF1bY0hdW2NIXWMxW09IXQ==

> <s_epik_cmdline>
J2VwaWtfcHl0aG9uJywgJy1waCcsICc3LjAnLCAnLXRuJywgJzgnLCAnLW1hJywgJzIwMCcsICctbWV0YWxfYmluZGluZycsICctaW1hZScsICc8aW5maWxlLm1hZT4nLCAnLW9tYWUnLCAnPG91dGZpbGUubWFlPic=

> <r_lp_tautomer_probability>
0.56342

> <r_epik_Ionization_Penalty>
0.29395

> <r_epik_Ionization_Penalty_Charging>
0.0267837

> <r_epik_Ionization_Penalty_Neutral>
0.267166

> <r_epik_State_Penalty>
0.587031

> <r_epik_Charging_Adjusted_Penalty>
0.613815

> <i_epik_Tot_Q>
0

> <i_epik_Tot_abs_Q>
2

> <r_epik_Metal_State_Penalty>
2.67911

> <b_epik_Metal_Only>
0

> <s_lp_Force_Field>
OPLS_2005

> <r_lp_Energy>
5.5941

> <b_lp_Chiralities_Consistent>
1

> <s_lp_Variant>
AV-unprocessed.smi:3208-3

> <Gold.Version>
5.8.1

> <Gold.Id.Protein>
6NUR|6NUR_protein|mol2

> <Gold.PLP.Fitness>
43.6900

> <Gold.PLP.PLP>
-36.9026

> <Gold.PLP.part.hbond>
-2.0005

> <Gold.PLP.part.metal>
0.0000

> <Gold.PLP.part.buried>
-5.2907

> <Gold.PLP.part.nonpolar>
-30.5985

> <Gold.PLP.part.repulsive>
0.3246

> <Gold.PLP.ligand.clash>
0.0000

> <Gold.PLP.ligand.torsion>
1.3841

> <Gold.PLP.Chemscore.Hbond>
3.0000

> <Gold.PLP.Chemscore.CHOScore>
0.0000

> <Gold.PLP.Chemscore.Metal>
0.0000

> <Gold.Chemscore.Hbonds>
donor molecule, donor type, donor heavy atom, donor atom, acceptor molecule, acceptor atom, score
      L1  H    11    30       P1  8028  2.00
      P1  H  7989  7998       L1     4  1.00

> <Gold.PLP.Chemscore.Internal.Correction>
0.5555

> <Gold.Rescore>
     Score         DG    S(hbond)    S(metal)    S(lipo)     H(rot)  DE(clash)    DE(int)     intcor
     15.16     -16.50       1.79        0.00      80.08       1.70       0.01       1.33       ----

> <Gold.Chemscore.Fitness>
15.1580

> <Gold.Chemscore.DG>
-16.4960

> <Gold.Chemscore.ZeroCoef>
-5.4800

> <Gold.Chemscore.Hbond>
1.7943

> <Gold.Chemscore.Metal>
0.0000

> <Gold.Chemscore.Lipo>
80.0837

> <Gold.Chemscore.Internal_Hbond>
0.0000

> <Gold.Chemscore.DEClash>
0.0127

> <Gold.Chemscore.DEInternal>
1.3253

> <Gold.Chemscore.Rot>
1.6979

> <Gold.Chemscore.Internal.Correction>
   9.000000E+99

> <Gold.Chemscore.Hbonds>
donor molecule, donor type, donor heavy atom, donor atom, acceptor molecule, acceptor atom, score
      L1  H    11    30       P1  8028  0.34
      P1  H  7989  7998       L1     4  0.52

> <Gold.Chemscore.Hbond.Weighted>
-5.9929

> <Gold.Chemscore.Metal.Weighted>
-0.0000

> <Gold.Chemscore.Lipo.Weighted>
-9.3698

> <Gold.Chemscore.Internal_Hbond.Weighted>
0.0000

> <Gold.Chemscore.DEClash.Weighted>
0.0127

> <Gold.Chemscore.DEInternal.Weighted>
1.3253

> <Gold.Chemscore.Rot.Weighted>
4.3467

> <Gold.Chemscore.Internal.Correction.Weighted>
   9.000000E+99

> <Gold.Protein.RotatedTorsions>
[ 6907 6896 6895 6894 ] final  112.54 input  -60.11 | X-H torsion
[ 7974 7965 7964 7962 ] final  -14.84 input  175.53 | X-H torsion
[ 8008 7997 7996 7995 ] final  143.39 input   59.86 | X-H torsion
[ 10167 10162 10161 10158 ] final -163.59 input  -65.29 | X-H torsion
[ 10718 10713 10712 10709 ] final  155.97 input   66.30 | X-H torsion
[ 10763 10752 10751 10750 ] final  147.45 input  -60.55 | X-H torsion
[ 11005 11000 10999 10996 ] final   38.37 input  -57.11 | X-H torsion

> <Gold.Protein.ActiveResidues>
 VAL166  LYS551  ARG553  GLY616  TRP617  ASP618  TYR619  PRO620  LYS621  CYS622 
 ASP623  PHE694  ASN695  SER759  ASP760  ASP761  ALA762  ILE779  LEU786  VAL792 
 PHE793  MET794  SER795  GLU796  ALA797  LYS798  CYS799  TRP800  GLU811  SER814 

> <Gold.Protein.RotatedAtoms>
  152.4910  133.8501  159.7196 H   0  0  0  0  0  0  0  0  0  0  0  0  # atno 6907 bound_to 6896
  150.9041  133.7072  159.2878 H   0  0  0  0  0  0  0  0  0  0  0  0  # atno 6908 bound_to 6896
  151.4503  135.1033  159.9748 H   0  0  0  0  0  0  0  0  0  0  0  0  # atno 6909 bound_to 6896
  146.2057  140.3407  142.8408 H   0  0  0  0  0  0  0  0  0  0  0  0  # atno 7974 bound_to 7965
  156.2931  140.2264  156.4882 H   0  0  0  0  0  0  0  0  0  0  0  0  # atno 8008 bound_to 7997
  154.7794  140.0461  157.1136 H   0  0  0  0  0  0  0  0  0  0  0  0  # atno 8009 bound_to 7997
  154.9777  140.3074  155.4963 H   0  0  0  0  0  0  0  0  0  0  0  0  # atno 8010 bound_to 7997
  139.6310  144.0440  152.2015 H   0  0  0  0  0  0  0  0  0  0  0  0  # atno 10167 bound_to 10162
  157.2112  131.0698  151.1968 H   0  0  0  0  0  0  0  0  0  0  0  0  # atno 10718 bound_to 10713
  154.0385  135.2891  155.3358 H   0  0  0  0  0  0  0  0  0  0  0  0  # atno 10763 bound_to 10752
  154.6944  135.5214  153.8440 H   0  0  0  0  0  0  0  0  0  0  0  0  # atno 10764 bound_to 10752
  153.0610  135.6613  154.0592 H   0  0  0  0  0  0  0  0  0  0  0  0  # atno 10765 bound_to 10752
  140.2133  134.3729  155.8039 H   0  0  0  0  0  0  0  0  0  0  0  0  # atno 11005 bound_to 11000
  144.8787  140.7372  143.6000 LP  0  0  0  0  0  0  0  0  0  0  0  0  # atno 17320 bound_to 7965
  145.3327  139.1755  143.4528 LP  0  0  0  0  0  0  0  0  0  0  0  0  # atno 17321 bound_to 7965
  140.0105  144.6227  150.7651 LP  0  0  0  0  0  0  0  0  0  0  0  0  # atno 17342 bound_to 10162
  140.7439  143.2853  151.3482 LP  0  0  0  0  0  0  0  0  0  0  0  0  # atno 17343 bound_to 10162
  157.3670  130.7161  149.6539 LP  0  0  0  0  0  0  0  0  0  0  0  0  # atno 17370 bound_to 10713
  155.9690  130.4209  150.4446 LP  0  0  0  0  0  0  0  0  0  0  0  0  # atno 17371 bound_to 10713
  141.2225  133.7154  156.8454 LP  0  0  0  0  0  0  0  0  0  0  0  0  # atno 17394 bound_to 11000
  140.1927  134.8954  157.3079 LP  0  0  0  0  0  0  0  0  0  0  0  0  # atno 17395 bound_to 11000

$$$$
