AV-unprocessed.smi:2164|AV-procd|sdf|8811|dock5
  -GOLD-   2272012 03D 1   1.00000     0.00000
 Structure written by MMmdl.
 39 41  0  0  0  0  0  0  0  0  3 V2000
  155.3255  139.0143  162.0645 O   0  0  0  0  0  0  0  0  0  0  0  0
  155.2080  140.1998  162.4011 C   0  0  0  0  0  0  0  0  0  0  0  0
  155.9460  140.8158  163.3745 N   0  5  0  0  0  0  0  0  0  0  0  0
  155.4647  141.1490  164.7140 C   0  0  0  0  0  0  0  0  0  0  0  0
  155.3420  142.6790  164.8543 C   0  0  0  0  0  0  0  0  0  0  0  0
  155.4059  143.1656  166.2953 C   0  0  0  0  0  0  0  0  0  0  0  0
  155.3398  144.5460  166.5961 C   0  0  0  0  0  0  0  0  0  0  0  0
  155.4101  144.9670  167.9403 C   0  0  0  0  0  0  0  0  0  0  0  0
  155.5481  143.9996  168.9563 C   0  0  0  0  0  0  0  0  0  0  0  0
  155.6142  142.6896  168.6330 N   0  3  0  0  0  0  0  0  0  0  0  0
  155.5521  142.2459  167.3586 C   0  0  0  0  0  0  0  0  0  0  0  0
  154.2020  141.0203  161.7105 C   0  0  0  0  0  0  0  0  0  0  0  0
  153.6333  140.6642  160.5376 C   0  0  0  0  0  0  0  0  0  0  0  0
  152.6773  141.4386  159.8750 N   0  0  0  0  0  0  0  0  0  0  0  0
  152.2169  140.9879  158.5664 C   0  0  0  0  0  0  0  0  0  0  0  0
  150.7181  141.2046  158.4290 C   0  0  0  0  0  0  0  0  0  0  0  0
  150.4468  143.0147  158.5357 S   0  0  0  0  0  0  0  0  0  0  0  0
  151.1797  143.6511  157.4300 O   0  0  0  0  0  0  0  0  0  0  0  0
  149.0019  143.2531  158.6737 O   0  0  0  0  0  0  0  0  0  0  0  0
  151.2216  143.3604  159.9814 N   0  0  0  0  0  0  0  0  0  0  0  0
  152.1914  142.6379  160.4553 C   0  0  0  0  0  0  0  0  0  0  0  0
  152.8299  143.0445  161.6961 C   0  0  0  0  0  0  0  0  0  0  0  0
  153.7741  142.2848  162.2877 C   0  0  0  0  0  0  0  0  0  0  0  0
  154.4928  140.6969  164.9164 H   0  0  0  0  0  0  0  0  0  0  0  0
  156.1365  140.7771  165.4887 H   0  0  0  0  0  0  0  0  0  0  0  0
  156.1367  143.1679  164.2886 H   0  0  0  0  0  0  0  0  0  0  0  0
  154.4032  143.0181  164.4137 H   0  0  0  0  0  0  0  0  0  0  0  0
  155.2323  145.2741  165.8050 H   0  0  0  0  0  0  0  0  0  0  0  0
  155.3580  146.0173  168.1870 H   0  0  0  0  0  0  0  0  0  0  0  0
  155.6084  144.2321  170.0095 H   0  0  0  0  0  0  0  0  0  0  0  0
  155.6147  141.1754  167.2269 H   0  0  0  0  0  0  0  0  0  0  0  0
  153.8803  139.7468  160.0230 H   0  0  0  0  0  0  0  0  0  0  0  0
  152.7596  141.5266  157.7889 H   0  0  0  0  0  0  0  0  0  0  0  0
  152.4365  139.9291  158.4257 H   0  0  0  0  0  0  0  0  0  0  0  0
  150.3449  140.8501  157.4685 H   0  0  0  0  0  0  0  0  0  0  0  0
  150.1590  140.7072  159.2223 H   0  0  0  0  0  0  0  0  0  0  0  0
  152.5576  143.9679  162.1867 H   0  0  0  0  0  0  0  0  0  0  0  0
  154.2102  142.6400  163.2098 H   0  0  0  0  0  0  0  0  0  0  0  0
  155.7149  142.0049  169.3826 H   0  0  0  0  0  0  0  0  0  0  0  0
  1  2  2  0  0  0  0
  2  3  1  0  0  0  0
  2 12  1  0  0  0  0
  3  4  1  0  0  0  0
  4  5  1  0  0  0  0
  4 24  1  0  0  0  0
  4 25  1  0  0  0  0
  5  6  1  0  0  0  0
  5 26  1  0  0  0  0
  5 27  1  0  0  0  0
  6 11  1  0  0  0  0
  6  7  2  0  0  0  0
  7  8  1  0  0  0  0
  7 28  1  0  0  0  0
  8  9  2  0  0  0  0
  8 29  1  0  0  0  0
  9 10  1  0  0  0  0
  9 30  1  0  0  0  0
 10 11  2  0  0  0  0
 10 39  1  0  0  0  0
 11 31  1  0  0  0  0
 12 23  1  0  0  0  0
 12 13  2  0  0  0  0
 13 14  1  0  0  0  0
 13 32  1  0  0  0  0
 14 21  1  0  0  0  0
 14 15  1  0  0  0  0
 15 16  1  0  0  0  0
 15 33  1  0  0  0  0
 15 34  1  0  0  0  0
 16 17  1  0  0  0  0
 16 35  1  0  0  0  0
 16 36  1  0  0  0  0
 17 18  2  0  0  0  0
 17 19  2  0  0  0  0
 17 20  1  0  0  0  0
 20 21  2  0  0  0  0
 21 22  1  0  0  0  0
 22 23  2  0  0  0  0
 22 37  1  0  0  0  0
 23 38  1  0  0  0  0
M  CHG  1   3  -1
M  CHG  1  10   1
M  END
> <s_m_source_file>
AV-unprocessed.smi

> <i_m_source_file_index>
2164

> <i_lp_mmshare_version>
43012

> <i_f3d_flags>
0

> <s_epik_input>
W0NIMl0xW0NIMl1TKD1PKSg9TylOPUMoTjEyKVtDSF09W0NIXUMoPVtDSF0yKUMoPU8pW05IXVtDSDJdW0NIMl1jM1tjSF1bY0hdW2NIXW5bY0hdMw==

> <s_epik_cmdline>
J2VwaWtfcHl0aG9uJywgJy1waCcsICc3LjAnLCAnLXRuJywgJzgnLCAnLW1hJywgJzIwMCcsICctbWV0YWxfYmluZGluZycsICctaW1hZScsICc8aW5maWxlLm1hZT4nLCAnLW9tYWUnLCAnPG91dGZpbGUubWFlPic=

> <r_epik_Ionization_Penalty>
6.83439

> <r_epik_Ionization_Penalty_Charging>
6.83439

> <r_epik_Ionization_Penalty_Neutral>
0

> <r_epik_State_Penalty>
7.45298

> <r_epik_Charging_Adjusted_Penalty>
14.2874

> <i_epik_Tot_Q>
0

> <i_epik_Tot_abs_Q>
2

> <r_epik_Metal_State_Penalty>
3.5959

> <b_epik_Metal_Only>
1

> <s_lp_Force_Field>
OPLS_2005

> <r_lp_Energy>
30.4634

> <b_lp_Chiralities_Consistent>
1

> <s_lp_Variant>
AV-unprocessed.smi:2164-4

> <Gold.Version>
5.8.1

> <Gold.Id.Protein>
6NUR|6NUR_protein|mol2

> <Gold.PLP.Fitness>
46.8793

> <Gold.PLP.PLP>
-48.8015

> <Gold.PLP.part.hbond>
-1.2621

> <Gold.PLP.part.metal>
0.0000

> <Gold.PLP.part.buried>
-5.3456

> <Gold.PLP.part.nonpolar>
-41.0636

> <Gold.PLP.part.repulsive>
0.7122

> <Gold.PLP.ligand.clash>
0.0000

> <Gold.PLP.ligand.torsion>
0.9861

> <Gold.PLP.Chemscore.Hbond>
0.0000

> <Gold.PLP.Chemscore.CHOScore>
0.0000

> <Gold.PLP.Chemscore.Metal>
0.0000

> <Gold.PLP.Chemscore.Internal.Correction>
0.0500

> <Gold.Rescore>
     Score         DG    S(hbond)    S(metal)    S(lipo)     H(rot)  DE(clash)    DE(int)     intcor
     12.86     -14.05       0.00        0.00     106.35       1.51       0.23       0.96       ----

> <Gold.Chemscore.Fitness>
12.8627

> <Gold.Chemscore.DG>
-14.0547

> <Gold.Chemscore.ZeroCoef>
-5.4800

> <Gold.Chemscore.Hbond>
0.0000

> <Gold.Chemscore.Metal>
0.0000

> <Gold.Chemscore.Lipo>
106.3475

> <Gold.Chemscore.Internal_Hbond>
0.0000

> <Gold.Chemscore.DEClash>
0.2299

> <Gold.Chemscore.DEInternal>
0.9621

> <Gold.Chemscore.Rot>
1.5109

> <Gold.Chemscore.Internal.Correction>
   9.000000E+99

> <Gold.Chemscore.Hbond.Weighted>
-0.0001

> <Gold.Chemscore.Metal.Weighted>
-0.0000

> <Gold.Chemscore.Lipo.Weighted>
-12.4427

> <Gold.Chemscore.Internal_Hbond.Weighted>
0.0000

> <Gold.Chemscore.DEClash.Weighted>
0.2299

> <Gold.Chemscore.DEInternal.Weighted>
0.9621

> <Gold.Chemscore.Rot.Weighted>
3.8680

> <Gold.Chemscore.Internal.Correction.Weighted>
   9.000000E+99

> <Gold.Protein.RotatedTorsions>
[ 6907 6896 6895 6894 ] final  -93.13 input  -60.11 | X-H torsion
[ 7974 7965 7964 7962 ] final -159.52 input  175.53 | X-H torsion
[ 8008 7997 7996 7995 ] final  172.12 input   59.86 | X-H torsion
[ 10167 10162 10161 10158 ] final  -23.05 input  -65.29 | X-H torsion
[ 10718 10713 10712 10709 ] final  -30.74 input   66.30 | X-H torsion
[ 10763 10752 10751 10750 ] final    8.24 input  -60.55 | X-H torsion
[ 11005 11000 10999 10996 ] final  -52.01 input  -57.11 | X-H torsion

> <Gold.Protein.ActiveResidues>
 VAL166  LYS551  ARG553  GLY616  TRP617  ASP618  TYR619  PRO620  LYS621  CYS622 
 ASP623  PHE694  ASN695  SER759  ASP760  ASP761  ALA762  ILE779  LEU786  VAL792 
 PHE793  MET794  SER795  GLU796  ALA797  LYS798  CYS799  TRP800  GLU811  SER814 

> <Gold.Protein.RotatedAtoms>
  150.6917  134.2014  159.4323 H   0  0  0  0  0  0  0  0  0  0  0  0  # atno 6907 bound_to 6896
  151.9980  134.9941  160.0573 H   0  0  0  0  0  0  0  0  0  0  0  0  # atno 6908 bound_to 6896
  152.1605  133.4544  159.4895 H   0  0  0  0  0  0  0  0  0  0  0  0  # atno 6909 bound_to 6896
  144.7462  140.3673  143.6083 H   0  0  0  0  0  0  0  0  0  0  0  0  # atno 7974 bound_to 7965
  156.1205  140.1494  156.9211 H   0  0  0  0  0  0  0  0  0  0  0  0  # atno 8008 bound_to 7997
  154.4832  140.0873  156.7468 H   0  0  0  0  0  0  0  0  0  0  0  0  # atno 8009 bound_to 7997
  155.4437  140.3432  155.4295 H   0  0  0  0  0  0  0  0  0  0  0  0  # atno 8010 bound_to 7997
  140.7287  143.4478  151.0561 H   0  0  0  0  0  0  0  0  0  0  0  0  # atno 10167 bound_to 10162
  156.3959  130.4381  149.7359 H   0  0  0  0  0  0  0  0  0  0  0  0  # atno 10718 bound_to 10713
  153.2273  135.6888  153.7931 H   0  0  0  0  0  0  0  0  0  0  0  0  # atno 10763 bound_to 10752
  153.7108  135.3282  155.3246 H   0  0  0  0  0  0  0  0  0  0  0  0  # atno 10764 bound_to 10752
  154.8297  135.4590  154.1144 H   0  0  0  0  0  0  0  0  0  0  0  0  # atno 10765 bound_to 10752
  141.0902  133.6634  156.3961 H   0  0  0  0  0  0  0  0  0  0  0  0  # atno 11005 bound_to 11000
  145.7115  139.1686  143.2536 LP  0  0  0  0  0  0  0  0  0  0  0  0  # atno 17320 bound_to 7965
  146.1344  140.7143  142.9397 LP  0  0  0  0  0  0  0  0  0  0  0  0  # atno 17321 bound_to 7965
  139.8151  143.7896  152.3174 LP  0  0  0  0  0  0  0  0  0  0  0  0  # atno 17342 bound_to 10162
  139.7960  144.7392  150.9890 LP  0  0  0  0  0  0  0  0  0  0  0  0  # atno 17343 bound_to 10162
  156.4394  130.7853  151.2874 LP  0  0  0  0  0  0  0  0  0  0  0  0  # atno 17370 bound_to 10713
  157.7501  131.0129  150.3405 LP  0  0  0  0  0  0  0  0  0  0  0  0  # atno 17371 bound_to 10713
  140.5270  134.6249  157.5337 LP  0  0  0  0  0  0  0  0  0  0  0  0  # atno 17394 bound_to 11000
  139.9726  134.7268  156.0011 LP  0  0  0  0  0  0  0  0  0  0  0  0  # atno 17395 bound_to 11000

$$$$
