AV-unprocessed.smi:224|AV-procd|sdf|1717|dock4
  -GOLD-   2262020193D 1   1.00000     0.00000
 Structure written by MMmdl.
 56 59  0  0  0  0  0  0  0  0  2 V2000
  144.7202  131.5393  151.3966 C   0  0  0  0  0  0  0  0  0  0  0  0
  143.7865  132.7565  151.4151 C   0  0  2  0  0  0  0  0  0  0  0  0
  143.4842  133.0892  150.0747 O   0  0  0  0  0  0  0  0  0  0  0  0
  144.4389  133.9703  152.1068 C   0  0  0  0  0  0  0  0  0  0  0  0
  144.5291  133.7981  153.5847 N   0  3  1  0  0  0  0  0  0  0  0  0
  145.9030  133.3868  153.9908 C   0  0  0  0  0  0  0  0  0  0  0  0
  146.0071  133.1370  155.5008 C   0  0  0  0  0  0  0  0  0  0  0  0
  145.5767  134.3192  156.2336 N   0  0  0  0  0  0  0  0  0  0  0  0
  146.5286  135.2595  156.4769 C   0  0  0  0  0  0  0  0  0  0  0  0
  146.2164  136.3665  157.2024 N   0  0  0  0  0  0  0  0  0  0  0  0
  147.1367  137.3068  157.4344 C   0  0  0  0  0  0  0  0  0  0  0  0
  148.4114  137.3388  157.0445 N   0  0  0  0  0  0  0  0  0  0  0  0
  148.7397  136.2238  156.3319 C   0  0  0  0  0  0  0  0  0  0  0  0
  147.8672  135.1478  156.0021 C   0  0  0  0  0  0  0  0  0  0  0  0
  148.5579  134.1909  155.2676 N   0  0  0  0  0  0  0  0  0  0  0  0
  149.7636  134.6779  155.1598 C   0  0  0  0  0  0  0  0  0  0  0  0
  149.9650  135.8899  155.7804 N   0  0  0  0  0  0  0  0  0  0  0  0
  151.2022  136.6558  155.8192 C   0  0  0  0  0  0  0  0  0  0  0  0
  151.3674  137.6617  154.6508 C   0  0  1  0  0  0  0  0  0  0  0  0
  152.0713  137.0397  153.5918 O   0  0  0  0  0  0  0  0  0  0  0  0
  150.0484  138.2217  154.1124 C   0  0  0  0  0  0  0  0  0  0  0  0
  149.9487  139.5801  154.7908 C   0  0  0  0  0  0  0  0  0  0  0  0
  151.2909  140.0301  154.7630 O   0  0  0  0  0  0  0  0  0  0  0  0
  152.1256  138.9285  155.0986 C   0  0  0  0  0  0  0  0  0  0  0  0
  144.2206  134.7424  155.8978 C   0  0  0  0  0  0  0  0  0  0  0  0
  144.0167  134.9621  154.3772 C   0  0  2  0  0  0  0  0  0  0  0  0
  142.5172  135.2334  154.1359 C   0  0  0  0  0  0  0  0  0  0  0  0
  144.9691  131.2210  152.4095 H   0  0  0  0  0  0  0  0  0  0  0  0
  145.6541  131.7606  150.8784 H   0  0  0  0  0  0  0  0  0  0  0  0
  144.2529  130.6925  150.8926 H   0  0  0  0  0  0  0  0  0  0  0  0
  142.8615  132.4712  151.9154 H   0  0  0  0  0  0  0  0  0  0  0  0
  142.8270  133.7676  150.0654 H   0  0  0  0  0  0  0  0  0  0  0  0
  145.4397  134.1409  151.7065 H   0  0  0  0  0  0  0  0  0  0  0  0
  143.8718  134.8551  151.8286 H   0  0  0  0  0  0  0  0  0  0  0  0
  146.2000  132.4813  153.4630 H   0  0  0  0  0  0  0  0  0  0  0  0
  146.6137  134.1634  153.7023 H   0  0  0  0  0  0  0  0  0  0  0  0
  145.3690  132.2995  155.7855 H   0  0  0  0  0  0  0  0  0  0  0  0
  147.0252  132.8456  155.7548 H   0  0  0  0  0  0  0  0  0  0  0  0
  146.8049  138.1544  158.0158 H   0  0  0  0  0  0  0  0  0  0  0  0
  150.5461  134.1593  154.6249 H   0  0  0  0  0  0  0  0  0  0  0  0
  151.2439  137.1815  156.7742 H   0  0  0  0  0  0  0  0  0  0  0  0
  152.0349  135.9509  155.8249 H   0  0  0  0  0  0  0  0  0  0  0  0
  151.4428  136.6957  152.9757 H   0  0  0  0  0  0  0  0  0  0  0  0
  150.1061  138.3759  153.0335 H   0  0  0  0  0  0  0  0  0  0  0  0
  149.1784  137.5957  154.3021 H   0  0  0  0  0  0  0  0  0  0  0  0
  149.2818  140.2664  154.2685 H   0  0  0  0  0  0  0  0  0  0  0  0
  149.6099  139.4821  155.8235 H   0  0  0  0  0  0  0  0  0  0  0  0
  152.2834  138.9342  156.1781 H   0  0  0  0  0  0  0  0  0  0  0  0
  153.1033  139.0365  154.6272 H   0  0  0  0  0  0  0  0  0  0  0  0
  143.5427  133.9617  156.2456 H   0  0  0  0  0  0  0  0  0  0  0  0
  143.9500  135.6388  156.4581 H   0  0  0  0  0  0  0  0  0  0  0  0
  144.5810  135.8442  154.0721 H   0  0  0  0  0  0  0  0  0  0  0  0
  142.1444  135.9832  154.8346 H   0  0  0  0  0  0  0  0  0  0  0  0
  141.9231  134.3301  154.2792 H   0  0  0  0  0  0  0  0  0  0  0  0
  142.3063  135.6211  153.1409 H   0  0  0  0  0  0  0  0  0  0  0  0
  143.9184  133.0286  153.8181 H   0  0  0  0  0  0  0  0  0  0  0  0
  1  2  1  0  0  0  0
  1 28  1  0  0  0  0
  1 29  1  0  0  0  0
  1 30  1  0  0  0  0
  2  3  1  0  0  0  0
  2  4  1  0  0  0  0
  2 31  1  0  0  0  0
  3 32  1  0  0  0  0
  4  5  1  0  0  0  0
  4 33  1  0  0  0  0
  4 34  1  0  0  0  0
  5 26  1  0  0  0  0
  5  6  1  0  0  0  0
  5 56  1  0  0  0  0
  6  7  1  0  0  0  0
  6 35  1  0  0  0  0
  6 36  1  0  0  0  0
  7  8  1  0  0  0  0
  7 37  1  0  0  0  0
  7 38  1  0  0  0  0
  8  9  1  0  0  0  0
  8 25  1  0  0  0  0
  9 14  1  0  0  0  0
  9 10  2  0  0  0  0
 10 11  1  0  0  0  0
 11 12  2  0  0  0  0
 11 39  1  0  0  0  0
 12 13  1  0  0  0  0
 13 17  1  0  0  0  0
 13 14  2  0  0  0  0
 14 15  1  0  0  0  0
 15 16  2  0  0  0  0
 16 17  1  0  0  0  0
 16 40  1  0  0  0  0
 17 18  1  0  0  0  0
 18 19  1  0  0  0  0
 18 41  1  0  0  0  0
 18 42  1  0  0  0  0
 19 24  1  0  0  0  0
 19 20  1  0  0  0  0
 19 21  1  0  0  0  0
 20 43  1  0  0  0  0
 21 22  1  0  0  0  0
 21 44  1  0  0  0  0
 21 45  1  0  0  0  0
 22 23  1  0  0  0  0
 22 46  1  0  0  0  0
 22 47  1  0  0  0  0
 23 24  1  0  0  0  0
 24 48  1  0  0  0  0
 24 49  1  0  0  0  0
 25 26  1  0  0  0  0
 25 50  1  0  0  0  0
 25 51  1  0  0  0  0
 26 27  1  0  0  0  0
 26 52  1  0  0  0  0
 27 53  1  0  0  0  0
 27 54  1  0  0  0  0
 27 55  1  0  0  0  0
M  CHG  1   5   1
M  END
> <s_m_source_file>
AV-unprocessed.smi

> <i_m_source_file_index>
224

> <i_lp_mmshare_version>
43012

> <i_f3d_flags>
0

> <s_epik_input>
W0NIM11bQ0BIXShbT0hdKVtDSDJdTjFbQ0gyXVtDSDJdTihbQ0gyXVtDQEhdMVtDSDNdKWMobltjSF1uMiljKGMyMyluW2NIXW4zW0NIMl1bQ0BAXTQoW09IXSlbQ0gyXVtDSDJdT1tDSDJdNA==

> <s_epik_cmdline>
J2VwaWtfcHl0aG9uJywgJy1waCcsICc3LjAnLCAnLXRuJywgJzgnLCAnLW1hJywgJzIwMCcsICctbWV0YWxfYmluZGluZycsICctaW1hZScsICc8aW5maWxlLm1hZT4nLCAnLW9tYWUnLCAnPG91dGZpbGUubWFlPic=

> <r_lp_tautomer_probability>
1

> <r_epik_Ionization_Penalty>
0.00516958

> <r_epik_Ionization_Penalty_Charging>
0.00509693

> <r_epik_Ionization_Penalty_Neutral>
7.26542e-05

> <r_epik_State_Penalty>
-0

> <r_epik_Charging_Adjusted_Penalty>
0.00509693

> <i_epik_Tot_Q>
1

> <i_epik_Tot_abs_Q>
1

> <r_epik_Metal_State_Penalty>
-0

> <b_epik_Metal_Only>
0

> <s_lp_Force_Field>
OPLS_2005

> <r_lp_Energy>
50.0315

> <b_lp_Chiralities_Consistent>
1

> <s_lp_Variant>
AV-unprocessed.smi:224-11

> <Gold.Version>
5.8.1

> <Gold.Id.Protein>
6NUR|6NUR_protein|mol2

> <Gold.PLP.Fitness>
48.1226

> <Gold.PLP.PLP>
-33.6935

> <Gold.PLP.part.hbond>
-4.9183

> <Gold.PLP.part.metal>
0.0000

> <Gold.PLP.part.buried>
-6.8154

> <Gold.PLP.part.nonpolar>
-23.7859

> <Gold.PLP.part.repulsive>
0.1764

> <Gold.PLP.ligand.clash>
0.0000

> <Gold.PLP.ligand.torsion>
1.9748

> <Gold.PLP.Chemscore.Hbond>
5.9440

> <Gold.PLP.Chemscore.CHOScore>
0.0000

> <Gold.PLP.Chemscore.Metal>
0.0000

> <Gold.Chemscore.Hbonds>
donor molecule, donor type, donor heavy atom, donor atom, acceptor molecule, acceptor atom, score
      L1  H     3    32       P1 10186  1.00
      L1  H     5    56       P1 10957  2.00
      L1  H    20    43       P1  7949  0.94
      P1  H  7989  7998       L1    23  1.00
      P1  H 10752 10763       L1    20  1.00

> <Gold.PLP.Chemscore.Internal.Correction>
0.5466

> <Gold.Rescore>
     Score         DG    S(hbond)    S(metal)    S(lipo)     H(rot)  DE(clash)    DE(int)     intcor
     15.85     -19.26       4.34        0.00      67.50       3.36       0.01       3.40       ----

> <Gold.Chemscore.Fitness>
15.8517

> <Gold.Chemscore.DG>
-19.2561

> <Gold.Chemscore.ZeroCoef>
-5.4800

> <Gold.Chemscore.Hbond>
4.3364

> <Gold.Chemscore.Metal>
0.0000

> <Gold.Chemscore.Lipo>
67.4959

> <Gold.Chemscore.Internal_Hbond>
0.0000

> <Gold.Chemscore.DEClash>
0.0073

> <Gold.Chemscore.DEInternal>
3.3970

> <Gold.Chemscore.Rot>
3.3611

> <Gold.Chemscore.Internal.Correction>
   9.000000E+99

> <Gold.Chemscore.Hbonds>
donor molecule, donor type, donor heavy atom, donor atom, acceptor molecule, acceptor atom, score
      L1  H     3    32       P1 10186  0.92
      L1  H     5    56       P1 10957  0.90
      L1  H    20    43       P1  7949  0.80
      P1  H  7989  7998       L1    23  0.80
      P1  H 10752 10763       L1    20  0.38

> <Gold.Chemscore.Hbond.Weighted>
-14.4835

> <Gold.Chemscore.Metal.Weighted>
-0.0000

> <Gold.Chemscore.Lipo.Weighted>
-7.8970

> <Gold.Chemscore.Internal_Hbond.Weighted>
0.0000

> <Gold.Chemscore.DEClash.Weighted>
0.0073

> <Gold.Chemscore.DEInternal.Weighted>
3.3970

> <Gold.Chemscore.Rot.Weighted>
8.6045

> <Gold.Chemscore.Internal.Correction.Weighted>
   9.000000E+99

> <Gold.Protein.RotatedTorsions>
[ 6907 6896 6895 6894 ] final -177.66 input  -60.11 | X-H torsion
[ 7974 7965 7964 7962 ] final -145.80 input  175.53 | X-H torsion
[ 8008 7997 7996 7995 ] final   78.96 input   59.86 | X-H torsion
[ 10167 10162 10161 10158 ] final  137.94 input  -65.29 | X-H torsion
[ 10718 10713 10712 10709 ] final   33.36 input   66.30 | X-H torsion
[ 10763 10752 10751 10750 ] final    8.32 input  -60.55 | X-H torsion
[ 11005 11000 10999 10996 ] final   26.65 input  -57.11 | X-H torsion

> <Gold.Protein.ActiveResidues>
 VAL166  LYS551  ARG553  GLY616  TRP617  ASP618  TYR619  PRO620  LYS621  CYS622 
 ASP623  PHE694  ASN695  SER759  ASP760  ASP761  ALA762  ILE779  LEU786  VAL792 
 PHE793  MET794  SER795  GLU796  ALA797  LYS798  CYS799  TRP800  GLU811  SER814 

> <Gold.Protein.RotatedAtoms>
  151.6246  133.3336  159.3095 H   0  0  0  0  0  0  0  0  0  0  0  0  # atno 6907 bound_to 6896
  150.8088  134.7234  159.6680 H   0  0  0  0  0  0  0  0  0  0  0  0  # atno 6908 bound_to 6896
  152.4184  134.6004  160.0050 H   0  0  0  0  0  0  0  0  0  0  0  0  # atno 6909 bound_to 6896
  144.8202  140.5537  143.5583 H   0  0  0  0  0  0  0  0  0  0  0  0  # atno 7974 bound_to 7965
  155.8630  140.3453  155.5769 H   0  0  0  0  0  0  0  0  0  0  0  0  # atno 8008 bound_to 7997
  155.7912  140.0872  157.2027 H   0  0  0  0  0  0  0  0  0  0  0  0  # atno 8009 bound_to 7997
  154.4013  140.1483  156.3152 H   0  0  0  0  0  0  0  0  0  0  0  0  # atno 8010 bound_to 7997
  139.5127  144.6381  151.5642 H   0  0  0  0  0  0  0  0  0  0  0  0  # atno 10167 bound_to 10162
  157.2968  130.7330  149.6643 H   0  0  0  0  0  0  0  0  0  0  0  0  # atno 10718 bound_to 10713
  153.2263  135.6887  153.7941 H   0  0  0  0  0  0  0  0  0  0  0  0  # atno 10763 bound_to 10752
  153.7121  135.3280  155.3249 H   0  0  0  0  0  0  0  0  0  0  0  0  # atno 10764 bound_to 10752
  154.8293  135.4593  154.1131 H   0  0  0  0  0  0  0  0  0  0  0  0  # atno 10765 bound_to 10752
  140.3348  134.2398  155.7697 H   0  0  0  0  0  0  0  0  0  0  0  0  # atno 11005 bound_to 11000
  145.5122  139.1479  143.3599 LP  0  0  0  0  0  0  0  0  0  0  0  0  # atno 17320 bound_to 7965
  146.2507  140.5262  142.8894 LP  0  0  0  0  0  0  0  0  0  0  0  0  # atno 17321 bound_to 7965
  140.6138  143.9387  150.6473 LP  0  0  0  0  0  0  0  0  0  0  0  0  # atno 17342 bound_to 10162
  140.2638  143.3505  152.1299 LP  0  0  0  0  0  0  0  0  0  0  0  0  # atno 17343 bound_to 10162
  155.9669  130.4292  150.4821 LP  0  0  0  0  0  0  0  0  0  0  0  0  # atno 17370 bound_to 10713
  157.2795  131.0604  151.2207 LP  0  0  0  0  0  0  0  0  0  0  0  0  # atno 17371 bound_to 10713
  141.2054  133.7861  157.0235 LP  0  0  0  0  0  0  0  0  0  0  0  0  # atno 17394 bound_to 11000
  140.0830  134.9637  157.1655 LP  0  0  0  0  0  0  0  0  0  0  0  0  # atno 17395 bound_to 11000

$$$$
