AV-unprocessed.smi:154|AV-procd|sdf|1266|dock4
  -GOLD-   2262018523D 1   1.00000     0.00000
 Structure written by MMmdl.
 53 57  0  0  0  0  0  0  0  0  1 V2000
  146.4766  134.6729  150.5365 O   0  0  0  0  0  0  0  0  0  0  0  0
  145.3021  134.3481  151.2607 C   0  0  0  0  0  0  0  0  0  0  0  0
  144.6058  135.6766  151.6480 C   0  0  0  0  0  0  0  0  0  0  0  0
  145.4745  136.6166  152.3406 N   0  0  0  0  0  0  0  0  0  0  0  0
  145.9028  137.8369  151.8772 C   0  0  0  0  0  0  0  0  0  0  0  0
  146.6849  138.4914  152.6890 N   0  0  0  0  0  0  0  0  0  0  0  0
  146.8088  137.6710  153.8071 C   0  0  0  0  0  0  0  0  0  0  0  0
  147.5112  137.7506  155.0526 C   0  0  0  0  0  0  0  0  0  0  0  0
  148.2990  138.7845  155.4750 N   0  0  0  0  0  0  0  0  0  0  0  0
  149.0970  138.6387  156.6962 C   0  0  2  0  0  0  0  0  0  0  0  0
  149.1015  139.9715  157.4804 C   0  0  0  0  0  0  0  0  0  0  0  0
  149.4456  141.2155  156.6377 C   0  0  0  0  0  0  0  0  0  0  0  0
  148.8490  141.1636  155.2179 C   0  0  0  0  0  0  0  0  0  0  0  0
  148.8749  139.7658  154.5574 C   0  0  1  0  0  0  0  0  0  0  0  0
  150.2665  139.2814  154.0725 C   0  0  0  0  0  0  0  0  0  0  0  0
  151.2161  138.8156  155.2002 C   0  0  0  0  0  0  0  0  0  0  0  0
  152.1267  137.9982  154.6709 F   0  0  0  0  0  0  0  0  0  0  0  0
  151.8876  139.8494  155.6973 F   0  0  0  0  0  0  0  0  0  0  0  0
  150.4846  138.0597  156.3320 C   0  0  0  0  0  0  0  0  0  0  0  0
  147.3588  136.6999  155.9027 N   0  0  0  0  0  0  0  0  0  0  0  0
  146.6016  135.6504  155.5776 C   0  0  0  0  0  0  0  0  0  0  0  0
  145.9063  135.4415  154.4614 N   0  0  0  0  0  0  0  0  0  0  0  0
  146.0407  136.4861  153.5969 C   0  0  0  0  0  0  0  0  0  0  0  0
  144.3868  133.5046  150.3501 C   0  0  0  0  0  0  0  0  0  0  0  0
  144.9686  132.1062  150.0768 C   0  0  0  0  0  0  0  0  0  0  0  0
  145.2290  131.4391  151.3058 O   0  0  0  0  0  0  0  0  0  0  0  0
  146.2073  132.1053  152.0947 C   0  0  0  0  0  0  0  0  0  0  0  0
  145.7059  133.5054  152.4908 C   0  0  0  0  0  0  0  0  0  0  0  0
  146.2834  134.6233  149.6128 H   0  0  0  0  0  0  0  0  0  0  0  0
  144.2065  136.1700  150.7607 H   0  0  0  0  0  0  0  0  0  0  0  0
  143.7481  135.4739  152.2907 H   0  0  0  0  0  0  0  0  0  0  0  0
  145.6215  138.2257  150.9094 H   0  0  0  0  0  0  0  0  0  0  0  0
  148.6431  137.9164  157.3735 H   0  0  0  0  0  0  0  0  0  0  0  0
  148.1003  140.1149  157.8889 H   0  0  0  0  0  0  0  0  0  0  0  0
  149.7657  139.9056  158.3424 H   0  0  0  0  0  0  0  0  0  0  0  0
  149.0758  142.1053  157.1481 H   0  0  0  0  0  0  0  0  0  0  0  0
  150.5184  141.3690  156.5964 H   0  0  0  0  0  0  0  0  0  0  0  0
  147.8064  141.4777  155.2845 H   0  0  0  0  0  0  0  0  0  0  0  0
  149.3380  141.8982  154.5775 H   0  0  0  0  0  0  0  0  0  0  0  0
  148.2338  139.8692  153.6846 H   0  0  0  0  0  0  0  0  0  0  0  0
  150.1115  138.4319  153.4084 H   0  0  0  0  0  0  0  0  0  0  0  0
  150.7474  140.0436  153.4587 H   0  0  0  0  0  0  0  0  0  0  0  0
  151.1188  137.9899  157.2163 H   0  0  0  0  0  0  0  0  0  0  0  0
  150.3271  137.0316  156.0020 H   0  0  0  0  0  0  0  0  0  0  0  0
  146.5451  134.8666  156.3184 H   0  0  0  0  0  0  0  0  0  0  0  0
  143.4146  133.3830  150.8295 H   0  0  0  0  0  0  0  0  0  0  0  0
  144.1988  134.0224  149.4086 H   0  0  0  0  0  0  0  0  0  0  0  0
  144.2566  131.5140  149.5020 H   0  0  0  0  0  0  0  0  0  0  0  0
  145.8805  132.1673  149.4808 H   0  0  0  0  0  0  0  0  0  0  0  0
  146.3979  131.5125  152.9895 H   0  0  0  0  0  0  0  0  0  0  0  0
  147.1509  132.1655  151.5503 H   0  0  0  0  0  0  0  0  0  0  0  0
  146.4713  134.0140  153.0783 H   0  0  0  0  0  0  0  0  0  0  0  0
  144.8419  133.3908  153.1464 H   0  0  0  0  0  0  0  0  0  0  0  0
  1  2  1  0  0  0  0
  1 29  1  0  0  0  0
  2 28  1  0  0  0  0
  2  3  1  0  0  0  0
  2 24  1  0  0  0  0
  3  4  1  0  0  0  0
  3 30  1  0  0  0  0
  3 31  1  0  0  0  0
  4 23  1  0  0  0  0
  4  5  1  0  0  0  0
  5  6  2  0  0  0  0
  5 32  1  0  0  0  0
  6  7  1  0  0  0  0
  7 23  2  0  0  0  0
  7  8  1  0  0  0  0
  8  9  1  0  0  0  0
  8 20  2  0  0  0  0
  9 14  1  0  0  0  0
  9 10  1  0  0  0  0
 10 19  1  0  0  0  0
 10 11  1  0  0  0  0
 10 33  1  0  0  0  0
 11 12  1  0  0  0  0
 11 34  1  0  0  0  0
 11 35  1  0  0  0  0
 12 13  1  0  0  0  0
 12 36  1  0  0  0  0
 12 37  1  0  0  0  0
 13 14  1  0  0  0  0
 13 38  1  0  0  0  0
 13 39  1  0  0  0  0
 14 15  1  0  0  0  0
 14 40  1  0  0  0  0
 15 16  1  0  0  0  0
 15 41  1  0  0  0  0
 15 42  1  0  0  0  0
 16 17  1  0  0  0  0
 16 18  1  0  0  0  0
 16 19  1  0  0  0  0
 19 43  1  0  0  0  0
 19 44  1  0  0  0  0
 20 21  1  0  0  0  0
 21 22  2  0  0  0  0
 21 45  1  0  0  0  0
 22 23  1  0  0  0  0
 24 25  1  0  0  0  0
 24 46  1  0  0  0  0
 24 47  1  0  0  0  0
 25 26  1  0  0  0  0
 25 48  1  0  0  0  0
 25 49  1  0  0  0  0
 26 27  1  0  0  0  0
 27 28  1  0  0  0  0
 27 50  1  0  0  0  0
 27 51  1  0  0  0  0
 28 52  1  0  0  0  0
 28 53  1  0  0  0  0
M  END
> <s_m_source_file>
AV-unprocessed.smi

> <i_m_source_file_index>
154

> <i_lp_mmshare_version>
43012

> <i_f3d_flags>
0

> <s_epik_input>
W0NIMl0xW0NIMl1PW0NIMl1bQ0gyXUMxKFtPSF0pW0NIMl1uKFtjSF1uMiljKGMyMyluW2NIXW5jM04oW0NAQEhdNDUpW0NIXShbQ0gyXVtDSDJdW0NIMl00KVtDSDJdQyhGKShGKVtDSDJdNQ==

> <s_epik_cmdline>
J2VwaWtfcHl0aG9uJywgJy1waCcsICc3LjAnLCAnLXRuJywgJzgnLCAnLW1hJywgJzIwMCcsICctbWV0YWxfYmluZGluZycsICctaW1hZScsICc8aW5maWxlLm1hZT4nLCAnLW9tYWUnLCAnPG91dGZpbGUubWFlPic=

> <r_lp_tautomer_probability>
1

> <r_epik_Ionization_Penalty>
0.00333769

> <r_epik_Ionization_Penalty_Charging>
0

> <r_epik_Ionization_Penalty_Neutral>
0.00333769

> <r_epik_State_Penalty>
0.0022021

> <r_epik_Charging_Adjusted_Penalty>
0.0022021

> <i_epik_Tot_Q>
0

> <i_epik_Tot_abs_Q>
0

> <r_epik_Metal_State_Penalty>
-0

> <b_epik_Metal_Only>
0

> <s_lp_Force_Field>
OPLS_2005

> <r_lp_Energy>
50.9218

> <b_lp_Chiralities_Consistent>
1

> <s_lp_Variant>
AV-unprocessed.smi:154-1

> <Gold.Version>
5.8.1

> <Gold.Id.Protein>
6NUR|6NUR_protein|mol2

> <Gold.PLP.Fitness>
38.8737

> <Gold.PLP.PLP>
-33.0551

> <Gold.PLP.part.hbond>
-1.9693

> <Gold.PLP.part.metal>
0.0000

> <Gold.PLP.part.buried>
2.5025

> <Gold.PLP.part.nonpolar>
-33.5082

> <Gold.PLP.part.repulsive>
0.4952

> <Gold.PLP.ligand.clash>
0.0000

> <Gold.PLP.ligand.torsion>
0.1824

> <Gold.PLP.Chemscore.Hbond>
1.0000

> <Gold.PLP.Chemscore.CHOScore>
1.0000

> <Gold.PLP.Chemscore.Metal>
0.0000

> <Gold.Chemscore.Hbonds>
donor molecule, donor type, donor heavy atom, donor atom, acceptor molecule, acceptor atom, score
      L1  H     1    29       P1  7921  1.00
      L1  C     5    32       P1 10171  1.00

> <Gold.PLP.Chemscore.Internal.Correction>
0.1835

> <Gold.Rescore>
     Score         DG    S(hbond)    S(metal)    S(lipo)     H(rot)  DE(clash)    DE(int)     intcor
      9.72     -12.82       0.85        0.00      77.52       1.78       1.50       1.60       ----

> <Gold.Chemscore.Fitness>
9.7248

> <Gold.Chemscore.DG>
-12.8209

> <Gold.Chemscore.ZeroCoef>
-5.4800

> <Gold.Chemscore.Hbond>
0.8500

> <Gold.Chemscore.Metal>
0.0000

> <Gold.Chemscore.Lipo>
77.5227

> <Gold.Chemscore.Internal_Hbond>
0.0000

> <Gold.Chemscore.DEClash>
1.4989

> <Gold.Chemscore.DEInternal>
1.5971

> <Gold.Chemscore.Rot>
1.7845

> <Gold.Chemscore.Internal.Correction>
   9.000000E+99

> <Gold.Chemscore.Hbonds>
donor molecule, donor type, donor heavy atom, donor atom, acceptor molecule, acceptor atom, score
      L1  H     1    29       P1  7921  0.25

> <Gold.Chemscore.Hbond.Weighted>
-2.8391

> <Gold.Chemscore.Metal.Weighted>
-0.0000

> <Gold.Chemscore.Lipo.Weighted>
-9.0702

> <Gold.Chemscore.Internal_Hbond.Weighted>
0.0000

> <Gold.Chemscore.DEClash.Weighted>
1.4989

> <Gold.Chemscore.DEInternal.Weighted>
1.5971

> <Gold.Chemscore.Rot.Weighted>
4.5684

> <Gold.Chemscore.Internal.Correction.Weighted>
   9.000000E+99

> <Gold.Protein.RotatedTorsions>
[ 6907 6896 6895 6894 ] final  -59.46 input  -60.11 | X-H torsion
[ 7974 7965 7964 7962 ] final -160.51 input  175.53 | X-H torsion
[ 8008 7997 7996 7995 ] final   52.86 input   59.86 | X-H torsion
[ 10167 10162 10161 10158 ] final  -56.08 input  -65.29 | X-H torsion
[ 10718 10713 10712 10709 ] final  151.39 input   66.30 | X-H torsion
[ 10763 10752 10751 10750 ] final   74.92 input  -60.55 | X-H torsion
[ 11005 11000 10999 10996 ] final   65.28 input  -57.11 | X-H torsion

> <Gold.Protein.ActiveResidues>
 VAL166  LYS551  ARG553  GLY616  TRP617  ASP618  TYR619  PRO620  LYS621  CYS622 
 ASP623  PHE694  ASN695  SER759  ASP760  ASP761  ALA762  ILE779  LEU786  VAL792 
 PHE793  MET794  SER795  GLU796  ALA797  LYS798  CYS799  TRP800  GLU811  SER814 

> <Gold.Protein.RotatedAtoms>
  150.7928  134.6965  159.6525 H   0  0  0  0  0  0  0  0  0  0  0  0  # atno 6907 bound_to 6896
  152.4036  134.6241  160.0068 H   0  0  0  0  0  0  0  0  0  0  0  0  # atno 6908 bound_to 6896
  151.6505  133.3284  159.3187 H   0  0  0  0  0  0  0  0  0  0  0  0  # atno 6909 bound_to 6896
  144.7424  140.3531  143.6111 H   0  0  0  0  0  0  0  0  0  0  0  0  # atno 7974 bound_to 7965
  155.4588  140.3461  155.4310 H   0  0  0  0  0  0  0  0  0  0  0  0  # atno 8008 bound_to 7997
  156.1174  140.1477  156.9283 H   0  0  0  0  0  0  0  0  0  0  0  0  # atno 8009 bound_to 7997
  154.4799  140.0873  156.7331 H   0  0  0  0  0  0  0  0  0  0  0  0  # atno 8010 bound_to 7997
  140.6338  143.2472  151.5172 H   0  0  0  0  0  0  0  0  0  0  0  0  # atno 10167 bound_to 10162
  157.2713  131.0817  151.1598 H   0  0  0  0  0  0  0  0  0  0  0  0  # atno 10718 bound_to 10713
  153.0619  135.5008  154.8113 H   0  0  0  0  0  0  0  0  0  0  0  0  # atno 10763 bound_to 10752
  154.6895  135.2982  154.9501 H   0  0  0  0  0  0  0  0  0  0  0  0  # atno 10764 bound_to 10752
  154.0261  135.6736  153.4829 H   0  0  0  0  0  0  0  0  0  0  0  0  # atno 10765 bound_to 10752
  139.9904  134.6600  156.0100 H   0  0  0  0  0  0  0  0  0  0  0  0  # atno 11005 bound_to 11000
  145.7255  139.1721  143.2460 LP  0  0  0  0  0  0  0  0  0  0  0  0  # atno 17320 bound_to 7965
  146.1245  140.7266  142.9441 LP  0  0  0  0  0  0  0  0  0  0  0  0  # atno 17321 bound_to 7965
  139.5550  144.2299  152.1596 LP  0  0  0  0  0  0  0  0  0  0  0  0  # atno 17342 bound_to 10162
  140.1550  144.5079  150.6665 LP  0  0  0  0  0  0  0  0  0  0  0  0  # atno 17343 bound_to 10162
  157.3068  130.6870  149.6194 LP  0  0  0  0  0  0  0  0  0  0  0  0  # atno 17370 bound_to 10713
  155.9663  130.4375  150.5180 LP  0  0  0  0  0  0  0  0  0  0  0  0  # atno 17371 bound_to 10713
  141.1561  133.6543  156.4166 LP  0  0  0  0  0  0  0  0  0  0  0  0  # atno 17394 bound_to 11000
  140.4919  134.6567  157.5214 LP  0  0  0  0  0  0  0  0  0  0  0  0  # atno 17395 bound_to 11000

$$$$
