AV-unprocessed.smi:1268|AV-procd|sdf|5325|dock6
  -GOLD-   22720 4453D 1   1.00000     0.00000
 Structure written by MMmdl.
 39 40  0  0  0  0  0  0  0  0  3 V2000
  148.0816  140.3015  155.4976 O   0  0  0  0  0  0  0  0  0  0  0  0
  148.9167  140.2431  154.5925 C   0  0  0  0  0  0  0  0  0  0  0  0
  148.5268  139.9710  153.3409 N   0  0  0  0  0  0  0  0  0  0  0  0
  147.1507  139.7453  152.9171 C   0  0  0  0  0  0  0  0  0  0  0  0
  147.0249  138.4067  152.1709 C   0  0  2  0  0  0  0  0  0  0  0  0
  146.6592  138.6838  150.8327 O   0  0  0  0  0  0  0  0  0  0  0  0
  145.9202  137.5216  152.7816 C   0  0  0  0  0  0  0  0  0  0  0  0
  146.1282  136.0772  152.5034 N   0  3  0  0  0  0  0  0  0  0  0  0
  145.6396  135.6868  151.1555 C   0  0  0  0  0  0  0  0  0  0  0  0
  146.0019  134.2270  150.8341 C   0  0  0  0  0  0  0  0  0  0  0  0
  145.4554  133.2763  151.9067 C   0  0  0  0  0  0  0  0  0  0  0  0
  145.9422  133.7167  153.2932 C   0  0  0  0  0  0  0  0  0  0  0  0
  145.5821  135.1875  153.5634 C   0  0  0  0  0  0  0  0  0  0  0  0
  150.2494  140.4338  154.7145 N   0  5  0  0  0  0  0  0  0  0  0  0
  150.7793  140.7302  155.9126 C   0  0  0  0  0  0  0  0  0  0  0  0
  151.3403  139.8138  156.7097 N   0  0  0  0  0  0  0  0  0  0  0  0
  151.8332  140.3437  157.9037 C   0  0  0  0  0  0  0  0  0  0  0  0
  151.6517  141.6967  158.0143 C   0  0  0  0  0  0  0  0  0  0  0  0
  150.8509  142.3495  156.6137 S   0  0  0  0  0  0  0  0  0  0  0  0
  149.2432  139.9257  152.6314 H   0  0  0  0  0  0  0  0  0  0  0  0
  146.5337  139.7287  153.8165 H   0  0  0  0  0  0  0  0  0  0  0  0
  146.7867  140.5686  152.2993 H   0  0  0  0  0  0  0  0  0  0  0  0
  147.9845  137.8900  152.1858 H   0  0  0  0  0  0  0  0  0  0  0  0
  145.7181  138.6181  150.7615 H   0  0  0  0  0  0  0  0  0  0  0  0
  145.8564  137.6738  153.8601 H   0  0  0  0  0  0  0  0  0  0  0  0
  144.9598  137.8428  152.3745 H   0  0  0  0  0  0  0  0  0  0  0  0
  144.5590  135.8287  151.1034 H   0  0  0  0  0  0  0  0  0  0  0  0
  146.0826  136.3369  150.4001 H   0  0  0  0  0  0  0  0  0  0  0  0
  145.6073  133.9514  149.8558 H   0  0  0  0  0  0  0  0  0  0  0  0
  147.0860  134.1241  150.7712 H   0  0  0  0  0  0  0  0  0  0  0  0
  144.3650  133.2776  151.8803 H   0  0  0  0  0  0  0  0  0  0  0  0
  145.7729  132.2534  151.7017 H   0  0  0  0  0  0  0  0  0  0  0  0
  145.5042  133.0781  154.0608 H   0  0  0  0  0  0  0  0  0  0  0  0
  147.0230  133.5859  153.3614 H   0  0  0  0  0  0  0  0  0  0  0  0
  145.9735  135.4725  154.5391 H   0  0  0  0  0  0  0  0  0  0  0  0
  144.4982  135.3032  153.6133 H   0  0  0  0  0  0  0  0  0  0  0  0
  152.3008  139.6834  158.6187 H   0  0  0  0  0  0  0  0  0  0  0  0
  151.9393  142.3457  158.8275 H   0  0  0  0  0  0  0  0  0  0  0  0
  147.1291  135.9398  152.4880 H   0  0  0  0  0  0  0  0  0  0  0  0
  1  2  2  0  0  0  0
  2  3  1  0  0  0  0
  2 14  1  0  0  0  0
  3  4  1  0  0  0  0
  3 20  1  0  0  0  0
  4  5  1  0  0  0  0
  4 21  1  0  0  0  0
  4 22  1  0  0  0  0
  5  6  1  0  0  0  0
  5  7  1  0  0  0  0
  5 23  1  0  0  0  0
  6 24  1  0  0  0  0
  7  8  1  0  0  0  0
  7 25  1  0  0  0  0
  7 26  1  0  0  0  0
  8 13  1  0  0  0  0
  8  9  1  0  0  0  0
  8 39  1  0  0  0  0
  9 10  1  0  0  0  0
  9 27  1  0  0  0  0
  9 28  1  0  0  0  0
 10 11  1  0  0  0  0
 10 29  1  0  0  0  0
 10 30  1  0  0  0  0
 11 12  1  0  0  0  0
 11 31  1  0  0  0  0
 11 32  1  0  0  0  0
 12 13  1  0  0  0  0
 12 33  1  0  0  0  0
 12 34  1  0  0  0  0
 13 35  1  0  0  0  0
 13 36  1  0  0  0  0
 14 15  1  0  0  0  0
 15 19  1  0  0  0  0
 15 16  2  0  0  0  0
 16 17  1  0  0  0  0
 17 18  2  0  0  0  0
 17 37  1  0  0  0  0
 18 19  1  0  0  0  0
 18 38  1  0  0  0  0
M  CHG  1   8   1
M  CHG  1  14  -1
M  END
> <s_m_source_file>
AV-unprocessed.smi

> <i_m_source_file_index>
1268

> <i_lp_mmshare_version>
43012

> <i_f3d_flags>
0

> <s_epik_input>
czFbY0hdW2NIXW5jMVtOSF1DKD1PKVtOSF1bQ0gyXVtDQEhdKFtPSF0pW0NIMl1OMltDSDJdW0NIMl1bQ0gyXVtDSDJdW0NIMl0y

> <s_epik_cmdline>
J2VwaWtfcHl0aG9uJywgJy1waCcsICc3LjAnLCAnLXRuJywgJzgnLCAnLW1hJywgJzIwMCcsICctbWV0YWxfYmluZGluZycsICctaW1hZScsICc8aW5maWxlLm1hZT4nLCAnLW9tYWUnLCAnPG91dGZpbGUubWFlPic=

> <r_lp_tautomer_probability>
0.999

> <r_epik_Ionization_Penalty>
6.36291

> <r_epik_Ionization_Penalty_Charging>
5.4816

> <r_epik_Ionization_Penalty_Neutral>
0.881305

> <r_epik_State_Penalty>
5.4805

> <r_epik_Charging_Adjusted_Penalty>
10.9621

> <i_epik_Tot_Q>
0

> <i_epik_Tot_abs_Q>
2

> <r_epik_Metal_State_Penalty>
1.48871

> <b_epik_Metal_Only>
1

> <s_lp_Force_Field>
OPLS_2005

> <r_lp_Energy>
11.3564

> <b_lp_Chiralities_Consistent>
1

> <s_lp_Variant>
AV-unprocessed.smi:1268-3

> <Gold.Version>
5.8.1

> <Gold.Id.Protein>
6NUR|6NUR_protein|mol2

> <Gold.PLP.Fitness>
45.7577

> <Gold.PLP.PLP>
-32.1917

> <Gold.PLP.part.hbond>
-5.0141

> <Gold.PLP.part.metal>
0.0000

> <Gold.PLP.part.buried>
-2.8680

> <Gold.PLP.part.nonpolar>
-24.6121

> <Gold.PLP.part.repulsive>
0.2649

> <Gold.PLP.ligand.clash>
0.0000

> <Gold.PLP.ligand.torsion>
2.0602

> <Gold.PLP.Chemscore.Hbond>
5.8512

> <Gold.PLP.Chemscore.CHOScore>
0.0000

> <Gold.PLP.Chemscore.Metal>
0.0000

> <Gold.Chemscore.Hbonds>
donor molecule, donor type, donor heavy atom, donor atom, acceptor molecule, acceptor atom, score
      L1  H     3    20       P1  7957  0.94
      L1  H     6    24       P1 10171  0.93
      L1  H     8    39       P1  7948  2.00
      P1  H  7954  7966       L1     6  0.88
      P1  H  7989  7998       L1    14  0.99

> <Gold.PLP.Chemscore.Internal.Correction>
0.1328

> <Gold.Rescore>
     Score         DG    S(hbond)    S(metal)    S(lipo)     H(rot)  DE(clash)    DE(int)     intcor
     15.82     -18.29       3.44        0.00      65.54       2.48       0.43       2.04       ----

> <Gold.Chemscore.Fitness>
15.8215

> <Gold.Chemscore.DG>
-18.2910

> <Gold.Chemscore.ZeroCoef>
-5.4800

> <Gold.Chemscore.Hbond>
3.4432

> <Gold.Chemscore.Metal>
0.0000

> <Gold.Chemscore.Lipo>
65.5408

> <Gold.Chemscore.Internal_Hbond>
0.0000

> <Gold.Chemscore.DEClash>
0.4300

> <Gold.Chemscore.DEInternal>
2.0396

> <Gold.Chemscore.Rot>
2.4834

> <Gold.Chemscore.Internal.Correction>
   9.000000E+99

> <Gold.Chemscore.Hbonds>
donor molecule, donor type, donor heavy atom, donor atom, acceptor molecule, acceptor atom, score
      L1  H     3    20       P1  7957  0.84
      L1  H     6    24       P1 10171  0.87
      L1  H     8    39       P1  7948  0.97
      P1  H  7954  7966       L1     6  0.26
      P1  H  7989  7998       L1    14  0.42

> <Gold.Chemscore.Hbond.Weighted>
-11.5002

> <Gold.Chemscore.Metal.Weighted>
-0.0000

> <Gold.Chemscore.Lipo.Weighted>
-7.6683

> <Gold.Chemscore.Internal_Hbond.Weighted>
0.0000

> <Gold.Chemscore.DEClash.Weighted>
0.4300

> <Gold.Chemscore.DEInternal.Weighted>
2.0396

> <Gold.Chemscore.Rot.Weighted>
6.3575

> <Gold.Chemscore.Internal.Correction.Weighted>
   9.000000E+99

> <Gold.Protein.RotatedTorsions>
[ 6907 6896 6895 6894 ] final   94.95 input  -60.11 | X-H torsion
[ 7974 7965 7964 7962 ] final -145.81 input  175.53 | X-H torsion
[ 8008 7997 7996 7995 ] final  100.62 input   59.86 | X-H torsion
[ 10167 10162 10161 10158 ] final -164.12 input  -65.29 | X-H torsion
[ 10718 10713 10712 10709 ] final   -7.66 input   66.30 | X-H torsion
[ 10763 10752 10751 10750 ] final  -43.14 input  -60.55 | X-H torsion
[ 11005 11000 10999 10996 ] final  -72.64 input  -57.11 | X-H torsion

> <Gold.Protein.ActiveResidues>
 VAL166  LYS551  ARG553  GLY616  TRP617  ASP618  TYR619  PRO620  LYS621  CYS622 
 ASP623  PHE694  ASN695  SER759  ASP760  ASP761  ALA762  ILE779  LEU786  VAL792 
 PHE793  MET794  SER795  GLU796  ALA797  LYS798  CYS799  TRP800  GLU811  SER814 

> <Gold.Protein.RotatedAtoms>
  152.5447  134.1114  159.8359 H   0  0  0  0  0  0  0  0  0  0  0  0  # atno 6907 bound_to 6896
  151.1180  133.5117  159.2610 H   0  0  0  0  0  0  0  0  0  0  0  0  # atno 6908 bound_to 6896
  151.1810  135.0370  159.8847 H   0  0  0  0  0  0  0  0  0  0  0  0  # atno 6909 bound_to 6896
  144.8202  140.5536  143.5584 H   0  0  0  0  0  0  0  0  0  0  0  0  # atno 7974 bound_to 7965
  156.1221  140.3210  155.8224 H   0  0  0  0  0  0  0  0  0  0  0  0  # atno 8008 bound_to 7997
  155.4485  140.0530  157.3020 H   0  0  0  0  0  0  0  0  0  0  0  0  # atno 8009 bound_to 7997
  154.4835  140.2063  155.9722 H   0  0  0  0  0  0  0  0  0  0  0  0  # atno 8010 bound_to 7997
  139.6273  144.0507  152.1986 H   0  0  0  0  0  0  0  0  0  0  0  0  # atno 10167 bound_to 10162
  156.7139  130.5130  149.5885 H   0  0  0  0  0  0  0  0  0  0  0  0  # atno 10718 bound_to 10713
  153.9907  135.6705  153.4754 H   0  0  0  0  0  0  0  0  0  0  0  0  # atno 10763 bound_to 10752
  153.0706  135.4976  154.8293 H   0  0  0  0  0  0  0  0  0  0  0  0  # atno 10764 bound_to 10752
  154.7111  135.3097  154.9158 H   0  0  0  0  0  0  0  0  0  0  0  0  # atno 10765 bound_to 10752
  141.1611  133.6853  156.7089 H   0  0  0  0  0  0  0  0  0  0  0  0  # atno 11005 bound_to 11000
  145.5123  139.1479  143.3598 LP  0  0  0  0  0  0  0  0  0  0  0  0  # atno 17320 bound_to 7965
  146.2507  140.5264  142.8895 LP  0  0  0  0  0  0  0  0  0  0  0  0  # atno 17321 bound_to 7965
  140.0164  144.6185  150.7603 LP  0  0  0  0  0  0  0  0  0  0  0  0  # atno 17342 bound_to 10162
  140.7418  143.2824  151.3561 LP  0  0  0  0  0  0  0  0  0  0  0  0  # atno 17343 bound_to 10162
  156.1641  130.6394  151.0756 LP  0  0  0  0  0  0  0  0  0  0  0  0  # atno 17370 bound_to 10713
  157.6925  131.0805  150.7066 LP  0  0  0  0  0  0  0  0  0  0  0  0  # atno 17371 bound_to 10713
  140.2902  134.8247  157.4010 LP  0  0  0  0  0  0  0  0  0  0  0  0  # atno 17394 bound_to 11000
  140.1354  134.5041  155.8073 LP  0  0  0  0  0  0  0  0  0  0  0  0  # atno 17395 bound_to 11000

$$$$
