AV-unprocessed.smi:2085|AV-procd|sdf|8517|dock7
  -GOLD-   2272011233D 1   1.00000     0.00000
 Structure written by MMmdl.
 30 31  0  0  0  0  0  0  0  0  1 V2000
  152.9919  138.5421  155.0690 C   0  0  0  0  0  0  0  0  0  0  0  0
  152.5560  139.6153  155.8962 O   0  0  0  0  0  0  0  0  0  0  0  0
  151.3210  140.1826  155.6449 C   0  0  0  0  0  0  0  0  0  0  0  0
  150.5972  139.7148  154.5968 N   0  0  0  0  0  0  0  0  0  0  0  0
  149.3890  140.2631  154.3540 C   0  0  0  0  0  0  0  0  0  0  0  0
  148.8378  141.2914  155.1400 C   0  0  0  0  0  0  0  0  0  0  0  0
  149.5865  141.7788  156.2270 C   0  0  0  0  0  0  0  0  0  0  0  0
  150.8648  141.2263  156.4837 C   0  0  0  0  0  0  0  0  0  0  0  0
  151.6954  141.6340  157.5639 N   0  0  0  0  0  0  0  0  0  0  0  0
  151.3576  142.3213  158.6703 C   0  0  0  0  0  0  0  0  0  0  0  0
  150.2207  142.7181  158.9266 O   0  0  0  0  0  0  0  0  0  0  0  0
  152.5036  142.6128  159.6462 C   0  0  1  0  0  0  0  0  0  0  0  0
  152.6393  144.0990  160.0285 C   0  0  0  0  0  0  0  0  0  0  0  0
  152.2320  144.1355  161.4887 C   0  0  0  0  0  0  0  0  0  0  0  0
  152.6192  142.7404  161.9572 C   0  0  0  0  0  0  0  0  0  0  0  0
  152.2358  141.9210  160.8646 O   0  0  0  0  0  0  0  0  0  0  0  0
  153.9753  138.2085  155.4001 H   0  0  0  0  0  0  0  0  0  0  0  0
  153.0819  138.8520  154.0268 H   0  0  0  0  0  0  0  0  0  0  0  0
  152.3147  137.6893  155.1327 H   0  0  0  0  0  0  0  0  0  0  0  0
  148.8424  139.8653  153.5118 H   0  0  0  0  0  0  0  0  0  0  0  0
  147.8606  141.6939  154.9176 H   0  0  0  0  0  0  0  0  0  0  0  0
  149.1608  142.5518  156.8478 H   0  0  0  0  0  0  0  0  0  0  0  0
  152.6803  141.4442  157.4460 H   0  0  0  0  0  0  0  0  0  0  0  0
  153.4498  142.2542  159.2368 H   0  0  0  0  0  0  0  0  0  0  0  0
  153.6794  144.4102  159.9235 H   0  0  0  0  0  0  0  0  0  0  0  0
  152.0364  144.7750  159.4199 H   0  0  0  0  0  0  0  0  0  0  0  0
  152.7245  144.9287  162.0517 H   0  0  0  0  0  0  0  0  0  0  0  0
  151.1531  144.2719  161.5745 H   0  0  0  0  0  0  0  0  0  0  0  0
  153.6967  142.6650  162.1125 H   0  0  0  0  0  0  0  0  0  0  0  0
  152.1136  142.4467  162.8770 H   0  0  0  0  0  0  0  0  0  0  0  0
  1  2  1  0  0  0  0
  1 17  1  0  0  0  0
  1 18  1  0  0  0  0
  1 19  1  0  0  0  0
  2  3  1  0  0  0  0
  3  8  1  0  0  0  0
  3  4  2  0  0  0  0
  4  5  1  0  0  0  0
  5  6  2  0  0  0  0
  5 20  1  0  0  0  0
  6  7  1  0  0  0  0
  6 21  1  0  0  0  0
  7  8  2  0  0  0  0
  7 22  1  0  0  0  0
  8  9  1  0  0  0  0
  9 10  1  0  0  0  0
  9 23  1  0  0  0  0
 10 11  2  0  0  0  0
 10 12  1  0  0  0  0
 12 16  1  0  0  0  0
 12 13  1  0  0  0  0
 12 24  1  0  0  0  0
 13 14  1  0  0  0  0
 13 25  1  0  0  0  0
 13 26  1  0  0  0  0
 14 15  1  0  0  0  0
 14 27  1  0  0  0  0
 14 28  1  0  0  0  0
 15 16  1  0  0  0  0
 15 29  1  0  0  0  0
 15 30  1  0  0  0  0
M  END
> <s_m_source_file>
AV-unprocessed.smi

> <i_m_source_file_index>
2085

> <i_lp_mmshare_version>
43012

> <i_f3d_flags>
0

> <s_epik_input>
W0NIM11PYzFuW2NIXVtjSF1bY0hdYzFbTkhdQyg9TylbQ0BASF0yW0NIMl1bQ0gyXVtDSDJdTzI=

> <s_epik_cmdline>
J2VwaWtfcHl0aG9uJywgJy1waCcsICc3LjAnLCAnLXRuJywgJzgnLCAnLW1hJywgJzIwMCcsICctbWV0YWxfYmluZGluZycsICctaW1hZScsICc8aW5maWxlLm1hZT4nLCAnLW9tYWUnLCAnPG91dGZpbGUubWFlPic=

> <r_lp_tautomer_probability>
1

> <r_epik_Ionization_Penalty>
2.59253e-05

> <r_epik_Ionization_Penalty_Charging>
0

> <r_epik_Ionization_Penalty_Neutral>
2.59253e-05

> <r_epik_State_Penalty>
-0

> <r_epik_Charging_Adjusted_Penalty>
0

> <i_epik_Tot_Q>
0

> <i_epik_Tot_abs_Q>
0

> <r_epik_Metal_State_Penalty>
-0

> <b_epik_Metal_Only>
0

> <s_lp_Force_Field>
OPLS_2005

> <r_lp_Energy>
23.5272

> <b_lp_Chiralities_Consistent>
1

> <s_lp_Variant>
AV-unprocessed.smi:2085-2

> <Gold.Version>
5.8.1

> <Gold.Id.Protein>
6NUR|6NUR_protein|mol2

> <Gold.PLP.Fitness>
41.8848

> <Gold.PLP.PLP>
-36.0802

> <Gold.PLP.part.hbond>
-2.9019

> <Gold.PLP.part.metal>
0.0000

> <Gold.PLP.part.buried>
-1.6305

> <Gold.PLP.part.nonpolar>
-30.4983

> <Gold.PLP.part.repulsive>
0.2739

> <Gold.PLP.ligand.clash>
0.0000

> <Gold.PLP.ligand.torsion>
0.1509

> <Gold.PLP.Chemscore.Hbond>
1.1440

> <Gold.PLP.Chemscore.CHOScore>
0.8884

> <Gold.PLP.Chemscore.Metal>
0.0000

> <Gold.Chemscore.Hbonds>
donor molecule, donor type, donor heavy atom, donor atom, acceptor molecule, acceptor atom, score
      P1  H  7989  7998       L1     4  0.32
      P1  H  7997  8010       L1     2  0.75
      L1  C     5    20       P1  7957  0.88

> <Gold.PLP.Chemscore.Internal.Correction>
0.0091

> <Gold.Rescore>
     Score         DG    S(hbond)    S(metal)    S(lipo)     H(rot)  DE(clash)    DE(int)     intcor
     11.86     -13.30       0.37        0.00      83.41       1.24       0.10       1.34       ----

> <Gold.Chemscore.Fitness>
11.8552

> <Gold.Chemscore.DG>
-13.3017

> <Gold.Chemscore.ZeroCoef>
-5.4800

> <Gold.Chemscore.Hbond>
0.3689

> <Gold.Chemscore.Metal>
0.0000

> <Gold.Chemscore.Lipo>
83.4088

> <Gold.Chemscore.Internal_Hbond>
0.0000

> <Gold.Chemscore.DEClash>
0.1037

> <Gold.Chemscore.DEInternal>
1.3428

> <Gold.Chemscore.Rot>
1.2381

> <Gold.Chemscore.Internal.Correction>
   9.000000E+99

> <Gold.Chemscore.Hbonds>
donor molecule, donor type, donor heavy atom, donor atom, acceptor molecule, acceptor atom, score
      P1  H  7997  8010       L1     2  0.09

> <Gold.Chemscore.Hbond.Weighted>
-1.2323

> <Gold.Chemscore.Metal.Weighted>
-0.0000

> <Gold.Chemscore.Lipo.Weighted>
-9.7588

> <Gold.Chemscore.Internal_Hbond.Weighted>
0.0000

> <Gold.Chemscore.DEClash.Weighted>
0.1037

> <Gold.Chemscore.DEInternal.Weighted>
1.3428

> <Gold.Chemscore.Rot.Weighted>
3.1694

> <Gold.Chemscore.Internal.Correction.Weighted>
   9.000000E+99

> <Gold.Protein.RotatedTorsions>
[ 6907 6896 6895 6894 ] final  -32.32 input  -60.11 | X-H torsion
[ 7974 7965 7964 7962 ] final  -66.78 input  175.53 | X-H torsion
[ 8008 7997 7996 7995 ] final   64.18 input   59.86 | X-H torsion
[ 10167 10162 10161 10158 ] final    0.25 input  -65.29 | X-H torsion
[ 10718 10713 10712 10709 ] final  101.60 input   66.30 | X-H torsion
[ 10763 10752 10751 10750 ] final  -75.86 input  -60.55 | X-H torsion
[ 11005 11000 10999 10996 ] final -103.00 input  -57.11 | X-H torsion

> <Gold.Protein.ActiveResidues>
 VAL166  LYS551  ARG553  GLY616  TRP617  ASP618  TYR619  PRO620  LYS621  CYS622 
 ASP623  PHE694  ASN695  SER759  ASP760  ASP761  ALA762  ILE779  LEU786  VAL792 
 PHE793  MET794  SER795  GLU796  ALA797  LYS798  CYS799  TRP800  GLU811  SER814 

> <Gold.Protein.RotatedAtoms>
  151.0804  134.9854  159.8352 H   0  0  0  0  0  0  0  0  0  0  0  0  # atno 6907 bound_to 6896
  152.5419  134.2189  159.8790 H   0  0  0  0  0  0  0  0  0  0  0  0  # atno 6908 bound_to 6896
  151.2219  133.4454  159.2634 H   0  0  0  0  0  0  0  0  0  0  0  0  # atno 6909 bound_to 6896
  145.7374  140.8969  143.0548 H   0  0  0  0  0  0  0  0  0  0  0  0  # atno 7974 bound_to 7965
  155.6420  140.3497  155.4718 H   0  0  0  0  0  0  0  0  0  0  0  0  # atno 8008 bound_to 7997
  155.9918  140.1195  157.0654 H   0  0  0  0  0  0  0  0  0  0  0  0  # atno 8009 bound_to 7997
  154.4221  140.1118  156.5562 H   0  0  0  0  0  0  0  0  0  0  0  0  # atno 8010 bound_to 7997
  140.6737  143.6976  150.7977 H   0  0  0  0  0  0  0  0  0  0  0  0  # atno 10167 bound_to 10162
  157.6825  131.0730  150.5277 H   0  0  0  0  0  0  0  0  0  0  0  0  # atno 10718 bound_to 10713
  154.4922  135.5817  153.6467 H   0  0  0  0  0  0  0  0  0  0  0  0  # atno 10763 bound_to 10752
  152.9864  135.6115  154.3110 H   0  0  0  0  0  0  0  0  0  0  0  0  # atno 10764 bound_to 10752
  154.3011  135.2846  155.2590 H   0  0  0  0  0  0  0  0  0  0  0  0  # atno 10765 bound_to 10752
  141.1165  133.8604  157.1431 H   0  0  0  0  0  0  0  0  0  0  0  0  # atno 11005 bound_to 11000
  144.6878  139.9414  143.7475 LP  0  0  0  0  0  0  0  0  0  0  0  0  # atno 17320 bound_to 7965
  146.0480  139.3484  143.0657 LP  0  0  0  0  0  0  0  0  0  0  0  0  # atno 17321 bound_to 7965
  140.0666  143.5102  152.2601 LP  0  0  0  0  0  0  0  0  0  0  0  0  # atno 17342 bound_to 10162
  139.6018  144.7585  151.3154 LP  0  0  0  0  0  0  0  0  0  0  0  0  # atno 17343 bound_to 10162
  156.5588  130.4250  149.6072 LP  0  0  0  0  0  0  0  0  0  0  0  0  # atno 17370 bound_to 10713
  156.2839  130.7086  151.1917 LP  0  0  0  0  0  0  0  0  0  0  0  0  # atno 17371 bound_to 10713
  140.0090  134.9996  157.0355 LP  0  0  0  0  0  0  0  0  0  0  0  0  # atno 17394 bound_to 11000
  140.4631  134.1463  155.7194 LP  0  0  0  0  0  0  0  0  0  0  0  0  # atno 17395 bound_to 11000

$$$$
