AV-unprocessed.smi:1295|AV-procd|sdf|5407|dock8
  -GOLD-   22720 4563D 1   1.00000     0.00000
 Structure written by MMmdl.
 43 44  0  0  0  0  0  0  0  0  1 V2000
  147.2430  142.1124  153.3157 C   0  0  0  0  0  0  0  0  0  0  0  0
  148.0632  141.5472  154.4550 C   0  0  0  0  0  0  0  0  0  0  0  0
  147.8321  142.1713  155.6695 N   0  0  0  0  0  0  0  0  0  0  0  0
  148.5332  141.7197  156.7735 C   0  0  0  0  0  0  0  0  0  0  0  0
  148.2074  142.4443  158.0678 C   0  0  0  0  0  0  0  0  0  0  0  0
  149.4230  140.7000  156.6715 C   0  0  0  0  0  0  0  0  0  0  0  0
  150.1988  140.1562  157.8725 C   0  0  0  0  0  0  0  0  0  0  0  0
  151.6167  140.7058  158.0461 C   0  0  0  0  0  0  0  0  0  0  0  0
  152.5338  140.2768  157.3470 O   0  0  0  0  0  0  0  0  0  0  0  0
  151.7717  141.6620  158.9739 N   0  0  0  0  0  0  0  0  0  0  0  0
  152.9889  142.4224  159.2477 C   0  0  2  0  0  0  0  0  0  0  0  0
  153.5743  142.0198  160.6164 C   0  0  0  0  0  0  0  0  0  0  0  0
  152.6921  142.4907  161.7858 C   0  0  0  0  0  0  0  0  0  0  0  0
  152.4345  144.0032  161.7133 C   0  0  0  0  0  0  0  0  0  0  0  0
  151.8236  144.4026  160.3609 C   0  0  0  0  0  0  0  0  0  0  0  0
  152.7061  143.9442  159.1811 C   0  0  2  0  0  0  0  0  0  0  0  0
  152.1075  144.3800  157.8318 C   0  0  0  0  0  0  0  0  0  0  0  0
  149.6255  140.0697  155.3450 C   0  0  0  0  0  0  0  0  0  0  0  0
  150.4044  139.1302  155.1909 O   0  0  0  0  0  0  0  0  0  0  0  0
  148.8895  140.5656  154.2570 N   0  0  0  0  0  0  0  0  0  0  0  0
  147.1784  142.9316  155.7901 H   0  0  0  0  0  0  0  0  0  0  0  0
  147.5397  141.6699  152.3639 H   0  0  0  0  0  0  0  0  0  0  0  0
  147.3795  143.1921  153.2454 H   0  0  0  0  0  0  0  0  0  0  0  0
  146.1839  141.9052  153.4730 H   0  0  0  0  0  0  0  0  0  0  0  0
  149.0990  142.9241  158.4714 H   0  0  0  0  0  0  0  0  0  0  0  0
  147.8257  141.7438  158.8110 H   0  0  0  0  0  0  0  0  0  0  0  0
  147.4512  143.2158  157.9173 H   0  0  0  0  0  0  0  0  0  0  0  0
  150.2616  139.0717  157.7794 H   0  0  0  0  0  0  0  0  0  0  0  0
  149.6502  140.3234  158.7998 H   0  0  0  0  0  0  0  0  0  0  0  0
  150.9553  141.9276  159.5054 H   0  0  0  0  0  0  0  0  0  0  0  0
  153.7341  142.1915  158.4846 H   0  0  0  0  0  0  0  0  0  0  0  0
  153.7131  140.9389  160.6643 H   0  0  0  0  0  0  0  0  0  0  0  0
  154.5678  142.4570  160.7225 H   0  0  0  0  0  0  0  0  0  0  0  0
  151.7414  141.9562  161.7710 H   0  0  0  0  0  0  0  0  0  0  0  0
  153.1696  142.2409  162.7335 H   0  0  0  0  0  0  0  0  0  0  0  0
  151.7716  144.3060  162.5243 H   0  0  0  0  0  0  0  0  0  0  0  0
  153.3716  144.5405  161.8634 H   0  0  0  0  0  0  0  0  0  0  0  0
  150.8256  143.9709  160.2703 H   0  0  0  0  0  0  0  0  0  0  0  0
  151.6921  145.4847  160.3282 H   0  0  0  0  0  0  0  0  0  0  0  0
  153.6666  144.4523  159.2785 H   0  0  0  0  0  0  0  0  0  0  0  0
  151.1052  143.9761  157.6843 H   0  0  0  0  0  0  0  0  0  0  0  0
  152.7274  144.0436  157.0003 H   0  0  0  0  0  0  0  0  0  0  0  0
  152.0351  145.4661  157.7700 H   0  0  0  0  0  0  0  0  0  0  0  0
  1 22  1  0  0  0  0
  1 23  1  0  0  0  0
  1 24  1  0  0  0  0
  1  2  1  0  0  0  0
  2  3  1  0  0  0  0
  2 20  2  0  0  0  0
  3  4  1  0  0  0  0
  3 21  1  0  0  0  0
  4  6  2  0  0  0  0
  4  5  1  0  0  0  0
  5 25  1  0  0  0  0
  5 26  1  0  0  0  0
  5 27  1  0  0  0  0
  6 18  1  0  0  0  0
  6  7  1  0  0  0  0
  7  8  1  0  0  0  0
  7 28  1  0  0  0  0
  7 29  1  0  0  0  0
  8  9  2  0  0  0  0
  8 10  1  0  0  0  0
 10 11  1  0  0  0  0
 10 30  1  0  0  0  0
 11 16  1  0  0  0  0
 11 12  1  0  0  0  0
 11 31  1  0  0  0  0
 12 13  1  0  0  0  0
 12 32  1  0  0  0  0
 12 33  1  0  0  0  0
 13 14  1  0  0  0  0
 13 34  1  0  0  0  0
 13 35  1  0  0  0  0
 14 15  1  0  0  0  0
 14 36  1  0  0  0  0
 14 37  1  0  0  0  0
 15 16  1  0  0  0  0
 15 38  1  0  0  0  0
 15 39  1  0  0  0  0
 16 17  1  0  0  0  0
 16 40  1  0  0  0  0
 17 41  1  0  0  0  0
 17 42  1  0  0  0  0
 17 43  1  0  0  0  0
 18 19  2  0  0  0  0
 18 20  1  0  0  0  0
M  END
> <s_m_source_file>
AV-unprocessed.smi

> <i_m_source_file_index>
1295

> <i_lp_mmshare_version>
43012

> <i_f3d_flags>
0

> <s_epik_input>
W0NIM11jMW5jKFtDSDNdKWMoYyg9TylbbkhdMSlbQ0gyXUMoPU8pW05IXVtDQEBIXTJbQ0gyXVtDSDJdW0NIMl1bQ0gyXVtDQEhdMltDSDNd

> <s_epik_cmdline>
J2VwaWtfcHl0aG9uJywgJy1waCcsICc3LjAnLCAnLXRuJywgJzgnLCAnLW1hJywgJzIwMCcsICctbWV0YWxfYmluZGluZycsICctaW1hZScsICc8aW5maWxlLm1hZT4nLCAnLW9tYWUnLCAnPG91dGZpbGUubWFlPic=

> <r_lp_tautomer_probability>
0.156392

> <r_epik_Ionization_Penalty>
0.0136057

> <r_epik_Ionization_Penalty_Charging>
0.0134742

> <r_epik_Ionization_Penalty_Neutral>
0.000131572

> <r_epik_State_Penalty>
1.15342

> <r_epik_Charging_Adjusted_Penalty>
1.16689

> <i_epik_Tot_Q>
0

> <i_epik_Tot_abs_Q>
0

> <r_epik_Metal_State_Penalty>
1.31351

> <b_epik_Metal_Only>
0

> <s_lp_Force_Field>
OPLS_2005

> <r_lp_Energy>
13.3466

> <b_lp_Chiralities_Consistent>
1

> <s_lp_Variant>
AV-unprocessed.smi:1295-7

> <Gold.Version>
5.8.1

> <Gold.Id.Protein>
6NUR|6NUR_protein|mol2

> <Gold.PLP.Fitness>
45.9879

> <Gold.PLP.PLP>
-44.3852

> <Gold.PLP.part.hbond>
-2.0000

> <Gold.PLP.part.metal>
0.0000

> <Gold.PLP.part.buried>
-6.2499

> <Gold.PLP.part.nonpolar>
-35.5345

> <Gold.PLP.part.repulsive>
0.3402

> <Gold.PLP.ligand.clash>
0.0000

> <Gold.PLP.ligand.torsion>
0.6430

> <Gold.PLP.Chemscore.Hbond>
0.9600

> <Gold.PLP.Chemscore.CHOScore>
0.0000

> <Gold.PLP.Chemscore.Metal>
0.0000

> <Gold.Chemscore.Hbonds>
donor molecule, donor type, donor heavy atom, donor atom, acceptor molecule, acceptor atom, score
      P1  H  7997  8009       L1     9  0.98

> <Gold.PLP.Chemscore.Internal.Correction>
0.0087

> <Gold.Rescore>
     Score         DG    S(hbond)    S(metal)    S(lipo)     H(rot)  DE(clash)    DE(int)     intcor
     17.20     -17.56       0.99        0.00     107.52       1.48       0.05       0.31       ----

> <Gold.Chemscore.Fitness>
17.1989

> <Gold.Chemscore.DG>
-17.5614

> <Gold.Chemscore.ZeroCoef>
-5.4800

> <Gold.Chemscore.Hbond>
0.9852

> <Gold.Chemscore.Metal>
0.0000

> <Gold.Chemscore.Lipo>
107.5196

> <Gold.Chemscore.Internal_Hbond>
0.0000

> <Gold.Chemscore.DEClash>
0.0494

> <Gold.Chemscore.DEInternal>
0.3131

> <Gold.Chemscore.Rot>
1.4801

> <Gold.Chemscore.Internal.Correction>
   9.000000E+99

> <Gold.Chemscore.Hbonds>
donor molecule, donor type, donor heavy atom, donor atom, acceptor molecule, acceptor atom, score
      P1  H  7997  8009       L1     9  0.91

> <Gold.Chemscore.Hbond.Weighted>
-3.2907

> <Gold.Chemscore.Metal.Weighted>
-0.0000

> <Gold.Chemscore.Lipo.Weighted>
-12.5798

> <Gold.Chemscore.Internal_Hbond.Weighted>
0.0000

> <Gold.Chemscore.DEClash.Weighted>
0.0494

> <Gold.Chemscore.DEInternal.Weighted>
0.3131

> <Gold.Chemscore.Rot.Weighted>
3.7891

> <Gold.Chemscore.Internal.Correction.Weighted>
   9.000000E+99

> <Gold.Protein.RotatedTorsions>
[ 6907 6896 6895 6894 ] final   61.43 input  -60.11 | X-H torsion
[ 7974 7965 7964 7962 ] final  -53.78 input  175.53 | X-H torsion
[ 8008 7997 7996 7995 ] final  173.53 input   59.86 | X-H torsion
[ 10167 10162 10161 10158 ] final -115.34 input  -65.29 | X-H torsion
[ 10718 10713 10712 10709 ] final -173.80 input   66.30 | X-H torsion
[ 10763 10752 10751 10750 ] final  177.73 input  -60.55 | X-H torsion
[ 11005 11000 10999 10996 ] final -105.82 input  -57.11 | X-H torsion

> <Gold.Protein.ActiveResidues>
 VAL166  LYS551  ARG553  GLY616  TRP617  ASP618  TYR619  PRO620  LYS621  CYS622 
 ASP623  PHE694  ASN695  SER759  ASP760  ASP761  ALA762  ILE779  LEU786  VAL792 
 PHE793  MET794  SER795  GLU796  ALA797  LYS798  CYS799  TRP800  GLU811  SER814 

> <Gold.Protein.RotatedAtoms>
  152.4088  134.6161  160.0038 H   0  0  0  0  0  0  0  0  0  0  0  0  # atno 6907 bound_to 6896
  151.6344  133.3324  159.3124 H   0  0  0  0  0  0  0  0  0  0  0  0  # atno 6908 bound_to 6896
  150.7980  134.7095  159.6640 H   0  0  0  0  0  0  0  0  0  0  0  0  # atno 6909 bound_to 6896
  145.8930  140.8055  142.9782 H   0  0  0  0  0  0  0  0  0  0  0  0  # atno 7974 bound_to 7965
  156.1066  140.1458  156.9395 H   0  0  0  0  0  0  0  0  0  0  0  0  # atno 8008 bound_to 7997
  154.4738  140.0901  156.7256 H   0  0  0  0  0  0  0  0  0  0  0  0  # atno 8009 bound_to 7997
  155.4668  140.3440  155.4322 H   0  0  0  0  0  0  0  0  0  0  0  0  # atno 8010 bound_to 7997
  140.0911  143.4699  152.1869 H   0  0  0  0  0  0  0  0  0  0  0  0  # atno 10167 bound_to 10162
  156.7757  130.9465  151.3120 H   0  0  0  0  0  0  0  0  0  0  0  0  # atno 10718 bound_to 10713
  154.4984  135.2782  155.1441 H   0  0  0  0  0  0  0  0  0  0  0  0  # atno 10763 bound_to 10752
  154.3084  135.6234  153.5458 H   0  0  0  0  0  0  0  0  0  0  0  0  # atno 10764 bound_to 10752
  152.9898  135.5714  154.5421 H   0  0  0  0  0  0  0  0  0  0  0  0  # atno 10765 bound_to 10752
  141.1035  133.8840  157.1780 H   0  0  0  0  0  0  0  0  0  0  0  0  # atno 11005 bound_to 11000
  144.6731  140.1559  143.7426 LP  0  0  0  0  0  0  0  0  0  0  0  0  # atno 17320 bound_to 7965
  145.8885  139.2362  143.1563 LP  0  0  0  0  0  0  0  0  0  0  0  0  # atno 17321 bound_to 7965
  139.5724  144.7470  151.3855 LP  0  0  0  0  0  0  0  0  0  0  0  0  # atno 17342 bound_to 10162
  140.7028  143.7589  150.7431 LP  0  0  0  0  0  0  0  0  0  0  0  0  # atno 17343 bound_to 10162
  157.6670  130.9016  149.9954 LP  0  0  0  0  0  0  0  0  0  0  0  0  # atno 17370 bound_to 10713
  156.1249  130.3645  149.9825 LP  0  0  0  0  0  0  0  0  0  0  0  0  # atno 17371 bound_to 10713
  139.9895  135.0069  156.9942 LP  0  0  0  0  0  0  0  0  0  0  0  0  # atno 17394 bound_to 11000
  140.4962  134.1143  155.7242 LP  0  0  0  0  0  0  0  0  0  0  0  0  # atno 17395 bound_to 11000

$$$$
