AV-unprocessed.smi:224|AV-procd|sdf|1721|dock2
  -GOLD-   2262020193D 1   1.00000     0.00000
 Structure written by MMmdl.
 56 59  0  0  0  0  0  0  0  0  2 V2000
  145.1497  132.6574  150.0291 C   0  0  0  0  0  0  0  0  0  0  0  0
  143.7929  132.5124  150.7307 C   0  0  2  0  0  0  0  0  0  0  0  0
  142.8331  132.1757  149.7488 O   0  0  0  0  0  0  0  0  0  0  0  0
  143.3697  133.8185  151.4341 C   0  0  0  0  0  0  0  0  0  0  0  0
  143.8630  133.8981  152.8392 N   0  3  1  0  0  0  0  0  0  0  0  0
  145.3528  133.8624  152.8863 C   0  0  0  0  0  0  0  0  0  0  0  0
  145.8915  133.8940  154.3258 C   0  0  0  0  0  0  0  0  0  0  0  0
  145.3339  135.0183  155.0685 N   0  0  0  0  0  0  0  0  0  0  0  0
  145.9694  136.2207  155.0482 C   0  0  0  0  0  0  0  0  0  0  0  0
  145.3843  137.2839  154.4347 N   0  0  0  0  0  0  0  0  0  0  0  0
  145.9910  138.4740  154.4138 C   0  0  0  0  0  0  0  0  0  0  0  0
  147.1712  138.8165  154.9318 N   0  0  0  0  0  0  0  0  0  0  0  0
  147.7743  137.7532  155.5356 C   0  0  0  0  0  0  0  0  0  0  0  0
  147.2476  136.4341  155.6412 C   0  0  0  0  0  0  0  0  0  0  0  0
  148.1497  135.6213  156.3178 N   0  0  0  0  0  0  0  0  0  0  0  0
  149.1447  136.4154  156.6050 C   0  0  0  0  0  0  0  0  0  0  0  0
  149.0074  137.7120  156.1632 N   0  0  0  0  0  0  0  0  0  0  0  0
  149.9603  138.7979  156.3413 C   0  0  0  0  0  0  0  0  0  0  0  0
  151.0034  138.9040  155.2022 C   0  0  2  0  0  0  0  0  0  0  0  0
  150.4009  139.5373  154.0878 O   0  0  0  0  0  0  0  0  0  0  0  0
  151.5359  137.5363  154.7680 C   0  0  0  0  0  0  0  0  0  0  0  0
  152.9687  137.5269  155.2873 C   0  0  0  0  0  0  0  0  0  0  0  0
  153.3599  138.8799  155.1405 O   0  0  0  0  0  0  0  0  0  0  0  0
  152.2776  139.6776  155.5979 C   0  0  0  0  0  0  0  0  0  0  0  0
  143.8767  135.0461  155.0705 C   0  0  0  0  0  0  0  0  0  0  0  0
  143.2955  135.0330  153.6375 C   0  0  2  0  0  0  0  0  0  0  0  0
  141.7572  134.9825  153.7497 C   0  0  0  0  0  0  0  0  0  0  0  0
  145.9347  132.9076  150.7430 H   0  0  0  0  0  0  0  0  0  0  0  0
  145.1264  133.4425  149.2721 H   0  0  0  0  0  0  0  0  0  0  0  0
  145.4391  131.7284  149.5365 H   0  0  0  0  0  0  0  0  0  0  0  0
  143.8630  131.6880  151.4393 H   0  0  0  0  0  0  0  0  0  0  0  0
  142.2712  132.9199  149.5980 H   0  0  0  0  0  0  0  0  0  0  0  0
  143.7374  134.6830  150.8790 H   0  0  0  0  0  0  0  0  0  0  0  0
  142.2864  133.8832  151.3733 H   0  0  0  0  0  0  0  0  0  0  0  0
  145.7304  132.9676  152.3937 H   0  0  0  0  0  0  0  0  0  0  0  0
  145.7467  134.7114  152.3261 H   0  0  0  0  0  0  0  0  0  0  0  0
  145.6122  132.9748  154.8419 H   0  0  0  0  0  0  0  0  0  0  0  0
  146.9819  133.9227  154.3304 H   0  0  0  0  0  0  0  0  0  0  0  0
  145.4549  139.2649  153.9100 H   0  0  0  0  0  0  0  0  0  0  0  0
  150.0161  136.0731  157.1446 H   0  0  0  0  0  0  0  0  0  0  0  0
  149.4041  139.7325  156.4248 H   0  0  0  0  0  0  0  0  0  0  0  0
  150.4609  138.6562  157.2997 H   0  0  0  0  0  0  0  0  0  0  0  0
  149.9055  138.8902  153.6090 H   0  0  0  0  0  0  0  0  0  0  0  0
  150.9514  136.6996  155.1520 H   0  0  0  0  0  0  0  0  0  0  0  0
  151.5536  137.4491  153.6804 H   0  0  0  0  0  0  0  0  0  0  0  0
  153.0031  137.2439  156.3407 H   0  0  0  0  0  0  0  0  0  0  0  0
  153.6174  136.8547  154.7253 H   0  0  0  0  0  0  0  0  0  0  0  0
  152.3233  140.6870  155.1871 H   0  0  0  0  0  0  0  0  0  0  0  0
  152.3683  139.7595  156.6811 H   0  0  0  0  0  0  0  0  0  0  0  0
  143.5271  134.1705  155.6192 H   0  0  0  0  0  0  0  0  0  0  0  0
  143.4936  135.9099  155.6117 H   0  0  0  0  0  0  0  0  0  0  0  0
  143.5777  135.9654  153.1452 H   0  0  0  0  0  0  0  0  0  0  0  0
  141.3994  135.7142  154.4748 H   0  0  0  0  0  0  0  0  0  0  0  0
  141.4146  134.0016  154.0810 H   0  0  0  0  0  0  0  0  0  0  0  0
  141.2535  135.2210  152.8145 H   0  0  0  0  0  0  0  0  0  0  0  0
  143.5388  133.0606  153.3004 H   0  0  0  0  0  0  0  0  0  0  0  0
  1  2  1  0  0  0  0
  1 28  1  0  0  0  0
  1 29  1  0  0  0  0
  1 30  1  0  0  0  0
  2  3  1  0  0  0  0
  2  4  1  0  0  0  0
  2 31  1  0  0  0  0
  3 32  1  0  0  0  0
  4  5  1  0  0  0  0
  4 33  1  0  0  0  0
  4 34  1  0  0  0  0
  5 26  1  0  0  0  0
  5  6  1  0  0  0  0
  5 56  1  0  0  0  0
  6  7  1  0  0  0  0
  6 35  1  0  0  0  0
  6 36  1  0  0  0  0
  7  8  1  0  0  0  0
  7 37  1  0  0  0  0
  7 38  1  0  0  0  0
  8  9  1  0  0  0  0
  8 25  1  0  0  0  0
  9 14  1  0  0  0  0
  9 10  2  0  0  0  0
 10 11  1  0  0  0  0
 11 12  2  0  0  0  0
 11 39  1  0  0  0  0
 12 13  1  0  0  0  0
 13 17  1  0  0  0  0
 13 14  2  0  0  0  0
 14 15  1  0  0  0  0
 15 16  2  0  0  0  0
 16 17  1  0  0  0  0
 16 40  1  0  0  0  0
 17 18  1  0  0  0  0
 18 19  1  0  0  0  0
 18 41  1  0  0  0  0
 18 42  1  0  0  0  0
 19 24  1  0  0  0  0
 19 20  1  0  0  0  0
 19 21  1  0  0  0  0
 20 43  1  0  0  0  0
 21 22  1  0  0  0  0
 21 44  1  0  0  0  0
 21 45  1  0  0  0  0
 22 23  1  0  0  0  0
 22 46  1  0  0  0  0
 22 47  1  0  0  0  0
 23 24  1  0  0  0  0
 24 48  1  0  0  0  0
 24 49  1  0  0  0  0
 25 26  1  0  0  0  0
 25 50  1  0  0  0  0
 25 51  1  0  0  0  0
 26 27  1  0  0  0  0
 26 52  1  0  0  0  0
 27 53  1  0  0  0  0
 27 54  1  0  0  0  0
 27 55  1  0  0  0  0
M  CHG  1   5   1
M  END
> <s_m_source_file>
AV-unprocessed.smi

> <i_m_source_file_index>
224

> <i_lp_mmshare_version>
43012

> <i_f3d_flags>
0

> <s_epik_input>
W0NIM11bQ0BIXShbT0hdKVtDSDJdTjFbQ0gyXVtDSDJdTihbQ0gyXVtDQEhdMVtDSDNdKWMobltjSF1uMiljKGMyMyluW2NIXW4zW0NIMl1bQ0BAXTQoW09IXSlbQ0gyXVtDSDJdT1tDSDJdNA==

> <s_epik_cmdline>
J2VwaWtfcHl0aG9uJywgJy1waCcsICc3LjAnLCAnLXRuJywgJzgnLCAnLW1hJywgJzIwMCcsICctbWV0YWxfYmluZGluZycsICctaW1hZScsICc8aW5maWxlLm1hZT4nLCAnLW9tYWUnLCAnPG91dGZpbGUubWFlPic=

> <r_lp_tautomer_probability>
1

> <r_epik_Ionization_Penalty>
0.00516958

> <r_epik_Ionization_Penalty_Charging>
0.00509693

> <r_epik_Ionization_Penalty_Neutral>
7.26542e-05

> <r_epik_State_Penalty>
-0

> <r_epik_Charging_Adjusted_Penalty>
0.00509693

> <i_epik_Tot_Q>
1

> <i_epik_Tot_abs_Q>
1

> <r_epik_Metal_State_Penalty>
-0

> <b_epik_Metal_Only>
0

> <s_lp_Force_Field>
OPLS_2005

> <r_lp_Energy>
50.3432

> <b_lp_Chiralities_Consistent>
1

> <s_lp_Variant>
AV-unprocessed.smi:224-15

> <Gold.Version>
5.8.1

> <Gold.Id.Protein>
6NUR|6NUR_protein|mol2

> <Gold.PLP.Fitness>
49.0450

> <Gold.PLP.PLP>
-33.1850

> <Gold.PLP.part.hbond>
-6.0000

> <Gold.PLP.part.metal>
0.0000

> <Gold.PLP.part.buried>
-5.4629

> <Gold.PLP.part.nonpolar>
-23.1000

> <Gold.PLP.part.repulsive>
0.2581

> <Gold.PLP.ligand.clash>
0.0000

> <Gold.PLP.ligand.torsion>
1.4326

> <Gold.PLP.Chemscore.Hbond>
5.0000

> <Gold.PLP.Chemscore.CHOScore>
1.0000

> <Gold.PLP.Chemscore.Metal>
0.0000

> <Gold.Chemscore.Hbonds>
donor molecule, donor type, donor heavy atom, donor atom, acceptor molecule, acceptor atom, score
      L1  H     3    32       P1 10186  1.00
      L1  H     5    56       P1 10957  1.43
      P1  H  7989  7998       L1    20  1.00
      P1  H  7997  8008       L1    23  0.04
      P1  H 10785 10796       L1     3  0.32
      L1  C    11    39       P1 10175  0.87

> <Gold.PLP.Chemscore.Internal.Correction>
0.7252

> <Gold.Rescore>
     Score         DG    S(hbond)    S(metal)    S(lipo)     H(rot)  DE(clash)    DE(int)     intcor
     16.16     -17.74       3.88        0.00      67.62       3.36       0.15       1.43       ----

> <Gold.Chemscore.Fitness>
16.1567

> <Gold.Chemscore.DG>
-17.7383

> <Gold.Chemscore.ZeroCoef>
-5.4800

> <Gold.Chemscore.Hbond>
3.8777

> <Gold.Chemscore.Metal>
0.0000

> <Gold.Chemscore.Lipo>
67.6163

> <Gold.Chemscore.Internal_Hbond>
0.0000

> <Gold.Chemscore.DEClash>
0.1482

> <Gold.Chemscore.DEInternal>
1.4333

> <Gold.Chemscore.Rot>
3.3611

> <Gold.Chemscore.Internal.Correction>
   9.000000E+99

> <Gold.Chemscore.Hbonds>
donor molecule, donor type, donor heavy atom, donor atom, acceptor molecule, acceptor atom, score
      L1  H     3    32       P1 10186  0.99
      L1  H     5    56       P1 10957  0.55
      P1  H  7989  7998       L1    20  0.60
      P1  H 10785 10796       L1     3  0.29

> <Gold.Chemscore.Hbond.Weighted>
-12.9516

> <Gold.Chemscore.Metal.Weighted>
-0.0000

> <Gold.Chemscore.Lipo.Weighted>
-7.9111

> <Gold.Chemscore.Internal_Hbond.Weighted>
0.0000

> <Gold.Chemscore.DEClash.Weighted>
0.1482

> <Gold.Chemscore.DEInternal.Weighted>
1.4333

> <Gold.Chemscore.Rot.Weighted>
8.6045

> <Gold.Chemscore.Internal.Correction.Weighted>
   9.000000E+99

> <Gold.Protein.RotatedTorsions>
[ 6907 6896 6895 6894 ] final  119.79 input  -60.11 | X-H torsion
[ 7974 7965 7964 7962 ] final   98.28 input  175.53 | X-H torsion
[ 8008 7997 7996 7995 ] final  -43.61 input   59.86 | X-H torsion
[ 10167 10162 10161 10158 ] final   -6.26 input  -65.29 | X-H torsion
[ 10718 10713 10712 10709 ] final  117.50 input   66.30 | X-H torsion
[ 10763 10752 10751 10750 ] final  -14.94 input  -60.55 | X-H torsion
[ 11005 11000 10999 10996 ] final  154.69 input  -57.11 | X-H torsion

> <Gold.Protein.ActiveResidues>
 VAL166  LYS551  ARG553  GLY616  TRP617  ASP618  TYR619  PRO620  LYS621  CYS622 
 ASP623  PHE694  ASN695  SER759  ASP760  ASP761  ALA762  ILE779  LEU786  VAL792 
 PHE793  MET794  SER795  GLU796  ALA797  LYS798  CYS799  TRP800  GLU811  SER814 

> <Gold.Protein.RotatedAtoms>
  152.4446  133.7512  159.6694 H   0  0  0  0  0  0  0  0  0  0  0  0  # atno 6907 bound_to 6896
  150.8343  133.8029  159.3092 H   0  0  0  0  0  0  0  0  0  0  0  0  # atno 6908 bound_to 6896
  151.5673  135.1066  160.0038 H   0  0  0  0  0  0  0  0  0  0  0  0  # atno 6909 bound_to 6896
  145.4142  139.2329  143.3231 H   0  0  0  0  0  0  0  0  0  0  0  0  # atno 7974 bound_to 7965
  154.3997  140.1443  156.3548 H   0  0  0  0  0  0  0  0  0  0  0  0  # atno 8008 bound_to 7997
  155.8236  140.3468  155.5508 H   0  0  0  0  0  0  0  0  0  0  0  0  # atno 8009 bound_to 7997
  155.8262  140.0905  157.1810 H   0  0  0  0  0  0  0  0  0  0  0  0  # atno 8010 bound_to 7997
  140.6991  143.6214  150.8608 H   0  0  0  0  0  0  0  0  0  0  0  0  # atno 10167 bound_to 10162
  157.6092  131.1038  150.7624 H   0  0  0  0  0  0  0  0  0  0  0  0  # atno 10718 bound_to 10713
  153.5359  135.7014  153.5660 H   0  0  0  0  0  0  0  0  0  0  0  0  # atno 10763 bound_to 10752
  153.3648  135.3960  155.1745 H   0  0  0  0  0  0  0  0  0  0  0  0  # atno 10764 bound_to 10752
  154.8679  135.3797  154.4859 H   0  0  0  0  0  0  0  0  0  0  0  0  # atno 10765 bound_to 10752
  140.1512  134.8673  157.2457 H   0  0  0  0  0  0  0  0  0  0  0  0  # atno 11005 bound_to 11000
  146.2689  140.4858  142.8822 LP  0  0  0  0  0  0  0  0  0  0  0  0  # atno 17320 bound_to 7965
  144.8288  140.6673  143.6304 LP  0  0  0  0  0  0  0  0  0  0  0  0  # atno 17321 bound_to 7965
  139.9935  143.5821  152.2901 LP  0  0  0  0  0  0  0  0  0  0  0  0  # atno 17342 bound_to 10162
  139.6485  144.7659  151.2196 LP  0  0  0  0  0  0  0  0  0  0  0  0  # atno 17343 bound_to 10162
  156.8005  130.4919  149.5370 LP  0  0  0  0  0  0  0  0  0  0  0  0  # atno 17370 bound_to 10713
  156.1189  130.6095  151.0163 LP  0  0  0  0  0  0  0  0  0  0  0  0  # atno 17371 bound_to 10713
  140.2602  134.3580  155.7409 LP  0  0  0  0  0  0  0  0  0  0  0  0  # atno 17394 bound_to 11000
  141.2199  133.7365  156.9068 LP  0  0  0  0  0  0  0  0  0  0  0  0  # atno 17395 bound_to 11000

$$$$
