AV-unprocessed.smi:2989|AV-procd|sdf|11391|dock4
  -GOLD-   2272016313D 1   1.00000     0.00000
 Structure written by MMmdl.
 31 33  0  0  0  0  0  0  0  0  1 V2000
  150.4756  144.1107  157.9024 O   0  0  0  0  0  0  0  0  0  0  0  0
  151.1502  142.8911  158.1352 C   0  0  2  0  0  0  0  0  0  0  0  0
  150.1396  141.7385  157.9724 C   0  0  0  0  0  0  0  0  0  0  0  0
  149.9677  141.3524  156.5826 N   0  0  0  0  0  0  0  0  0  0  0  0
  151.0135  140.7959  155.9086 N   0  0  0  0  0  0  0  0  0  0  0  0
  150.6272  140.5140  154.7001 N   0  0  0  0  0  0  0  0  0  0  0  0
  149.2999  140.8894  154.5757 C   0  0  0  0  0  0  0  0  0  0  0  0
  148.3939  140.8054  153.4942 C   0  0  0  0  0  0  0  0  0  0  0  0
  147.0678  141.2664  153.6423 C   0  0  0  0  0  0  0  0  0  0  0  0
  146.6318  141.8148  154.8678 C   0  0  0  0  0  0  0  0  0  0  0  0
  147.5223  141.9074  155.9551 C   0  0  0  0  0  0  0  0  0  0  0  0
  148.8394  141.4441  155.7904 C   0  0  0  0  0  0  0  0  0  0  0  0
  151.8390  142.8647  159.4929 C   0  0  0  0  0  0  0  0  0  0  0  0
  151.6184  143.9111  160.4144 C   0  0  0  0  0  0  0  0  0  0  0  0
  152.2746  143.9099  161.6605 C   0  0  0  0  0  0  0  0  0  0  0  0
  153.1558  142.8629  161.9921 C   0  0  0  0  0  0  0  0  0  0  0  0
  153.3806  141.8169  161.0769 C   0  0  0  0  0  0  0  0  0  0  0  0
  152.7242  141.8173  159.8309 C   0  0  0  0  0  0  0  0  0  0  0  0
  150.1008  144.0838  157.0353 H   0  0  0  0  0  0  0  0  0  0  0  0
  151.9104  142.8073  157.3572 H   0  0  0  0  0  0  0  0  0  0  0  0
  150.4547  140.8637  158.5425 H   0  0  0  0  0  0  0  0  0  0  0  0
  149.1651  142.0312  158.3672 H   0  0  0  0  0  0  0  0  0  0  0  0
  148.7166  140.3854  152.5531 H   0  0  0  0  0  0  0  0  0  0  0  0
  146.3810  141.1974  152.8117 H   0  0  0  0  0  0  0  0  0  0  0  0
  145.6147  142.1626  154.9727 H   0  0  0  0  0  0  0  0  0  0  0  0
  147.1980  142.3216  156.8984 H   0  0  0  0  0  0  0  0  0  0  0  0
  150.9528  144.7243  160.1641 H   0  0  0  0  0  0  0  0  0  0  0  0
  152.1041  144.7143  162.3606 H   0  0  0  0  0  0  0  0  0  0  0  0
  153.6604  142.8632  162.9470 H   0  0  0  0  0  0  0  0  0  0  0  0
  154.0592  141.0154  161.3292 H   0  0  0  0  0  0  0  0  0  0  0  0
  152.9094  141.0151  159.1316 H   0  0  0  0  0  0  0  0  0  0  0  0
  1  2  1  0  0  0  0
  1 19  1  0  0  0  0
  2  3  1  0  0  0  0
  2 13  1  0  0  0  0
  2 20  1  0  0  0  0
  3  4  1  0  0  0  0
  3 21  1  0  0  0  0
  3 22  1  0  0  0  0
  4 12  1  0  0  0  0
  4  5  1  0  0  0  0
  5  6  2  0  0  0  0
  6  7  1  0  0  0  0
  7 12  2  0  0  0  0
  7  8  1  0  0  0  0
  8  9  2  0  0  0  0
  8 23  1  0  0  0  0
  9 10  1  0  0  0  0
  9 24  1  0  0  0  0
 10 11  2  0  0  0  0
 10 25  1  0  0  0  0
 11 12  1  0  0  0  0
 11 26  1  0  0  0  0
 13 18  1  0  0  0  0
 13 14  2  0  0  0  0
 14 15  1  0  0  0  0
 14 27  1  0  0  0  0
 15 16  2  0  0  0  0
 15 28  1  0  0  0  0
 16 17  1  0  0  0  0
 16 29  1  0  0  0  0
 17 18  2  0  0  0  0
 17 30  1  0  0  0  0
 18 31  1  0  0  0  0
M  END
> <s_m_source_file>
AV-unprocessed.smi

> <i_m_source_file_index>
2989

> <i_lp_mmshare_version>
43012

> <i_f3d_flags>
0

> <s_epik_input>
W2NIXTFbY0hdW2NIXVtjSF1bY0hdYzFbQ0BIXShbT0hdKVtDSDJdbihubjIpYyhjMjMpW2NIXVtjSF1bY0hdW2NIXTM=

> <s_epik_cmdline>
J2VwaWtfcHl0aG9uJywgJy1waCcsICc3LjAnLCAnLXRuJywgJzgnLCAnLW1hJywgJzIwMCcsICctbWV0YWxfYmluZGluZycsICctaW1hZScsICc8aW5maWxlLm1hZT4nLCAnLW9tYWUnLCAnPG91dGZpbGUubWFlPic=

> <r_lp_tautomer_probability>
1

> <r_epik_Ionization_Penalty>
4.09993e-05

> <r_epik_Ionization_Penalty_Charging>
0

> <r_epik_Ionization_Penalty_Neutral>
4.09993e-05

> <r_epik_State_Penalty>
-0

> <r_epik_Charging_Adjusted_Penalty>
0

> <i_epik_Tot_Q>
0

> <i_epik_Tot_abs_Q>
0

> <r_epik_Metal_State_Penalty>
-0

> <b_epik_Metal_Only>
0

> <s_lp_Force_Field>
OPLS_2005

> <r_lp_Energy>
11.9105

> <b_lp_Chiralities_Consistent>
1

> <s_lp_Variant>
AV-unprocessed.smi:2989-1

> <Gold.Version>
5.8.1

> <Gold.Id.Protein>
6NUR|6NUR_protein|mol2

> <Gold.PLP.Fitness>
46.3921

> <Gold.PLP.PLP>
-41.2255

> <Gold.PLP.part.hbond>
-2.4046

> <Gold.PLP.part.metal>
0.0000

> <Gold.PLP.part.buried>
-1.3294

> <Gold.PLP.part.nonpolar>
-37.1182

> <Gold.PLP.part.repulsive>
0.1165

> <Gold.PLP.ligand.clash>
0.0000

> <Gold.PLP.ligand.torsion>
0.4236

> <Gold.PLP.Chemscore.Hbond>
2.0000

> <Gold.PLP.Chemscore.CHOScore>
0.0000

> <Gold.PLP.Chemscore.Metal>
0.0000

> <Gold.Chemscore.Hbonds>
donor molecule, donor type, donor heavy atom, donor atom, acceptor molecule, acceptor atom, score
      L1  H     1    19       P1  8028  1.00
      P1  H  7989  7998       L1     6  1.00

> <Gold.PLP.Chemscore.Internal.Correction>
0.0139

> <Gold.Rescore>
     Score         DG    S(hbond)    S(metal)    S(lipo)     H(rot)  DE(clash)    DE(int)     intcor
     18.83     -20.54       1.73        0.00     117.64       1.76       1.30       0.41       ----

> <Gold.Chemscore.Fitness>
18.8308

> <Gold.Chemscore.DG>
-20.5421

> <Gold.Chemscore.ZeroCoef>
-5.4800

> <Gold.Chemscore.Hbond>
1.7348

> <Gold.Chemscore.Metal>
0.0000

> <Gold.Chemscore.Lipo>
117.6365

> <Gold.Chemscore.Internal_Hbond>
0.0000

> <Gold.Chemscore.DEClash>
1.3017

> <Gold.Chemscore.DEInternal>
0.4095

> <Gold.Chemscore.Rot>
1.7561

> <Gold.Chemscore.Internal.Correction>
   9.000000E+99

> <Gold.Chemscore.Hbonds>
donor molecule, donor type, donor heavy atom, donor atom, acceptor molecule, acceptor atom, score
      L1  H     1    19       P1  8028  0.86
      P1  H  7989  7998       L1     6  0.87

> <Gold.Chemscore.Hbond.Weighted>
-5.7941

> <Gold.Chemscore.Metal.Weighted>
-0.0000

> <Gold.Chemscore.Lipo.Weighted>
-13.7635

> <Gold.Chemscore.Internal_Hbond.Weighted>
0.0000

> <Gold.Chemscore.DEClash.Weighted>
1.3017

> <Gold.Chemscore.DEInternal.Weighted>
0.4095

> <Gold.Chemscore.Rot.Weighted>
4.4955

> <Gold.Chemscore.Internal.Correction.Weighted>
   9.000000E+99

> <Gold.Protein.RotatedTorsions>
[ 6907 6896 6895 6894 ] final  177.63 input  -60.11 | X-H torsion
[ 7974 7965 7964 7962 ] final  -92.97 input  175.53 | X-H torsion
[ 8008 7997 7996 7995 ] final  147.58 input   59.86 | X-H torsion
[ 10167 10162 10161 10158 ] final  175.24 input  -65.29 | X-H torsion
[ 10718 10713 10712 10709 ] final  115.16 input   66.30 | X-H torsion
[ 10763 10752 10751 10750 ] final   19.10 input  -60.55 | X-H torsion
[ 11005 11000 10999 10996 ] final  153.57 input  -57.11 | X-H torsion

> <Gold.Protein.ActiveResidues>
 VAL166  LYS551  ARG553  GLY616  TRP617  ASP618  TYR619  PRO620  LYS621  CYS622 
 ASP623  PHE694  ASN695  SER759  ASP760  ASP761  ALA762  ILE779  LEU786  VAL792 
 PHE793  MET794  SER795  GLU796  ALA797  LYS798  CYS799  TRP800  GLU811  SER814 

> <Gold.Protein.RotatedAtoms>
  151.7008  133.3311  159.3265 H   0  0  0  0  0  0  0  0  0  0  0  0  # atno 6907 bound_to 6896
  150.7737  134.6617  159.6352 H   0  0  0  0  0  0  0  0  0  0  0  0  # atno 6908 bound_to 6896
  152.3770  134.6650  160.0208 H   0  0  0  0  0  0  0  0  0  0  0  0  # atno 6909 bound_to 6896
  145.3927  140.9530  143.2331 H   0  0  0  0  0  0  0  0  0  0  0  0  # atno 7974 bound_to 7965
  156.2820  140.2152  156.5561 H   0  0  0  0  0  0  0  0  0  0  0  0  # atno 8008 bound_to 7997
  154.7251  140.0500  157.0698 H   0  0  0  0  0  0  0  0  0  0  0  0  # atno 8009 bound_to 7997
  155.0426  140.3147  155.4722 H   0  0  0  0  0  0  0  0  0  0  0  0  # atno 8010 bound_to 7997
  139.5170  144.3054  152.0340 H   0  0  0  0  0  0  0  0  0  0  0  0  # atno 10167 bound_to 10162
  157.6238  131.1009  150.7290 H   0  0  0  0  0  0  0  0  0  0  0  0  # atno 10718 bound_to 10713
  153.1191  135.6715  153.9366 H   0  0  0  0  0  0  0  0  0  0  0  0  # atno 10763 bound_to 10752
  153.8887  135.3049  155.3448 H   0  0  0  0  0  0  0  0  0  0  0  0  # atno 10764 bound_to 10752
  154.7605  135.4990  153.9533 H   0  0  0  0  0  0  0  0  0  0  0  0  # atno 10765 bound_to 10752
  140.1410  134.8739  157.2331 H   0  0  0  0  0  0  0  0  0  0  0  0  # atno 11005 bound_to 11000
  144.8429  139.5444  143.6892 LP  0  0  0  0  0  0  0  0  0  0  0  0  # atno 17320 bound_to 7965
  146.2790  139.6826  142.9243 LP  0  0  0  0  0  0  0  0  0  0  0  0  # atno 17321 bound_to 7965
  140.2500  144.4179  150.6225 LP  0  0  0  0  0  0  0  0  0  0  0  0  # atno 17342 bound_to 10162
  140.6231  143.2178  151.6653 LP  0  0  0  0  0  0  0  0  0  0  0  0  # atno 17343 bound_to 10162
  156.7642  130.4808  149.5431 LP  0  0  0  0  0  0  0  0  0  0  0  0  # atno 17370 bound_to 10713
  156.1398  130.6237  151.0452 LP  0  0  0  0  0  0  0  0  0  0  0  0  # atno 17371 bound_to 10713
  140.2722  134.3447  155.7370 LP  0  0  0  0  0  0  0  0  0  0  0  0  # atno 17394 bound_to 11000
  141.2186  133.7430  156.9239 LP  0  0  0  0  0  0  0  0  0  0  0  0  # atno 17395 bound_to 11000

$$$$
