AV-unprocessed.smi:418|AV-procd|sdf|2529|dock8
  -GOLD-   2262022483D 1   1.00000     0.00000
 Structure written by MMmdl.
 40 42  0  0  0  0  0  0  0  0  1 V2000
  154.0220  140.8176  160.6646 C   0  0  0  0  0  0  0  0  0  0  0  0
  153.0353  141.0220  159.6109 N   0  0  0  0  0  0  0  0  0  0  0  0
  152.4537  140.0702  158.8438 C   0  0  0  0  0  0  0  0  0  0  0  0
  152.6664  138.8594  158.9061 O   0  0  0  0  0  0  0  0  0  0  0  0
  151.5996  140.6841  157.9911 N   0  0  0  0  0  0  0  0  0  0  0  0
  150.7776  140.0385  156.9699 C   0  0  0  0  0  0  0  0  0  0  0  0
  151.5232  139.9272  155.6248 C   0  0  1  0  0  0  0  0  0  0  0  0
  152.8373  139.4481  155.8245 O   0  0  0  0  0  0  0  0  0  0  0  0
  150.8271  138.9879  154.6259 C   0  0  0  0  0  0  0  0  0  0  0  0
  149.5222  138.6690  155.0941 O   0  0  0  0  0  0  0  0  0  0  0  0
  148.5283  139.6156  154.9648 C   0  0  0  0  0  0  0  0  0  0  0  0
  148.7493  140.9474  154.5300 C   0  0  0  0  0  0  0  0  0  0  0  0
  147.6743  141.8520  154.4282 C   0  0  0  0  0  0  0  0  0  0  0  0
  146.3699  141.4399  154.7572 C   0  0  0  0  0  0  0  0  0  0  0  0
  146.1410  140.1203  155.1883 C   0  0  0  0  0  0  0  0  0  0  0  0
  147.2149  139.2150  155.2909 C   0  0  0  0  0  0  0  0  0  0  0  0
  146.9808  137.9476  155.7079 F   0  0  0  0  0  0  0  0  0  0  0  0
  151.6476  142.0685  158.2098 C   0  0  0  0  0  0  0  0  0  0  0  0
  150.9698  143.1292  157.5838 C   0  0  0  0  0  0  0  0  0  0  0  0
  151.2515  144.4369  158.0444 C   0  0  0  0  0  0  0  0  0  0  0  0
  152.1824  144.6539  159.0938 C   0  0  0  0  0  0  0  0  0  0  0  0
  152.8517  143.5677  159.7052 C   0  0  0  0  0  0  0  0  0  0  0  0
  152.5518  142.2798  159.2291 C   0  0  0  0  0  0  0  0  0  0  0  0
  154.1622  139.7607  160.8948 H   0  0  0  0  0  0  0  0  0  0  0  0
  153.7073  141.3197  161.5798 H   0  0  0  0  0  0  0  0  0  0  0  0
  154.9852  141.2290  160.3619 H   0  0  0  0  0  0  0  0  0  0  0  0
  150.4314  139.0599  157.3078 H   0  0  0  0  0  0  0  0  0  0  0  0
  149.8774  140.6409  156.8416 H   0  0  0  0  0  0  0  0  0  0  0  0
  151.6020  140.9109  155.1601 H   0  0  0  0  0  0  0  0  0  0  0  0
  152.8360  138.8790  156.5794 H   0  0  0  0  0  0  0  0  0  0  0  0
  150.7454  139.4995  153.6658 H   0  0  0  0  0  0  0  0  0  0  0  0
  151.4226  138.0863  154.4715 H   0  0  0  0  0  0  0  0  0  0  0  0
  149.7349  141.3008  154.2684 H   0  0  0  0  0  0  0  0  0  0  0  0
  147.8519  142.8645  154.0968 H   0  0  0  0  0  0  0  0  0  0  0  0
  145.5464  142.1345  154.6791 H   0  0  0  0  0  0  0  0  0  0  0  0
  145.1407  139.8010  155.4412 H   0  0  0  0  0  0  0  0  0  0  0  0
  150.2647  142.9577  156.7838 H   0  0  0  0  0  0  0  0  0  0  0  0
  150.7528  145.2810  157.5914 H   0  0  0  0  0  0  0  0  0  0  0  0
  152.3833  145.6608  159.4289 H   0  0  0  0  0  0  0  0  0  0  0  0
  153.5629  143.7245  160.5028 H   0  0  0  0  0  0  0  0  0  0  0  0
  1  2  1  0  0  0  0
  1 24  1  0  0  0  0
  1 25  1  0  0  0  0
  1 26  1  0  0  0  0
  2 23  1  0  0  0  0
  2  3  1  0  0  0  0
  3  4  2  0  0  0  0
  3  5  1  0  0  0  0
  5  6  1  0  0  0  0
  5 18  1  0  0  0  0
  6  7  1  0  0  0  0
  6 27  1  0  0  0  0
  6 28  1  0  0  0  0
  7  8  1  0  0  0  0
  7  9  1  0  0  0  0
  7 29  1  0  0  0  0
  8 30  1  0  0  0  0
  9 10  1  0  0  0  0
  9 31  1  0  0  0  0
  9 32  1  0  0  0  0
 10 11  1  0  0  0  0
 11 16  1  0  0  0  0
 11 12  2  0  0  0  0
 12 13  1  0  0  0  0
 12 33  1  0  0  0  0
 13 14  2  0  0  0  0
 13 34  1  0  0  0  0
 14 15  1  0  0  0  0
 14 35  1  0  0  0  0
 15 16  2  0  0  0  0
 15 36  1  0  0  0  0
 16 17  1  0  0  0  0
 18 23  2  0  0  0  0
 18 19  1  0  0  0  0
 19 20  2  0  0  0  0
 19 37  1  0  0  0  0
 20 21  1  0  0  0  0
 20 38  1  0  0  0  0
 21 22  2  0  0  0  0
 21 39  1  0  0  0  0
 22 23  1  0  0  0  0
 22 40  1  0  0  0  0
M  END
> <s_m_source_file>
AV-unprocessed.smi

> <i_m_source_file_index>
418

> <i_lp_mmshare_version>
43012

> <i_f3d_flags>
0

> <s_epik_input>
W2NIXTFbY0hdW2NIXVtjSF1jKGMxMiluKFtDSDNdKWMoPU8pbjJbQ0gyXVtDQEhdKFtPSF0pW0NIMl1PYzNbY0hdW2NIXVtjSF1bY0hdYzNG

> <s_epik_cmdline>
J2VwaWtfcHl0aG9uJywgJy1waCcsICc3LjAnLCAnLXRuJywgJzgnLCAnLW1hJywgJzIwMCcsICctbWV0YWxfYmluZGluZycsICctaW1hZScsICc8aW5maWxlLm1hZT4nLCAnLW9tYWUnLCAnPG91dGZpbGUubWFlPic=

> <r_lp_tautomer_probability>
1

> <r_epik_Ionization_Penalty>
2.40171e-06

> <r_epik_Ionization_Penalty_Charging>
2.41238e-09

> <r_epik_Ionization_Penalty_Neutral>
2.3993e-06

> <r_epik_State_Penalty>
-0

> <r_epik_Charging_Adjusted_Penalty>
2.41238e-09

> <i_epik_Tot_Q>
0

> <i_epik_Tot_abs_Q>
0

> <r_epik_Metal_State_Penalty>
-0

> <b_epik_Metal_Only>
0

> <s_lp_Force_Field>
OPLS_2005

> <r_lp_Energy>
48.5553

> <b_lp_Chiralities_Consistent>
1

> <s_lp_Variant>
AV-unprocessed.smi:418-2

> <Gold.Version>
5.8.1

> <Gold.Id.Protein>
6NUR|6NUR_protein|mol2

> <Gold.PLP.Fitness>
50.8510

> <Gold.PLP.PLP>
-50.2962

> <Gold.PLP.part.hbond>
-1.0000

> <Gold.PLP.part.metal>
0.0000

> <Gold.PLP.part.buried>
-5.1100

> <Gold.PLP.part.nonpolar>
-44.7918

> <Gold.PLP.part.repulsive>
0.1016

> <Gold.PLP.ligand.clash>
0.0000

> <Gold.PLP.ligand.torsion>
1.2436

> <Gold.PLP.Chemscore.Hbond>
1.0000

> <Gold.PLP.Chemscore.CHOScore>
0.0000

> <Gold.PLP.Chemscore.Metal>
0.0000

> <Gold.Chemscore.Hbonds>
donor molecule, donor type, donor heavy atom, donor atom, acceptor molecule, acceptor atom, score
      P1  H  7997  8008       L1     8  0.70

> <Gold.PLP.Chemscore.Internal.Correction>
0.0421

> <Gold.Rescore>
     Score         DG    S(hbond)    S(metal)    S(lipo)     H(rot)  DE(clash)    DE(int)     intcor
     16.97     -18.35       0.98        0.00     131.84       2.27       0.15       1.24       ----

> <Gold.Chemscore.Fitness>
16.9686

> <Gold.Chemscore.DG>
-18.3516

> <Gold.Chemscore.ZeroCoef>
-5.4800

> <Gold.Chemscore.Hbond>
0.9758

> <Gold.Chemscore.Metal>
0.0000

> <Gold.Chemscore.Lipo>
131.8385

> <Gold.Chemscore.Internal_Hbond>
0.0000

> <Gold.Chemscore.DEClash>
0.1455

> <Gold.Chemscore.DEInternal>
1.2375

> <Gold.Chemscore.Rot>
2.2706

> <Gold.Chemscore.Internal.Correction>
   9.000000E+99

> <Gold.Chemscore.Hbonds>
donor molecule, donor type, donor heavy atom, donor atom, acceptor molecule, acceptor atom, score
      P1  H  7997  8008       L1     8  0.07

> <Gold.Chemscore.Hbond.Weighted>
-3.2593

> <Gold.Chemscore.Metal.Weighted>
-0.0000

> <Gold.Chemscore.Lipo.Weighted>
-15.4251

> <Gold.Chemscore.Internal_Hbond.Weighted>
0.0000

> <Gold.Chemscore.DEClash.Weighted>
0.1455

> <Gold.Chemscore.DEInternal.Weighted>
1.2375

> <Gold.Chemscore.Rot.Weighted>
5.8128

> <Gold.Chemscore.Internal.Correction.Weighted>
   9.000000E+99

> <Gold.Protein.RotatedTorsions>
[ 6907 6896 6895 6894 ] final  -29.12 input  -60.11 | X-H torsion
[ 7974 7965 7964 7962 ] final   73.49 input  175.53 | X-H torsion
[ 8008 7997 7996 7995 ] final  -36.03 input   59.86 | X-H torsion
[ 10167 10162 10161 10158 ] final   95.75 input  -65.29 | X-H torsion
[ 10718 10713 10712 10709 ] final    0.41 input   66.30 | X-H torsion
[ 10763 10752 10751 10750 ] final   69.63 input  -60.55 | X-H torsion
[ 11005 11000 10999 10996 ] final  -45.09 input  -57.11 | X-H torsion

> <Gold.Protein.ActiveResidues>
 VAL166  LYS551  ARG553  GLY616  TRP617  ASP618  TYR619  PRO620  LYS621  CYS622 
 ASP623  PHE694  ASN695  SER759  ASP760  ASP761  ALA762  ILE779  LEU786  VAL792 
 PHE793  MET794  SER795  GLU796  ALA797  LYS798  CYS799  TRP800  GLU811  SER814 

> <Gold.Protein.RotatedAtoms>
  151.1235  135.0092  159.8549 H   0  0  0  0  0  0  0  0  0  0  0  0  # atno 6907 bound_to 6896
  152.5448  134.1694  159.8601 H   0  0  0  0  0  0  0  0  0  0  0  0  # atno 6908 bound_to 6896
  151.1755  133.4713  159.2627 H   0  0  0  0  0  0  0  0  0  0  0  0  # atno 6909 bound_to 6896
  145.7402  139.2718  143.1490 H   0  0  0  0  0  0  0  0  0  0  0  0  # atno 7974 bound_to 7965
  154.4082  140.1641  156.2308 H   0  0  0  0  0  0  0  0  0  0  0  0  # atno 8008 bound_to 7997
  155.9284  140.3416  155.6206 H   0  0  0  0  0  0  0  0  0  0  0  0  # atno 8009 bound_to 7997
  155.7137  140.0760  157.2351 H   0  0  0  0  0  0  0  0  0  0  0  0  # atno 8010 bound_to 7997
  139.7959  144.6833  150.9829 H   0  0  0  0  0  0  0  0  0  0  0  0  # atno 10167 bound_to 10162
  156.8330  130.5495  149.5685 H   0  0  0  0  0  0  0  0  0  0  0  0  # atno 10718 bound_to 10713
  153.0297  135.5203  154.7317 H   0  0  0  0  0  0  0  0  0  0  0  0  # atno 10763 bound_to 10752
  154.6343  135.2904  155.0182 H   0  0  0  0  0  0  0  0  0  0  0  0  # atno 10764 bound_to 10752
  154.1122  135.6620  153.4940 H   0  0  0  0  0  0  0  0  0  0  0  0  # atno 10765 bound_to 10752
  141.0493  133.6749  156.2964 H   0  0  0  0  0  0  0  0  0  0  0  0  # atno 11005 bound_to 11000
  146.0455  140.8123  142.9808 LP  0  0  0  0  0  0  0  0  0  0  0  0  # atno 17320 bound_to 7965
  144.6872  140.2973  143.7268 LP  0  0  0  0  0  0  0  0  0  0  0  0  # atno 17321 bound_to 7965
  140.7820  143.4332  151.0663 LP  0  0  0  0  0  0  0  0  0  0  0  0  # atno 17342 bound_to 10162
  139.8006  143.8089  152.3162 LP  0  0  0  0  0  0  0  0  0  0  0  0  # atno 17343 bound_to 10162
  156.0923  130.5906  150.9755 LP  0  0  0  0  0  0  0  0  0  0  0  0  # atno 17370 bound_to 10713
  157.6397  131.0912  150.8277 LP  0  0  0  0  0  0  0  0  0  0  0  0  # atno 17371 bound_to 10713
  140.6086  134.5481  157.5530 LP  0  0  0  0  0  0  0  0  0  0  0  0  # atno 17394 bound_to 11000
  139.9337  134.7915  156.0860 LP  0  0  0  0  0  0  0  0  0  0  0  0  # atno 17395 bound_to 11000

$$$$
