AV-unprocessed.smi:2156|AV-procd|sdf|8780|dock10
  -GOLD-   2272011563D 1   1.00000     0.00000
 Structure written by MMmdl.
 34 34  0  0  0  0  0  0  0  0  1 V2000
  153.0943  142.5960  162.1193 C   0  0  0  0  0  0  0  0  0  0  0  0
  153.7036  142.0543  160.8217 C   0  0  0  0  0  0  0  0  0  0  0  0
  153.6807  143.0889  159.6830 C   0  0  0  0  0  0  0  0  0  0  0  0
  152.2812  143.3345  159.0840 C   0  0  1  0  0  0  0  0  0  0  0  0
  152.2475  144.6127  158.2349 C   0  0  0  0  0  0  0  0  0  0  0  0
  151.8627  142.2032  158.2577 N   0  0  0  0  0  0  0  0  0  0  0  0
  150.6223  141.6950  158.1842 C   0  0  0  0  0  0  0  0  0  0  0  0
  149.6740  142.1250  158.8422 O   0  0  0  0  0  0  0  0  0  0  0  0
  150.4421  140.4978  157.2403 C   0  0  0  0  0  0  0  0  0  0  0  0
  149.4078  140.7221  156.2200 N   0  0  0  0  0  0  0  0  0  0  0  0
  148.1543  141.1927  156.5849 C   0  0  0  0  0  0  0  0  0  0  0  0
  147.1611  141.4349  155.6968 C   0  0  0  0  0  0  0  0  0  0  0  0
  147.3725  141.2051  154.2716 C   0  0  0  0  0  0  0  0  0  0  0  0
  146.5358  141.3927  153.3911 O   0  0  0  0  0  0  0  0  0  0  0  0
  148.6469  140.7343  153.9442 N   0  0  0  0  0  0  0  0  0  0  0  0
  149.6753  140.4844  154.8542 C   0  0  0  0  0  0  0  0  0  0  0  0
  150.7657  140.0743  154.4576 O   0  0  0  0  0  0  0  0  0  0  0  0
  148.8411  140.5635  152.9684 H   0  0  0  0  0  0  0  0  0  0  0  0
  153.1261  141.8430  162.9069 H   0  0  0  0  0  0  0  0  0  0  0  0
  152.0523  142.8832  161.9757 H   0  0  0  0  0  0  0  0  0  0  0  0
  153.6385  143.4717  162.4738 H   0  0  0  0  0  0  0  0  0  0  0  0
  154.7279  141.7380  161.0200 H   0  0  0  0  0  0  0  0  0  0  0  0
  153.1587  141.1608  160.5149 H   0  0  0  0  0  0  0  0  0  0  0  0
  154.0695  144.0341  160.0641 H   0  0  0  0  0  0  0  0  0  0  0  0
  154.3672  142.7765  158.8948 H   0  0  0  0  0  0  0  0  0  0  0  0
  151.5794  143.4775  159.9076 H   0  0  0  0  0  0  0  0  0  0  0  0
  152.5227  145.4851  158.8282 H   0  0  0  0  0  0  0  0  0  0  0  0
  151.2495  144.7911  157.8335 H   0  0  0  0  0  0  0  0  0  0  0  0
  152.9390  144.5506  157.3939 H   0  0  0  0  0  0  0  0  0  0  0  0
  152.5771  141.7754  157.6865 H   0  0  0  0  0  0  0  0  0  0  0  0
  151.3941  140.2548  156.7637 H   0  0  0  0  0  0  0  0  0  0  0  0
  150.1928  139.6246  157.8452 H   0  0  0  0  0  0  0  0  0  0  0  0
  147.9544  141.3824  157.6300 H   0  0  0  0  0  0  0  0  0  0  0  0
  146.2058  141.8025  156.0427 H   0  0  0  0  0  0  0  0  0  0  0  0
  1  2  1  0  0  0  0
  1 19  1  0  0  0  0
  1 20  1  0  0  0  0
  1 21  1  0  0  0  0
  2  3  1  0  0  0  0
  2 22  1  0  0  0  0
  2 23  1  0  0  0  0
  3  4  1  0  0  0  0
  3 24  1  0  0  0  0
  3 25  1  0  0  0  0
  4  5  1  0  0  0  0
  4  6  1  0  0  0  0
  4 26  1  0  0  0  0
  5 27  1  0  0  0  0
  5 28  1  0  0  0  0
  5 29  1  0  0  0  0
  6  7  1  0  0  0  0
  6 30  1  0  0  0  0
  7  8  2  0  0  0  0
  7  9  1  0  0  0  0
  9 10  1  0  0  0  0
  9 31  1  0  0  0  0
  9 32  1  0  0  0  0
 10 16  1  0  0  0  0
 10 11  1  0  0  0  0
 11 12  2  0  0  0  0
 11 33  1  0  0  0  0
 12 13  1  0  0  0  0
 12 34  1  0  0  0  0
 13 14  2  0  0  0  0
 13 15  1  0  0  0  0
 15 18  1  0  0  0  0
 15 16  1  0  0  0  0
 16 17  2  0  0  0  0
M  END
> <s_m_source_file>
AV-unprocessed.smi

> <i_m_source_file_index>
2156

> <i_lp_mmshare_version>
43012

> <i_f3d_flags>
0

> <s_epik_input>
W0NIM11bQ0gyXVtDSDJdW0NASF0oW0NIM10pW05IXUMoPU8pW0NIMl1uMVtjSF1bY0hdYyg9TylbbkhdYzE9Tw==

> <s_epik_cmdline>
J2VwaWtfcHl0aG9uJywgJy1waCcsICc3LjAnLCAnLXRuJywgJzgnLCAnLW1hJywgJzIwMCcsICctbWV0YWxfYmluZGluZycsICctaW1hZScsICc8aW5maWxlLm1hZT4nLCAnLW9tYWUnLCAnPG91dGZpbGUubWFlPic=

> <r_lp_tautomer_probability>
0.999537

> <r_epik_Ionization_Penalty>
0.00324917

> <r_epik_Ionization_Penalty_Charging>
0.00324916

> <r_epik_Ionization_Penalty_Neutral>
1.93017e-08

> <r_epik_State_Penalty>
0.00229371

> <r_epik_Charging_Adjusted_Penalty>
0.00554286

> <i_epik_Tot_Q>
0

> <i_epik_Tot_abs_Q>
0

> <r_epik_Metal_State_Penalty>
0.364744

> <b_epik_Metal_Only>
0

> <s_lp_Force_Field>
OPLS_2005

> <r_lp_Energy>
3.29576

> <b_lp_Chiralities_Consistent>
1

> <s_lp_Variant>
AV-unprocessed.smi:2156-2

> <Gold.Version>
5.8.1

> <Gold.Id.Protein>
6NUR|6NUR_protein|mol2

> <Gold.PLP.Fitness>
40.3373

> <Gold.PLP.PLP>
-35.4621

> <Gold.PLP.part.hbond>
-2.5277

> <Gold.PLP.part.metal>
0.0000

> <Gold.PLP.part.buried>
-3.4279

> <Gold.PLP.part.nonpolar>
-30.2424

> <Gold.PLP.part.repulsive>
0.6508

> <Gold.PLP.ligand.clash>
0.0000

> <Gold.PLP.ligand.torsion>
0.5703

> <Gold.PLP.Chemscore.Hbond>
2.0000

> <Gold.PLP.Chemscore.CHOScore>
0.0000

> <Gold.PLP.Chemscore.Metal>
0.0000

> <Gold.Chemscore.Hbonds>
donor molecule, donor type, donor heavy atom, donor atom, acceptor molecule, acceptor atom, score
      L1  H    15    18       P1  7957  1.00
      P1  H  7989  7998       L1    17  0.96

> <Gold.PLP.Chemscore.Internal.Correction>
0.0157

> <Gold.Rescore>
     Score         DG    S(hbond)    S(metal)    S(lipo)     H(rot)  DE(clash)    DE(int)     intcor
     12.74     -14.61       1.91        0.00      71.55       2.19       0.01       1.86       ----

> <Gold.Chemscore.Fitness>
12.7379

> <Gold.Chemscore.DG>
-14.6119

> <Gold.Chemscore.ZeroCoef>
-5.4800

> <Gold.Chemscore.Hbond>
1.9099

> <Gold.Chemscore.Metal>
0.0000

> <Gold.Chemscore.Lipo>
71.5529

> <Gold.Chemscore.Internal_Hbond>
0.0000

> <Gold.Chemscore.DEClash>
0.0126

> <Gold.Chemscore.DEInternal>
1.8614

> <Gold.Chemscore.Rot>
2.1949

> <Gold.Chemscore.Internal.Correction>
   9.000000E+99

> <Gold.Chemscore.Hbonds>
donor molecule, donor type, donor heavy atom, donor atom, acceptor molecule, acceptor atom, score
      L1  H    15    18       P1  7957  0.93
      P1  H  7989  7998       L1    17  0.90

> <Gold.Chemscore.Hbond.Weighted>
-6.3791

> <Gold.Chemscore.Metal.Weighted>
-0.0000

> <Gold.Chemscore.Lipo.Weighted>
-8.3717

> <Gold.Chemscore.Internal_Hbond.Weighted>
0.0000

> <Gold.Chemscore.DEClash.Weighted>
0.0126

> <Gold.Chemscore.DEInternal.Weighted>
1.8614

> <Gold.Chemscore.Rot.Weighted>
5.6188

> <Gold.Chemscore.Internal.Correction.Weighted>
   9.000000E+99

> <Gold.Protein.RotatedTorsions>
[ 6907 6896 6895 6894 ] final -126.72 input  -60.11 | X-H torsion
[ 7974 7965 7964 7962 ] final  -66.66 input  175.53 | X-H torsion
[ 8008 7997 7996 7995 ] final  170.14 input   59.86 | X-H torsion
[ 10167 10162 10161 10158 ] final  132.86 input  -65.29 | X-H torsion
[ 10718 10713 10712 10709 ] final  109.53 input   66.30 | X-H torsion
[ 10763 10752 10751 10750 ] final  125.94 input  -60.55 | X-H torsion
[ 11005 11000 10999 10996 ] final   11.81 input  -57.11 | X-H torsion

> <Gold.Protein.ActiveResidues>
 VAL166  LYS551  ARG553  GLY616  TRP617  ASP618  TYR619  PRO620  LYS621  CYS622 
 ASP623  PHE694  ASN695  SER759  ASP760  ASP761  ALA762  ILE779  LEU786  VAL792 
 PHE793  MET794  SER795  GLU796  ALA797  LYS798  CYS799  TRP800  GLU811  SER814 

> <Gold.Protein.RotatedAtoms>
  150.8998  133.7133  159.2881 H   0  0  0  0  0  0  0  0  0  0  0  0  # atno 6907 bound_to 6896
  151.4656  135.1040  159.9746 H   0  0  0  0  0  0  0  0  0  0  0  0  # atno 6908 bound_to 6896
  152.4870  133.8351  159.7178 H   0  0  0  0  0  0  0  0  0  0  0  0  # atno 6909 bound_to 6896
  145.7390  140.8962  143.0540 H   0  0  0  0  0  0  0  0  0  0  0  0  # atno 7974 bound_to 7965
  156.1393  140.1546  156.8946 H   0  0  0  0  0  0  0  0  0  0  0  0  # atno 8008 bound_to 7997
  154.4974  140.0834  156.7764 H   0  0  0  0  0  0  0  0  0  0  0  0  # atno 8009 bound_to 7997
  155.4109  140.3419  155.4266 H   0  0  0  0  0  0  0  0  0  0  0  0  # atno 8010 bound_to 7997
  139.5321  144.6643  151.4912 H   0  0  0  0  0  0  0  0  0  0  0  0  # atno 10167 bound_to 10162
  157.6537  131.0915  150.6468 H   0  0  0  0  0  0  0  0  0  0  0  0  # atno 10718 bound_to 10713
  153.6854  135.3307  155.3189 H   0  0  0  0  0  0  0  0  0  0  0  0  # atno 10763 bound_to 10752
  154.8454  135.4419  154.1563 H   0  0  0  0  0  0  0  0  0  0  0  0  # atno 10764 bound_to 10752
  153.2591  135.6989  153.7675 H   0  0  0  0  0  0  0  0  0  0  0  0  # atno 10765 bound_to 10752
  140.4990  134.0764  155.7789 H   0  0  0  0  0  0  0  0  0  0  0  0  # atno 11005 bound_to 11000
  144.6875  139.9435  143.7476 LP  0  0  0  0  0  0  0  0  0  0  0  0  # atno 17320 bound_to 7965
  146.0466  139.3471  143.0665 LP  0  0  0  0  0  0  0  0  0  0  0  0  # atno 17321 bound_to 7965
  140.6506  143.8704  150.6782 LP  0  0  0  0  0  0  0  0  0  0  0  0  # atno 17342 bound_to 10162
  140.2067  143.3916  152.1750 LP  0  0  0  0  0  0  0  0  0  0  0  0  # atno 17343 bound_to 10162
  156.6776  130.4558  149.5637 LP  0  0  0  0  0  0  0  0  0  0  0  0  # atno 17370 bound_to 10713
  156.1952  130.6585  151.1106 LP  0  0  0  0  0  0  0  0  0  0  0  0  # atno 17371 bound_to 10713
  141.1445  133.9079  157.2248 LP  0  0  0  0  0  0  0  0  0  0  0  0  # atno 17394 bound_to 11000
  139.9724  135.0124  156.9546 LP  0  0  0  0  0  0  0  0  0  0  0  0  # atno 17395 bound_to 11000

$$$$
