#       Name:                AV-unprocessed.smi:1021
#       Creating user name   scv26
#       Creation time:       Fri Mar 27 02:42:38 2020


#       File generated by GOLD software.
#

@<TRIPOS>MOLECULE
AV-unprocessed.smi:1021
    47    49     1
SMALL
NO_CHARGES


@<TRIPOS>ATOM
      1 ****        -3.7920   3.3943   0.9236 O.3            1 S1                 0.0000
      2 ****        -3.2988   2.5668  -0.1082 C.3            1 S1                 0.0000
      3 ****        -1.7635   2.5738  -0.1193 C.3            1 S1                 0.0000
      4 ****        -1.1425   1.9115   1.1226 C.3            1 S1                 0.0000
      5 ****         0.3507   1.7950   1.0258 C.2            1 S1                 0.0000
      6 ****         1.1378   2.8641   1.1528 N.2            1 S1                 0.0000
      7 ****         2.4016   2.3371   0.9770 C.ar           1 S1                 0.0000
      8 ****         3.6680   2.9648   0.9889 C.ar           1 S1                 0.0000
      9 ****         4.8409   2.2102   0.7791 C.ar           1 S1                 0.0000
     10 ****         4.7644   0.8205   0.5547 C.ar           1 S1                 0.0000
     11 ****         3.5126   0.1759   0.5393 C.ar           1 S1                 0.0000
     12 ****         2.3443   0.9331   0.7503 C.ar           1 S1                 0.0000
     13 ****         0.9890   0.6174   0.7972 N.pl3          1 S1                 0.0000
     14 ****         0.4173  -0.7145   0.6352 C.3            1 S1                 0.0000
     15 ****        -0.1949  -0.9472  -0.7603 C.3            1 S1                 0.0000
     16 ****         0.7725  -0.6918  -1.7608 O.3            1 S1                 0.0000
     17 ****        -0.7913  -2.3416  -0.8743 C.ar           1 S1                 0.0000
     18 ****        -2.1797  -2.5288  -0.7011 C.ar           1 S1                 0.0000
     19 ****        -2.7399  -3.8177  -0.7976 C.ar           1 S1                 0.0000
     20 ****        -1.9149  -4.9269  -1.0656 C.ar           1 S1                 0.0000
     21 ****        -2.4540  -6.1653  -1.1591 F              1 S1                 0.0000
     22 ****        -0.5287  -4.7472  -1.2346 C.ar           1 S1                 0.0000
     23 ****         0.0322  -3.4589  -1.1371 C.ar           1 S1                 0.0000
     24 ****        -4.7364   3.3908   0.8875 H              1 S1                 0.0000
     25 ****        -3.6822   1.5541   0.0207 H              1 S1                 0.0000
     26 ****        -3.6809   2.9371  -1.0597 H              1 S1                 0.0000
     27 ****        -1.4253   2.0466  -1.0113 H              1 S1                 0.0000
     28 ****        -1.3976   3.5965  -0.2195 H              1 S1                 0.0000
     29 ****        -1.3818   2.4956   2.0120 H              1 S1                 0.0000
     30 ****        -1.5918   0.9330   1.2815 H              1 S1                 0.0000
     31 ****         3.7366   4.0290   1.1582 H              1 S1                 0.0000
     32 ****         5.8033   2.7004   0.7893 H              1 S1                 0.0000
     33 ****         5.6669   0.2494   0.3933 H              1 S1                 0.0000
     34 ****         3.4519  -0.8876   0.3633 H              1 S1                 0.0000
     35 ****         1.1998  -1.4505   0.8217 H              1 S1                 0.0000
     36 ****        -0.3263  -0.8767   1.4156 H              1 S1                 0.0000
     37 ****        -0.9987  -0.2296  -0.9192 H              1 S1                 0.0000
     38 ****         0.3507  -0.7407  -2.6050 H              1 S1                 0.0000
     39 ****        -2.8205  -1.6846  -0.4921 H              1 S1                 0.0000
     40 ****        -3.8027  -3.9557  -0.6648 H              1 S1                 0.0000
     41 ****         0.1051  -5.5977  -1.4378 H              1 S1                 0.0000
     42 ****         1.0976  -3.3327  -1.2631 H              1 S1                 0.0000
     43 ****        -3.4535   4.3269   0.7984 LP             1 S1                 0.0000
     44 ****        -3.4874   3.0454   1.8099 LP             1 S1                 0.0000
     45 ****         0.8770   3.8128   1.3313 LP             1 S1                 0.0000
     46 ****         1.5012  -1.3747  -1.7077 LP             1 S1                 0.0000
     47 ****         1.1605   0.2205  -1.6298 LP             1 S1                 0.0000
@<TRIPOS>BOND
    1    1    2 1     
    2    1   24 1     
    3    2    3 1     
    4    2   25 1     
    5    2   26 1     
    6    3    4 1     
    7    3   27 1     
    8    3   28 1     
    9    4    5 1     
   10    4   29 1     
   11    4   30 1     
   12    5   13 1     
   13    5    6 2     
   14    6    7 1     
   15    7   12 ar    
   16    7    8 ar    
   17    8    9 ar    
   18    8   31 1     
   19    9   10 ar    
   20    9   32 1     
   21   10   11 ar    
   22   10   33 1     
   23   11   12 ar    
   24   11   34 1     
   25   12   13 1     
   26   13   14 1     
   27   14   15 1     
   28   14   35 1     
   29   14   36 1     
   30   15   16 1     
   31   15   17 1     
   32   15   37 1     
   33   16   38 1     
   34   17   23 ar    
   35   17   18 ar    
   36   18   19 ar    
   37   18   39 1     
   38   19   20 ar    
   39   19   40 1     
   40   20   21 1     
   41   20   22 ar    
   42   22   23 ar    
   43   22   41 1     
   44   23   42 1     
   45    1   43 1     
   46    1   44 1     
   47    6   45 1     
   48   16   46 1     
   49   16   47 1     
@<TRIPOS>SUBSTRUCTURE
      1 S1             1
@<TRIPOS>SET
LONE_PAIRS      STATIC     ATOMS    <user>   **** ""
5 43 44 45 46 47
DONOR_HYDROGENS      STATIC     ATOMS    <user>   **** ""
2 24 38
ATOM$BLUE        STATIC     ATOMS    COLORGROUP SYSTEM
5 43 44 45 46 47
ATOM$RED        STATIC     ATOMS    COLORGROUP SYSTEM
2 24 38
