AV-unprocessed.smi:615|AV-procd|sdf|3070|dock3
  -GOLD-   2262023593D 1   1.00000     0.00000
 Structure written by MMmdl.
 26 27  0  0  0  0  0  0  0  0  1 V2000
  148.0755  139.8722  153.8848 C   0  0  0  0  0  0  0  0  0  0  0  0
  148.3674  141.3600  153.6478 C   0  0  0  0  0  0  0  0  0  0  0  0
  148.9123  141.9973  154.8412 N   0  0  0  0  0  0  0  0  0  0  0  0
  149.9079  141.5035  155.5918 C   0  0  0  0  0  0  0  0  0  0  0  0
  150.4789  140.4407  155.3463 O   0  0  0  0  0  0  0  0  0  0  0  0
  150.1872  142.3160  156.6267 N   0  0  0  0  0  0  0  0  0  0  0  0
  151.1545  142.1351  157.6510 C   0  0  0  0  0  0  0  0  0  0  0  0
  151.9238  141.0436  157.7634 N   0  0  0  0  0  0  0  0  0  0  0  0
  152.7775  141.1213  158.8545 N   0  0  0  0  0  0  0  0  0  0  0  0
  152.6322  142.2656  159.5332 C   0  0  0  0  0  0  0  0  0  0  0  0
  153.4414  142.5773  160.7480 C   0  0  0  0  0  0  0  0  0  0  0  0
  153.6186  141.5703  161.8634 C   0  0  0  0  0  0  0  0  0  0  0  0
  152.7724  142.7979  162.0854 C   0  0  0  0  0  0  0  0  0  0  0  0
  151.4163  143.3597  158.8811 S   0  0  0  0  0  0  0  0  0  0  0  0
  147.6356  139.4188  152.9965 H   0  0  0  0  0  0  0  0  0  0  0  0
  147.3762  139.7335  154.7097 H   0  0  0  0  0  0  0  0  0  0  0  0
  148.9862  139.3205  154.1200 H   0  0  0  0  0  0  0  0  0  0  0  0
  149.0511  141.4842  152.8063 H   0  0  0  0  0  0  0  0  0  0  0  0
  147.4462  141.8763  153.3774 H   0  0  0  0  0  0  0  0  0  0  0  0
  148.4996  142.8771  155.1148 H   0  0  0  0  0  0  0  0  0  0  0  0
  149.6376  143.1596  156.6946 H   0  0  0  0  0  0  0  0  0  0  0  0
  154.2915  143.2071  160.4924 H   0  0  0  0  0  0  0  0  0  0  0  0
  153.0998  140.6170  161.7849 H   0  0  0  0  0  0  0  0  0  0  0  0
  154.5886  141.5334  162.3554 H   0  0  0  0  0  0  0  0  0  0  0  0
  153.1764  143.5796  162.7254 H   0  0  0  0  0  0  0  0  0  0  0  0
  151.6941  142.6607  162.1401 H   0  0  0  0  0  0  0  0  0  0  0  0
  1  2  1  0  0  0  0
  1 15  1  0  0  0  0
  1 16  1  0  0  0  0
  1 17  1  0  0  0  0
  2  3  1  0  0  0  0
  2 18  1  0  0  0  0
  2 19  1  0  0  0  0
  3  4  1  0  0  0  0
  3 20  1  0  0  0  0
  4  5  2  0  0  0  0
  4  6  1  0  0  0  0
  6  7  1  0  0  0  0
  6 21  1  0  0  0  0
  7 14  1  0  0  0  0
  7  8  2  0  0  0  0
  8  9  1  0  0  0  0
  9 10  2  0  0  0  0
 10 11  1  0  0  0  0
 10 14  1  0  0  0  0
 11 13  1  0  0  0  0
 11 12  1  0  0  0  0
 11 22  1  0  0  0  0
 12 13  1  0  0  0  0
 12 23  1  0  0  0  0
 12 24  1  0  0  0  0
 13 25  1  0  0  0  0
 13 26  1  0  0  0  0
M  END
> <s_m_source_file>
AV-unprocessed.smi

> <i_m_source_file_index>
615

> <i_lp_mmshare_version>
43012

> <i_f3d_flags>
0

> <s_epik_input>
W0NIM11bQ0gyXVtOSF1DKD1PKVtOSF1jMW5uYyhzMSlbQ0hdMltDSDJdW0NIMl0y

> <s_epik_cmdline>
J2VwaWtfcHl0aG9uJywgJy1waCcsICc3LjAnLCAnLXRuJywgJzgnLCAnLW1hJywgJzIwMCcsICctbWV0YWxfYmluZGluZycsICctaW1hZScsICc8aW5maWxlLm1hZT4nLCAnLW9tYWUnLCAnPG91dGZpbGUubWFlPic=

> <r_lp_tautomer_probability>
1

> <r_epik_Ionization_Penalty>
0.000941979

> <r_epik_Ionization_Penalty_Charging>
0

> <r_epik_Ionization_Penalty_Neutral>
0.000941979

> <r_epik_State_Penalty>
-0

> <r_epik_Charging_Adjusted_Penalty>
0

> <i_epik_Tot_Q>
0

> <i_epik_Tot_abs_Q>
0

> <r_epik_Metal_State_Penalty>
0.281647

> <b_epik_Metal_Only>
0

> <s_lp_Force_Field>
OPLS_2005

> <r_lp_Energy>
0.300577

> <b_lp_Chiralities_Consistent>
1

> <s_lp_Variant>
AV-unprocessed.smi:615-1

> <Gold.Version>
5.8.1

> <Gold.Id.Protein>
6NUR|6NUR_protein|mol2

> <Gold.PLP.Fitness>
36.6121

> <Gold.PLP.PLP>
-29.6747

> <Gold.PLP.part.hbond>
-2.7147

> <Gold.PLP.part.metal>
0.0000

> <Gold.PLP.part.buried>
-1.4253

> <Gold.PLP.part.nonpolar>
-24.6038

> <Gold.PLP.part.repulsive>
0.3225

> <Gold.PLP.ligand.clash>
0.0000

> <Gold.PLP.ligand.torsion>
0.2086

> <Gold.PLP.Chemscore.Hbond>
2.4090

> <Gold.PLP.Chemscore.CHOScore>
0.0000

> <Gold.PLP.Chemscore.Metal>
0.0000

> <Gold.Chemscore.Hbonds>
donor molecule, donor type, donor heavy atom, donor atom, acceptor molecule, acceptor atom, score
      L1  H     3    20       P1  8028  0.91
      L1  H     6    21       P1  8028  0.90
      P1  H  7989  7998       L1     5  0.54

> <Gold.PLP.Chemscore.Internal.Correction>
0.1276

> <Gold.Rescore>
     Score         DG    S(hbond)    S(metal)    S(lipo)     H(rot)  DE(clash)    DE(int)     intcor
     14.28     -16.96       1.95        0.00      69.55       1.24       0.04       2.64       ----

> <Gold.Chemscore.Fitness>
14.2789

> <Gold.Chemscore.DG>
-16.9586

> <Gold.Chemscore.ZeroCoef>
-5.4800

> <Gold.Chemscore.Hbond>
1.9535

> <Gold.Chemscore.Metal>
0.0000

> <Gold.Chemscore.Lipo>
69.5484

> <Gold.Chemscore.Internal_Hbond>
0.0000

> <Gold.Chemscore.DEClash>
0.0405

> <Gold.Chemscore.DEInternal>
2.6391

> <Gold.Chemscore.Rot>
1.2434

> <Gold.Chemscore.Internal.Correction>
   9.000000E+99

> <Gold.Chemscore.Hbonds>
donor molecule, donor type, donor heavy atom, donor atom, acceptor molecule, acceptor atom, score
      L1  H     3    20       P1  8028  0.87
      L1  H     6    21       P1  8028  0.83
      P1  H  7989  7998       L1     5  0.20

> <Gold.Chemscore.Hbond.Weighted>
-6.5246

> <Gold.Chemscore.Metal.Weighted>
-0.0000

> <Gold.Chemscore.Lipo.Weighted>
-8.1372

> <Gold.Chemscore.Internal_Hbond.Weighted>
0.0000

> <Gold.Chemscore.DEClash.Weighted>
0.0405

> <Gold.Chemscore.DEInternal.Weighted>
2.6391

> <Gold.Chemscore.Rot.Weighted>
3.1832

> <Gold.Chemscore.Internal.Correction.Weighted>
   9.000000E+99

> <Gold.Protein.RotatedTorsions>
[ 6907 6896 6895 6894 ] final    5.59 input  -60.11 | X-H torsion
[ 7974 7965 7964 7962 ] final  145.71 input  175.53 | X-H torsion
[ 8008 7997 7996 7995 ] final  -89.01 input   59.86 | X-H torsion
[ 10167 10162 10161 10158 ] final -140.67 input  -65.29 | X-H torsion
[ 10718 10713 10712 10709 ] final -143.41 input   66.30 | X-H torsion
[ 10763 10752 10751 10750 ] final -125.25 input  -60.55 | X-H torsion
[ 11005 11000 10999 10996 ] final -102.52 input  -57.11 | X-H torsion

> <Gold.Protein.ActiveResidues>
 VAL166  LYS551  ARG553  GLY616  TRP617  ASP618  TYR619  PRO620  LYS621  CYS622 
 ASP623  PHE694  ASN695  SER759  ASP760  ASP761  ALA762  ILE779  LEU786  VAL792 
 PHE793  MET794  SER795  GLU796  ALA797  LYS798  CYS799  TRP800  GLU811  SER814 

> <Gold.Protein.RotatedAtoms>
  151.6600  135.0990  160.0177 H   0  0  0  0  0  0  0  0  0  0  0  0  # atno 6907 bound_to 6896
  152.3952  133.6732  159.6279 H   0  0  0  0  0  0  0  0  0  0  0  0  # atno 6908 bound_to 6896
  150.7861  133.8803  159.3325 H   0  0  0  0  0  0  0  0  0  0  0  0  # atno 6909 bound_to 6896
  144.8730  139.5816  143.5878 H   0  0  0  0  0  0  0  0  0  0  0  0  # atno 7974 bound_to 7965
  154.6815  140.0547  157.0271 H   0  0  0  0  0  0  0  0  0  0  0  0  # atno 8008 bound_to 7997
  155.0944  140.3222  155.4545 H   0  0  0  0  0  0  0  0  0  0  0  0  # atno 8009 bound_to 7997
  156.2696  140.2042  156.6071 H   0  0  0  0  0  0  0  0  0  0  0  0  # atno 8010 bound_to 7997
  139.8259  143.7511  152.2666 H   0  0  0  0  0  0  0  0  0  0  0  0  # atno 10167 bound_to 10162
  156.3576  130.7721  151.1883 H   0  0  0  0  0  0  0  0  0  0  0  0  # atno 10718 bound_to 10713
  154.8733  135.4036  154.3237 H   0  0  0  0  0  0  0  0  0  0  0  0  # atno 10763 bound_to 10752
  153.4062  135.7019  153.6397 H   0  0  0  0  0  0  0  0  0  0  0  0  # atno 10764 bound_to 10752
  153.5119  135.3705  155.2561 H   0  0  0  0  0  0  0  0  0  0  0  0  # atno 10765 bound_to 10752
  141.1185  133.8565  157.1370 H   0  0  0  0  0  0  0  0  0  0  0  0  # atno 11005 bound_to 11000
  146.2943  139.7232  142.9138 LP  0  0  0  0  0  0  0  0  0  0  0  0  # atno 17320 bound_to 7965
  145.4095  141.0395  143.3025 LP  0  0  0  0  0  0  0  0  0  0  0  0  # atno 17321 bound_to 7965
  139.7704  144.7478  151.0233 LP  0  0  0  0  0  0  0  0  0  0  0  0  # atno 17342 bound_to 10162
  140.7810  143.4652  151.0223 LP  0  0  0  0  0  0  0  0  0  0  0  0  # atno 17343 bound_to 10162
  157.7469  131.0409  150.4622 LP  0  0  0  0  0  0  0  0  0  0  0  0  # atno 17370 bound_to 10713
  156.4828  130.4077  149.6452 LP  0  0  0  0  0  0  0  0  0  0  0  0  # atno 17371 bound_to 10713
  140.0125  134.9982  157.0425 LP  0  0  0  0  0  0  0  0  0  0  0  0  # atno 17394 bound_to 11000
  140.4575  134.1518  155.7188 LP  0  0  0  0  0  0  0  0  0  0  0  0  # atno 17395 bound_to 11000

$$$$
