AV-unprocessed.smi:2716|AV-procd|sdf|10483|dock9
  -GOLD-   2272014523D 1   1.00000     0.00000
 Structure written by MMmdl.
 19 19  0  0  0  0  0  0  0  0  1 V2000
  142.4402  134.5691  154.5645 N   0  0  0  0  0  0  0  0  0  0  0  0
  142.7588  135.5579  153.7247 C   0  0  0  0  0  0  0  0  0  0  0  0
  142.5459  136.7399  153.9879 O   0  0  0  0  0  0  0  0  0  0  0  0
  143.3857  135.1194  152.4478 C   0  0  0  0  0  0  0  0  0  0  0  0
  143.4945  133.8298  152.0084 C   0  0  0  0  0  0  0  0  0  0  0  0
  144.1430  133.9548  150.7975 N   0  0  0  0  0  0  0  0  0  0  0  0
  144.5320  132.9102  149.8673 C   0  0  0  0  0  0  0  0  0  0  0  0
  143.5101  132.7144  148.7347 C   0  0  0  0  0  0  0  0  0  0  0  0
  143.3748  133.8924  147.9665 O   0  0  0  0  0  0  0  0  0  0  0  0
  144.4105  135.2508  150.5083 N   0  0  0  0  0  0  0  0  0  0  0  0
  143.9619  135.9630  151.4939 N   0  0  0  0  0  0  0  0  0  0  0  0
  142.0098  134.7812  155.4526 H   0  0  0  0  0  0  0  0  0  0  0  0
  142.6320  133.6127  154.3032 H   0  0  0  0  0  0  0  0  0  0  0  0
  143.1872  132.8846  152.4312 H   0  0  0  0  0  0  0  0  0  0  0  0
  145.5100  133.1598  149.4533 H   0  0  0  0  0  0  0  0  0  0  0  0
  144.6568  131.9805  150.4239 H   0  0  0  0  0  0  0  0  0  0  0  0
  143.8280  131.9033  148.0794 H   0  0  0  0  0  0  0  0  0  0  0  0
  142.5355  132.4377  149.1379 H   0  0  0  0  0  0  0  0  0  0  0  0
  144.2362  134.2440  147.8004 H   0  0  0  0  0  0  0  0  0  0  0  0
  1  2  1  0  0  0  0
  1 12  1  0  0  0  0
  1 13  1  0  0  0  0
  2  3  2  0  0  0  0
  2  4  1  0  0  0  0
  4 11  1  0  0  0  0
  4  5  2  0  0  0  0
  5  6  1  0  0  0  0
  5 14  1  0  0  0  0
  6  7  1  0  0  0  0
  6 10  1  0  0  0  0
  7  8  1  0  0  0  0
  7 15  1  0  0  0  0
  7 16  1  0  0  0  0
  8  9  1  0  0  0  0
  8 17  1  0  0  0  0
  8 18  1  0  0  0  0
  9 19  1  0  0  0  0
 10 11  2  0  0  0  0
M  END
> <s_m_source_file>
AV-unprocessed.smi

> <i_m_source_file_index>
2716

> <i_lp_mmshare_version>
43012

> <i_f3d_flags>
0

> <s_epik_input>
W05IMl1DKD1PKWMxW2NIXW4obm4xKVtDSDJdW0NIMl1bT0hd

> <s_epik_cmdline>
J2VwaWtfcHl0aG9uJywgJy1waCcsICc3LjAnLCAnLXRuJywgJzgnLCAnLW1hJywgJzIwMCcsICctbWV0YWxfYmluZGluZycsICctaW1hZScsICc8aW5maWxlLm1hZT4nLCAnLW9tYWUnLCAnPG91dGZpbGUubWFlPic=

> <r_lp_tautomer_probability>
1

> <r_epik_Ionization_Penalty>
2.94119e-06

> <r_epik_Ionization_Penalty_Charging>
0

> <r_epik_Ionization_Penalty_Neutral>
2.94119e-06

> <r_epik_State_Penalty>
-0

> <r_epik_Charging_Adjusted_Penalty>
0

> <i_epik_Tot_Q>
0

> <i_epik_Tot_abs_Q>
0

> <r_epik_Metal_State_Penalty>
-0

> <b_epik_Metal_Only>
0

> <s_lp_Force_Field>
OPLS_2005

> <r_lp_Energy>
2.94202

> <b_lp_Chiralities_Consistent>
1

> <s_lp_Variant>
AV-unprocessed.smi:2716-1

> <Gold.Version>
5.8.1

> <Gold.Id.Protein>
6NUR|6NUR_protein|mol2

> <Gold.PLP.Fitness>
35.3893

> <Gold.PLP.PLP>
-22.8702

> <Gold.PLP.part.hbond>
-5.8768

> <Gold.PLP.part.metal>
0.0000

> <Gold.PLP.part.buried>
-4.6455

> <Gold.PLP.part.nonpolar>
-13.8605

> <Gold.PLP.part.repulsive>
0.5352

> <Gold.PLP.ligand.clash>
0.0000

> <Gold.PLP.ligand.torsion>
0.3687

> <Gold.PLP.Chemscore.Hbond>
3.8960

> <Gold.PLP.Chemscore.CHOScore>
0.5227

> <Gold.PLP.Chemscore.Metal>
0.0000

> <Gold.Chemscore.Hbonds>
donor molecule, donor type, donor heavy atom, donor atom, acceptor molecule, acceptor atom, score
      L1  H     1    12       P1 11000  0.56
      L1  H     1    13       P1 10957  0.96
      L1  H     9    19       P1  7921  1.00
      P1  H 10192 10197       L1     9  1.00
      L1  C     5    14       P1 10957  0.61

> <Gold.PLP.Chemscore.Internal.Correction>
0.0003

> <Gold.Rescore>
     Score         DG    S(hbond)    S(metal)    S(lipo)     H(rot)  DE(clash)    DE(int)     intcor
     15.47     -15.88       3.56        0.00      34.21       2.14       0.01       0.40       ----

> <Gold.Chemscore.Fitness>
15.4700

> <Gold.Chemscore.DG>
-15.8825

> <Gold.Chemscore.ZeroCoef>
-5.4800

> <Gold.Chemscore.Hbond>
3.5564

> <Gold.Chemscore.Metal>
0.0000

> <Gold.Chemscore.Lipo>
34.2054

> <Gold.Chemscore.Internal_Hbond>
0.0000

> <Gold.Chemscore.DEClash>
0.0111

> <Gold.Chemscore.DEInternal>
0.4014

> <Gold.Chemscore.Rot>
2.1398

> <Gold.Chemscore.Internal.Correction>
   9.000000E+99

> <Gold.Chemscore.Hbonds>
donor molecule, donor type, donor heavy atom, donor atom, acceptor molecule, acceptor atom, score
      L1  H     1    12       P1 11000  0.19
      L1  H     1    13       P1 10957  0.92
      L1  H     9    19       P1  7921  0.99
      P1  H 10192 10197       L1     9  0.61

> <Gold.Chemscore.Hbond.Weighted>
-11.8783

> <Gold.Chemscore.Metal.Weighted>
-0.0000

> <Gold.Chemscore.Lipo.Weighted>
-4.0020

> <Gold.Chemscore.Internal_Hbond.Weighted>
0.0000

> <Gold.Chemscore.DEClash.Weighted>
0.0111

> <Gold.Chemscore.DEInternal.Weighted>
0.4014

> <Gold.Chemscore.Rot.Weighted>
5.4778

> <Gold.Chemscore.Internal.Correction.Weighted>
   9.000000E+99

> <Gold.Protein.RotatedTorsions>
[ 6907 6896 6895 6894 ] final   18.82 input  -60.11 | X-H torsion
[ 7974 7965 7964 7962 ] final   42.70 input  175.53 | X-H torsion
[ 8008 7997 7996 7995 ] final -110.32 input   59.86 | X-H torsion
[ 10167 10162 10161 10158 ] final   67.73 input  -65.29 | X-H torsion
[ 10718 10713 10712 10709 ] final -109.40 input   66.30 | X-H torsion
[ 10763 10752 10751 10750 ] final -123.20 input  -60.55 | X-H torsion
[ 11005 11000 10999 10996 ] final  168.57 input  -57.11 | X-H torsion

> <Gold.Protein.ActiveResidues>
 VAL166  LYS551  ARG553  GLY616  TRP617  ASP618  TYR619  PRO620  LYS621  CYS622 
 ASP623  PHE694  ASN695  SER759  ASP760  ASP761  ALA762  ILE779  LEU786  VAL792 
 PHE793  MET794  SER795  GLU796  ALA797  LYS798  CYS799  TRP800  GLU811  SER814 

> <Gold.Protein.RotatedAtoms>
  151.8713  135.0488  160.0479 H   0  0  0  0  0  0  0  0  0  0  0  0  # atno 6907 bound_to 6896
  152.2586  133.5273  159.5376 H   0  0  0  0  0  0  0  0  0  0  0  0  # atno 6908 bound_to 6896
  150.7108  134.0777  159.3929 H   0  0  0  0  0  0  0  0  0  0  0  0  # atno 6909 bound_to 6896
  146.0718  139.5271  142.9593 H   0  0  0  0  0  0  0  0  0  0  0  0  # atno 7974 bound_to 7965
  154.9727  140.0397  157.2242 H   0  0  0  0  0  0  0  0  0  0  0  0  # atno 8008 bound_to 7997
  154.7786  140.2815  155.6059 H   0  0  0  0  0  0  0  0  0  0  0  0  # atno 8009 bound_to 7997
  156.2932  140.2596  156.2606 H   0  0  0  0  0  0  0  0  0  0  0  0  # atno 8010 bound_to 7997
  140.0864  144.5026  150.7128 H   0  0  0  0  0  0  0  0  0  0  0  0  # atno 10167 bound_to 10162
  156.0535  130.5762  150.8095 H   0  0  0  0  0  0  0  0  0  0  0  0  # atno 10718 bound_to 10713
  154.8703  135.4106  154.2905 H   0  0  0  0  0  0  0  0  0  0  0  0  # atno 10763 bound_to 10752
  153.3782  135.7010  153.6591 H   0  0  0  0  0  0  0  0  0  0  0  0  # atno 10764 bound_to 10752
  153.5424  135.3645  155.2696 H   0  0  0  0  0  0  0  0  0  0  0  0  # atno 10765 bound_to 10752
  140.2886  134.7692  157.3819 H   0  0  0  0  0  0  0  0  0  0  0  0  # atno 11005 bound_to 11000
  145.6377  141.0291  143.1828 LP  0  0  0  0  0  0  0  0  0  0  0  0  # atno 17320 bound_to 7965
  144.7236  139.7947  143.7373 LP  0  0  0  0  0  0  0  0  0  0  0  0  # atno 17321 bound_to 7965
  140.7051  143.2462  151.4749 LP  0  0  0  0  0  0  0  0  0  0  0  0  # atno 17342 bound_to 10162
  139.5750  144.1840  152.1890 LP  0  0  0  0  0  0  0  0  0  0  0  0  # atno 17343 bound_to 10162
  157.5484  131.0943  150.9730 LP  0  0  0  0  0  0  0  0  0  0  0  0  # atno 17370 bound_to 10713
  156.9996  130.5594  149.5310 LP  0  0  0  0  0  0  0  0  0  0  0  0  # atno 17371 bound_to 10713
  140.1216  134.5212  155.8179 LP  0  0  0  0  0  0  0  0  0  0  0  0  # atno 17394 bound_to 11000
  141.2150  133.6758  156.6877 LP  0  0  0  0  0  0  0  0  0  0  0  0  # atno 17395 bound_to 11000

$$$$
