AV-unprocessed.smi:2284|AV-procd|sdf|9201|dock3
  -GOLD-   2272012413D 1   1.00000     0.00000
 Structure written by MMmdl.
 44 45  0  0  0  0  0  0  0  0  1 V2000
  150.3008  144.3149  159.7613 C   0  0  0  0  0  0  0  0  0  0  0  0
  151.3693  143.2411  159.7663 C   0  0  0  0  0  0  0  0  0  0  0  0
  152.7208  143.5827  159.9656 C   0  0  0  0  0  0  0  0  0  0  0  0
  153.7061  142.5791  159.9657 C   0  0  0  0  0  0  0  0  0  0  0  0
  153.3475  141.2297  159.7671 C   0  0  0  0  0  0  0  0  0  0  0  0
  154.4230  140.1594  159.7701 C   0  0  0  0  0  0  0  0  0  0  0  0
  151.9943  140.8729  159.5648 C   0  0  0  0  0  0  0  0  0  0  0  0
  151.7132  139.5359  159.3742 O   0  0  0  0  0  0  0  0  0  0  0  0
  150.4501  139.0376  159.7975 C   0  0  0  0  0  0  0  0  0  0  0  0
  150.6390  137.7126  160.5551 C   0  0  2  0  0  0  0  0  0  0  0  0
  151.1870  136.7730  159.6524 O   0  0  0  0  0  0  0  0  0  0  0  0
  149.3262  137.1742  161.1675 C   0  0  0  0  0  0  0  0  0  0  0  0
  149.5044  135.8536  161.7938 N   0  0  0  0  0  0  0  0  0  0  0  0
  149.2996  134.7392  160.9641 C   0  0  0  0  0  0  0  0  0  0  0  0
  149.4321  133.5311  161.4048 N   0  0  0  0  0  0  0  0  0  0  0  0
  149.7919  133.3103  162.7373 C   0  0  0  0  0  0  0  0  0  0  0  0
  149.9261  131.8547  163.1484 C   0  0  0  0  0  0  0  0  0  0  0  0
  150.0082  134.3470  163.5923 C   0  0  0  0  0  0  0  0  0  0  0  0
  150.4113  134.1673  165.0507 C   0  0  0  0  0  0  0  0  0  0  0  0
  149.8603  135.7280  163.1051 C   0  0  0  0  0  0  0  0  0  0  0  0
  150.0472  136.7133  163.8215 O   0  0  0  0  0  0  0  0  0  0  0  0
  151.0090  141.8931  159.5666 C   0  0  0  0  0  0  0  0  0  0  0  0
  150.7000  145.2750  160.0898 H   0  0  0  0  0  0  0  0  0  0  0  0
  149.4837  144.0413  160.4293 H   0  0  0  0  0  0  0  0  0  0  0  0
  149.8966  144.4389  158.7563 H   0  0  0  0  0  0  0  0  0  0  0  0
  153.0076  144.6130  160.1180 H   0  0  0  0  0  0  0  0  0  0  0  0
  154.7402  142.8509  160.1185 H   0  0  0  0  0  0  0  0  0  0  0  0
  154.2260  139.4267  160.5533 H   0  0  0  0  0  0  0  0  0  0  0  0
  155.4114  140.5853  159.9450 H   0  0  0  0  0  0  0  0  0  0  0  0
  154.4422  139.6406  158.8111 H   0  0  0  0  0  0  0  0  0  0  0  0
  149.9284  139.7644  160.4228 H   0  0  0  0  0  0  0  0  0  0  0  0
  149.8304  138.8503  158.9189 H   0  0  0  0  0  0  0  0  0  0  0  0
  151.3811  137.8818  161.3364 H   0  0  0  0  0  0  0  0  0  0  0  0
  151.4768  137.2317  158.8790 H   0  0  0  0  0  0  0  0  0  0  0  0
  148.9734  137.8712  161.9303 H   0  0  0  0  0  0  0  0  0  0  0  0
  148.5296  137.1715  160.4203 H   0  0  0  0  0  0  0  0  0  0  0  0
  149.0284  134.9654  159.9314 H   0  0  0  0  0  0  0  0  0  0  0  0
  149.2190  131.6158  163.9431 H   0  0  0  0  0  0  0  0  0  0  0  0
  150.9354  131.6500  163.5062 H   0  0  0  0  0  0  0  0  0  0  0  0
  149.7264  131.1851  162.3110 H   0  0  0  0  0  0  0  0  0  0  0  0
  151.3916  134.6113  165.2261 H   0  0  0  0  0  0  0  0  0  0  0  0
  150.4638  133.1238  165.3562 H   0  0  0  0  0  0  0  0  0  0  0  0
  149.6932  134.6629  165.7049 H   0  0  0  0  0  0  0  0  0  0  0  0
  149.9648  141.6653  159.4159 H   0  0  0  0  0  0  0  0  0  0  0  0
  1  2  1  0  0  0  0
  1 23  1  0  0  0  0
  1 24  1  0  0  0  0
  1 25  1  0  0  0  0
  2 22  1  0  0  0  0
  2  3  2  0  0  0  0
  3  4  1  0  0  0  0
  3 26  1  0  0  0  0
  4  5  2  0  0  0  0
  4 27  1  0  0  0  0
  5  6  1  0  0  0  0
  5  7  1  0  0  0  0
  6 28  1  0  0  0  0
  6 29  1  0  0  0  0
  6 30  1  0  0  0  0
  7  8  1  0  0  0  0
  7 22  2  0  0  0  0
  8  9  1  0  0  0  0
  9 10  1  0  0  0  0
  9 31  1  0  0  0  0
  9 32  1  0  0  0  0
 10 11  1  0  0  0  0
 10 12  1  0  0  0  0
 10 33  1  0  0  0  0
 11 34  1  0  0  0  0
 12 13  1  0  0  0  0
 12 35  1  0  0  0  0
 12 36  1  0  0  0  0
 13 20  1  0  0  0  0
 13 14  1  0  0  0  0
 14 15  2  0  0  0  0
 14 37  1  0  0  0  0
 15 16  1  0  0  0  0
 16 17  1  0  0  0  0
 16 18  2  0  0  0  0
 17 38  1  0  0  0  0
 17 39  1  0  0  0  0
 17 40  1  0  0  0  0
 18 19  1  0  0  0  0
 18 20  1  0  0  0  0
 19 41  1  0  0  0  0
 19 42  1  0  0  0  0
 19 43  1  0  0  0  0
 20 21  2  0  0  0  0
 22 44  1  0  0  0  0
M  END
> <s_m_source_file>
AV-unprocessed.smi

> <i_m_source_file_index>
2284

> <i_lp_mmshare_version>
43012

> <i_f3d_flags>
0

> <s_epik_input>
W0NIM11jMVtjSF1bY0hdYyhbQ0gzXSljKFtjSF0xKU9bQ0gyXVtDQEhdKFtPSF0pW0NIMl1uMltjSF1uYyhbQ0gzXSljKFtDSDNdKWMyPU8=

> <s_epik_cmdline>
J2VwaWtfcHl0aG9uJywgJy1waCcsICc3LjAnLCAnLXRuJywgJzgnLCAnLW1hJywgJzIwMCcsICctbWV0YWxfYmluZGluZycsICctaW1hZScsICc8aW5maWxlLm1hZT4nLCAnLW9tYWUnLCAnPG91dGZpbGUubWFlPic=

> <r_lp_tautomer_probability>
1

> <r_epik_Ionization_Penalty>
3.7476e-05

> <r_epik_Ionization_Penalty_Charging>
8.44705e-08

> <r_epik_Ionization_Penalty_Neutral>
3.73915e-05

> <r_epik_State_Penalty>
-0

> <r_epik_Charging_Adjusted_Penalty>
8.44705e-08

> <i_epik_Tot_Q>
0

> <i_epik_Tot_abs_Q>
0

> <r_epik_Metal_State_Penalty>
-0

> <b_epik_Metal_Only>
0

> <s_lp_Force_Field>
OPLS_2005

> <r_lp_Energy>
24.4024

> <b_lp_Chiralities_Consistent>
1

> <s_lp_Variant>
AV-unprocessed.smi:2284-1

> <Gold.Version>
5.8.1

> <Gold.Id.Protein>
6NUR|6NUR_protein|mol2

> <Gold.PLP.Fitness>
51.7249

> <Gold.PLP.PLP>
-45.5571

> <Gold.PLP.part.hbond>
-3.0000

> <Gold.PLP.part.metal>
0.0000

> <Gold.PLP.part.buried>
-4.1975

> <Gold.PLP.part.nonpolar>
-38.3649

> <Gold.PLP.part.repulsive>
0.0000

> <Gold.PLP.ligand.clash>
0.0000

> <Gold.PLP.ligand.torsion>
1.0971

> <Gold.PLP.Chemscore.Hbond>
2.7520

> <Gold.PLP.Chemscore.CHOScore>
0.0000

> <Gold.PLP.Chemscore.Metal>
0.0000

> <Gold.Chemscore.Hbonds>
donor molecule, donor type, donor heavy atom, donor atom, acceptor molecule, acceptor atom, score
      P1  H  6896  6907       L1    11  1.00

> <Gold.PLP.Chemscore.Internal.Correction>
0.1059

> <Gold.Rescore>
     Score         DG    S(hbond)    S(metal)    S(lipo)     H(rot)  DE(clash)    DE(int)     intcor
     20.84     -21.53       2.61        0.00     113.54       2.32       0.01       0.68       ----

> <Gold.Chemscore.Fitness>
20.8385

> <Gold.Chemscore.DG>
-21.5274

> <Gold.Chemscore.ZeroCoef>
-5.4800

> <Gold.Chemscore.Hbond>
2.6082

> <Gold.Chemscore.Metal>
0.0000

> <Gold.Chemscore.Lipo>
113.5425

> <Gold.Chemscore.Internal_Hbond>
0.0000

> <Gold.Chemscore.DEClash>
0.0077

> <Gold.Chemscore.DEInternal>
0.6812

> <Gold.Chemscore.Rot>
2.3236

> <Gold.Chemscore.Internal.Correction>
   9.000000E+99

> <Gold.Chemscore.Hbonds>
donor molecule, donor type, donor heavy atom, donor atom, acceptor molecule, acceptor atom, score
      P1  H  6896  6907       L1    11  0.99

> <Gold.Chemscore.Hbond.Weighted>
-8.7113

> <Gold.Chemscore.Metal.Weighted>
-0.0000

> <Gold.Chemscore.Lipo.Weighted>
-13.2845

> <Gold.Chemscore.Internal_Hbond.Weighted>
0.0000

> <Gold.Chemscore.DEClash.Weighted>
0.0077

> <Gold.Chemscore.DEInternal.Weighted>
0.6812

> <Gold.Chemscore.Rot.Weighted>
5.9484

> <Gold.Chemscore.Internal.Correction.Weighted>
   9.000000E+99

> <Gold.Protein.RotatedTorsions>
[ 6907 6896 6895 6894 ] final  -21.05 input  -60.11 | X-H torsion
[ 7974 7965 7964 7962 ] final  -62.97 input  175.53 | X-H torsion
[ 8008 7997 7996 7995 ] final  124.47 input   59.86 | X-H torsion
[ 10167 10162 10161 10158 ] final -140.52 input  -65.29 | X-H torsion
[ 10718 10713 10712 10709 ] final   35.26 input   66.30 | X-H torsion
[ 10763 10752 10751 10750 ] final -157.52 input  -60.55 | X-H torsion
[ 11005 11000 10999 10996 ] final  137.74 input  -57.11 | X-H torsion

> <Gold.Protein.ActiveResidues>
 VAL166  LYS551  ARG553  GLY616  TRP617  ASP618  TYR619  PRO620  LYS621  CYS622 
 ASP623  PHE694  ASN695  SER759  ASP760  ASP761  ALA762  ILE779  LEU786  VAL792 
 PHE793  MET794  SER795  GLU796  ALA797  LYS798  CYS799  TRP800  GLU811  SER814 

> <Gold.Protein.RotatedAtoms>
  151.2391  135.0582  159.9017 H   0  0  0  0  0  0  0  0  0  0  0  0  # atno 6907 bound_to 6896
  152.5395  134.0454  159.8096 H   0  0  0  0  0  0  0  0  0  0  0  0  # atno 6908 bound_to 6896
  151.0645  133.5468  159.2663 H   0  0  0  0  0  0  0  0  0  0  0  0  # atno 6909 bound_to 6896
  145.7848  140.8742  143.0311 H   0  0  0  0  0  0  0  0  0  0  0  0  # atno 7974 bound_to 7965
  156.2802  140.2739  156.1793 H   0  0  0  0  0  0  0  0  0  0  0  0  # atno 8008 bound_to 7997
  155.0573  140.0386  157.2582 H   0  0  0  0  0  0  0  0  0  0  0  0  # atno 8009 bound_to 7997
  154.7146  140.2675  155.6603 H   0  0  0  0  0  0  0  0  0  0  0  0  # atno 8010 bound_to 7997
  139.8274  143.7492  152.2666 H   0  0  0  0  0  0  0  0  0  0  0  0  # atno 10167 bound_to 10162
  157.3205  130.7446  149.6782 H   0  0  0  0  0  0  0  0  0  0  0  0  # atno 10718 bound_to 10713
  154.7629  135.3123  154.8342 H   0  0  0  0  0  0  0  0  0  0  0  0  # atno 10763 bound_to 10752
  153.9098  135.6807  153.4755 H   0  0  0  0  0  0  0  0  0  0  0  0  # atno 10764 bound_to 10752
  153.1232  135.4813  154.9162 H   0  0  0  0  0  0  0  0  0  0  0  0  # atno 10765 bound_to 10752
  140.0135  134.9428  157.0328 H   0  0  0  0  0  0  0  0  0  0  0  0  # atno 11005 bound_to 11000
  144.6790  140.0040  143.7484 LP  0  0  0  0  0  0  0  0  0  0  0  0  # atno 17320 bound_to 7965
  146.0037  139.3112  143.0912 LP  0  0  0  0  0  0  0  0  0  0  0  0  # atno 17321 bound_to 7965
  139.7689  144.7483  151.0253 LP  0  0  0  0  0  0  0  0  0  0  0  0  # atno 17342 bound_to 10162
  140.7809  143.4667  151.0203 LP  0  0  0  0  0  0  0  0  0  0  0  0  # atno 17343 bound_to 10162
  155.9685  130.4224  150.4516 LP  0  0  0  0  0  0  0  0  0  0  0  0  # atno 17370 bound_to 10713
  157.2531  131.0550  151.2367 LP  0  0  0  0  0  0  0  0  0  0  0  0  # atno 17371 bound_to 10713
  140.4512  134.1581  155.7182 LP  0  0  0  0  0  0  0  0  0  0  0  0  # atno 17394 bound_to 11000
  141.1727  133.8576  157.1519 LP  0  0  0  0  0  0  0  0  0  0  0  0  # atno 17395 bound_to 11000

$$$$
