#       Name:                AV-unprocessed.smi:2387
#       Creating user name   scv26
#       Creation time:       Fri Mar 27 13:09:48 2020


#       File generated by GOLD software.
#

@<TRIPOS>MOLECULE
AV-unprocessed.smi:2387
    52    54     1
SMALL
NO_CHARGES


@<TRIPOS>ATOM
      1 ****        -6.6211   3.3022  -0.8594 C.3            1 S1                 0.0000
      2 ****        -5.3376   2.4986  -0.8380 C.ar           1 S1                 0.0000
      3 ****        -4.1082   3.1055  -0.5089 C.ar           1 S1                 0.0000
      4 ****        -2.9447   2.3121  -0.5064 C.ar           1 S1                 0.0000
      5 ****        -3.0514   0.9405  -0.8414 C.ar           1 S1                 0.0000
      6 ****        -1.9586   0.0322  -0.8579 N.am           1 S1                 0.0000
      7 ****        -0.6473   0.3017  -0.9742 C.2            1 S1                 0.0000
      8 ****        -0.1613   1.4238  -1.1122 O.2            1 S1                 0.0000
      9 ****         0.0825  -0.8269  -0.9326 N.am           1 S1                 0.0000
     10 ****         1.5452  -0.9603  -1.0605 C.3            1 S1                 0.0000
     11 ****         2.3153  -0.3869   0.1616 C.2            1 S1                 0.0000
     12 ****         3.5223  -0.1573   0.0721 O.2            1 S1                 0.0000
     13 ****         1.6319  -0.1786   1.3002 N.am           1 S1                 0.0000
     14 ****         2.1983   0.3324   2.5411 C.3            1 S1                 0.0000
     15 ****         3.0086  -0.6746   3.3350 C.3            1 S1                 0.0000
     16 ****         2.3535  -1.5552   4.3727 C.3            1 S1                 0.0000
     17 ****         3.2869  -0.4485   4.8022 C.3            1 S1                 0.0000
     18 ****         1.8880  -2.4696  -1.2182 C.3            1 S1                 0.0000
     19 ****         2.4749  -2.6661  -2.6194 C.3            1 S1                 0.0000
     20 ****         3.0450  -1.3059  -2.9940 C.3            1 S1                 0.0000
     21 ****         2.0448  -0.3230  -2.3895 C.3            1 S1                 0.0000
     22 ****        -4.3341   0.4350  -1.1403 C.ar           1 S1                 0.0000
     23 ****        -5.4540   1.1888  -1.1456 N.ar           1 S1                 0.0000
     24 ****        -6.4466   4.3353  -0.5576 H              1 S1                 0.0000
     25 ****        -7.3529   2.8682  -0.1774 H              1 S1                 0.0000
     26 ****        -7.0473   3.3083  -1.8629 H              1 S1                 0.0000
     27 ****        -4.0542   4.1549  -0.2591 H              1 S1                 0.0000
     28 ****        -2.0045   2.7669  -0.2360 H              1 S1                 0.0000
     29 ****        -2.2103  -0.9452  -0.8342 H              1 S1                 0.0000
     30 ****        -0.4230  -1.6926  -0.8152 H              1 S1                 0.0000
     31 ****         0.6446  -0.3890   1.3024 H              1 S1                 0.0000
     32 ****         2.8279   1.1973   2.3265 H              1 S1                 0.0000
     33 ****         1.3782   0.6995   3.1592 H              1 S1                 0.0000
     34 ****         3.8249  -1.1230   2.7715 H              1 S1                 0.0000
     35 ****         1.2904  -1.4160   4.5587 H              1 S1                 0.0000
     36 ****         2.7121  -2.5790   4.4597 H              1 S1                 0.0000
     37 ****         4.2676  -0.7346   5.1770 H              1 S1                 0.0000
     38 ****         2.8439   0.4260   5.2745 H              1 S1                 0.0000
     39 ****         2.6266  -2.7943  -0.4826 H              1 S1                 0.0000
     40 ****         1.0213  -3.1165  -1.0736 H              1 S1                 0.0000
     41 ****         3.2231  -3.4585  -2.6544 H              1 S1                 0.0000
     42 ****         1.6784  -2.9306  -3.3162 H              1 S1                 0.0000
     43 ****         4.0251  -1.1731  -2.5343 H              1 S1                 0.0000
     44 ****         3.1597  -1.1800  -4.0709 H              1 S1                 0.0000
     45 ****         1.2196  -0.2030  -3.0934 H              1 S1                 0.0000
     46 ****         2.4832   0.6679  -2.2593 H              1 S1                 0.0000
     47 ****        -4.4678  -0.6079  -1.3885 H              1 S1                 0.0000
     48 ****        -0.7572   2.2262  -1.1452 LP             1 S1                 0.0000
     49 ****         0.8296   1.5332  -1.1913 LP             1 S1                 0.0000
     50 ****         4.0038  -0.3399  -0.7851 LP             1 S1                 0.0000
     51 ****         4.0206   0.2116   0.8567 LP             1 S1                 0.0000
     52 ****        -6.3428   0.7894  -1.3705 LP             1 S1                 0.0000
@<TRIPOS>BOND
    1    1    2 1     
    2    1   24 1     
    3    1   25 1     
    4    1   26 1     
    5    2   23 ar    
    6    2    3 ar    
    7    3    4 ar    
    8    3   27 1     
    9    4    5 ar    
   10    4   28 1     
   11    5    6 1     
   12    5   22 ar    
   13    6    7 am    
   14    6   29 1     
   15    7    8 2     
   16    7    9 am    
   17    9   10 1     
   18    9   30 1     
   19   10   21 1     
   20   10   11 1     
   21   10   18 1     
   22   11   12 2     
   23   11   13 am    
   24   13   14 1     
   25   13   31 1     
   26   14   15 1     
   27   14   32 1     
   28   14   33 1     
   29   15   17 1     
   30   15   16 1     
   31   15   34 1     
   32   16   17 1     
   33   16   35 1     
   34   16   36 1     
   35   17   37 1     
   36   17   38 1     
   37   18   19 1     
   38   18   39 1     
   39   18   40 1     
   40   19   20 1     
   41   19   41 1     
   42   19   42 1     
   43   20   21 1     
   44   20   43 1     
   45   20   44 1     
   46   21   45 1     
   47   21   46 1     
   48   22   23 ar    
   49   22   47 1     
   50    8   48 1     
   51    8   49 1     
   52   12   50 1     
   53   12   51 1     
   54   23   52 1     
@<TRIPOS>SUBSTRUCTURE
      1 S1             1
@<TRIPOS>SET
LONE_PAIRS      STATIC     ATOMS    <user>   **** ""
5 48 49 50 51 52
DONOR_HYDROGENS      STATIC     ATOMS    <user>   **** ""
3 29 30 31
ATOM$BLUE        STATIC     ATOMS    COLORGROUP SYSTEM
5 48 49 50 51 52
ATOM$RED        STATIC     ATOMS    COLORGROUP SYSTEM
3 29 30 31
