#       Name:                AV-unprocessed.smi:219
#       Creating user name   scv26
#       Creation time:       Thu Mar 26 20:11:07 2020


#       File generated by GOLD software.
#

@<TRIPOS>MOLECULE
AV-unprocessed.smi:219
    60    63     1
SMALL
NO_CHARGES


@<TRIPOS>ATOM
      1 ****        -1.2627  -1.2129  -3.4682 N.am           1 S1                 0.0000
      2 ****        -1.1677  -1.2063  -2.1363 C.2            1 S1                 0.0000
      3 ****        -0.1206  -1.4762  -1.5518 O.2            1 S1                 0.0000
      4 ****        -2.4426  -0.8832  -1.3481 C.3            1 S1                 0.0000
      5 ****        -2.9021   0.6033  -1.4150 C.3            1 S1                 0.0000
      6 ****        -4.4372   0.6575  -1.2352 C.3            1 S1                 0.0000
      7 ****        -4.9752   2.0938  -1.2568 C.3            1 S1                 0.0000
      8 ****        -4.2546   2.9324  -0.1971 C.3            1 S1                 0.0000
      9 ****        -2.7381   2.8742  -0.4200 C.3            1 S1                 0.0000
     10 ****        -2.2510   1.4928  -0.4328 N.3            1 S1                 0.0000
     11 ****        -0.8997   1.4602  -0.4025 C.ar           1 S1                 0.0000
     12 ****        -0.1834   2.0029  -1.4230 N.ar           1 S1                 0.0000
     13 ****         1.1519   1.9524  -1.3982 C.ar           1 S1                 0.0000
     14 ****         1.9506   1.4170  -0.4721 N.ar           1 S1                 0.0000
     15 ****         1.2307   0.8690   0.5491 C.ar           1 S1                 0.0000
     16 ****        -0.1869   0.8561   0.6655 C.ar           1 S1                 0.0000
     17 ****        -0.5663   0.2189   1.8391 N.2            1 S1                 0.0000
     18 ****         0.5662  -0.1310   2.3857 C.2            1 S1                 0.0000
     19 ****         1.6952   0.2077   1.6728 N.pl3          1 S1                 0.0000
     20 ****         3.0759  -0.0649   2.0423 C.3            1 S1                 0.0000
     21 ****         3.6298  -1.3852   1.4546 C.3            1 S1                 0.0000
     22 ****         3.6070  -1.3117   0.0397 O.3            1 S1                 0.0000
     23 ****         5.0618  -1.6688   1.8932 C.3            1 S1                 0.0000
     24 ****         5.1220  -3.1901   1.8917 C.3            1 S1                 0.0000
     25 ****         3.8538  -3.5533   2.4093 O.3            1 S1                 0.0000
     26 ****         2.8741  -2.6592   1.8894 C.3            1 S1                 0.0000
     27 ****        -0.4465  -1.4156  -4.0269 H              1 S1                 0.0000
     28 ****        -2.1464  -1.0108  -3.9126 H              1 S1                 0.0000
     29 ****        -3.2209  -1.5278  -1.7587 H              1 S1                 0.0000
     30 ****        -2.3256  -1.1966  -0.3096 H              1 S1                 0.0000
     31 ****        -2.6764   0.9968  -2.4075 H              1 S1                 0.0000
     32 ****        -4.9276   0.0798  -2.0197 H              1 S1                 0.0000
     33 ****        -4.7105   0.1869  -0.2894 H              1 S1                 0.0000
     34 ****        -4.8221   2.5318  -2.2439 H              1 S1                 0.0000
     35 ****        -6.0501   2.0973  -1.0743 H              1 S1                 0.0000
     36 ****        -4.5999   3.9656  -0.2364 H              1 S1                 0.0000
     37 ****        -4.4963   2.5588   0.7989 H              1 S1                 0.0000
     38 ****        -2.4925   3.3581  -1.3668 H              1 S1                 0.0000
     39 ****        -2.2332   3.4383   0.3659 H              1 S1                 0.0000
     40 ****         1.6525   2.4013  -2.2432 H              1 S1                 0.0000
     41 ****         0.6076  -0.6542   3.3299 H              1 S1                 0.0000
     42 ****         3.6896   0.7771   1.7195 H              1 S1                 0.0000
     43 ****         3.1356  -0.0856   3.1312 H              1 S1                 0.0000
     44 ****         3.9363  -2.1258  -0.3090 H              1 S1                 0.0000
     45 ****         5.8173  -1.2083   1.2550 H              1 S1                 0.0000
     46 ****         5.2245  -1.3098   2.9105 H              1 S1                 0.0000
     47 ****         5.2312  -3.5782   0.8778 H              1 S1                 0.0000
     48 ****         5.9344  -3.5827   2.5033 H              1 S1                 0.0000
     49 ****         2.1433  -2.4646   2.6734 H              1 S1                 0.0000
     50 ****         2.3443  -3.1283   1.0586 H              1 S1                 0.0000
     51 ****         0.6982  -1.7111  -2.0756 LP             1 S1                 0.0000
     52 ****        -0.0875  -1.4609  -0.5525 LP             1 S1                 0.0000
     53 ****        -2.5547   1.0674   0.4197 LP             1 S1                 0.0000
     54 ****        -0.6545   2.4386  -2.1900 LP             1 S1                 0.0000
     55 ****         2.9494   1.4176  -0.5207 LP             1 S1                 0.0000
     56 ****        -1.4917   0.0641   2.1851 LP             1 S1                 0.0000
     57 ****         4.1842  -0.5552  -0.2679 LP             1 S1                 0.0000
     58 ****         2.6693  -1.1649  -0.2752 LP             1 S1                 0.0000
     59 ****         3.8681  -3.4931   3.4074 LP             1 S1                 0.0000
     60 ****         3.6341  -4.4895   2.1349 LP             1 S1                 0.0000
@<TRIPOS>BOND
    1    1    2 am    
    2    1   27 1     
    3    1   28 1     
    4    2    3 2     
    5    2    4 1     
    6    4    5 1     
    7    4   29 1     
    8    4   30 1     
    9    5   10 1     
   10    5    6 1     
   11    5   31 1     
   12    6    7 1     
   13    6   32 1     
   14    6   33 1     
   15    7    8 1     
   16    7   34 1     
   17    7   35 1     
   18    8    9 1     
   19    8   36 1     
   20    8   37 1     
   21    9   10 1     
   22    9   38 1     
   23    9   39 1     
   24   10   11 1     
   25   11   16 ar    
   26   11   12 ar    
   27   12   13 ar    
   28   13   14 ar    
   29   13   40 1     
   30   14   15 ar    
   31   15   19 1     
   32   15   16 ar    
   33   16   17 1     
   34   17   18 2     
   35   18   19 1     
   36   18   41 1     
   37   19   20 1     
   38   20   21 1     
   39   20   42 1     
   40   20   43 1     
   41   21   26 1     
   42   21   22 1     
   43   21   23 1     
   44   22   44 1     
   45   23   24 1     
   46   23   45 1     
   47   23   46 1     
   48   24   25 1     
   49   24   47 1     
   50   24   48 1     
   51   25   26 1     
   52   26   49 1     
   53   26   50 1     
   54    3   51 1     
   55    3   52 1     
   56   10   53 1     
   57   12   54 1     
   58   14   55 1     
   59   17   56 1     
   60   22   57 1     
   61   22   58 1     
   62   25   59 1     
   63   25   60 1     
@<TRIPOS>SUBSTRUCTURE
      1 S1             1
@<TRIPOS>SET
LONE_PAIRS      STATIC     ATOMS    <user>   **** ""
10 51 52 53 54 55 56 57 58 59 60
DONOR_HYDROGENS      STATIC     ATOMS    <user>   **** ""
3 27 28 44
ATOM$BLUE        STATIC     ATOMS    COLORGROUP SYSTEM
10 51 52 53 54 55 56 57 58 59 60
ATOM$RED        STATIC     ATOMS    COLORGROUP SYSTEM
3 27 28 44
