#       Name:                AV-unprocessed.smi:910
#       Creating user name   scv26
#       Creation time:       Fri Mar 27 02:03:12 2020


#       File generated by GOLD software.
#

@<TRIPOS>MOLECULE
AV-unprocessed.smi:910
    53    54     1
SMALL
NO_CHARGES


@<TRIPOS>ATOM
      1 ****        -6.0048   0.9360   2.1590 C.3            1 S1                 0.0000
      2 ****        -4.5164   0.7854   2.1257 C.2            1 S1                 0.0000
      3 ****        -3.7642  -0.3620   2.2226 N.pl3          1 S1                 1.0000
      4 ****        -2.4716  -0.0532   2.1535 C.2            1 S1                 0.0000
      5 ****        -1.4238  -0.9999   2.2203 N.am           1 S1                 0.0000
      6 ****        -0.1136  -0.7137   2.1889 C.2            1 S1                 0.0000
      7 ****         0.3499   0.4260   2.1376 O.2            1 S1                 0.0000
      8 ****         0.6391  -1.8240   2.2175 N.am           1 S1                 0.0000
      9 ****         2.0972  -1.8459   2.1476 C.3            1 S1                 0.0000
     10 ****         2.5894  -1.8651   0.6933 C.3            1 S1                 0.0000
     11 ****         2.2802  -0.6254   0.0765 O.3            1 S1                 0.0000
     12 ****         2.6155  -0.5582  -1.3019 C.3            1 S1                 0.0000
     13 ****         3.6518   0.5673  -1.4680 C.3            1 S1                 0.0000
     14 ****         3.9898   0.8055  -2.9469 C.3            1 S1                 0.0000
     15 ****         2.7206   1.1011  -3.7597 C.3            1 S1                 0.0000
     16 ****         1.6812  -0.0193  -3.5951 C.3            1 S1                 0.0000
     17 ****         1.3333  -0.2645  -2.1129 C.3            1 S1                 0.0000
     18 ****         0.2946  -1.3894  -1.9750 C.3            1 S1                 0.0000
     19 ****        -2.3079   1.2892   2.0068 O.3            1 S1                 0.0000
     20 ****        -3.5906   1.7972   1.9906 C.2            1 S1                 0.0000
     21 ****        -3.7368   3.2741   1.8403 C.3            1 S1                 0.0000
     22 ****        -6.3229   1.4913   3.0417 H              1 S1                 0.0000
     23 ****        -6.5025  -0.0337   2.1811 H              1 S1                 0.0000
     24 ****        -6.3665   1.4730   1.2818 H              1 S1                 0.0000
     25 ****        -4.1719  -1.2821   2.3321 H              1 S1                 0.0000
     26 ****         0.1754  -2.7196   2.2642 H              1 S1                 0.0000
     27 ****         2.5295  -1.0028   2.6892 H              1 S1                 0.0000
     28 ****         2.4397  -2.7469   2.6568 H              1 S1                 0.0000
     29 ****         3.6687  -2.0216   0.6674 H              1 S1                 0.0000
     30 ****         2.1246  -2.6902   0.1508 H              1 S1                 0.0000
     31 ****         3.0558  -1.4935  -1.6554 H              1 S1                 0.0000
     32 ****         3.2645   1.4896  -1.0326 H              1 S1                 0.0000
     33 ****         4.5590   0.3222  -0.9145 H              1 S1                 0.0000
     34 ****         4.6924   1.6343  -3.0392 H              1 S1                 0.0000
     35 ****         4.4911  -0.0731  -3.3547 H              1 S1                 0.0000
     36 ****         2.2904   2.0492  -3.4345 H              1 S1                 0.0000
     37 ****         2.9740   1.2218  -4.8134 H              1 S1                 0.0000
     38 ****         0.7795   0.2373  -4.1524 H              1 S1                 0.0000
     39 ****         2.0665  -0.9381  -4.0399 H              1 S1                 0.0000
     40 ****         0.8848   0.6490  -1.7191 H              1 S1                 0.0000
     41 ****         0.6932  -2.3419  -2.3256 H              1 S1                 0.0000
     42 ****        -0.6015  -1.1696  -2.5558 H              1 S1                 0.0000
     43 ****        -0.0145  -1.5191  -0.9378 H              1 S1                 0.0000
     44 ****        -4.3857   3.5145   0.9980 H              1 S1                 0.0000
     45 ****        -2.7711   3.7500   1.6676 H              1 S1                 0.0000
     46 ****        -4.1726   3.7115   2.7388 H              1 S1                 0.0000
     47 ****        -1.6925  -1.9707   2.2825 H              1 S1                 0.0000
     48 ****        -0.2641   1.2150   2.1166 LP             1 S1                 0.0000
     49 ****         1.3403   0.5625   2.1170 LP             1 S1                 0.0000
     50 ****         2.7799   0.0960   0.5559 LP             1 S1                 0.0000
     51 ****         1.2970  -0.4670   0.1677 LP             1 S1                 0.0000
     52 ****        -1.8357   1.4955   1.1498 LP             1 S1                 0.0000
     53 ****        -1.7883   1.6671   2.7731 LP             1 S1                 0.0000
@<TRIPOS>BOND
    1    1   22 1     
    2    1   23 1     
    3    1   24 1     
    4    1    2 1     
    5    2    3 1     
    6    2   20 2     
    7    3   25 1     
    8    3    4 2     
    9    4   19 1     
   10    4    5 1     
   11    5    6 am    
   12    5   47 1     
   13    6    8 am    
   14    6    7 2     
   15    8    9 1     
   16    8   26 1     
   17    9   10 1     
   18    9   27 1     
   19    9   28 1     
   20   10   11 1     
   21   10   29 1     
   22   10   30 1     
   23   11   12 1     
   24   12   17 1     
   25   12   13 1     
   26   12   31 1     
   27   13   14 1     
   28   13   32 1     
   29   13   33 1     
   30   14   15 1     
   31   14   34 1     
   32   14   35 1     
   33   15   16 1     
   34   15   36 1     
   35   15   37 1     
   36   16   17 1     
   37   16   38 1     
   38   16   39 1     
   39   17   18 1     
   40   17   40 1     
   41   18   41 1     
   42   18   42 1     
   43   18   43 1     
   44   19   20 1     
   45   20   21 1     
   46   21   44 1     
   47   21   45 1     
   48   21   46 1     
   49    7   48 1     
   50    7   49 1     
   51   11   50 1     
   52   11   51 1     
   53   19   52 1     
   54   19   53 1     
@<TRIPOS>SUBSTRUCTURE
      1 S1             1
@<TRIPOS>SET
LONE_PAIRS      STATIC     ATOMS    <user>   **** ""
6 48 49 50 51 52 53
DONOR_HYDROGENS      STATIC     ATOMS    <user>   **** ""
3 25 47 26
ATOM$BLUE        STATIC     ATOMS    COLORGROUP SYSTEM
6 48 49 50 51 52 53
ATOM$RED        STATIC     ATOMS    COLORGROUP SYSTEM
3 25 47 26
