AV-unprocessed.smi:107|AV-procd|sdf|1023|dock2
  -GOLD-   2262018 23D 1   1.00000     0.00000
 Structure written by MMmdl.
 30 31  0  0  0  0  0  0  0  0  2 V2000
  152.4956  137.6964  160.1742 C   0  0  0  0  0  0  0  0  0  0  0  0
  152.5653  137.8254  158.6626 C   0  0  0  0  0  0  0  0  0  0  0  0
  152.2200  138.9629  158.0189 C   0  0  0  0  0  0  0  0  0  0  0  0
  152.2864  139.0756  156.6400 N   0  0  0  0  0  0  0  0  0  0  0  0
  151.8999  140.3541  155.9236 C   0  0  2  0  0  0  0  0  0  0  0  0
  151.4261  141.4145  156.9294 C   0  0  0  0  0  0  0  0  0  0  0  0
  150.1322  141.8991  156.3043 C   0  0  2  0  0  0  0  0  0  0  0  0
  149.2347  142.3652  157.2912 O   0  0  0  0  0  0  0  0  0  0  0  0
  149.6262  140.6409  155.5994 C   0  0  1  0  0  0  0  0  0  0  0  0
  148.6228  140.9279  154.4722 C   0  0  0  0  0  0  0  0  0  0  0  0
  149.3075  141.2731  153.2870 O   0  0  0  0  0  0  0  0  0  0  0  0
  150.8309  140.1103  155.0540 O   0  0  0  0  0  0  0  0  0  0  0  0
  152.7275  137.9689  155.8682 C   0  0  0  0  0  0  0  0  0  0  0  0
  152.7781  138.1014  154.6449 O   0  0  0  0  0  0  0  0  0  0  0  0
  153.0763  136.8170  156.5087 N   0  5  0  0  0  0  0  0  0  0  0  0
  153.0217  136.6811  157.8645 C   0  0  0  0  0  0  0  0  0  0  0  0
  153.3417  135.6356  158.4299 O   0  0  0  0  0  0  0  0  0  0  0  0
  152.1424  138.6192  160.6354 H   0  0  0  0  0  0  0  0  0  0  0  0
  153.4810  137.4704  160.5827 H   0  0  0  0  0  0  0  0  0  0  0  0
  151.8128  136.8947  160.4568 H   0  0  0  0  0  0  0  0  0  0  0  0
  151.8844  139.8004  158.6108 H   0  0  0  0  0  0  0  0  0  0  0  0
  152.7745  140.6473  155.3405 H   0  0  0  0  0  0  0  0  0  0  0  0
  151.2411  140.9465  157.8982 H   0  0  0  0  0  0  0  0  0  0  0  0
  152.1711  142.2009  157.0533 H   0  0  0  0  0  0  0  0  0  0  0  0
  150.3393  142.6880  155.5798 H   0  0  0  0  0  0  0  0  0  0  0  0
  148.8671  143.1849  156.9982 H   0  0  0  0  0  0  0  0  0  0  0  0
  149.2122  139.9476  156.3345 H   0  0  0  0  0  0  0  0  0  0  0  0
  148.0329  140.0360  154.2595 H   0  0  0  0  0  0  0  0  0  0  0  0
  147.9256  141.7178  154.7533 H   0  0  0  0  0  0  0  0  0  0  0  0
  149.2217  140.5605  152.6724 H   0  0  0  0  0  0  0  0  0  0  0  0
  1  2  1  0  0  0  0
  1 18  1  0  0  0  0
  1 19  1  0  0  0  0
  1 20  1  0  0  0  0
  2 16  1  0  0  0  0
  2  3  2  0  0  0  0
  3  4  1  0  0  0  0
  3 21  1  0  0  0  0
  4  5  1  0  0  0  0
  4 13  1  0  0  0  0
  5 12  1  0  0  0  0
  5  6  1  0  0  0  0
  5 22  1  0  0  0  0
  6  7  1  0  0  0  0
  6 23  1  0  0  0  0
  6 24  1  0  0  0  0
  7  8  1  0  0  0  0
  7  9  1  0  0  0  0
  7 25  1  0  0  0  0
  8 26  1  0  0  0  0
  9 10  1  0  0  0  0
  9 12  1  0  0  0  0
  9 27  1  0  0  0  0
 10 11  1  0  0  0  0
 10 28  1  0  0  0  0
 10 29  1  0  0  0  0
 11 30  1  0  0  0  0
 13 14  2  0  0  0  0
 13 15  1  0  0  0  0
 15 16  1  0  0  0  0
 16 17  2  0  0  0  0
M  CHG  1  15  -1
M  END
> <s_m_source_file>
AV-unprocessed.smi

> <i_m_source_file_index>
107

> <i_lp_mmshare_version>
43012

> <i_f3d_flags>
0

> <s_epik_input>
Tz1jMVtuSF1jKD1PKW4oW2NIXWMxW0NIM10pW0NAQEhdMltDSDJdW0NAQEhdKFtPSF0pW0NASF0oTzIpW0NIMl1bT0hd

> <s_epik_cmdline>
J2VwaWtfcHl0aG9uJywgJy1waCcsICc3LjAnLCAnLXRuJywgJzgnLCAnLW1hJywgJzIwMCcsICctbWV0YWxfYmluZGluZycsICctaW1hZScsICc8aW5maWxlLm1hZT4nLCAnLW9tYWUnLCAnPG91dGZpbGUubWFlPic=

> <r_lp_tautomer_probability>
0.999537

> <r_epik_Ionization_Penalty>
3.66603

> <r_epik_Ionization_Penalty_Charging>
1.09773e-07

> <r_epik_Ionization_Penalty_Neutral>
3.66603

> <r_epik_State_Penalty>
3.66562

> <r_epik_Charging_Adjusted_Penalty>
3.66562

> <i_epik_Tot_Q>
-1

> <i_epik_Tot_abs_Q>
1

> <r_epik_Metal_State_Penalty>
0.234536

> <b_epik_Metal_Only>
1

> <s_epik_Chemistry_Notes>
This compound contains an acetal/aminal-like group ( X-CH(R)-Y where X, Y are N, S, or O) that may be acid/base labile, releasing an aldehyde.

> <s_lp_Force_Field>
OPLS_2005

> <r_lp_Energy>
36.1714

> <b_lp_Chiralities_Consistent>
1

> <s_lp_Variant>
AV-unprocessed.smi:107-11

> <Gold.Version>
5.8.1

> <Gold.Id.Protein>
6NUR|6NUR_protein|mol2

> <Gold.PLP.Fitness>
44.1783

> <Gold.PLP.PLP>
-26.7383

> <Gold.PLP.part.hbond>
-7.5404

> <Gold.PLP.part.metal>
0.0000

> <Gold.PLP.part.buried>
-3.5529

> <Gold.PLP.part.nonpolar>
-15.7603

> <Gold.PLP.part.repulsive>
0.0928

> <Gold.PLP.ligand.clash>
0.0000

> <Gold.PLP.ligand.torsion>
0.2962

> <Gold.PLP.Chemscore.Hbond>
6.0054

> <Gold.PLP.Chemscore.CHOScore>
0.0000

> <Gold.PLP.Chemscore.Metal>
0.0000

> <Gold.Chemscore.Hbonds>
donor molecule, donor type, donor heavy atom, donor atom, acceptor molecule, acceptor atom, score
      L1  H     8    26       P1  8028  0.99
      L1  H    11    30       P1  7957  0.88
      P1  H  6896  6909       L1    17  0.52
      P1  H  7989  7998       L1    12  0.85
      P1  H  8011  8017       L1    11  1.00
      P1  H 10752 10763       L1    15  1.76

> <Gold.PLP.Chemscore.Internal.Correction>
0.0163

> <Gold.Rescore>
     Score         DG    S(hbond)    S(metal)    S(lipo)     H(rot)  DE(clash)    DE(int)     intcor
     13.49     -15.30       3.51        0.00      42.51       2.69       0.04       1.78       ----

> <Gold.Chemscore.Fitness>
13.4852

> <Gold.Chemscore.DG>
-15.3033

> <Gold.Chemscore.ZeroCoef>
-5.4800

> <Gold.Chemscore.Hbond>
3.5115

> <Gold.Chemscore.Metal>
0.0000

> <Gold.Chemscore.Lipo>
42.5129

> <Gold.Chemscore.Internal_Hbond>
0.0000

> <Gold.Chemscore.DEClash>
0.0405

> <Gold.Chemscore.DEInternal>
1.7776

> <Gold.Chemscore.Rot>
2.6871

> <Gold.Chemscore.Internal.Correction>
   9.000000E+99

> <Gold.Chemscore.Hbonds>
donor molecule, donor type, donor heavy atom, donor atom, acceptor molecule, acceptor atom, score
      L1  H     8    26       P1  8028  0.66
      L1  H    11    30       P1  7957  0.86
      P1  H  6896  6909       L1    17  0.48
      P1  H  7989  7998       L1    12  0.14
      P1  H  8011  8017       L1    11  0.24
      P1  H 10752 10763       L1    15  0.68

> <Gold.Chemscore.Hbond.Weighted>
-11.7283

> <Gold.Chemscore.Metal.Weighted>
-0.0000

> <Gold.Chemscore.Lipo.Weighted>
-4.9740

> <Gold.Chemscore.Internal_Hbond.Weighted>
0.0000

> <Gold.Chemscore.DEClash.Weighted>
0.0405

> <Gold.Chemscore.DEInternal.Weighted>
1.7776

> <Gold.Chemscore.Rot.Weighted>
6.8791

> <Gold.Chemscore.Internal.Correction.Weighted>
   9.000000E+99

> <Gold.Protein.RotatedTorsions>
[ 6907 6896 6895 6894 ] final  170.95 input  -60.11 | X-H torsion
[ 7974 7965 7964 7962 ] final  -64.01 input  175.53 | X-H torsion
[ 8008 7997 7996 7995 ] final   37.82 input   59.86 | X-H torsion
[ 10167 10162 10161 10158 ] final  115.06 input  -65.29 | X-H torsion
[ 10718 10713 10712 10709 ] final -164.01 input   66.30 | X-H torsion
[ 10763 10752 10751 10750 ] final  109.21 input  -60.55 | X-H torsion
[ 11005 11000 10999 10996 ] final  -50.49 input  -57.11 | X-H torsion

> <Gold.Protein.ActiveResidues>
 VAL166  LYS551  ARG553  GLY616  TRP617  ASP618  TYR619  PRO620  LYS621  CYS622 
 ASP623  PHE694  ASN695  SER759  ASP760  ASP761  ALA762  ILE779  LEU786  VAL792 
 PHE793  MET794  SER795  GLU796  ALA797  LYS798  CYS799  TRP800  GLU811  SER814 

> <Gold.Protein.RotatedAtoms>
  151.8080  133.3378  159.3546 H   0  0  0  0  0  0  0  0  0  0  0  0  # atno 6907 bound_to 6896
  150.7335  134.5691  159.5890 H   0  0  0  0  0  0  0  0  0  0  0  0  # atno 6908 bound_to 6896
  152.3095  134.7515  160.0391 H   0  0  0  0  0  0  0  0  0  0  0  0  # atno 6909 bound_to 6896
  145.7720  140.8808  143.0375 H   0  0  0  0  0  0  0  0  0  0  0  0  # atno 7974 bound_to 7965
  155.2100  140.3322  155.4330 H   0  0  0  0  0  0  0  0  0  0  0  0  # atno 8008 bound_to 7997
  156.2374  140.1879  156.7131 H   0  0  0  0  0  0  0  0  0  0  0  0  # atno 8009 bound_to 7997
  154.6084  140.0612  156.9447 H   0  0  0  0  0  0  0  0  0  0  0  0  # atno 8010 bound_to 7997
  139.6344  144.7118  151.2366 H   0  0  0  0  0  0  0  0  0  0  0  0  # atno 10167 bound_to 10162
  156.6329  130.8937  151.2981 H   0  0  0  0  0  0  0  0  0  0  0  0  # atno 10718 bound_to 10713
  153.4316  135.3787  155.2173 H   0  0  0  0  0  0  0  0  0  0  0  0  # atno 10763 bound_to 10752
  154.8750  135.3841  154.4261 H   0  0  0  0  0  0  0  0  0  0  0  0  # atno 10764 bound_to 10752
  153.4795  135.7088  153.6009 H   0  0  0  0  0  0  0  0  0  0  0  0  # atno 10765 bound_to 10752
  141.0819  133.6651  156.3738 H   0  0  0  0  0  0  0  0  0  0  0  0  # atno 11005 bound_to 11000
  144.6811  139.9868  143.7484 LP  0  0  0  0  0  0  0  0  0  0  0  0  # atno 17320 bound_to 7965
  146.0161  139.3210  143.0841 LP  0  0  0  0  0  0  0  0  0  0  0  0  # atno 17321 bound_to 7965
  140.7457  143.6423  150.8324 LP  0  0  0  0  0  0  0  0  0  0  0  0  # atno 17342 bound_to 10162
  140.0052  143.5701  152.2860 LP  0  0  0  0  0  0  0  0  0  0  0  0  # atno 17343 bound_to 10162
  157.7194  130.9539  150.1380 LP  0  0  0  0  0  0  0  0  0  0  0  0  # atno 17370 bound_to 10713
  156.2220  130.3675  149.8545 LP  0  0  0  0  0  0  0  0  0  0  0  0  # atno 17371 bound_to 10713
  140.5450  134.6083  157.5391 LP  0  0  0  0  0  0  0  0  0  0  0  0  # atno 17394 bound_to 11000
  139.9633  134.7415  156.0191 LP  0  0  0  0  0  0  0  0  0  0  0  0  # atno 17395 bound_to 11000

$$$$
