AV-unprocessed.smi:294|AV-procd|sdf|2253|dock8
  -GOLD-   2262022143D 1   1.00000     0.00000
 Structure written by MMmdl.
 29 30  0  0  0  0  0  0  0  0  1 V2000
  145.7707  142.1657  159.6014 N   0  0  0  0  0  0  0  0  0  0  0  0
  146.0904  142.0526  158.4949 C   0  0  0  0  0  0  0  0  0  0  0  0
  146.4916  141.9104  157.1056 C   0  0  0  0  0  0  0  0  0  0  0  0
  145.5753  141.9196  156.0942 N   0  0  0  0  0  0  0  0  0  0  0  0
  146.4009  141.7644  155.0665 C   0  0  0  0  0  0  0  0  0  0  0  0
  147.6893  141.6735  155.4135 N   0  0  0  0  0  0  0  0  0  0  0  0
  148.8772  141.5124  154.5946 C   0  0  0  0  0  0  0  0  0  0  0  0
  150.1395  141.4616  155.4567 C   0  0  0  0  0  0  0  0  0  0  0  0
  150.9283  140.5246  155.3383 O   0  0  0  0  0  0  0  0  0  0  0  0
  150.3170  142.4744  156.3193 N   0  0  0  0  0  0  0  0  0  0  0  0
  151.4605  142.6267  157.2121 C   0  0  1  0  0  0  0  0  0  0  0  0
  151.6254  144.0917  157.6563 C   0  0  0  0  0  0  0  0  0  0  0  0
  152.5920  144.1370  158.8460 C   0  0  0  0  0  0  0  0  0  0  0  0
  152.3568  142.5599  159.7505 S   0  0  0  0  0  0  0  0  0  0  0  0
  153.6488  141.8625  159.8368 O   0  0  0  0  0  0  0  0  0  0  0  0
  151.5424  142.7980  160.9518 O   0  0  0  0  0  0  0  0  0  0  0  0
  151.3149  141.7606  158.4731 C   0  0  0  0  0  0  0  0  0  0  0  0
  147.7706  141.7687  156.7635 N   0  0  0  0  0  0  0  0  0  0  0  0
  146.0620  141.7212  154.0414 H   0  0  0  0  0  0  0  0  0  0  0  0
  148.7944  140.5997  154.0020 H   0  0  0  0  0  0  0  0  0  0  0  0
  148.9343  142.3472  153.8949 H   0  0  0  0  0  0  0  0  0  0  0  0
  149.6155  143.2007  156.3469 H   0  0  0  0  0  0  0  0  0  0  0  0
  152.3742  142.3337  156.6912 H   0  0  0  0  0  0  0  0  0  0  0  0
  151.9669  144.7280  156.8392 H   0  0  0  0  0  0  0  0  0  0  0  0
  150.6585  144.4801  157.9794 H   0  0  0  0  0  0  0  0  0  0  0  0
  153.6260  144.1755  158.5024 H   0  0  0  0  0  0  0  0  0  0  0  0
  152.4129  144.9836  159.5089 H   0  0  0  0  0  0  0  0  0  0  0  0
  150.2868  141.7593  158.8370 H   0  0  0  0  0  0  0  0  0  0  0  0
  151.6316  140.7285  158.3206 H   0  0  0  0  0  0  0  0  0  0  0  0
  1  2  3  0  0  0  0
  2  3  1  0  0  0  0
  3 18  2  0  0  0  0
  3  4  1  0  0  0  0
  4  5  2  0  0  0  0
  5  6  1  0  0  0  0
  5 19  1  0  0  0  0
  6  7  1  0  0  0  0
  6 18  1  0  0  0  0
  7  8  1  0  0  0  0
  7 20  1  0  0  0  0
  7 21  1  0  0  0  0
  8  9  2  0  0  0  0
  8 10  1  0  0  0  0
 10 11  1  0  0  0  0
 10 22  1  0  0  0  0
 11 17  1  0  0  0  0
 11 12  1  0  0  0  0
 11 23  1  0  0  0  0
 12 13  1  0  0  0  0
 12 24  1  0  0  0  0
 12 25  1  0  0  0  0
 13 14  1  0  0  0  0
 13 26  1  0  0  0  0
 13 27  1  0  0  0  0
 14 15  2  0  0  0  0
 14 16  2  0  0  0  0
 14 17  1  0  0  0  0
 17 28  1  0  0  0  0
 17 29  1  0  0  0  0
M  END
> <s_m_source_file>
AV-unprocessed.smi

> <i_m_source_file_index>
294

> <i_lp_mmshare_version>
43012

> <i_f3d_flags>
0

> <s_epik_input>
TiNDYzFuW2NIXW4objEpW0NIMl1DKD1PKVtOSF1bQ0BASF0oW0NIMl0yKVtDSDJdW0NIMl1TMig9Tyk9Tw==

> <s_epik_cmdline>
J2VwaWtfcHl0aG9uJywgJy1waCcsICc3LjAnLCAnLXRuJywgJzgnLCAnLW1hJywgJzIwMCcsICctbWV0YWxfYmluZGluZycsICctaW1hZScsICc8aW5maWxlLm1hZT4nLCAnLW9tYWUnLCAnPG91dGZpbGUubWFlPic=

> <r_lp_tautomer_probability>
1

> <r_epik_Ionization_Penalty>
6.08231e-07

> <r_epik_Ionization_Penalty_Charging>
0

> <r_epik_Ionization_Penalty_Neutral>
6.08231e-07

> <r_epik_State_Penalty>
-0

> <r_epik_Charging_Adjusted_Penalty>
0

> <i_epik_Tot_Q>
0

> <i_epik_Tot_abs_Q>
0

> <r_epik_Metal_State_Penalty>
-0

> <b_epik_Metal_Only>
0

> <s_lp_Force_Field>
OPLS_2005

> <r_lp_Energy>
6.26763

> <b_lp_Chiralities_Consistent>
1

> <s_lp_Variant>
AV-unprocessed.smi:294-2

> <Gold.Version>
5.8.1

> <Gold.Id.Protein>
6NUR|6NUR_protein|mol2

> <Gold.PLP.Fitness>
41.5352

> <Gold.PLP.PLP>
-32.8193

> <Gold.PLP.part.hbond>
-4.0000

> <Gold.PLP.part.metal>
0.0000

> <Gold.PLP.part.buried>
-5.9829

> <Gold.PLP.part.nonpolar>
-24.1434

> <Gold.PLP.part.repulsive>
0.4290

> <Gold.PLP.ligand.clash>
0.0000

> <Gold.PLP.ligand.torsion>
0.3445

> <Gold.PLP.Chemscore.Hbond>
3.1348

> <Gold.PLP.Chemscore.CHOScore>
0.0000

> <Gold.PLP.Chemscore.Metal>
0.0000

> <Gold.Chemscore.Hbonds>
donor molecule, donor type, donor heavy atom, donor atom, acceptor molecule, acceptor atom, score
      L1  H    10    22       P1  8028  1.00
      P1  H  6933  6945       L1    16  0.16
      P1  H  6934  6946       L1     1  0.94
      P1  H  7989  7998       L1     9  0.96

> <Gold.PLP.Chemscore.Internal.Correction>
0.0006

> <Gold.Rescore>
     Score         DG    S(hbond)    S(metal)    S(lipo)     H(rot)  DE(clash)    DE(int)     intcor
     12.86     -14.69       2.59        0.00      52.00       2.15       0.04       1.79       ----

> <Gold.Chemscore.Fitness>
12.8591

> <Gold.Chemscore.DG>
-14.6920

> <Gold.Chemscore.ZeroCoef>
-5.4800

> <Gold.Chemscore.Hbond>
2.5881

> <Gold.Chemscore.Metal>
0.0000

> <Gold.Chemscore.Lipo>
51.9963

> <Gold.Chemscore.Internal_Hbond>
0.0000

> <Gold.Chemscore.DEClash>
0.0402

> <Gold.Chemscore.DEInternal>
1.7927

> <Gold.Chemscore.Rot>
2.1546

> <Gold.Chemscore.Internal.Correction>
   9.000000E+99

> <Gold.Chemscore.Hbonds>
donor molecule, donor type, donor heavy atom, donor atom, acceptor molecule, acceptor atom, score
      L1  H    10    22       P1  8028  0.94
      P1  H  6933  6945       L1    16  0.16
      P1  H  6934  6946       L1     1  0.54
      P1  H  7989  7998       L1     9  0.23

> <Gold.Chemscore.Hbond.Weighted>
-8.6442

> <Gold.Chemscore.Metal.Weighted>
-0.0000

> <Gold.Chemscore.Lipo.Weighted>
-6.0836

> <Gold.Chemscore.Internal_Hbond.Weighted>
0.0000

> <Gold.Chemscore.DEClash.Weighted>
0.0402

> <Gold.Chemscore.DEInternal.Weighted>
1.7927

> <Gold.Chemscore.Rot.Weighted>
5.5158

> <Gold.Chemscore.Internal.Correction.Weighted>
   9.000000E+99

> <Gold.Protein.RotatedTorsions>
[ 6907 6896 6895 6894 ] final -173.48 input  -60.11 | X-H torsion
[ 7974 7965 7964 7962 ] final -117.41 input  175.53 | X-H torsion
[ 8008 7997 7996 7995 ] final   79.43 input   59.86 | X-H torsion
[ 10167 10162 10161 10158 ] final -147.90 input  -65.29 | X-H torsion
[ 10718 10713 10712 10709 ] final   89.88 input   66.30 | X-H torsion
[ 10763 10752 10751 10750 ] final  -23.59 input  -60.55 | X-H torsion
[ 11005 11000 10999 10996 ] final  -96.36 input  -57.11 | X-H torsion

> <Gold.Protein.ActiveResidues>
 VAL166  LYS551  ARG553  GLY616  TRP617  ASP618  TYR619  PRO620  LYS621  CYS622 
 ASP623  PHE694  ASN695  SER759  ASP760  ASP761  ALA762  ILE779  LEU786  VAL792 
 PHE793  MET794  SER795  GLU796  ALA797  LYS798  CYS799  TRP800  GLU811  SER814 

> <Gold.Protein.RotatedAtoms>
  151.5568  133.3409  159.2963 H   0  0  0  0  0  0  0  0  0  0  0  0  # atno 6907 bound_to 6896
  150.8446  134.7753  159.6971 H   0  0  0  0  0  0  0  0  0  0  0  0  # atno 6908 bound_to 6896
  152.4506  134.5409  159.9890 H   0  0  0  0  0  0  0  0  0  0  0  0  # atno 6909 bound_to 6896
  145.0856  140.8455  143.4013 H   0  0  0  0  0  0  0  0  0  0  0  0  # atno 7974 bound_to 7965
  155.8696  140.3449  155.5812 H   0  0  0  0  0  0  0  0  0  0  0  0  # atno 8008 bound_to 7997
  155.7842  140.0862  157.2062 H   0  0  0  0  0  0  0  0  0  0  0  0  # atno 8009 bound_to 7997
  154.4016  140.1495  156.3075 H   0  0  0  0  0  0  0  0  0  0  0  0  # atno 8010 bound_to 7997
  139.7580  143.8419  152.2601 H   0  0  0  0  0  0  0  0  0  0  0  0  # atno 10167 bound_to 10162
  157.6957  131.0350  150.3493 H   0  0  0  0  0  0  0  0  0  0  0  0  # atno 10718 bound_to 10713
  153.6703  135.6972  153.5149 H   0  0  0  0  0  0  0  0  0  0  0  0  # atno 10763 bound_to 10752
  153.2563  135.4259  155.0848 H   0  0  0  0  0  0  0  0  0  0  0  0  # atno 10764 bound_to 10752
  154.8428  135.3544  154.6247 H   0  0  0  0  0  0  0  0  0  0  0  0  # atno 10765 bound_to 10752
  141.1413  133.8092  157.0561 H   0  0  0  0  0  0  0  0  0  0  0  0  # atno 11005 bound_to 11000
  145.1127  139.2746  143.5629 LP  0  0  0  0  0  0  0  0  0  0  0  0  # atno 17320 bound_to 7965
  146.3531  140.0727  142.8622 LP  0  0  0  0  0  0  0  0  0  0  0  0  # atno 17321 bound_to 7965
  139.8417  144.7207  150.9323 LP  0  0  0  0  0  0  0  0  0  0  0  0  # atno 17342 bound_to 10162
  140.7804  143.3978  151.1200 LP  0  0  0  0  0  0  0  0  0  0  0  0  # atno 17343 bound_to 10162
  156.3943  130.3904  149.7006 LP  0  0  0  0  0  0  0  0  0  0  0  0  # atno 17370 bound_to 10713
  156.4345  130.7831  151.2852 LP  0  0  0  0  0  0  0  0  0  0  0  0  # atno 17371 bound_to 10713
  140.0601  134.9759  157.1289 LP  0  0  0  0  0  0  0  0  0  0  0  0  # atno 17394 bound_to 11000
  140.3861  134.2234  155.7168 LP  0  0  0  0  0  0  0  0  0  0  0  0  # atno 17395 bound_to 11000

$$$$
