AV-unprocessed.smi:1047|AV-procd|sdf|4562|dock1
  -GOLD-   22720 3 03D 1   1.00000     0.00000
 Structure written by MMmdl.
 57 59  0  0  0  0  0  0  0  0  3 V2000
  144.2517  131.8030  150.9448 C   0  0  0  0  0  0  0  0  0  0  0  0
  144.6886  133.1980  150.4768 C   0  0  0  0  0  0  0  0  0  0  0  0
  143.7888  134.2702  150.9783 N   0  3  1  0  0  0  0  0  0  0  0  0
  143.3316  134.0929  152.3799 C   0  0  0  0  0  0  0  0  0  0  0  0
  144.4266  134.4967  153.3852 C   0  0  0  0  0  0  0  0  0  0  0  0
  144.8537  135.8283  153.1220 O   0  0  0  0  0  0  0  0  0  0  0  0
  145.4134  135.9800  151.8210 C   0  0  2  0  0  0  0  0  0  0  0  0
  145.8960  137.4321  151.6814 C   0  0  0  0  0  0  0  0  0  0  0  0
  146.7973  137.8128  152.7879 N   0  3  0  0  0  0  0  0  0  0  0  0
  146.9096  139.2710  152.9949 C   0  0  0  0  0  0  0  0  0  0  0  0
  148.0315  139.6143  153.9887 C   0  0  2  0  0  0  0  0  0  0  0  0
  147.8764  140.9595  154.3996 O   0  0  0  0  0  0  0  0  0  0  0  0
  149.4272  139.4295  153.3616 C   0  0  0  0  0  0  0  0  0  0  0  0
  150.4377  139.0820  154.3446 N   0  0  0  0  0  0  0  0  0  0  0  0
  151.1197  137.9237  154.4365 C   0  0  0  0  0  0  0  0  0  0  0  0
  152.0094  137.8178  155.4187 N   0  0  0  0  0  0  0  0  0  0  0  0
  151.8848  139.0473  156.0423 C   0  0  0  0  0  0  0  0  0  0  0  0
  152.5538  139.5765  157.1673 C   0  0  0  0  0  0  0  0  0  0  0  0
  152.2599  140.8752  157.6404 C   0  0  0  0  0  0  0  0  0  0  0  0
  153.0020  141.4034  158.8556 C   0  0  0  0  0  0  0  0  0  0  0  0
  151.2823  141.6661  156.9850 C   0  0  0  0  0  0  0  0  0  0  0  0
  150.9443  143.0605  157.4819 C   0  0  0  0  0  0  0  0  0  0  0  0
  150.6077  141.1545  155.8564 C   0  0  0  0  0  0  0  0  0  0  0  0
  150.9084  139.8606  155.3960 C   0  0  0  0  0  0  0  0  0  0  0  0
  144.3258  135.6392  150.7788 C   0  0  0  0  0  0  0  0  0  0  0  0
  144.8738  131.0335  150.4873 H   0  0  0  0  0  0  0  0  0  0  0  0
  143.2178  131.5995  150.6648 H   0  0  0  0  0  0  0  0  0  0  0  0
  144.3377  131.6864  152.0247 H   0  0  0  0  0  0  0  0  0  0  0  0
  145.7226  133.3892  150.7640 H   0  0  0  0  0  0  0  0  0  0  0  0
  144.6694  133.1989  149.3862 H   0  0  0  0  0  0  0  0  0  0  0  0
  142.4573  134.7272  152.5324 H   0  0  0  0  0  0  0  0  0  0  0  0
  142.9984  133.0719  152.5628 H   0  0  0  0  0  0  0  0  0  0  0  0
  144.0335  134.4505  154.4010 H   0  0  0  0  0  0  0  0  0  0  0  0
  145.2761  133.8140  153.3477 H   0  0  0  0  0  0  0  0  0  0  0  0
  146.2655  135.3077  151.7037 H   0  0  0  0  0  0  0  0  0  0  0  0
  146.4337  137.5566  150.7406 H   0  0  0  0  0  0  0  0  0  0  0  0
  145.0408  138.1090  151.6540 H   0  0  0  0  0  0  0  0  0  0  0  0
  146.4443  137.4064  153.6433 H   0  0  0  0  0  0  0  0  0  0  0  0
  147.1124  139.7426  152.0323 H   0  0  0  0  0  0  0  0  0  0  0  0
  145.9561  139.6661  153.3499 H   0  0  0  0  0  0  0  0  0  0  0  0
  147.9477  138.9751  154.8688 H   0  0  0  0  0  0  0  0  0  0  0  0
  147.3222  140.9771  155.1659 H   0  0  0  0  0  0  0  0  0  0  0  0
  149.4018  138.6418  152.6076 H   0  0  0  0  0  0  0  0  0  0  0  0
  149.7398  140.3405  152.8484 H   0  0  0  0  0  0  0  0  0  0  0  0
  150.9574  137.1146  153.7393 H   0  0  0  0  0  0  0  0  0  0  0  0
  153.2963  138.9724  157.6676 H   0  0  0  0  0  0  0  0  0  0  0  0
  152.3080  141.5884  159.6759 H   0  0  0  0  0  0  0  0  0  0  0  0
  153.5145  142.3356  158.6173 H   0  0  0  0  0  0  0  0  0  0  0  0
  153.7511  140.6923  159.2046 H   0  0  0  0  0  0  0  0  0  0  0  0
  150.1540  143.5157  156.8843 H   0  0  0  0  0  0  0  0  0  0  0  0
  151.8197  143.7081  157.4291 H   0  0  0  0  0  0  0  0  0  0  0  0
  150.6016  143.0245  158.5164 H   0  0  0  0  0  0  0  0  0  0  0  0
  149.8614  141.7467  155.3476 H   0  0  0  0  0  0  0  0  0  0  0  0
  144.7075  135.7540  149.7635 H   0  0  0  0  0  0  0  0  0  0  0  0
  143.4986  136.3443  150.8731 H   0  0  0  0  0  0  0  0  0  0  0  0
  147.7180  137.4381  152.6088 H   0  0  0  0  0  0  0  0  0  0  0  0
  142.9642  134.2112  150.3972 H   0  0  0  0  0  0  0  0  0  0  0  0
  1  2  1  0  0  0  0
  1 26  1  0  0  0  0
  1 27  1  0  0  0  0
  1 28  1  0  0  0  0
  2  3  1  0  0  0  0
  2 29  1  0  0  0  0
  2 30  1  0  0  0  0
  3 25  1  0  0  0  0
  3  4  1  0  0  0  0
  3 57  1  0  0  0  0
  4  5  1  0  0  0  0
  4 31  1  0  0  0  0
  4 32  1  0  0  0  0
  5  6  1  0  0  0  0
  5 33  1  0  0  0  0
  5 34  1  0  0  0  0
  6  7  1  0  0  0  0
  7  8  1  0  0  0  0
  7 25  1  0  0  0  0
  7 35  1  0  0  0  0
  8  9  1  0  0  0  0
  8 36  1  0  0  0  0
  8 37  1  0  0  0  0
  9 10  1  0  0  0  0
  9 38  1  0  0  0  0
  9 56  1  0  0  0  0
 10 11  1  0  0  0  0
 10 39  1  0  0  0  0
 10 40  1  0  0  0  0
 11 12  1  0  0  0  0
 11 13  1  0  0  0  0
 11 41  1  0  0  0  0
 12 42  1  0  0  0  0
 13 14  1  0  0  0  0
 13 43  1  0  0  0  0
 13 44  1  0  0  0  0
 14 24  1  0  0  0  0
 14 15  1  0  0  0  0
 15 16  2  0  0  0  0
 15 45  1  0  0  0  0
 16 17  1  0  0  0  0
 17 24  2  0  0  0  0
 17 18  1  0  0  0  0
 18 19  2  0  0  0  0
 18 46  1  0  0  0  0
 19 20  1  0  0  0  0
 19 21  1  0  0  0  0
 20 47  1  0  0  0  0
 20 48  1  0  0  0  0
 20 49  1  0  0  0  0
 21 22  1  0  0  0  0
 21 23  2  0  0  0  0
 22 50  1  0  0  0  0
 22 51  1  0  0  0  0
 22 52  1  0  0  0  0
 23 24  1  0  0  0  0
 23 53  1  0  0  0  0
 25 54  1  0  0  0  0
 25 55  1  0  0  0  0
M  CHG  1   3   1
M  CHG  1   9   1
M  END
> <s_m_source_file>
AV-unprocessed.smi

> <i_m_source_file_index>
1047

> <i_lp_mmshare_version>
43012

> <i_f3d_flags>
0

> <s_epik_input>
W0NIM11bQ0gyXU4xW0NIMl1bQ0gyXU9bQ0BIXShbQ0gyXTEpW0NIMl1bTkhdW0NIMl1bQ0BIXShbT0hdKVtDSDJdbihbY0hdbjIpYyhjMjMpW2NIXWMoW0NIM10pYyhbY0hdMylbQ0gzXQ==

> <s_epik_cmdline>
J2VwaWtfcHl0aG9uJywgJy1waCcsICc3LjAnLCAnLXRuJywgJzgnLCAnLW1hJywgJzIwMCcsICctbWV0YWxfYmluZGluZycsICctaW1hZScsICc8aW5maWxlLm1hZT4nLCAnLW9tYWUnLCAnPG91dGZpbGUubWFlPic=

> <r_epik_Ionization_Penalty>
0.528991

> <r_epik_Ionization_Penalty_Charging>
0.438567

> <r_epik_Ionization_Penalty_Neutral>
0.0904237

> <r_epik_State_Penalty>
0.533036

> <r_epik_Charging_Adjusted_Penalty>
0.971603

> <i_epik_Tot_Q>
2

> <i_epik_Tot_abs_Q>
2

> <r_epik_Metal_State_Penalty>
0.448985

> <b_epik_Metal_Only>
0

> <s_lp_Force_Field>
OPLS_2005

> <r_lp_Energy>
30.7538

> <b_lp_Chiralities_Consistent>
1

> <s_lp_Variant>
AV-unprocessed.smi:1047-3

> <Gold.Version>
5.8.1

> <Gold.Id.Protein>
6NUR|6NUR_protein|mol2

> <Gold.PLP.Fitness>
57.7252

> <Gold.PLP.PLP>
-42.1501

> <Gold.PLP.part.hbond>
-2.7839

> <Gold.PLP.part.metal>
0.0000

> <Gold.PLP.part.buried>
2.6645

> <Gold.PLP.part.nonpolar>
-43.3327

> <Gold.PLP.part.repulsive>
0.1771

> <Gold.PLP.ligand.clash>
0.0000

> <Gold.PLP.ligand.torsion>
0.7589

> <Gold.PLP.Chemscore.Hbond>
4.4056

> <Gold.PLP.Chemscore.CHOScore>
1.0728

> <Gold.PLP.Chemscore.Metal>
0.0000

> <Gold.Chemscore.Hbonds>
donor molecule, donor type, donor heavy atom, donor atom, acceptor molecule, acceptor atom, score
      L1  H     3    57       P1 10186  1.46
      L1  H     9    56       P1  7948  2.00
      L1  C    15    45       P1  7948  0.08
      L1  C    15    45       P1  7949  1.00

> <Gold.PLP.Chemscore.Internal.Correction>
0.6577

> <Gold.Rescore>
     Score         DG    S(hbond)    S(metal)    S(lipo)     H(rot)  DE(clash)    DE(int)     intcor
     15.97     -19.68       2.03        0.00     122.48       2.70       2.98       0.73       ----

> <Gold.Chemscore.Fitness>
15.9719

> <Gold.Chemscore.DG>
-19.6771

> <Gold.Chemscore.ZeroCoef>
-5.4800

> <Gold.Chemscore.Hbond>
2.0286

> <Gold.Chemscore.Metal>
0.0000

> <Gold.Chemscore.Lipo>
122.4765

> <Gold.Chemscore.Internal_Hbond>
0.0000

> <Gold.Chemscore.DEClash>
2.9779

> <Gold.Chemscore.DEInternal>
0.7273

> <Gold.Chemscore.Rot>
2.6985

> <Gold.Chemscore.Internal.Correction>
   9.000000E+99

> <Gold.Chemscore.Hbonds>
donor molecule, donor type, donor heavy atom, donor atom, acceptor molecule, acceptor atom, score
      L1  H     3    57       P1 10186  0.62
      L1  H     9    56       P1  7948  0.98

> <Gold.Chemscore.Hbond.Weighted>
-6.7755

> <Gold.Chemscore.Metal.Weighted>
-0.0000

> <Gold.Chemscore.Lipo.Weighted>
-14.3297

> <Gold.Chemscore.Internal_Hbond.Weighted>
0.0000

> <Gold.Chemscore.DEClash.Weighted>
2.9779

> <Gold.Chemscore.DEInternal.Weighted>
0.7273

> <Gold.Chemscore.Rot.Weighted>
6.9081

> <Gold.Chemscore.Internal.Correction.Weighted>
   9.000000E+99

> <Gold.Protein.RotatedTorsions>
[ 6907 6896 6895 6894 ] final   -7.70 input  -60.11 | X-H torsion
[ 7974 7965 7964 7962 ] final  -35.65 input  175.53 | X-H torsion
[ 8008 7997 7996 7995 ] final   36.85 input   59.86 | X-H torsion
[ 10167 10162 10161 10158 ] final   24.61 input  -65.29 | X-H torsion
[ 10718 10713 10712 10709 ] final   23.57 input   66.30 | X-H torsion
[ 10763 10752 10751 10750 ] final   76.31 input  -60.55 | X-H torsion
[ 11005 11000 10999 10996 ] final -156.24 input  -57.11 | X-H torsion

> <Gold.Protein.ActiveResidues>
 VAL166  LYS551  ARG553  GLY616  TRP617  ASP618  TYR619  PRO620  LYS621  CYS622 
 ASP623  PHE694  ASN695  SER759  ASP760  ASP761  ALA762  ILE779  LEU786  VAL792 
 PHE793  MET794  SER795  GLU796  ALA797  LYS798  CYS799  TRP800  GLU811  SER814 

> <Gold.Protein.RotatedAtoms>
  151.4455  135.1024  159.9682 H   0  0  0  0  0  0  0  0  0  0  0  0  # atno 6907 bound_to 6896
  152.4907  133.8489  159.7202 H   0  0  0  0  0  0  0  0  0  0  0  0  # atno 6908 bound_to 6896
  150.9058  133.7000  159.2894 H   0  0  0  0  0  0  0  0  0  0  0  0  # atno 6909 bound_to 6896
  146.0729  140.6184  142.8944 H   0  0  0  0  0  0  0  0  0  0  0  0  # atno 7974 bound_to 7965
  155.1941  140.3310  155.4353 H   0  0  0  0  0  0  0  0  0  0  0  0  # atno 8008 bound_to 7997
  156.2431  140.1905  156.6982 H   0  0  0  0  0  0  0  0  0  0  0  0  # atno 8009 bound_to 7997
  154.6185  140.0599  156.9571 H   0  0  0  0  0  0  0  0  0  0  0  0  # atno 8010 bound_to 7997
  140.5174  144.0060  150.6400 H   0  0  0  0  0  0  0  0  0  0  0  0  # atno 10167 bound_to 10162
  157.1679  130.6746  149.6067 H   0  0  0  0  0  0  0  0  0  0  0  0  # atno 10718 bound_to 10713
  153.0717  135.4956  154.8318 H   0  0  0  0  0  0  0  0  0  0  0  0  # atno 10763 bound_to 10752
  154.7031  135.3005  154.9314 H   0  0  0  0  0  0  0  0  0  0  0  0  # atno 10764 bound_to 10752
  154.0031  135.6764  153.4813 H   0  0  0  0  0  0  0  0  0  0  0  0  # atno 10765 bound_to 10752
  140.6777  134.4178  157.5228 H   0  0  0  0  0  0  0  0  0  0  0  0  # atno 11005 bound_to 11000
  144.7243  140.4474  143.6985 LP  0  0  0  0  0  0  0  0  0  0  0  0  # atno 17320 bound_to 7965
  145.6359  139.1543  143.2943 LP  0  0  0  0  0  0  0  0  0  0  0  0  # atno 17321 bound_to 7965
  140.3399  143.3026  152.0599 LP  0  0  0  0  0  0  0  0  0  0  0  0  # atno 17342 bound_to 10162
  139.4913  144.6450  151.6798 LP  0  0  0  0  0  0  0  0  0  0  0  0  # atno 17343 bound_to 10162
  155.9743  130.4689  150.6377 LP  0  0  0  0  0  0  0  0  0  0  0  0  # atno 17370 bound_to 10713
  157.4071  131.0818  151.1255 LP  0  0  0  0  0  0  0  0  0  0  0  0  # atno 17371 bound_to 10713
  139.8961  134.8667  156.2101 LP  0  0  0  0  0  0  0  0  0  0  0  0  # atno 17394 bound_to 11000
  141.0342  133.6972  156.1483 LP  0  0  0  0  0  0  0  0  0  0  0  0  # atno 17395 bound_to 11000

$$$$
