AV-unprocessed.smi:1769|AV-procd|sdf|7151|dock3
  -GOLD-   22720 8393D 1   1.00000     0.00000
 Structure written by MMmdl.
 41 42  0  0  0  0  0  0  0  0  1 V2000
  153.0863  137.7909  155.8970 C   0  0  0  0  0  0  0  0  0  0  0  0
  152.1938  138.8273  155.2105 C   0  0  0  0  0  0  0  0  0  0  0  0
  152.5193  140.0121  155.2870 O   0  0  0  0  0  0  0  0  0  0  0  0
  151.0886  138.4130  154.5452 N   0  0  0  0  0  0  0  0  0  0  0  0
  150.0986  139.2942  153.9127 C   0  0  0  0  0  0  0  0  0  0  0  0
  148.8040  139.2550  154.7442 C   0  0  0  0  0  0  0  0  0  0  0  0
  148.2876  137.8108  154.8911 C   0  0  0  0  0  0  0  0  0  0  0  0
  149.3955  136.8503  155.3857 C   0  0  1  0  0  0  0  0  0  0  0  0
  148.9073  135.3956  155.3866 C   0  0  0  0  0  0  0  0  0  0  0  0
  148.7077  134.8082  156.4504 O   0  0  0  0  0  0  0  0  0  0  0  0
  148.7207  134.8248  154.1864 N   0  0  0  0  0  0  0  0  0  0  0  0
  148.2735  133.4538  153.9733 C   0  0  0  0  0  0  0  0  0  0  0  0
  148.2724  133.0874  152.4807 C   0  0  0  0  0  0  0  0  0  0  0  0
  146.8893  133.1944  151.8698 C   0  0  0  0  0  0  0  0  0  0  0  0
  146.2197  132.0487  151.3935 C   0  0  0  0  0  0  0  0  0  0  0  0
  144.9338  132.1968  150.8391 C   0  0  0  0  0  0  0  0  0  0  0  0
  144.3705  133.4875  150.7863 C   0  0  0  0  0  0  0  0  0  0  0  0
  145.0022  134.5915  151.2401 N   0  0  0  0  0  0  0  0  0  0  0  0
  146.2357  134.4411  151.7691 C   0  0  0  0  0  0  0  0  0  0  0  0
  150.6615  137.0083  154.5128 C   0  0  0  0  0  0  0  0  0  0  0  0
  153.4572  137.0609  155.1768 H   0  0  0  0  0  0  0  0  0  0  0  0
  152.5380  137.2691  156.6821 H   0  0  0  0  0  0  0  0  0  0  0  0
  153.9501  138.2719  156.3575 H   0  0  0  0  0  0  0  0  0  0  0  0
  150.4367  140.3230  153.7993 H   0  0  0  0  0  0  0  0  0  0  0  0
  149.9007  138.9410  152.8996 H   0  0  0  0  0  0  0  0  0  0  0  0
  148.9925  139.6792  155.7313 H   0  0  0  0  0  0  0  0  0  0  0  0
  148.0398  139.8784  154.2793 H   0  0  0  0  0  0  0  0  0  0  0  0
  147.4374  137.7913  155.5741 H   0  0  0  0  0  0  0  0  0  0  0  0
  147.9107  137.4763  153.9232 H   0  0  0  0  0  0  0  0  0  0  0  0
  149.6534  137.1281  156.4096 H   0  0  0  0  0  0  0  0  0  0  0  0
  148.9048  135.3788  153.3625 H   0  0  0  0  0  0  0  0  0  0  0  0
  148.9024  132.7625  154.5371 H   0  0  0  0  0  0  0  0  0  0  0  0
  147.2664  133.3588  154.3805 H   0  0  0  0  0  0  0  0  0  0  0  0
  148.9542  133.7401  151.9338 H   0  0  0  0  0  0  0  0  0  0  0  0
  148.6407  132.0703  152.3394 H   0  0  0  0  0  0  0  0  0  0  0  0
  146.6808  131.0736  151.4530 H   0  0  0  0  0  0  0  0  0  0  0  0
  144.3915  131.3417  150.4640 H   0  0  0  0  0  0  0  0  0  0  0  0
  143.3857  133.6370  150.3690 H   0  0  0  0  0  0  0  0  0  0  0  0
  146.7133  135.3422  152.1252 H   0  0  0  0  0  0  0  0  0  0  0  0
  150.4546  136.7240  153.4796 H   0  0  0  0  0  0  0  0  0  0  0  0
  151.4433  136.3273  154.8533 H   0  0  0  0  0  0  0  0  0  0  0  0
  1  2  1  0  0  0  0
  1 21  1  0  0  0  0
  1 22  1  0  0  0  0
  1 23  1  0  0  0  0
  2  3  2  0  0  0  0
  2  4  1  0  0  0  0
  4 20  1  0  0  0  0
  4  5  1  0  0  0  0
  5  6  1  0  0  0  0
  5 24  1  0  0  0  0
  5 25  1  0  0  0  0
  6  7  1  0  0  0  0
  6 26  1  0  0  0  0
  6 27  1  0  0  0  0
  7  8  1  0  0  0  0
  7 28  1  0  0  0  0
  7 29  1  0  0  0  0
  8  9  1  0  0  0  0
  8 20  1  0  0  0  0
  8 30  1  0  0  0  0
  9 10  2  0  0  0  0
  9 11  1  0  0  0  0
 11 12  1  0  0  0  0
 11 31  1  0  0  0  0
 12 13  1  0  0  0  0
 12 32  1  0  0  0  0
 12 33  1  0  0  0  0
 13 14  1  0  0  0  0
 13 34  1  0  0  0  0
 13 35  1  0  0  0  0
 14 19  1  0  0  0  0
 14 15  2  0  0  0  0
 15 16  1  0  0  0  0
 15 36  1  0  0  0  0
 16 17  2  0  0  0  0
 16 37  1  0  0  0  0
 17 18  1  0  0  0  0
 17 38  1  0  0  0  0
 18 19  2  0  0  0  0
 19 39  1  0  0  0  0
 20 40  1  0  0  0  0
 20 41  1  0  0  0  0
M  END
> <s_m_source_file>
AV-unprocessed.smi

> <i_m_source_file_index>
1769

> <i_lp_mmshare_version>
43012

> <i_f3d_flags>
0

> <s_epik_input>
W0NIM11DKD1PKU4xW0NIMl1bQ0gyXVtDSDJdW0NASF0oW0NIMl0xKUMoPU8pW05IXVtDSDJdW0NIMl1jMltjSF1bY0hdW2NIXW5bY0hdMg==

> <s_epik_cmdline>
J2VwaWtfcHl0aG9uJywgJy1waCcsICc3LjAnLCAnLXRuJywgJzgnLCAnLW1hJywgJzIwMCcsICctbWV0YWxfYmluZGluZycsICctaW1hZScsICc8aW5maWxlLm1hZT4nLCAnLW9tYWUnLCAnPG91dGZpbGUubWFlPic=

> <r_epik_Ionization_Penalty>
0.0134099

> <r_epik_Ionization_Penalty_Charging>
0

> <r_epik_Ionization_Penalty_Neutral>
0.0134099

> <r_epik_State_Penalty>
0.010434

> <r_epik_Charging_Adjusted_Penalty>
0.010434

> <i_epik_Tot_Q>
0

> <i_epik_Tot_abs_Q>
0

> <r_epik_Metal_State_Penalty>
0.0102025

> <b_epik_Metal_Only>
0

> <s_lp_Force_Field>
OPLS_2005

> <r_lp_Energy>
22.5889

> <b_lp_Chiralities_Consistent>
1

> <s_lp_Variant>
AV-unprocessed.smi:1769-1

> <Gold.Version>
5.8.1

> <Gold.Id.Protein>
6NUR|6NUR_protein|mol2

> <Gold.PLP.Fitness>
43.1572

> <Gold.PLP.PLP>
-30.8300

> <Gold.PLP.part.hbond>
-3.0000

> <Gold.PLP.part.metal>
0.0000

> <Gold.PLP.part.buried>
0.8378

> <Gold.PLP.part.nonpolar>
-28.5363

> <Gold.PLP.part.repulsive>
0.1774

> <Gold.PLP.ligand.clash>
0.0000

> <Gold.PLP.ligand.torsion>
0.4662

> <Gold.PLP.Chemscore.Hbond>
2.4051

> <Gold.PLP.Chemscore.CHOScore>
2.0000

> <Gold.PLP.Chemscore.Metal>
0.0000

> <Gold.Chemscore.Hbonds>
donor molecule, donor type, donor heavy atom, donor atom, acceptor molecule, acceptor atom, score
      L1  H    11    31       P1  7948  1.00
      P1  H  7989  7998       L1     3  0.42
      P1  H  7997  8008       L1     3  1.00
      L1  C    17    38       P1 10186  0.74
      L1  C    19    39       P1  7948  1.00

> <Gold.PLP.Chemscore.Internal.Correction>
0.0444

> <Gold.Rescore>
     Score         DG    S(hbond)    S(metal)    S(lipo)     H(rot)  DE(clash)    DE(int)     intcor
     15.41     -17.37       2.03        0.00      77.03       1.52       1.46       0.51       ----

> <Gold.Chemscore.Fitness>
15.4080

> <Gold.Chemscore.DG>
-17.3740

> <Gold.Chemscore.ZeroCoef>
-5.4800

> <Gold.Chemscore.Hbond>
2.0282

> <Gold.Chemscore.Metal>
0.0000

> <Gold.Chemscore.Lipo>
77.0283

> <Gold.Chemscore.Internal_Hbond>
0.0000

> <Gold.Chemscore.DEClash>
1.4607

> <Gold.Chemscore.DEInternal>
0.5052

> <Gold.Chemscore.Rot>
1.5205

> <Gold.Chemscore.Internal.Correction>
   9.000000E+99

> <Gold.Chemscore.Hbonds>
donor molecule, donor type, donor heavy atom, donor atom, acceptor molecule, acceptor atom, score
      L1  H    11    31       P1  7948  0.70
      P1  H  7989  7998       L1     3  0.18
      P1  H  7997  8008       L1     3  0.70

> <Gold.Chemscore.Hbond.Weighted>
-6.7742

> <Gold.Chemscore.Metal.Weighted>
-0.0000

> <Gold.Chemscore.Lipo.Weighted>
-9.0123

> <Gold.Chemscore.Internal_Hbond.Weighted>
0.0000

> <Gold.Chemscore.DEClash.Weighted>
1.4607

> <Gold.Chemscore.DEInternal.Weighted>
0.5052

> <Gold.Chemscore.Rot.Weighted>
3.8926

> <Gold.Chemscore.Internal.Correction.Weighted>
   9.000000E+99

> <Gold.Protein.RotatedTorsions>
[ 6907 6896 6895 6894 ] final -109.74 input  -60.11 | X-H torsion
[ 7974 7965 7964 7962 ] final -106.04 input  175.53 | X-H torsion
[ 8008 7997 7996 7995 ] final  -25.97 input   59.86 | X-H torsion
[ 10167 10162 10161 10158 ] final  128.08 input  -65.29 | X-H torsion
[ 10718 10713 10712 10709 ] final -128.03 input   66.30 | X-H torsion
[ 10763 10752 10751 10750 ] final   29.48 input  -60.55 | X-H torsion
[ 11005 11000 10999 10996 ] final  -77.71 input  -57.11 | X-H torsion

> <Gold.Protein.ActiveResidues>
 VAL166  LYS551  ARG553  GLY616  TRP617  ASP618  TYR619  PRO620  LYS621  CYS622 
 ASP623  PHE694  ASN695  SER759  ASP760  ASP761  ALA762  ILE779  LEU786  VAL792 
 PHE793  MET794  SER795  GLU796  ALA797  LYS798  CYS799  TRP800  GLU811  SER814 

> <Gold.Protein.RotatedAtoms>
  150.7581  133.9484  159.3477 H   0  0  0  0  0  0  0  0  0  0  0  0  # atno 6907 bound_to 6896
  151.7399  135.0854  160.0323 H   0  0  0  0  0  0  0  0  0  0  0  0  # atno 6908 bound_to 6896
  152.3535  133.6171  159.5998 H   0  0  0  0  0  0  0  0  0  0  0  0  # atno 6909 bound_to 6896
  145.2229  140.9141  143.3249 H   0  0  0  0  0  0  0  0  0  0  0  0  # atno 7974 bound_to 7965
  154.4448  140.1912  156.0703 H   0  0  0  0  0  0  0  0  0  0  0  0  # atno 8008 bound_to 7997
  156.0516  140.3308  155.7331 H   0  0  0  0  0  0  0  0  0  0  0  0  # atno 8009 bound_to 7997
  155.5548  140.0598  157.2833 H   0  0  0  0  0  0  0  0  0  0  0  0  # atno 8010 bound_to 7997
  139.5545  144.6838  151.4223 H   0  0  0  0  0  0  0  0  0  0  0  0  # atno 10167 bound_to 10162
  156.1913  130.6797  151.0427 H   0  0  0  0  0  0  0  0  0  0  0  0  # atno 10718 bound_to 10713
  153.0428  135.6488  154.0898 H   0  0  0  0  0  0  0  0  0  0  0  0  # atno 10763 bound_to 10752
  154.0601  135.2888  155.3328 H   0  0  0  0  0  0  0  0  0  0  0  0  # atno 10764 bound_to 10752
  154.6663  135.5373  153.8147 H   0  0  0  0  0  0  0  0  0  0  0  0  # atno 10765 bound_to 10752
  141.1661  133.7033  156.7861 H   0  0  0  0  0  0  0  0  0  0  0  0  # atno 11005 bound_to 11000
  144.9749  139.3842  143.6291 LP  0  0  0  0  0  0  0  0  0  0  0  0  # atno 17320 bound_to 7965
  146.3372  139.8863  142.8816 LP  0  0  0  0  0  0  0  0  0  0  0  0  # atno 17321 bound_to 7965
  140.6815  143.8071  150.7128 LP  0  0  0  0  0  0  0  0  0  0  0  0  # atno 17342 bound_to 10162
  140.1525  143.4345  152.2121 LP  0  0  0  0  0  0  0  0  0  0  0  0  # atno 17343 bound_to 10162
  157.6930  131.0803  150.7051 LP  0  0  0  0  0  0  0  0  0  0  0  0  # atno 17370 bound_to 10713
  156.7107  130.4651  149.5548 LP  0  0  0  0  0  0  0  0  0  0  0  0  # atno 17371 bound_to 10713
  140.2359  134.8650  157.3524 LP  0  0  0  0  0  0  0  0  0  0  0  0  # atno 17394 bound_to 11000
  140.1844  134.4449  155.7752 LP  0  0  0  0  0  0  0  0  0  0  0  0  # atno 17395 bound_to 11000

$$$$
