AV-unprocessed.smi:20|AV-procd|sdf|118|dock9
  -GOLD-   2262015293D 1   1.00000     0.00000
 Structure written by MMmdl.
 57 61  0  0  0  0  0  0  0  0  1 V2000
  149.9902  145.6885  160.2691 O   0  0  0  0  0  0  0  0  0  0  0  0
  150.9533  144.9511  160.0723 C   0  0  0  0  0  0  0  0  0  0  0  0
  151.2467  143.7074  160.8951 C   0  0  0  0  0  0  0  0  0  0  0  0
  152.2889  142.9517  160.0423 C   0  0  1  0  0  0  0  0  0  0  0  0
  153.3408  142.2364  160.9202 C   0  0  0  0  0  0  0  0  0  0  0  0
  154.3093  141.3986  160.0707 C   0  0  0  0  0  0  0  0  0  0  0  0
  153.5456  140.4018  159.1876 C   0  0  0  0  0  0  0  0  0  0  0  0
  152.5270  141.0883  158.3933 N   0  0  0  0  0  0  0  0  0  0  0  0
  152.1018  140.4406  157.2776 C   0  0  0  0  0  0  0  0  0  0  0  0
  152.8443  139.3853  156.8517 N   0  0  0  0  0  0  0  0  0  0  0  0
  152.4939  138.7037  155.7580 C   0  0  0  0  0  0  0  0  0  0  0  0
  151.4524  138.9032  154.9499 N   0  0  0  0  0  0  0  0  0  0  0  0
  150.6981  139.9582  155.3701 C   0  0  0  0  0  0  0  0  0  0  0  0
  150.9447  140.7765  156.5106 C   0  0  0  0  0  0  0  0  0  0  0  0
  149.9454  141.7402  156.6123 N   0  0  0  0  0  0  0  0  0  0  0  0
  149.1645  141.5105  155.5928 C   0  0  0  0  0  0  0  0  0  0  0  0
  149.5464  140.4597  154.7920 N   0  0  0  0  0  0  0  0  0  0  0  0
  148.8702  139.9787  153.6003 C   0  0  0  0  0  0  0  0  0  0  0  0
  147.4560  139.4160  153.8875 C   0  0  2  0  0  0  0  0  0  0  0  0
  146.9582  138.4618  152.7751 C   0  0  0  0  0  0  0  0  0  0  0  0
  146.9302  139.1047  151.5171 O   0  0  0  0  0  0  0  0  0  0  0  0
  146.4445  140.5494  154.1932 C   0  0  1  0  0  0  0  0  0  0  0  0
  146.2332  140.8389  155.6688 C   0  0  0  0  0  0  0  0  0  0  0  0
  145.6124  142.2307  155.6374 C   0  0  0  0  0  0  0  0  0  0  0  0
  146.2002  142.8850  154.5193 O   0  0  0  0  0  0  0  0  0  0  0  0
  146.8725  141.9356  153.6974 C   0  0  0  0  0  0  0  0  0  0  0  0
  151.5756  141.9079  159.1433 C   0  0  0  0  0  0  0  0  0  0  0  0
  152.9022  144.0808  159.1760 C   0  0  0  0  0  0  0  0  0  0  0  0
  151.8824  145.1110  159.1329 N   0  0  0  0  0  0  0  0  0  0  0  0
  151.6586  144.0179  161.8561 H   0  0  0  0  0  0  0  0  0  0  0  0
  150.3439  143.1253  161.0832 H   0  0  0  0  0  0  0  0  0  0  0  0
  153.8996  142.9597  161.5153 H   0  0  0  0  0  0  0  0  0  0  0  0
  152.8351  141.5824  161.6318 H   0  0  0  0  0  0  0  0  0  0  0  0
  154.9134  142.0546  159.4429 H   0  0  0  0  0  0  0  0  0  0  0  0
  155.0059  140.8634  160.7163 H   0  0  0  0  0  0  0  0  0  0  0  0
  154.2571  139.8665  158.5585 H   0  0  0  0  0  0  0  0  0  0  0  0
  153.0534  139.6536  159.8101 H   0  0  0  0  0  0  0  0  0  0  0  0
  153.1411  137.8806  155.4921 H   0  0  0  0  0  0  0  0  0  0  0  0
  148.2857  142.1066  155.3935 H   0  0  0  0  0  0  0  0  0  0  0  0
  148.8192  140.8085  152.8954 H   0  0  0  0  0  0  0  0  0  0  0  0
  149.4938  139.2160  153.1321 H   0  0  0  0  0  0  0  0  0  0  0  0
  147.5354  138.8110  154.7919 H   0  0  0  0  0  0  0  0  0  0  0  0
  147.5942  137.5793  152.7038 H   0  0  0  0  0  0  0  0  0  0  0  0
  145.9589  138.0901  153.0006 H   0  0  0  0  0  0  0  0  0  0  0  0
  147.7295  139.5984  151.4137 H   0  0  0  0  0  0  0  0  0  0  0  0
  145.4779  140.3081  153.7475 H   0  0  0  0  0  0  0  0  0  0  0  0
  145.5919  140.1099  156.1647 H   0  0  0  0  0  0  0  0  0  0  0  0
  147.1894  140.8681  156.1937 H   0  0  0  0  0  0  0  0  0  0  0  0
  144.5362  142.1631  155.4743 H   0  0  0  0  0  0  0  0  0  0  0  0
  145.7816  142.7856  156.5606 H   0  0  0  0  0  0  0  0  0  0  0  0
  147.9469  142.0782  153.8232 H   0  0  0  0  0  0  0  0  0  0  0  0
  146.6338  142.0929  152.6453 H   0  0  0  0  0  0  0  0  0  0  0  0
  150.9665  141.2457  159.7600 H   0  0  0  0  0  0  0  0  0  0  0  0
  150.8999  142.4186  158.4558 H   0  0  0  0  0  0  0  0  0  0  0  0
  153.7955  144.5025  159.6389 H   0  0  0  0  0  0  0  0  0  0  0  0
  153.1718  143.7534  158.1715 H   0  0  0  0  0  0  0  0  0  0  0  0
  151.8952  145.8690  158.4659 H   0  0  0  0  0  0  0  0  0  0  0  0
  1  2  2  0  0  0  0
  2 29  1  0  0  0  0
  2  3  1  0  0  0  0
  3  4  1  0  0  0  0
  3 30  1  0  0  0  0
  3 31  1  0  0  0  0
  4 27  1  0  0  0  0
  4  5  1  0  0  0  0
  4 28  1  0  0  0  0
  5  6  1  0  0  0  0
  5 32  1  0  0  0  0
  5 33  1  0  0  0  0
  6  7  1  0  0  0  0
  6 34  1  0  0  0  0
  6 35  1  0  0  0  0
  7  8  1  0  0  0  0
  7 36  1  0  0  0  0
  7 37  1  0  0  0  0
  8  9  1  0  0  0  0
  8 27  1  0  0  0  0
  9 14  1  0  0  0  0
  9 10  2  0  0  0  0
 10 11  1  0  0  0  0
 11 12  2  0  0  0  0
 11 38  1  0  0  0  0
 12 13  1  0  0  0  0
 13 17  1  0  0  0  0
 13 14  2  0  0  0  0
 14 15  1  0  0  0  0
 15 16  2  0  0  0  0
 16 17  1  0  0  0  0
 16 39  1  0  0  0  0
 17 18  1  0  0  0  0
 18 19  1  0  0  0  0
 18 40  1  0  0  0  0
 18 41  1  0  0  0  0
 19 20  1  0  0  0  0
 19 22  1  0  0  0  0
 19 42  1  0  0  0  0
 20 21  1  0  0  0  0
 20 43  1  0  0  0  0
 20 44  1  0  0  0  0
 21 45  1  0  0  0  0
 22 26  1  0  0  0  0
 22 23  1  0  0  0  0
 22 46  1  0  0  0  0
 23 24  1  0  0  0  0
 23 47  1  0  0  0  0
 23 48  1  0  0  0  0
 24 25  1  0  0  0  0
 24 49  1  0  0  0  0
 24 50  1  0  0  0  0
 25 26  1  0  0  0  0
 26 51  1  0  0  0  0
 26 52  1  0  0  0  0
 27 53  1  0  0  0  0
 27 54  1  0  0  0  0
 28 29  1  0  0  0  0
 28 55  1  0  0  0  0
 28 56  1  0  0  0  0
 29 57  1  0  0  0  0
M  END
> <s_m_source_file>
AV-unprocessed.smi

> <i_m_source_file_index>
20

> <i_lp_mmshare_version>
43012

> <i_f3d_flags>
0

> <s_epik_input>
W0NIMl0xW05IXUMoPU8pW0NIMl1bQ0BAXTEyW0NIMl1bQ0gyXVtDSDJdTihbQ0gyXTIpYyhuW2NIXW4zKWMoYzM0KW5bY0hdbjRbQ0gyXVtDQEhdKFtDSDJdW09IXSlbQ0BASF01W0NIMl1bQ0gyXU9bQ0gyXTU=

> <s_epik_cmdline>
J2VwaWtfcHl0aG9uJywgJy1waCcsICc3LjAnLCAnLXRuJywgJzgnLCAnLW1hJywgJzIwMCcsICctbWV0YWxfYmluZGluZycsICctaW1hZScsICc8aW5maWxlLm1hZT4nLCAnLW9tYWUnLCAnPG91dGZpbGUubWFlPic=

> <r_lp_tautomer_probability>
1

> <r_epik_Ionization_Penalty>
0.0019697

> <r_epik_Ionization_Penalty_Charging>
0

> <r_epik_Ionization_Penalty_Neutral>
0.0019697

> <r_epik_State_Penalty>
0.00113613

> <r_epik_Charging_Adjusted_Penalty>
0.00113613

> <i_epik_Tot_Q>
0

> <i_epik_Tot_abs_Q>
0

> <r_epik_Metal_State_Penalty>
-0

> <b_epik_Metal_Only>
0

> <s_lp_Force_Field>
OPLS_2005

> <r_lp_Energy>
59.1367

> <b_lp_Chiralities_Consistent>
1

> <s_lp_Variant>
AV-unprocessed.smi:20-6

> <Gold.Version>
5.8.1

> <Gold.Id.Protein>
6NUR|6NUR_protein|mol2

> <Gold.PLP.Fitness>
57.9791

> <Gold.PLP.PLP>
-52.4694

> <Gold.PLP.part.hbond>
-3.6133

> <Gold.PLP.part.metal>
0.0000

> <Gold.PLP.part.buried>
-1.0757

> <Gold.PLP.part.nonpolar>
-47.3105

> <Gold.PLP.part.repulsive>
0.8126

> <Gold.PLP.ligand.clash>
0.0000

> <Gold.PLP.ligand.torsion>
1.4908

> <Gold.PLP.Chemscore.Hbond>
2.0000

> <Gold.PLP.Chemscore.CHOScore>
0.6966

> <Gold.PLP.Chemscore.Metal>
0.0000

> <Gold.Chemscore.Hbonds>
donor molecule, donor type, donor heavy atom, donor atom, acceptor molecule, acceptor atom, score
      L1  H    21    45       P1  7957  1.00
      P1  H  7997  8010       L1    10  1.00
      L1  C    16    39       P1  8028  0.38

> <Gold.PLP.Chemscore.Internal.Correction>
0.4015

> <Gold.Rescore>
     Score         DG    S(hbond)    S(metal)    S(lipo)     H(rot)  DE(clash)    DE(int)     intcor
     10.52     -16.19       0.99        0.00     116.49       2.43       2.64       3.03       ----

> <Gold.Chemscore.Fitness>
10.5180

> <Gold.Chemscore.DG>
-16.1887

> <Gold.Chemscore.ZeroCoef>
-5.4800

> <Gold.Chemscore.Hbond>
0.9889

> <Gold.Chemscore.Metal>
0.0000

> <Gold.Chemscore.Lipo>
116.4856

> <Gold.Chemscore.Internal_Hbond>
0.0000

> <Gold.Chemscore.DEClash>
2.6370

> <Gold.Chemscore.DEInternal>
3.0338

> <Gold.Chemscore.Rot>
2.4309

> <Gold.Chemscore.Internal.Correction>
   9.000000E+99

> <Gold.Chemscore.Hbonds>
donor molecule, donor type, donor heavy atom, donor atom, acceptor molecule, acceptor atom, score
      L1  H    21    45       P1  7957  0.98
      P1  H  7997  8010       L1    10  0.15

> <Gold.Chemscore.Hbond.Weighted>
-3.3030

> <Gold.Chemscore.Metal.Weighted>
-0.0000

> <Gold.Chemscore.Lipo.Weighted>
-13.6288

> <Gold.Chemscore.Internal_Hbond.Weighted>
0.0000

> <Gold.Chemscore.DEClash.Weighted>
2.6370

> <Gold.Chemscore.DEInternal.Weighted>
3.0338

> <Gold.Chemscore.Rot.Weighted>
6.2231

> <Gold.Chemscore.Internal.Correction.Weighted>
   9.000000E+99

> <Gold.Protein.RotatedTorsions>
[ 6907 6896 6895 6894 ] final -107.88 input  -60.11 | X-H torsion
[ 7974 7965 7964 7962 ] final   -4.79 input  175.53 | X-H torsion
[ 8008 7997 7996 7995 ] final   77.91 input   59.86 | X-H torsion
[ 10167 10162 10161 10158 ] final  -55.46 input  -65.29 | X-H torsion
[ 10718 10713 10712 10709 ] final  -76.89 input   66.30 | X-H torsion
[ 10763 10752 10751 10750 ] final -124.19 input  -60.55 | X-H torsion
[ 11005 11000 10999 10996 ] final -153.81 input  -57.11 | X-H torsion

> <Gold.Protein.ActiveResidues>
 VAL166  LYS551  ARG553  GLY616  TRP617  ASP618  TYR619  PRO620  LYS621  CYS622 
 ASP623  PHE694  ASN695  SER759  ASP760  ASP761  ALA762  ILE779  LEU786  VAL792 
 PHE793  MET794  SER795  GLU796  ALA797  LYS798  CYS799  TRP800  GLU811  SER814 

> <Gold.Protein.RotatedAtoms>
  150.7469  133.9761  159.3560 H   0  0  0  0  0  0  0  0  0  0  0  0  # atno 6907 bound_to 6896
  151.7698  135.0787  160.0367 H   0  0  0  0  0  0  0  0  0  0  0  0  # atno 6908 bound_to 6896
  152.3346  133.5961  159.5870 H   0  0  0  0  0  0  0  0  0  0  0  0  # atno 6909 bound_to 6896
  146.2365  140.1925  142.8333 H   0  0  0  0  0  0  0  0  0  0  0  0  # atno 7974 bound_to 7965
  155.8483  140.3459  155.5677 H   0  0  0  0  0  0  0  0  0  0  0  0  # atno 8008 bound_to 7997
  155.8065  140.0893  157.1947 H   0  0  0  0  0  0  0  0  0  0  0  0  # atno 8009 bound_to 7997
  154.4007  140.1455  156.3324 H   0  0  0  0  0  0  0  0  0  0  0  0  # atno 8010 bound_to 7997
  140.6373  143.2489  151.5084 H   0  0  0  0  0  0  0  0  0  0  0  0  # atno 10167 bound_to 10162
  156.0161  130.4477  150.3262 H   0  0  0  0  0  0  0  0  0  0  0  0  # atno 10718 bound_to 10713
  154.8719  135.4072  154.3066 H   0  0  0  0  0  0  0  0  0  0  0  0  # atno 10763 bound_to 10752
  153.3916  135.7015  153.6496 H   0  0  0  0  0  0  0  0  0  0  0  0  # atno 10764 bound_to 10752
  153.5276  135.3674  155.2632 H   0  0  0  0  0  0  0  0  0  0  0  0  # atno 10765 bound_to 10752
  140.7041  134.3905  157.5206 H   0  0  0  0  0  0  0  0  0  0  0  0  # atno 11005 bound_to 11000
  144.9847  140.8491  143.5376 LP  0  0  0  0  0  0  0  0  0  0  0  0  # atno 17320 bound_to 7965
  145.1923  139.2295  143.5236 LP  0  0  0  0  0  0  0  0  0  0  0  0  # atno 17321 bound_to 7965
  139.5583  144.2220  152.1649 LP  0  0  0  0  0  0  0  0  0  0  0  0  # atno 17342 bound_to 10162
  140.1480  144.5140  150.6704 LP  0  0  0  0  0  0  0  0  0  0  0  0  # atno 17343 bound_to 10162
  157.1361  131.0284  151.2948 LP  0  0  0  0  0  0  0  0  0  0  0  0  # atno 17370 bound_to 10713
  157.4511  130.7598  149.7152 LP  0  0  0  0  0  0  0  0  0  0  0  0  # atno 17371 bound_to 10713
  139.8889  134.8844  156.2450 LP  0  0  0  0  0  0  0  0  0  0  0  0  # atno 17394 bound_to 11000
  141.0139  133.7079  156.1157 LP  0  0  0  0  0  0  0  0  0  0  0  0  # atno 17395 bound_to 11000

$$$$
