AV-unprocessed.smi:1490|AV-procd|sdf|6030|dock8
  -GOLD-   22720 6133D 1   1.00000     0.00000
 Structure written by MMmdl.
 38 39  0  0  0  0  0  0  0  0  2 V2000
  150.7090  137.0131  154.7771 C   0  0  0  0  0  0  0  0  0  0  0  0
  152.0614  137.4311  154.7305 O   0  0  0  0  0  0  0  0  0  0  0  0
  152.2164  138.8118  155.0158 C   0  0  0  0  0  0  0  0  0  0  0  0
  151.6958  139.1041  156.4301 C   0  0  0  0  0  0  0  0  0  0  0  0
  151.1197  140.4517  156.5425 N   0  0  0  0  0  0  0  0  0  0  0  0
  150.1527  141.0638  155.8033 C   0  0  0  0  0  0  0  0  0  0  0  0
  149.2866  140.3626  154.4353 S   0  0  0  0  0  0  0  0  0  0  0  0
  148.0698  141.6097  153.9271 C   0  0  0  0  0  0  0  0  0  0  0  0
  146.8775  141.6999  154.8774 C   0  0  0  0  0  0  0  0  0  0  0  0
  145.9213  140.9385  154.7388 O   0  0  0  0  0  0  0  0  0  0  0  0
  146.9451  142.6223  155.8483 N   0  0  0  0  0  0  0  0  0  0  0  0
  145.9114  142.8364  156.8506 C   0  0  0  0  0  0  0  0  0  0  0  0
  146.3408  142.4286  158.1976 C   0  0  0  0  0  0  0  0  0  0  0  0
  146.6775  142.1086  159.2572 N   0  0  0  0  0  0  0  0  0  0  0  0
  149.9691  142.3119  156.3166 N   0  3  0  0  0  0  0  0  0  0  0  0
  150.8257  142.4995  157.4031 C   0  0  0  0  0  0  0  0  0  0  0  0
  151.0042  143.5931  158.2447 C   0  0  0  0  0  0  0  0  0  0  0  0
  151.9637  143.4556  159.2696 C   0  0  0  0  0  0  0  0  0  0  0  0
  152.2388  144.7708  160.3516 Cl  0  0  0  0  0  0  0  0  0  0  0  0
  152.7007  142.2632  159.4271 C   0  0  0  0  0  0  0  0  0  0  0  0
  152.5125  141.1604  158.5680 C   0  0  0  0  0  0  0  0  0  0  0  0
  151.5643  141.3071  157.5562 C   0  0  0  0  0  0  0  0  0  0  0  0
  150.6464  135.9501  154.5441 H   0  0  0  0  0  0  0  0  0  0  0  0
  150.1033  137.5534  154.0487 H   0  0  0  0  0  0  0  0  0  0  0  0
  150.2836  137.1654  155.7699 H   0  0  0  0  0  0  0  0  0  0  0  0
  153.2681  139.0916  154.9377 H   0  0  0  0  0  0  0  0  0  0  0  0
  151.6647  139.4102  154.2891 H   0  0  0  0  0  0  0  0  0  0  0  0
  150.9497  138.3696  156.7342 H   0  0  0  0  0  0  0  0  0  0  0  0
  152.5111  139.0299  157.1501 H   0  0  0  0  0  0  0  0  0  0  0  0
  148.5636  142.5808  153.8751 H   0  0  0  0  0  0  0  0  0  0  0  0
  147.7129  141.3759  152.9237 H   0  0  0  0  0  0  0  0  0  0  0  0
  147.7643  143.2104  155.8975 H   0  0  0  0  0  0  0  0  0  0  0  0
  145.6587  143.8962  156.8819 H   0  0  0  0  0  0  0  0  0  0  0  0
  145.0018  142.2923  156.5921 H   0  0  0  0  0  0  0  0  0  0  0  0
  150.4386  144.5058  158.1262 H   0  0  0  0  0  0  0  0  0  0  0  0
  153.4265  142.1914  160.2242 H   0  0  0  0  0  0  0  0  0  0  0  0
  153.0816  140.2521  158.7004 H   0  0  0  0  0  0  0  0  0  0  0  0
  149.3031  142.9812  155.9526 H   0  0  0  0  0  0  0  0  0  0  0  0
  1  2  1  0  0  0  0
  1 23  1  0  0  0  0
  1 24  1  0  0  0  0
  1 25  1  0  0  0  0
  2  3  1  0  0  0  0
  3  4  1  0  0  0  0
  3 26  1  0  0  0  0
  3 27  1  0  0  0  0
  4  5  1  0  0  0  0
  4 28  1  0  0  0  0
  4 29  1  0  0  0  0
  5 22  1  0  0  0  0
  5  6  1  0  0  0  0
  6  7  1  0  0  0  0
  6 15  2  0  0  0  0
  7  8  1  0  0  0  0
  8  9  1  0  0  0  0
  8 30  1  0  0  0  0
  8 31  1  0  0  0  0
  9 10  2  0  0  0  0
  9 11  1  0  0  0  0
 11 12  1  0  0  0  0
 11 32  1  0  0  0  0
 12 13  1  0  0  0  0
 12 33  1  0  0  0  0
 12 34  1  0  0  0  0
 13 14  3  0  0  0  0
 15 16  1  0  0  0  0
 15 38  1  0  0  0  0
 16 22  2  0  0  0  0
 16 17  1  0  0  0  0
 17 18  2  0  0  0  0
 17 35  1  0  0  0  0
 18 19  1  0  0  0  0
 18 20  1  0  0  0  0
 20 21  2  0  0  0  0
 20 36  1  0  0  0  0
 21 22  1  0  0  0  0
 21 37  1  0  0  0  0
M  CHG  1  15   1
M  END
> <s_m_source_file>
AV-unprocessed.smi

> <i_m_source_file_index>
1490

> <i_lp_mmshare_version>
43012

> <i_f3d_flags>
0

> <s_epik_input>
W2NIXTFjKENsKVtjSF1bY0hdYyhjMTIpbihbQ0gyXVtDSDJdT1tDSDNdKWMobjIpU1tDSDJdQyg9TylbTkhdW0NIMl1DI04=

> <s_epik_cmdline>
J2VwaWtfcHl0aG9uJywgJy1waCcsICc3LjAnLCAnLXRuJywgJzgnLCAnLW1hJywgJzIwMCcsICctbWV0YWxfYmluZGluZycsICctaW1hZScsICc8aW5maWxlLm1hZT4nLCAnLW9tYWUnLCAnPG91dGZpbGUubWFlPic=

> <r_epik_Ionization_Penalty>
2.45232

> <r_epik_Ionization_Penalty_Charging>
2.45231

> <r_epik_Ionization_Penalty_Neutral>
6.97855e-06

> <r_epik_State_Penalty>
2.61389

> <r_epik_Charging_Adjusted_Penalty>
5.0662

> <i_epik_Tot_Q>
1

> <i_epik_Tot_abs_Q>
1

> <r_epik_Metal_State_Penalty>
2.62983

> <b_epik_Metal_Only>
0

> <s_lp_Force_Field>
OPLS_2005

> <r_lp_Energy>
5.53111

> <b_lp_Chiralities_Consistent>
1

> <s_lp_Variant>
AV-unprocessed.smi:1490-2

> <Gold.Version>
5.8.1

> <Gold.Id.Protein>
6NUR|6NUR_protein|mol2

> <Gold.PLP.Fitness>
57.7812

> <Gold.PLP.PLP>
-45.1603

> <Gold.PLP.part.hbond>
-4.0000

> <Gold.PLP.part.metal>
0.0000

> <Gold.PLP.part.buried>
-5.4128

> <Gold.PLP.part.nonpolar>
-36.8342

> <Gold.PLP.part.repulsive>
0.3969

> <Gold.PLP.ligand.clash>
0.0000

> <Gold.PLP.ligand.torsion>
0.7157

> <Gold.PLP.Chemscore.Hbond>
4.6640

> <Gold.PLP.Chemscore.CHOScore>
0.0000

> <Gold.PLP.Chemscore.Metal>
0.0000

> <Gold.Chemscore.Hbonds>
donor molecule, donor type, donor heavy atom, donor atom, acceptor molecule, acceptor atom, score
      L1  H    11    32       P1  8028  0.95
      L1  H    15    38       P1  8028  1.92
      P1  H  6934  6946       L1    14  0.88
      P1  H 10752 10765       L1     2  0.85

> <Gold.PLP.Chemscore.Internal.Correction>
0.0604

> <Gold.Rescore>
     Score         DG    S(hbond)    S(metal)    S(lipo)     H(rot)  DE(clash)    DE(int)     intcor
     18.06     -19.12       2.60        0.00     104.55       2.84       0.13       0.93       ----

> <Gold.Chemscore.Fitness>
18.0634

> <Gold.Chemscore.DG>
-19.1222

> <Gold.Chemscore.ZeroCoef>
-5.4800

> <Gold.Chemscore.Hbond>
2.5973

> <Gold.Chemscore.Metal>
0.0000

> <Gold.Chemscore.Lipo>
104.5492

> <Gold.Chemscore.Internal_Hbond>
0.0000

> <Gold.Chemscore.DEClash>
0.1287

> <Gold.Chemscore.DEInternal>
0.9301

> <Gold.Chemscore.Rot>
2.8378

> <Gold.Chemscore.Internal.Correction>
   9.000000E+99

> <Gold.Chemscore.Hbonds>
donor molecule, donor type, donor heavy atom, donor atom, acceptor molecule, acceptor atom, score
      L1  H    11    32       P1  8028  0.21
      L1  H    15    38       P1  8028  0.92
      P1  H  6934  6946       L1    14  0.86
      P1  H 10752 10765       L1     2  0.20

> <Gold.Chemscore.Hbond.Weighted>
-8.6749

> <Gold.Chemscore.Metal.Weighted>
-0.0000

> <Gold.Chemscore.Lipo.Weighted>
-12.2323

> <Gold.Chemscore.Internal_Hbond.Weighted>
0.0000

> <Gold.Chemscore.DEClash.Weighted>
0.1287

> <Gold.Chemscore.DEInternal.Weighted>
0.9301

> <Gold.Chemscore.Rot.Weighted>
7.2649

> <Gold.Chemscore.Internal.Correction.Weighted>
   9.000000E+99

> <Gold.Protein.RotatedTorsions>
[ 6907 6896 6895 6894 ] final -101.98 input  -60.11 | X-H torsion
[ 7974 7965 7964 7962 ] final  -47.20 input  175.53 | X-H torsion
[ 8008 7997 7996 7995 ] final -144.27 input   59.86 | X-H torsion
[ 10167 10162 10161 10158 ] final   47.86 input  -65.29 | X-H torsion
[ 10718 10713 10712 10709 ] final -111.11 input   66.30 | X-H torsion
[ 10763 10752 10751 10750 ] final  166.26 input  -60.55 | X-H torsion
[ 11005 11000 10999 10996 ] final -108.14 input  -57.11 | X-H torsion

> <Gold.Protein.ActiveResidues>
 VAL166  LYS551  ARG553  GLY616  TRP617  ASP618  TYR619  PRO620  LYS621  CYS622 
 ASP623  PHE694  ASN695  SER759  ASP760  ASP761  ALA762  ILE779  LEU786  VAL792 
 PHE793  MET794  SER795  GLU796  ALA797  LYS798  CYS799  TRP800  GLU811  SER814 

> <Gold.Protein.RotatedAtoms>
  150.7177  134.0651  159.3844 H   0  0  0  0  0  0  0  0  0  0  0  0  # atno 6907 bound_to 6896
  151.8632  135.0514  160.0481 H   0  0  0  0  0  0  0  0  0  0  0  0  # atno 6908 bound_to 6896
  152.2701  133.5339  159.5470 H   0  0  0  0  0  0  0  0  0  0  0  0  # atno 6909 bound_to 6896
  145.9640  140.7450  142.9443 H   0  0  0  0  0  0  0  0  0  0  0  0  # atno 7974 bound_to 7965
  155.5241  140.0594  157.2901 H   0  0  0  0  0  0  0  0  0  0  0  0  # atno 8008 bound_to 7997
  154.4507  140.1947  156.0474 H   0  0  0  0  0  0  0  0  0  0  0  0  # atno 8009 bound_to 7997
  156.0698  140.3261  155.7566 H   0  0  0  0  0  0  0  0  0  0  0  0  # atno 8010 bound_to 7997
  140.2993  144.2954  150.6223 H   0  0  0  0  0  0  0  0  0  0  0  0  # atno 10167 bound_to 10162
  156.0628  130.5850  150.8329 H   0  0  0  0  0  0  0  0  0  0  0  0  # atno 10718 bound_to 10713
  154.3364  135.2754  155.2445 H   0  0  0  0  0  0  0  0  0  0  0  0  # atno 10763 bound_to 10752
  154.4735  135.5877  153.6342 H   0  0  0  0  0  0  0  0  0  0  0  0  # atno 10764 bound_to 10752
  152.9861  135.6094  154.3561 H   0  0  0  0  0  0  0  0  0  0  0  0  # atno 10765 bound_to 10752
  141.0917  133.9042  157.2059 H   0  0  0  0  0  0  0  0  0  0  0  0  # atno 11005 bound_to 11000
  144.6821  140.2638  143.7315 LP  0  0  0  0  0  0  0  0  0  0  0  0  # atno 17320 bound_to 7965
  145.8000  139.1960  143.2054 LP  0  0  0  0  0  0  0  0  0  0  0  0  # atno 17321 bound_to 7965
  140.5665  143.2185  151.7674 LP  0  0  0  0  0  0  0  0  0  0  0  0  # atno 17342 bound_to 10162
  139.4919  144.4276  151.9908 LP  0  0  0  0  0  0  0  0  0  0  0  0  # atno 17343 bound_to 10162
  157.5649  131.0946  150.9504 LP  0  0  0  0  0  0  0  0  0  0  0  0  # atno 17370 bound_to 10713
  156.9733  130.5499  149.5292 LP  0  0  0  0  0  0  0  0  0  0  0  0  # atno 17371 bound_to 10713
  139.9745  135.0118  156.9596 LP  0  0  0  0  0  0  0  0  0  0  0  0  # atno 17394 bound_to 11000
  140.5235  134.0884  155.7298 LP  0  0  0  0  0  0  0  0  0  0  0  0  # atno 17395 bound_to 11000

$$$$
