AV-unprocessed.smi:759|AV-procd|sdf|3626|dock6
  -GOLD-   22720 1 23D 1   1.00000     0.00000
 Structure written by MMmdl.
 23 24  0  0  0  0  0  0  0  0  3 V2000
  151.6200  137.9749  154.1144 C   0  0  0  0  0  0  0  0  0  0  0  0
  151.8350  137.2012  155.1868 N   0  5  0  0  0  0  0  0  0  0  0  0
  151.6423  137.9384  156.2638 N   0  0  0  0  0  0  0  0  0  0  0  0
  151.3067  139.1644  155.8196 C   0  0  0  0  0  0  0  0  0  0  0  0
  150.9817  140.3419  156.7172 C   0  0  1  0  0  0  0  0  0  0  0  0
  152.1439  140.6882  157.6657 C   0  0  0  0  0  0  0  0  0  0  0  0
  151.7810  141.9001  158.5377 C   0  0  0  0  0  0  0  0  0  0  0  0
  151.3340  143.0883  157.6691 C   0  0  0  0  0  0  0  0  0  0  0  0
  150.2036  142.7030  156.7960 N   0  3  0  0  0  0  0  0  0  0  0  0
  150.5237  141.5675  155.9039 C   0  0  0  0  0  0  0  0  0  0  0  0
  151.2878  139.2044  154.4778 N   0  0  0  0  0  0  0  0  0  0  0  0
  151.7190  137.5810  153.1102 H   0  0  0  0  0  0  0  0  0  0  0  0
  150.1396  140.0306  157.3379 H   0  0  0  0  0  0  0  0  0  0  0  0
  152.3871  139.8315  158.2954 H   0  0  0  0  0  0  0  0  0  0  0  0
  153.0402  140.9139  157.0860 H   0  0  0  0  0  0  0  0  0  0  0  0
  150.9811  141.6282  159.2278 H   0  0  0  0  0  0  0  0  0  0  0  0
  152.6355  142.1864  159.1517 H   0  0  0  0  0  0  0  0  0  0  0  0
  151.0282  143.9237  158.2992 H   0  0  0  0  0  0  0  0  0  0  0  0
  152.1616  143.4402  157.0516 H   0  0  0  0  0  0  0  0  0  0  0  0
  149.4213  142.4411  157.3787 H   0  0  0  0  0  0  0  0  0  0  0  0
  151.3025  141.8749  155.2042 H   0  0  0  0  0  0  0  0  0  0  0  0
  149.6414  141.3230  155.3116 H   0  0  0  0  0  0  0  0  0  0  0  0
  149.9387  143.4969  156.2307 H   0  0  0  0  0  0  0  0  0  0  0  0
  1 11  2  0  0  0  0
  1 12  1  0  0  0  0
  1  2  1  0  0  0  0
  2  3  1  0  0  0  0
  3  4  2  0  0  0  0
  4 11  1  0  0  0  0
  4  5  1  0  0  0  0
  5 10  1  0  0  0  0
  5  6  1  0  0  0  0
  5 13  1  0  0  0  0
  6  7  1  0  0  0  0
  6 14  1  0  0  0  0
  6 15  1  0  0  0  0
  7  8  1  0  0  0  0
  7 16  1  0  0  0  0
  7 17  1  0  0  0  0
  8  9  1  0  0  0  0
  8 18  1  0  0  0  0
  8 19  1  0  0  0  0
  9 10  1  0  0  0  0
  9 20  1  0  0  0  0
  9 23  1  0  0  0  0
 10 21  1  0  0  0  0
 10 22  1  0  0  0  0
M  CHG  1   2  -1
M  CHG  1   9   1
M  END
> <s_m_source_file>
AV-unprocessed.smi

> <i_m_source_file_index>
759

> <i_lp_mmshare_version>
43012

> <i_f3d_flags>
0

> <s_epik_input>
W25IXTFbY0hdbm5jMVtDQEBIXTJbQ0gyXVtDSDJdW0NIMl1bTkhdW0NIMl0y

> <s_epik_cmdline>
J2VwaWtfcHl0aG9uJywgJy1waCcsICc3LjAnLCAnLXRuJywgJzgnLCAnLW1hJywgJzIwMCcsICctbWV0YWxfYmluZGluZycsICctaW1hZScsICc8aW5maWxlLm1hZT4nLCAnLW9tYWUnLCAnPG91dGZpbGUubWFlPic=

> <r_lp_tautomer_probability>
0.948284

> <r_epik_Ionization_Penalty>
7.12535

> <r_epik_Ionization_Penalty_Charging>
7.12535

> <r_epik_Ionization_Penalty_Neutral>
7.15677e-14

> <r_epik_State_Penalty>
3.13859

> <r_epik_Charging_Adjusted_Penalty>
10.2639

> <i_epik_Tot_Q>
0

> <i_epik_Tot_abs_Q>
2

> <r_epik_Metal_State_Penalty>
0.603007

> <b_epik_Metal_Only>
1

> <s_lp_Force_Field>
OPLS_2005

> <r_lp_Energy>
6.41651

> <b_lp_Chiralities_Consistent>
1

> <s_lp_Variant>
AV-unprocessed.smi:759-8

> <Gold.Version>
5.8.1

> <Gold.Id.Protein>
6NUR|6NUR_protein|mol2

> <Gold.PLP.Fitness>
37.4786

> <Gold.PLP.PLP>
-19.5342

> <Gold.PLP.part.hbond>
-3.0000

> <Gold.PLP.part.metal>
0.0000

> <Gold.PLP.part.buried>
-3.3614

> <Gold.PLP.part.nonpolar>
-13.2016

> <Gold.PLP.part.repulsive>
0.2402

> <Gold.PLP.ligand.clash>
0.0000

> <Gold.PLP.ligand.torsion>
0.0245

> <Gold.PLP.Chemscore.Hbond>
4.9840

> <Gold.PLP.Chemscore.CHOScore>
1.0000

> <Gold.PLP.Chemscore.Metal>
0.0000

> <Gold.Chemscore.Hbonds>
donor molecule, donor type, donor heavy atom, donor atom, acceptor molecule, acceptor atom, score
      L1  H     9    23       P1  8028  2.00
      P1  H  7989  7998       L1    11  1.00
      P1  H 10752 10765       L1     2  1.97
      L1  C     1    12       P1  7949  1.00

> <Gold.PLP.Chemscore.Internal.Correction>
0.0414

> <Gold.Rescore>
     Score         DG    S(hbond)    S(metal)    S(lipo)     H(rot)  DE(clash)    DE(int)     intcor
     16.36     -16.52       2.75        0.00      37.61       1.00       0.14       0.03       ----

> <Gold.Chemscore.Fitness>
16.3566

> <Gold.Chemscore.DG>
-16.5187

> <Gold.Chemscore.ZeroCoef>
-5.4800

> <Gold.Chemscore.Hbond>
2.7541

> <Gold.Chemscore.Metal>
0.0000

> <Gold.Chemscore.Lipo>
37.6059

> <Gold.Chemscore.Internal_Hbond>
0.0000

> <Gold.Chemscore.DEClash>
0.1364

> <Gold.Chemscore.DEInternal>
0.0257

> <Gold.Chemscore.Rot>
1.0000

> <Gold.Chemscore.Internal.Correction>
   9.000000E+99

> <Gold.Chemscore.Hbonds>
donor molecule, donor type, donor heavy atom, donor atom, acceptor molecule, acceptor atom, score
      L1  H     9    23       P1  8028  0.98
      P1  H  7989  7998       L1    11  0.97
      P1  H 10752 10765       L1     2  0.48

> <Gold.Chemscore.Hbond.Weighted>
-9.1988

> <Gold.Chemscore.Metal.Weighted>
-0.0000

> <Gold.Chemscore.Lipo.Weighted>
-4.3999

> <Gold.Chemscore.Internal_Hbond.Weighted>
0.0000

> <Gold.Chemscore.DEClash.Weighted>
0.1364

> <Gold.Chemscore.DEInternal.Weighted>
0.0257

> <Gold.Chemscore.Rot.Weighted>
2.5600

> <Gold.Chemscore.Internal.Correction.Weighted>
   9.000000E+99

> <Gold.Protein.RotatedTorsions>
[ 6907 6896 6895 6894 ] final   75.05 input  -60.11 | X-H torsion
[ 7974 7965 7964 7962 ] final -126.00 input  175.53 | X-H torsion
[ 8008 7997 7996 7995 ] final  -62.34 input   59.86 | X-H torsion
[ 10167 10162 10161 10158 ] final   66.22 input  -65.29 | X-H torsion
[ 10718 10713 10712 10709 ] final  131.39 input   66.30 | X-H torsion
[ 10763 10752 10751 10750 ] final  175.77 input  -60.55 | X-H torsion
[ 11005 11000 10999 10996 ] final -132.37 input  -57.11 | X-H torsion

> <Gold.Protein.ActiveResidues>
 VAL166  LYS551  ARG553  GLY616  TRP617  ASP618  TYR619  PRO620  LYS621  CYS622 
 ASP623  PHE694  ASN695  SER759  ASP760  ASP761  ALA762  ILE779  LEU786  VAL792 
 PHE793  MET794  SER795  GLU796  ALA797  LYS798  CYS799  TRP800  GLU811  SER814 

> <Gold.Protein.RotatedAtoms>
  152.5007  134.4179  159.9470 H   0  0  0  0  0  0  0  0  0  0  0  0  # atno 6907 bound_to 6896
  151.4150  133.3709  159.2756 H   0  0  0  0  0  0  0  0  0  0  0  0  # atno 6908 bound_to 6896
  150.9264  134.8702  159.7582 H   0  0  0  0  0  0  0  0  0  0  0  0  # atno 6909 bound_to 6896
  144.9917  140.7738  143.4550 H   0  0  0  0  0  0  0  0  0  0  0  0  # atno 7974 bound_to 7965
  154.4494  140.0998  156.6572 H   0  0  0  0  0  0  0  0  0  0  0  0  # atno 8008 bound_to 7997
  155.5333  140.3482  155.4412 H   0  0  0  0  0  0  0  0  0  0  0  0  # atno 8009 bound_to 7997
  156.0649  140.1335  156.9887 H   0  0  0  0  0  0  0  0  0  0  0  0  # atno 8010 bound_to 7997
  140.1028  144.4888  150.7027 H   0  0  0  0  0  0  0  0  0  0  0  0  # atno 10167 bound_to 10162
  157.4972  131.1093  150.9476 H   0  0  0  0  0  0  0  0  0  0  0  0  # atno 10718 bound_to 10713
  154.4722  135.2771  155.1634 H   0  0  0  0  0  0  0  0  0  0  0  0  # atno 10763 bound_to 10752
  154.3379  135.6176  153.5586 H   0  0  0  0  0  0  0  0  0  0  0  0  # atno 10764 bound_to 10752
  152.9865  135.5781  154.5105 H   0  0  0  0  0  0  0  0  0  0  0  0  # atno 10765 bound_to 10752
  140.9176  134.1487  157.4340 H   0  0  0  0  0  0  0  0  0  0  0  0  # atno 11005 bound_to 11000
  145.2276  139.2130  143.5060 LP  0  0  0  0  0  0  0  0  0  0  0  0  # atno 17320 bound_to 7965
  146.3433  140.2146  142.8590 LP  0  0  0  0  0  0  0  0  0  0  0  0  # atno 17321 bound_to 7965
  140.6968  143.2409  151.4977 LP  0  0  0  0  0  0  0  0  0  0  0  0  # atno 17342 bound_to 10162
  139.5662  144.2037  152.1768 LP  0  0  0  0  0  0  0  0  0  0  0  0  # atno 17343 bound_to 10162
  157.0159  130.5655  149.5326 LP  0  0  0  0  0  0  0  0  0  0  0  0  # atno 17370 bound_to 10713
  156.0207  130.5302  150.8268 LP  0  0  0  0  0  0  0  0  0  0  0  0  # atno 17371 bound_to 10713
  139.8769  134.9959  156.5768 LP  0  0  0  0  0  0  0  0  0  0  0  0  # atno 17394 bound_to 11000
  140.8030  133.8490  155.8743 LP  0  0  0  0  0  0  0  0  0  0  0  0  # atno 17395 bound_to 11000

$$$$
