AV-unprocessed.smi:2385|AV-procd|sdf|9464|dock10
  -GOLD-   2272013 93D 1   1.00000     0.00000
 Structure written by MMmdl.
 50 52  0  0  0  0  0  0  0  0  2 V2000
  152.4567  139.3326  158.0221 C   0  0  0  0  0  0  0  0  0  0  0  0
  151.7156  138.4124  157.0753 C   0  0  0  0  0  0  0  0  0  0  0  0
  151.7070  138.6564  155.6891 C   0  0  0  0  0  0  0  0  0  0  0  0
  150.9997  137.7750  154.8489 C   0  0  0  0  0  0  0  0  0  0  0  0
  150.3176  136.6735  155.4128 C   0  0  0  0  0  0  0  0  0  0  0  0
  149.6299  135.8503  154.4812 N   0  0  0  0  0  0  0  0  0  0  0  0
  148.9272  134.7299  154.7245 C   0  0  0  0  0  0  0  0  0  0  0  0
  148.7882  134.2007  155.8277 O   0  0  0  0  0  0  0  0  0  0  0  0
  148.3810  134.2419  153.6007 N   0  0  0  0  0  0  0  0  0  0  0  0
  147.5344  133.0541  153.5319 C   0  0  2  0  0  0  0  0  0  0  0  0
  148.3088  131.7941  153.9579 C   0  0  0  0  0  0  0  0  0  0  0  0
  147.4393  130.5342  153.8089 C   0  0  0  0  0  0  0  0  0  0  0  0
  146.9271  130.3894  152.4207 N   0  3  1  0  0  0  0  0  0  0  0  0
  146.1858  129.1173  152.2143 C   0  0  0  0  0  0  0  0  0  0  0  0
  147.1257  127.9299  151.9282 C   0  0  1  0  0  0  0  0  0  0  0  0
  147.6979  127.9457  150.5243 C   0  0  0  0  0  0  0  0  0  0  0  0
  148.8882  126.9998  150.6483 C   0  0  0  0  0  0  0  0  0  0  0  0
  149.3409  127.1221  151.9930 O   0  0  0  0  0  0  0  0  0  0  0  0
  148.4140  127.8904  152.7527 C   0  0  0  0  0  0  0  0  0  0  0  0
  146.1539  131.5877  151.9984 C   0  0  0  0  0  0  0  0  0  0  0  0
  147.0028  132.8654  152.1032 C   0  0  0  0  0  0  0  0  0  0  0  0
  150.3323  136.4464  156.7501 N   0  0  0  0  0  0  0  0  0  0  0  0
  151.0106  137.2911  157.5547 C   0  0  0  0  0  0  0  0  0  0  0  0
  153.3979  139.6610  157.5807 H   0  0  0  0  0  0  0  0  0  0  0  0
  152.6811  138.8283  158.9626 H   0  0  0  0  0  0  0  0  0  0  0  0
  151.8524  140.2134  158.2403 H   0  0  0  0  0  0  0  0  0  0  0  0
  152.2315  139.5045  155.2738 H   0  0  0  0  0  0  0  0  0  0  0  0
  150.9824  137.9489  153.7829 H   0  0  0  0  0  0  0  0  0  0  0  0
  149.6626  136.1623  153.5221 H   0  0  0  0  0  0  0  0  0  0  0  0
  148.5470  134.7371  152.7366 H   0  0  0  0  0  0  0  0  0  0  0  0
  146.6799  133.1893  154.1982 H   0  0  0  0  0  0  0  0  0  0  0  0
  149.2100  131.6882  153.3517 H   0  0  0  0  0  0  0  0  0  0  0  0
  148.6421  131.8863  154.9922 H   0  0  0  0  0  0  0  0  0  0  0  0
  148.0350  129.6600  154.0747 H   0  0  0  0  0  0  0  0  0  0  0  0
  146.6000  130.5721  154.5054 H   0  0  0  0  0  0  0  0  0  0  0  0
  145.6280  128.8759  153.1204 H   0  0  0  0  0  0  0  0  0  0  0  0
  145.4350  129.2281  151.4303 H   0  0  0  0  0  0  0  0  0  0  0  0
  146.5845  126.9920  152.0648 H   0  0  0  0  0  0  0  0  0  0  0  0
  146.9827  127.6279  149.7650 H   0  0  0  0  0  0  0  0  0  0  0  0
  148.0454  128.9473  150.2657 H   0  0  0  0  0  0  0  0  0  0  0  0
  148.5752  125.9685  150.4798 H   0  0  0  0  0  0  0  0  0  0  0  0
  149.6809  127.2340  149.9373 H   0  0  0  0  0  0  0  0  0  0  0  0
  148.8244  128.8932  152.8799 H   0  0  0  0  0  0  0  0  0  0  0  0
  148.2650  127.4553  153.7411 H   0  0  0  0  0  0  0  0  0  0  0  0
  145.8090  131.4737  150.9721 H   0  0  0  0  0  0  0  0  0  0  0  0
  145.2612  131.6828  152.6188 H   0  0  0  0  0  0  0  0  0  0  0  0
  146.4049  133.7290  151.8091 H   0  0  0  0  0  0  0  0  0  0  0  0
  147.8340  132.8087  151.3985 H   0  0  0  0  0  0  0  0  0  0  0  0
  150.9875  137.0638  158.6104 H   0  0  0  0  0  0  0  0  0  0  0  0
  147.7442  130.3409  151.8289 H   0  0  0  0  0  0  0  0  0  0  0  0
  1  2  1  0  0  0  0
  1 24  1  0  0  0  0
  1 25  1  0  0  0  0
  1 26  1  0  0  0  0
  2 23  1  0  0  0  0
  2  3  2  0  0  0  0
  3  4  1  0  0  0  0
  3 27  1  0  0  0  0
  4  5  2  0  0  0  0
  4 28  1  0  0  0  0
  5  6  1  0  0  0  0
  5 22  1  0  0  0  0
  6  7  1  0  0  0  0
  6 29  1  0  0  0  0
  7  8  2  0  0  0  0
  7  9  1  0  0  0  0
  9 10  1  0  0  0  0
  9 30  1  0  0  0  0
 10 21  1  0  0  0  0
 10 11  1  0  0  0  0
 10 31  1  0  0  0  0
 11 12  1  0  0  0  0
 11 32  1  0  0  0  0
 11 33  1  0  0  0  0
 12 13  1  0  0  0  0
 12 34  1  0  0  0  0
 12 35  1  0  0  0  0
 13 14  1  0  0  0  0
 13 20  1  0  0  0  0
 13 50  1  0  0  0  0
 14 15  1  0  0  0  0
 14 36  1  0  0  0  0
 14 37  1  0  0  0  0
 15 19  1  0  0  0  0
 15 16  1  0  0  0  0
 15 38  1  0  0  0  0
 16 17  1  0  0  0  0
 16 39  1  0  0  0  0
 16 40  1  0  0  0  0
 17 18  1  0  0  0  0
 17 41  1  0  0  0  0
 17 42  1  0  0  0  0
 18 19  1  0  0  0  0
 19 43  1  0  0  0  0
 19 44  1  0  0  0  0
 20 21  1  0  0  0  0
 20 45  1  0  0  0  0
 20 46  1  0  0  0  0
 21 47  1  0  0  0  0
 21 48  1  0  0  0  0
 22 23  2  0  0  0  0
 23 49  1  0  0  0  0
M  CHG  1  13   1
M  END
> <s_m_source_file>
AV-unprocessed.smi

> <i_m_source_file_index>
2385

> <i_lp_mmshare_version>
43012

> <i_f3d_flags>
0

> <s_epik_input>
W0NIM11jMVtjSF1bY0hdYyhuW2NIXTEpW05IXUMoPU8pW05IXVtDSF0yW0NIMl1bQ0gyXU4oW0NIMl1bQ0gyXTIpW0NIMl1bQ0BASF0zW0NIMl1bQ0gyXU9bQ0gyXTM=

> <s_epik_cmdline>
J2VwaWtfcHl0aG9uJywgJy1waCcsICc3LjAnLCAnLXRuJywgJzgnLCAnLW1hJywgJzIwMCcsICctbWV0YWxfYmluZGluZycsICctaW1hZScsICc8aW5maWxlLm1hZT4nLCAnLW9tYWUnLCAnPG91dGZpbGUubWFlPic=

> <r_epik_Ionization_Penalty>
0.00752367

> <r_epik_Ionization_Penalty_Charging>
0.00747775

> <r_epik_Ionization_Penalty_Neutral>
4.59207e-05

> <r_epik_State_Penalty>
0.00558817

> <r_epik_Charging_Adjusted_Penalty>
0.0130659

> <i_epik_Tot_Q>
1

> <i_epik_Tot_abs_Q>
1

> <r_epik_Metal_State_Penalty>
-0

> <b_epik_Metal_Only>
0

> <s_lp_Force_Field>
OPLS_2005

> <r_lp_Energy>
36.1133

> <b_lp_Chiralities_Consistent>
1

> <s_lp_Variant>
AV-unprocessed.smi:2385-2

> <Gold.Version>
5.8.1

> <Gold.Id.Protein>
6NUR|6NUR_protein|mol2

> <Gold.PLP.Fitness>
44.0337

> <Gold.PLP.PLP>
-36.3917

> <Gold.PLP.part.hbond>
-3.0995

> <Gold.PLP.part.metal>
0.0000

> <Gold.PLP.part.buried>
-3.4142

> <Gold.PLP.part.nonpolar>
-30.9920

> <Gold.PLP.part.repulsive>
2.2768

> <Gold.PLP.ligand.clash>
0.0000

> <Gold.PLP.ligand.torsion>
0.4708

> <Gold.PLP.Chemscore.Hbond>
2.8500

> <Gold.PLP.Chemscore.CHOScore>
0.0000

> <Gold.PLP.Chemscore.Metal>
0.0000

> <Gold.Chemscore.Hbonds>
donor molecule, donor type, donor heavy atom, donor atom, acceptor molecule, acceptor atom, score
      L1  H     6    29       P1  7948  1.00
      L1  H     9    30       P1  7948  0.95
      L1  H    13    50       P1 10747  0.99

> <Gold.PLP.Chemscore.Internal.Correction>
0.0336

> <Gold.Rescore>
     Score         DG    S(hbond)    S(metal)    S(lipo)     H(rot)  DE(clash)    DE(int)     intcor
     17.03     -21.80       2.54        0.00      97.71       1.41       2.08       2.69       ----

> <Gold.Chemscore.Fitness>
17.0341

> <Gold.Chemscore.DG>
-21.8000

> <Gold.Chemscore.ZeroCoef>
-5.4800

> <Gold.Chemscore.Hbond>
2.5408

> <Gold.Chemscore.Metal>
0.0000

> <Gold.Chemscore.Lipo>
97.7083

> <Gold.Chemscore.Internal_Hbond>
0.0000

> <Gold.Chemscore.DEClash>
2.0805

> <Gold.Chemscore.DEInternal>
2.6853

> <Gold.Chemscore.Rot>
1.4056

> <Gold.Chemscore.Internal.Correction>
   9.000000E+99

> <Gold.Chemscore.Hbonds>
donor molecule, donor type, donor heavy atom, donor atom, acceptor molecule, acceptor atom, score
      L1  H     6    29       P1  7948  0.29
      L1  H     9    30       P1  7948  0.21
      L1  H    13    50       P1 10747  0.92

> <Gold.Chemscore.Hbond.Weighted>
-8.4864

> <Gold.Chemscore.Metal.Weighted>
-0.0000

> <Gold.Chemscore.Lipo.Weighted>
-11.4319

> <Gold.Chemscore.Internal_Hbond.Weighted>
0.0000

> <Gold.Chemscore.DEClash.Weighted>
2.0805

> <Gold.Chemscore.DEInternal.Weighted>
2.6853

> <Gold.Chemscore.Rot.Weighted>
3.5982

> <Gold.Chemscore.Internal.Correction.Weighted>
   9.000000E+99

> <Gold.Protein.RotatedTorsions>
[ 6907 6896 6895 6894 ] final  -10.03 input  -60.11 | X-H torsion
[ 7974 7965 7964 7962 ] final   52.28 input  175.53 | X-H torsion
[ 8008 7997 7996 7995 ] final -127.65 input   59.86 | X-H torsion
[ 10167 10162 10161 10158 ] final  -77.03 input  -65.29 | X-H torsion
[ 10718 10713 10712 10709 ] final  134.48 input   66.30 | X-H torsion
[ 10763 10752 10751 10750 ] final   90.91 input  -60.55 | X-H torsion
[ 11005 11000 10999 10996 ] final  -31.38 input  -57.11 | X-H torsion

> <Gold.Protein.ActiveResidues>
 VAL166  LYS551  ARG553  GLY616  TRP617  ASP618  TYR619  PRO620  LYS621  CYS622 
 ASP623  PHE694  ASN695  SER759  ASP760  ASP761  ALA762  ILE779  LEU786  VAL792 
 PHE793  MET794  SER795  GLU796  ALA797  LYS798  CYS799  TRP800  GLU811  SER814 

> <Gold.Protein.RotatedAtoms>
  151.4084  135.0981  159.9577 H   0  0  0  0  0  0  0  0  0  0  0  0  # atno 6907 bound_to 6896
  152.5028  133.8820  159.7362 H   0  0  0  0  0  0  0  0  0  0  0  0  # atno 6908 bound_to 6896
  150.9310  133.6710  159.2839 H   0  0  0  0  0  0  0  0  0  0  0  0  # atno 6909 bound_to 6896
  145.9829  139.4261  143.0121 H   0  0  0  0  0  0  0  0  0  0  0  0  # atno 7974 bound_to 7965
  155.2496  140.0432  157.2985 H   0  0  0  0  0  0  0  0  0  0  0  0  # atno 8008 bound_to 7997
  154.5777  140.2392  155.8068 H   0  0  0  0  0  0  0  0  0  0  0  0  # atno 8009 bound_to 7997
  156.2170  140.2981  155.9871 H   0  0  0  0  0  0  0  0  0  0  0  0  # atno 8010 bound_to 7997
  140.4805  143.2403  151.8065 H   0  0  0  0  0  0  0  0  0  0  0  0  # atno 10167 bound_to 10162
  157.4668  131.1077  150.9852 H   0  0  0  0  0  0  0  0  0  0  0  0  # atno 10718 bound_to 10713
  153.2026  135.4416  155.0285 H   0  0  0  0  0  0  0  0  0  0  0  0  # atno 10763 bound_to 10752
  154.8155  135.3313  154.7189 H   0  0  0  0  0  0  0  0  0  0  0  0  # atno 10764 bound_to 10752
  153.7633  135.6990  153.4976 H   0  0  0  0  0  0  0  0  0  0  0  0  # atno 10765 bound_to 10752
  140.9463  133.7248  156.1151 H   0  0  0  0  0  0  0  0  0  0  0  0  # atno 11005 bound_to 11000
  145.7743  140.9883  143.1133 LP  0  0  0  0  0  0  0  0  0  0  0  0  # atno 17320 bound_to 7965
  144.6866  139.9485  143.7477 LP  0  0  0  0  0  0  0  0  0  0  0  0  # atno 17321 bound_to 7965
  139.4833  144.4778  151.9344 LP  0  0  0  0  0  0  0  0  0  0  0  0  # atno 17342 bound_to 10162
  140.3864  144.2672  150.5903 LP  0  0  0  0  0  0  0  0  0  0  0  0  # atno 17343 bound_to 10162
  157.0631  130.5833  149.5389 LP  0  0  0  0  0  0  0  0  0  0  0  0  # atno 17370 bound_to 10713
  156.0054  130.5140  150.7811 LP  0  0  0  0  0  0  0  0  0  0  0  0  # atno 17371 bound_to 10713
  140.7665  134.3881  157.5516 LP  0  0  0  0  0  0  0  0  0  0  0  0  # atno 17394 bound_to 11000
  139.8834  134.8995  156.2767 LP  0  0  0  0  0  0  0  0  0  0  0  0  # atno 17395 bound_to 11000

$$$$
