#       Name:                AV-unprocessed.smi:2639
#       Creating user name   scv26
#       Creation time:       Fri Mar 27 14:27:57 2020


#       File generated by GOLD software.
#

@<TRIPOS>MOLECULE
AV-unprocessed.smi:2639
    48    49     1
SMALL
NO_CHARGES


@<TRIPOS>ATOM
      1 ****         0.7730  -1.0787  -2.4571 C.3            1 S1                 0.0000
      2 ****         1.2487  -0.3694  -1.1626 C.3            1 S1                 0.0000
      3 ****         2.7831  -0.5555  -1.0095 C.3            1 S1                 0.0000
      4 ****         3.1583  -1.9199  -1.0093 O.3            1 S1                 0.0000
      5 ****         0.6363  -1.0216   0.0070 N.am           1 S1                 0.0000
      6 ****        -0.6661  -1.1906   0.2927 C.2            1 S1                 0.0000
      7 ****        -1.5864  -0.7916  -0.4197 O.2            1 S1                 0.0000
      8 ****        -0.8193  -1.8655   1.4449 N.am           1 S1                 0.0000
      9 ****        -2.0236  -2.2204   2.1115 C.ar           1 S1                 0.0000
     10 ****        -1.9681  -3.2851   3.0385 C.ar           1 S1                 0.0000
     11 ****        -3.1335  -3.6609   3.7372 C.ar           1 S1                 0.0000
     12 ****        -4.2892  -2.9960   3.5242 N.pl3          1 S1                 1.0000
     13 ****        -4.3883  -1.9632   2.6599 C.ar           1 S1                 0.0000
     14 ****        -3.2565  -1.5425   1.9321 C.ar           1 S1                 0.0000
     15 ****         0.8642   1.1546  -1.1933 C.3            1 S1                 0.0000
     16 ****         1.4671   1.9452  -2.3830 C.3            1 S1                 0.0000
     17 ****         0.9522   3.3933  -2.4254 C.3            1 S1                 0.0000
     18 ****         1.2410   4.1261  -1.1080 C.3            1 S1                 0.0000
     19 ****         0.6494   3.3618   0.0841 C.3            1 S1                 0.0000
     20 ****         1.1610   1.9130   0.1281 C.3            1 S1                 0.0000
     21 ****         1.3811  -0.7974  -3.3167 H              1 S1                 0.0000
     22 ****        -0.2614  -0.8359  -2.7005 H              1 S1                 0.0000
     23 ****         0.8373  -2.1638  -2.3677 H              1 S1                 0.0000
     24 ****         3.3209  -0.0772  -1.8271 H              1 S1                 0.0000
     25 ****         3.1483  -0.1090  -0.0848 H              1 S1                 0.0000
     26 ****         4.0998  -1.9720  -0.9452 H              1 S1                 0.0000
     27 ****         1.2957  -1.4063   0.6676 H              1 S1                 0.0000
     28 ****         0.0293  -2.2084   1.8710 H              1 S1                 0.0000
     29 ****        -1.0428  -3.8157   3.2115 H              1 S1                 0.0000
     30 ****        -3.1745  -4.4659   4.4564 H              1 S1                 0.0000
     31 ****        -5.3620  -1.5019   2.5815 H              1 S1                 0.0000
     32 ****        -3.3541  -0.7021   1.2623 H              1 S1                 0.0000
     33 ****        -0.2161   1.2029  -1.3331 H              1 S1                 0.0000
     34 ****         2.5546   1.9649  -2.3167 H              1 S1                 0.0000
     35 ****         1.2224   1.4676  -3.3307 H              1 S1                 0.0000
     36 ****         1.4151   3.9271  -3.2558 H              1 S1                 0.0000
     37 ****        -0.1216   3.3953  -2.6180 H              1 S1                 0.0000
     38 ****         2.3184   4.2344  -0.9767 H              1 S1                 0.0000
     39 ****         0.8302   5.1354  -1.1444 H              1 S1                 0.0000
     40 ****         0.9019   3.8726   1.0136 H              1 S1                 0.0000
     41 ****        -0.4392   3.3634   0.0164 H              1 S1                 0.0000
     42 ****         0.7000   1.4129   0.9794 H              1 S1                 0.0000
     43 ****         2.2331   1.9262   0.3232 H              1 S1                 0.0000
     44 ****        -5.1211  -3.2821   4.0415 H              1 S1                 0.0000
     45 ****         2.8534  -2.3537  -1.8571 LP             1 S1                 0.0000
     46 ****         2.7408  -2.3844  -0.2283 LP             1 S1                 0.0000
     47 ****        -1.3856  -0.3075  -1.2714 LP             1 S1                 0.0000
     48 ****        -2.5351  -0.9513  -0.1470 LP             1 S1                 0.0000
@<TRIPOS>BOND
    1    1    2 1     
    2    1   21 1     
    3    1   22 1     
    4    1   23 1     
    5    2    3 1     
    6    2    5 1     
    7    2   15 1     
    8    3    4 1     
    9    3   24 1     
   10    3   25 1     
   11    4   26 1     
   12    5    6 am    
   13    5   27 1     
   14    6    7 2     
   15    6    8 am    
   16    8    9 1     
   17    8   28 1     
   18    9   14 ar    
   19    9   10 ar    
   20   10   11 ar    
   21   10   29 1     
   22   11   12 ar    
   23   11   30 1     
   24   12   13 ar    
   25   12   44 1     
   26   13   14 ar    
   27   13   31 1     
   28   14   32 1     
   29   15   20 1     
   30   15   16 1     
   31   15   33 1     
   32   16   17 1     
   33   16   34 1     
   34   16   35 1     
   35   17   18 1     
   36   17   36 1     
   37   17   37 1     
   38   18   19 1     
   39   18   38 1     
   40   18   39 1     
   41   19   20 1     
   42   19   40 1     
   43   19   41 1     
   44   20   42 1     
   45   20   43 1     
   46    4   45 1     
   47    4   46 1     
   48    7   47 1     
   49    7   48 1     
@<TRIPOS>SUBSTRUCTURE
      1 S1             1
@<TRIPOS>SET
LONE_PAIRS      STATIC     ATOMS    <user>   **** ""
4 45 46 47 48
DONOR_HYDROGENS      STATIC     ATOMS    <user>   **** ""
4 26 27 28 44
ATOM$BLUE        STATIC     ATOMS    COLORGROUP SYSTEM
4 45 46 47 48
ATOM$RED        STATIC     ATOMS    COLORGROUP SYSTEM
4 26 27 28 44
