AV-unprocessed.smi:3203|AV-procd|sdf|12249|dock5
  -GOLD-   2272018 83D 1   1.00000     0.00000
 Structure written by MMmdl.
 32 33  0  0  0  0  0  0  0  0  1 V2000
  151.5018  143.9778  159.2329 C   0  0  0  0  0  0  0  0  0  0  0  0
  152.2932  142.7546  159.6680 C   0  0  0  0  0  0  0  0  0  0  0  0
  153.0747  142.8184  160.8410 C   0  0  0  0  0  0  0  0  0  0  0  0
  153.8044  141.6860  161.2412 C   0  0  0  0  0  0  0  0  0  0  0  0
  153.7205  140.5299  160.4463 C   0  0  0  0  0  0  0  0  0  0  0  0
  152.9763  140.4599  159.3240 N   0  0  0  0  0  0  0  0  0  0  0  0
  152.2659  141.5444  158.9240 C   0  0  0  0  0  0  0  0  0  0  0  0
  151.4605  141.5456  157.7516 N   0  0  0  0  0  0  0  0  0  0  0  0
  151.5600  140.7666  156.6575 C   0  0  0  0  0  0  0  0  0  0  0  0
  152.4175  139.9001  156.4884 O   0  0  0  0  0  0  0  0  0  0  0  0
  150.5293  141.0213  155.5568 C   0  0  0  0  0  0  0  0  0  0  0  0
  150.6663  140.0385  154.5409 O   0  0  0  0  0  0  0  0  0  0  0  0
  149.5076  139.2365  154.3960 C   0  0  0  0  0  0  0  0  0  0  0  0
  148.4952  139.9874  153.5582 C   0  0  0  0  0  0  0  0  0  0  0  0
  147.9750  141.3334  154.0088 C   0  0  0  0  0  0  0  0  0  0  0  0
  147.0647  140.1316  154.0262 C   0  0  0  0  0  0  0  0  0  0  0  0
  151.6517  144.8124  159.9185 H   0  0  0  0  0  0  0  0  0  0  0  0
  150.4353  143.7525  159.2063 H   0  0  0  0  0  0  0  0  0  0  0  0
  151.8125  144.3011  158.2389 H   0  0  0  0  0  0  0  0  0  0  0  0
  153.1166  143.7233  161.4297 H   0  0  0  0  0  0  0  0  0  0  0  0
  154.4114  141.7029  162.1340 H   0  0  0  0  0  0  0  0  0  0  0  0
  154.2652  139.6377  160.7175 H   0  0  0  0  0  0  0  0  0  0  0  0
  150.7033  142.2133  157.7474 H   0  0  0  0  0  0  0  0  0  0  0  0
  149.5301  140.9839  155.9930 H   0  0  0  0  0  0  0  0  0  0  0  0
  150.6767  142.0188  155.1395 H   0  0  0  0  0  0  0  0  0  0  0  0
  149.7545  138.2876  153.9166 H   0  0  0  0  0  0  0  0  0  0  0  0
  149.0705  139.0185  155.3715 H   0  0  0  0  0  0  0  0  0  0  0  0
  148.6400  139.8715  152.4856 H   0  0  0  0  0  0  0  0  0  0  0  0
  148.3186  141.7162  154.9679 H   0  0  0  0  0  0  0  0  0  0  0  0
  147.7993  142.0857  153.2424 H   0  0  0  0  0  0  0  0  0  0  0  0
  146.2828  140.0809  153.2714 H   0  0  0  0  0  0  0  0  0  0  0  0
  146.8037  139.7133  154.9963 H   0  0  0  0  0  0  0  0  0  0  0  0
  1  2  1  0  0  0  0
  1 17  1  0  0  0  0
  1 18  1  0  0  0  0
  1 19  1  0  0  0  0
  2  7  1  0  0  0  0
  2  3  2  0  0  0  0
  3  4  1  0  0  0  0
  3 20  1  0  0  0  0
  4  5  2  0  0  0  0
  4 21  1  0  0  0  0
  5  6  1  0  0  0  0
  5 22  1  0  0  0  0
  6  7  2  0  0  0  0
  7  8  1  0  0  0  0
  8  9  1  0  0  0  0
  8 23  1  0  0  0  0
  9 10  2  0  0  0  0
  9 11  1  0  0  0  0
 11 12  1  0  0  0  0
 11 24  1  0  0  0  0
 11 25  1  0  0  0  0
 12 13  1  0  0  0  0
 13 14  1  0  0  0  0
 13 26  1  0  0  0  0
 13 27  1  0  0  0  0
 14 16  1  0  0  0  0
 14 15  1  0  0  0  0
 14 28  1  0  0  0  0
 15 16  1  0  0  0  0
 15 29  1  0  0  0  0
 15 30  1  0  0  0  0
 16 31  1  0  0  0  0
 16 32  1  0  0  0  0
M  END
> <s_m_source_file>
AV-unprocessed.smi

> <i_m_source_file_index>
3203

> <i_lp_mmshare_version>
43012

> <i_f3d_flags>
0

> <s_epik_input>
W0NIM11jMVtjSF1bY0hdW2NIXW5jMVtOSF1DKD1PKVtDSDJdT1tDSDJdW0NIXTJbQ0gyXVtDSDJdMg==

> <s_epik_cmdline>
J2VwaWtfcHl0aG9uJywgJy1waCcsICc3LjAnLCAnLXRuJywgJzgnLCAnLW1hJywgJzIwMCcsICctbWV0YWxfYmluZGluZycsICctaW1hZScsICc8aW5maWxlLm1hZT4nLCAnLW9tYWUnLCAnPG91dGZpbGUubWFlPic=

> <r_epik_Ionization_Penalty>
0.00323497

> <r_epik_Ionization_Penalty_Charging>
0

> <r_epik_Ionization_Penalty_Neutral>
0.00323497

> <r_epik_State_Penalty>
0.00315819

> <r_epik_Charging_Adjusted_Penalty>
0.00315819

> <i_epik_Tot_Q>
0

> <i_epik_Tot_abs_Q>
0

> <r_epik_Metal_State_Penalty>
-0

> <b_epik_Metal_Only>
0

> <s_lp_Force_Field>
OPLS_2005

> <r_lp_Energy>
15.2792

> <b_lp_Chiralities_Consistent>
1

> <s_lp_Variant>
AV-unprocessed.smi:3203-1

> <Gold.Version>
5.8.1

> <Gold.Id.Protein>
6NUR|6NUR_protein|mol2

> <Gold.PLP.Fitness>
40.1573

> <Gold.PLP.PLP>
-35.5917

> <Gold.PLP.part.hbond>
-2.0000

> <Gold.PLP.part.metal>
0.0000

> <Gold.PLP.part.buried>
-1.4470

> <Gold.PLP.part.nonpolar>
-31.3842

> <Gold.PLP.part.repulsive>
0.1535

> <Gold.PLP.ligand.clash>
0.0000

> <Gold.PLP.ligand.torsion>
0.9897

> <Gold.PLP.Chemscore.Hbond>
1.9913

> <Gold.PLP.Chemscore.CHOScore>
0.0000

> <Gold.PLP.Chemscore.Metal>
0.0000

> <Gold.Chemscore.Hbonds>
donor molecule, donor type, donor heavy atom, donor atom, acceptor molecule, acceptor atom, score
      P1  H  7989  7998       L1    12  0.95
      P1  H  7997  8009       L1    10  1.00

> <Gold.PLP.Chemscore.Internal.Correction>
0.5713

> <Gold.Rescore>
     Score         DG    S(hbond)    S(metal)    S(lipo)     H(rot)  DE(clash)    DE(int)     intcor
     15.12     -17.57       1.85        0.00      84.23       1.54       0.21       2.24       ----

> <Gold.Chemscore.Fitness>
15.1235

> <Gold.Chemscore.DG>
-17.5713

> <Gold.Chemscore.ZeroCoef>
-5.4800

> <Gold.Chemscore.Hbond>
1.8463

> <Gold.Chemscore.Metal>
0.0000

> <Gold.Chemscore.Lipo>
84.2343

> <Gold.Chemscore.Internal_Hbond>
0.0000

> <Gold.Chemscore.DEClash>
0.2100

> <Gold.Chemscore.DEInternal>
2.2378

> <Gold.Chemscore.Rot>
1.5355

> <Gold.Chemscore.Internal.Correction>
   9.000000E+99

> <Gold.Chemscore.Hbonds>
donor molecule, donor type, donor heavy atom, donor atom, acceptor molecule, acceptor atom, score
      P1  H  7989  7998       L1    12  0.21
      P1  H  7997  8009       L1    10  0.99

> <Gold.Chemscore.Hbond.Weighted>
-6.1667

> <Gold.Chemscore.Metal.Weighted>
-0.0000

> <Gold.Chemscore.Lipo.Weighted>
-9.8554

> <Gold.Chemscore.Internal_Hbond.Weighted>
0.0000

> <Gold.Chemscore.DEClash.Weighted>
0.2100

> <Gold.Chemscore.DEInternal.Weighted>
2.2378

> <Gold.Chemscore.Rot.Weighted>
3.9308

> <Gold.Chemscore.Internal.Correction.Weighted>
   9.000000E+99

> <Gold.Protein.RotatedTorsions>
[ 6907 6896 6895 6894 ] final  -27.25 input  -60.11 | X-H torsion
[ 7974 7965 7964 7962 ] final   46.64 input  175.53 | X-H torsion
[ 8008 7997 7996 7995 ] final -168.15 input   59.86 | X-H torsion
[ 10167 10162 10161 10158 ] final   78.63 input  -65.29 | X-H torsion
[ 10718 10713 10712 10709 ] final   84.80 input   66.30 | X-H torsion
[ 10763 10752 10751 10750 ] final  -18.37 input  -60.55 | X-H torsion
[ 11005 11000 10999 10996 ] final   92.56 input  -57.11 | X-H torsion

> <Gold.Protein.ActiveResidues>
 VAL166  LYS551  ARG553  GLY616  TRP617  ASP618  TYR619  PRO620  LYS621  CYS622 
 ASP623  PHE694  ASN695  SER759  ASP760  ASP761  ALA762  ILE779  LEU786  VAL792 
 PHE793  MET794  SER795  GLU796  ALA797  LYS798  CYS799  TRP800  GLU811  SER814 

> <Gold.Protein.RotatedAtoms>
  151.1495  135.0220  159.8661 H   0  0  0  0  0  0  0  0  0  0  0  0  # atno 6907 bound_to 6896
  152.5453  134.1405  159.8487 H   0  0  0  0  0  0  0  0  0  0  0  0  # atno 6908 bound_to 6896
  151.1489  133.4875  159.2628 H   0  0  0  0  0  0  0  0  0  0  0  0  # atno 6909 bound_to 6896
  146.0371  139.4834  142.9801 H   0  0  0  0  0  0  0  0  0  0  0  0  # atno 7974 bound_to 7965
  155.8875  140.1019  157.1442 H   0  0  0  0  0  0  0  0  0  0  0  0  # atno 8008 bound_to 7997
  154.4011  140.1317  156.4337 H   0  0  0  0  0  0  0  0  0  0  0  0  # atno 8009 bound_to 7997
  155.7572  140.3464  155.5182 H   0  0  0  0  0  0  0  0  0  0  0  0  # atno 8010 bound_to 7997
  139.9688  144.5909  150.8004 H   0  0  0  0  0  0  0  0  0  0  0  0  # atno 10167 bound_to 10162
  157.6904  131.0148  150.2727 H   0  0  0  0  0  0  0  0  0  0  0  0  # atno 10718 bound_to 10713
  153.5883  135.7003  153.5434 H   0  0  0  0  0  0  0  0  0  0  0  0  # atno 10763 bound_to 10752
  153.3201  135.4076  155.1409 H   0  0  0  0  0  0  0  0  0  0  0  0  # atno 10764 bound_to 10752
  154.8605  135.3693  154.5413 H   0  0  0  0  0  0  0  0  0  0  0  0  # atno 10765 bound_to 10752
  139.8822  134.8740  156.3590 H   0  0  0  0  0  0  0  0  0  0  0  0  # atno 11005 bound_to 11000
  145.6945  141.0154  143.1537 LP  0  0  0  0  0  0  0  0  0  0  0  0  # atno 17320 bound_to 7965
  144.7057  139.8572  143.7430 LP  0  0  0  0  0  0  0  0  0  0  0  0  # atno 17321 bound_to 7965
  140.7529  143.2998  151.3110 LP  0  0  0  0  0  0  0  0  0  0  0  0  # atno 17342 bound_to 10162
  139.6497  144.0386  152.2617 LP  0  0  0  0  0  0  0  0  0  0  0  0  # atno 17343 bound_to 10162
  156.3287  130.3797  149.7510 LP  0  0  0  0  0  0  0  0  0  0  0  0  # atno 17370 bound_to 10713
  156.5056  130.8149  151.3149 LP  0  0  0  0  0  0  0  0  0  0  0  0  # atno 17371 bound_to 10713
  140.9542  133.7431  156.0313 LP  0  0  0  0  0  0  0  0  0  0  0  0  # atno 17394 bound_to 11000
  140.8069  134.3445  157.5423 LP  0  0  0  0  0  0  0  0  0  0  0  0  # atno 17395 bound_to 11000

$$$$
