AV-unprocessed.smi:503|AV-procd|sdf|2746|dock4
  -GOLD-   2262023213D 1   1.00000     0.00000
 Structure written by MMmdl.
 44 45  0  0  0  0  0  0  0  0  1 V2000
  149.0668  140.1386  156.2117 O   0  0  0  0  0  0  0  0  0  0  0  0
  149.2764  141.3093  155.8903 C   0  0  0  0  0  0  0  0  0  0  0  0
  150.7063  141.8637  155.8145 C   0  0  0  0  0  0  0  0  0  0  0  0
  151.3896  141.9037  157.1184 N   0  0  0  0  0  0  0  0  0  0  0  0
  151.1750  143.0427  157.9193 C   0  0  0  0  0  0  0  0  0  0  0  0
  151.7459  143.2072  159.1282 C   0  0  0  0  0  0  0  0  0  0  0  0
  151.4467  144.4191  159.9971 C   0  0  0  0  0  0  0  0  0  0  0  0
  151.8607  145.5430  159.4113 F   0  0  0  0  0  0  0  0  0  0  0  0
  150.1336  144.5162  160.2005 F   0  0  0  0  0  0  0  0  0  0  0  0
  152.0441  144.3215  161.1855 F   0  0  0  0  0  0  0  0  0  0  0  0
  152.5862  142.1229  159.5973 C   0  0  0  0  0  0  0  0  0  0  0  0
  152.7913  141.0206  158.8498 C   0  0  0  0  0  0  0  0  0  0  0  0
  152.1775  140.8649  157.5290 C   0  0  0  0  0  0  0  0  0  0  0  0
  152.3590  139.8634  156.8362 O   0  0  0  0  0  0  0  0  0  0  0  0
  148.2964  142.1806  155.6060 N   0  0  0  0  0  0  0  0  0  0  0  0
  146.8646  141.8876  155.6189 C   0  0  0  0  0  0  0  0  0  0  0  0
  146.1053  143.0523  154.9473 C   0  0  0  0  0  0  0  0  0  0  0  0
  144.5696  143.0116  155.0819 C   0  0  0  0  0  0  0  0  0  0  0  0
  143.9929  143.9833  156.1321 C   0  0  0  0  0  0  0  0  0  0  0  0
  144.2790  143.6604  157.6132 C   0  0  0  0  0  0  0  0  0  0  0  0
  145.7510  143.8347  158.0406 C   0  0  0  0  0  0  0  0  0  0  0  0
  146.5655  142.5319  158.1612 C   0  0  0  0  0  0  0  0  0  0  0  0
  146.3894  141.4917  157.0371 C   0  0  0  0  0  0  0  0  0  0  0  0
  151.2847  141.2694  155.1042 H   0  0  0  0  0  0  0  0  0  0  0  0
  150.6610  142.8625  155.3781 H   0  0  0  0  0  0  0  0  0  0  0  0
  150.5043  143.7727  157.4897 H   0  0  0  0  0  0  0  0  0  0  0  0
  153.0621  142.1968  160.5640 H   0  0  0  0  0  0  0  0  0  0  0  0
  153.4243  140.2328  159.2314 H   0  0  0  0  0  0  0  0  0  0  0  0
  148.5619  143.1231  155.3589 H   0  0  0  0  0  0  0  0  0  0  0  0
  146.6941  141.0154  154.9846 H   0  0  0  0  0  0  0  0  0  0  0  0
  146.4872  144.0164  155.2804 H   0  0  0  0  0  0  0  0  0  0  0  0
  146.3500  143.0225  153.8845 H   0  0  0  0  0  0  0  0  0  0  0  0
  144.1500  143.3043  154.1187 H   0  0  0  0  0  0  0  0  0  0  0  0
  144.2085  141.9963  155.2450 H   0  0  0  0  0  0  0  0  0  0  0  0
  144.3270  144.9977  155.9105 H   0  0  0  0  0  0  0  0  0  0  0  0
  142.9102  144.0034  156.0029 H   0  0  0  0  0  0  0  0  0  0  0  0
  143.6832  144.3549  158.2064 H   0  0  0  0  0  0  0  0  0  0  0  0
  143.9017  142.6729  157.8790 H   0  0  0  0  0  0  0  0  0  0  0  0
  146.2563  144.5469  157.3903 H   0  0  0  0  0  0  0  0  0  0  0  0
  145.7663  144.3111  159.0214 H   0  0  0  0  0  0  0  0  0  0  0  0
  147.6215  142.7791  158.2750 H   0  0  0  0  0  0  0  0  0  0  0  0
  146.2806  142.0484  159.0964 H   0  0  0  0  0  0  0  0  0  0  0  0
  145.3555  141.1530  157.0029 H   0  0  0  0  0  0  0  0  0  0  0  0
  146.9430  140.6004  157.3356 H   0  0  0  0  0  0  0  0  0  0  0  0
  1  2  2  0  0  0  0
  2  3  1  0  0  0  0
  2 15  1  0  0  0  0
  3  4  1  0  0  0  0
  3 24  1  0  0  0  0
  3 25  1  0  0  0  0
  4 13  1  0  0  0  0
  4  5  1  0  0  0  0
  5  6  2  0  0  0  0
  5 26  1  0  0  0  0
  6  7  1  0  0  0  0
  6 11  1  0  0  0  0
  7  8  1  0  0  0  0
  7  9  1  0  0  0  0
  7 10  1  0  0  0  0
 11 12  2  0  0  0  0
 11 27  1  0  0  0  0
 12 13  1  0  0  0  0
 12 28  1  0  0  0  0
 13 14  2  0  0  0  0
 15 16  1  0  0  0  0
 15 29  1  0  0  0  0
 16 23  1  0  0  0  0
 16 17  1  0  0  0  0
 16 30  1  0  0  0  0
 17 18  1  0  0  0  0
 17 31  1  0  0  0  0
 17 32  1  0  0  0  0
 18 19  1  0  0  0  0
 18 33  1  0  0  0  0
 18 34  1  0  0  0  0
 19 20  1  0  0  0  0
 19 35  1  0  0  0  0
 19 36  1  0  0  0  0
 20 21  1  0  0  0  0
 20 37  1  0  0  0  0
 20 38  1  0  0  0  0
 21 22  1  0  0  0  0
 21 39  1  0  0  0  0
 21 40  1  0  0  0  0
 22 23  1  0  0  0  0
 22 41  1  0  0  0  0
 22 42  1  0  0  0  0
 23 43  1  0  0  0  0
 23 44  1  0  0  0  0
M  END
> <s_m_source_file>
AV-unprocessed.smi

> <i_m_source_file_index>
503

> <i_lp_mmshare_version>
43012

> <i_f3d_flags>
0

> <s_epik_input>
Tz1jMVtjSF1bY0hdYyhDKEYpKEYpRilbY0hdbjFbQ0gyXUMoPU8pW05IXVtDSF0yW0NIMl1bQ0gyXVtDSDJdW0NIMl1bQ0gyXVtDSDJdW0NIMl0y

> <s_epik_cmdline>
J2VwaWtfcHl0aG9uJywgJy1waCcsICc3LjAnLCAnLXRuJywgJzgnLCAnLW1hJywgJzIwMCcsICctbWV0YWxfYmluZGluZycsICctaW1hZScsICc8aW5maWxlLm1hZT4nLCAnLW9tYWUnLCAnPG91dGZpbGUubWFlPic=

> <r_lp_tautomer_probability>
1

> <r_epik_Ionization_Penalty>
3.93819e-08

> <r_epik_Ionization_Penalty_Charging>
1.9167e-08

> <r_epik_Ionization_Penalty_Neutral>
2.02148e-08

> <r_epik_State_Penalty>
-0

> <r_epik_Charging_Adjusted_Penalty>
1.9167e-08

> <i_epik_Tot_Q>
0

> <i_epik_Tot_abs_Q>
0

> <r_epik_Metal_State_Penalty>
-0

> <b_epik_Metal_Only>
0

> <s_lp_Force_Field>
OPLS_2005

> <r_lp_Energy>
31.4462

> <b_lp_Chiralities_Consistent>
1

> <s_lp_Variant>
AV-unprocessed.smi:503-1

> <Gold.Version>
5.8.1

> <Gold.Id.Protein>
6NUR|6NUR_protein|mol2

> <Gold.PLP.Fitness>
50.4821

> <Gold.PLP.PLP>
-42.9388

> <Gold.PLP.part.hbond>
-2.0000

> <Gold.PLP.part.metal>
0.0000

> <Gold.PLP.part.buried>
-4.5131

> <Gold.PLP.part.nonpolar>
-35.4312

> <Gold.PLP.part.repulsive>
0.1015

> <Gold.PLP.ligand.clash>
0.0000

> <Gold.PLP.ligand.torsion>
0.4917

> <Gold.PLP.Chemscore.Hbond>
1.9750

> <Gold.PLP.Chemscore.CHOScore>
0.8343

> <Gold.PLP.Chemscore.Metal>
0.0000

> <Gold.Chemscore.Hbonds>
donor molecule, donor type, donor heavy atom, donor atom, acceptor molecule, acceptor atom, score
      L1  H    15    29       P1  8028  1.00
      P1  H  7997  8008       L1    14  0.90
      L1  C     5    26       P1  8028  0.83

> <Gold.PLP.Chemscore.Internal.Correction>
0.0988

> <Gold.Rescore>
     Score         DG    S(hbond)    S(metal)    S(lipo)     H(rot)  DE(clash)    DE(int)     intcor
     16.17     -17.20       1.92        0.00      78.54       1.51       0.55       0.47       ----

> <Gold.Chemscore.Fitness>
16.1706

> <Gold.Chemscore.DG>
-17.1973

> <Gold.Chemscore.ZeroCoef>
-5.4800

> <Gold.Chemscore.Hbond>
1.9165

> <Gold.Chemscore.Metal>
0.0000

> <Gold.Chemscore.Lipo>
78.5430

> <Gold.Chemscore.Internal_Hbond>
0.0000

> <Gold.Chemscore.DEClash>
0.5532

> <Gold.Chemscore.DEInternal>
0.4735

> <Gold.Chemscore.Rot>
1.5131

> <Gold.Chemscore.Internal.Correction>
   9.000000E+99

> <Gold.Chemscore.Hbonds>
donor molecule, donor type, donor heavy atom, donor atom, acceptor molecule, acceptor atom, score
      L1  H    15    29       P1  8028  0.98
      P1  H  7997  8008       L1    14  0.17

> <Gold.Chemscore.Hbond.Weighted>
-6.4012

> <Gold.Chemscore.Metal.Weighted>
-0.0000

> <Gold.Chemscore.Lipo.Weighted>
-9.1895

> <Gold.Chemscore.Internal_Hbond.Weighted>
0.0000

> <Gold.Chemscore.DEClash.Weighted>
0.5532

> <Gold.Chemscore.DEInternal.Weighted>
0.4735

> <Gold.Chemscore.Rot.Weighted>
3.8734

> <Gold.Chemscore.Internal.Correction.Weighted>
   9.000000E+99

> <Gold.Protein.RotatedTorsions>
[ 6907 6896 6895 6894 ] final    4.65 input  -60.11 | X-H torsion
[ 7974 7965 7964 7962 ] final   42.88 input  175.53 | X-H torsion
[ 8008 7997 7996 7995 ] final  -51.43 input   59.86 | X-H torsion
[ 10167 10162 10161 10158 ] final -141.19 input  -65.29 | X-H torsion
[ 10718 10713 10712 10709 ] final  -60.63 input   66.30 | X-H torsion
[ 10763 10752 10751 10750 ] final -163.49 input  -60.55 | X-H torsion
[ 11005 11000 10999 10996 ] final   67.62 input  -57.11 | X-H torsion

> <Gold.Protein.ActiveResidues>
 VAL166  LYS551  ARG553  GLY616  TRP617  ASP618  TYR619  PRO620  LYS621  CYS622 
 ASP623  PHE694  ASN695  SER759  ASP760  ASP761  ALA762  ILE779  LEU786  VAL792 
 PHE793  MET794  SER795  GLU796  ALA797  LYS798  CYS799  TRP800  GLU811  SER814 

> <Gold.Protein.RotatedAtoms>
  151.6447  135.1008  160.0148 H   0  0  0  0  0  0  0  0  0  0  0  0  # atno 6907 bound_to 6896
  152.4034  133.6848  159.6344 H   0  0  0  0  0  0  0  0  0  0  0  0  # atno 6908 bound_to 6896
  150.7931  133.8668  159.3288 H   0  0  0  0  0  0  0  0  0  0  0  0  # atno 6909 bound_to 6896
  146.0703  139.5250  142.9602 H   0  0  0  0  0  0  0  0  0  0  0  0  # atno 7974 bound_to 7965
  154.4083  140.1248  156.4828 H   0  0  0  0  0  0  0  0  0  0  0  0  # atno 8008 bound_to 7997
  155.7068  140.3494  155.4937 H   0  0  0  0  0  0  0  0  0  0  0  0  # atno 8009 bound_to 7997
  155.9336  140.1074  157.1103 H   0  0  0  0  0  0  0  0  0  0  0  0  # atno 8010 bound_to 7997
  139.8209  143.7576  152.2666 H   0  0  0  0  0  0  0  0  0  0  0  0  # atno 10167 bound_to 10162
  156.0977  130.4190  150.0881 H   0  0  0  0  0  0  0  0  0  0  0  0  # atno 10718 bound_to 10713
  154.7117  135.3007  154.9187 H   0  0  0  0  0  0  0  0  0  0  0  0  # atno 10763 bound_to 10752
  154.0086  135.6697  153.4768 H   0  0  0  0  0  0  0  0  0  0  0  0  # atno 10764 bound_to 10752
  153.0760  135.5034  154.8319 H   0  0  0  0  0  0  0  0  0  0  0  0  # atno 10765 bound_to 10752
  139.9760  134.6822  156.0354 H   0  0  0  0  0  0  0  0  0  0  0  0  # atno 11005 bound_to 11000
  145.6403  141.0285  143.1815 LP  0  0  0  0  0  0  0  0  0  0  0  0  # atno 17320 bound_to 7965
  144.7227  139.7975  143.7376 LP  0  0  0  0  0  0  0  0  0  0  0  0  # atno 17321 bound_to 7965
  139.7753  144.7463  151.0165 LP  0  0  0  0  0  0  0  0  0  0  0  0  # atno 17342 bound_to 10162
  140.7813  143.4600  151.0291 LP  0  0  0  0  0  0  0  0  0  0  0  0  # atno 17343 bound_to 10162
  156.8875  130.9577  151.3592 LP  0  0  0  0  0  0  0  0  0  0  0  0  # atno 17370 bound_to 10713
  157.6142  130.8605  149.9000 LP  0  0  0  0  0  0  0  0  0  0  0  0  # atno 17371 bound_to 10713
  141.1437  133.6560  156.3803 LP  0  0  0  0  0  0  0  0  0  0  0  0  # atno 17394 bound_to 11000
  140.5194  134.6318  157.5313 LP  0  0  0  0  0  0  0  0  0  0  0  0  # atno 17395 bound_to 11000

$$$$
