AV-unprocessed.smi:1958|AV-procd|sdf|7906|dock2
  -GOLD-   2272010 63D 1   1.00000     0.00000
 Structure written by MMmdl.
 47 48  0  0  0  0  0  0  0  0  1 V2000
  144.2234  138.5981  160.0797 C   0  0  0  0  0  0  0  0  0  0  0  0
  145.0328  138.6821  161.2393 O   0  0  0  0  0  0  0  0  0  0  0  0
  145.1124  137.4499  161.9374 C   0  0  0  0  0  0  0  0  0  0  0  0
  146.5854  137.0275  162.0635 C   0  0  0  0  0  0  0  0  0  0  0  0
  147.1548  136.6418  160.7674 N   0  0  0  0  0  0  0  0  0  0  0  0
  148.3776  137.2300  160.4924 N   0  0  0  0  0  0  0  0  0  0  0  0
  148.9791  136.9883  159.3724 C   0  0  0  0  0  0  0  0  0  0  0  0
  150.2920  137.6055  159.0374 C   0  0  0  0  0  0  0  0  0  0  0  0
  151.3596  137.0604  159.3226 O   0  0  0  0  0  0  0  0  0  0  0  0
  150.2214  138.7953  158.4143 N   0  0  0  0  0  0  0  0  0  0  0  0
  151.3546  139.6288  158.0197 C   0  0  0  0  0  0  0  0  0  0  0  0
  150.9141  141.0388  157.5448 C   0  0  2  0  0  0  0  0  0  0  0  0
  150.7305  141.0052  156.0107 C   0  0  0  0  0  0  0  0  0  0  0  0
  151.7966  142.1316  158.0095 N   0  0  0  0  0  0  0  0  0  0  0  0
  151.9929  142.1160  159.4622 C   0  0  0  0  0  0  0  0  0  0  0  0
  152.9029  143.2575  159.9468 C   0  0  0  0  0  0  0  0  0  0  0  0
  152.3611  144.5064  159.5377 O   0  0  0  0  0  0  0  0  0  0  0  0
  152.2134  144.5928  158.1264 C   0  0  0  0  0  0  0  0  0  0  0  0
  151.3013  143.4576  157.6295 C   0  0  0  0  0  0  0  0  0  0  0  0
  148.3900  136.0947  158.3897 C   0  0  0  0  0  0  0  0  0  0  0  0
  147.1965  135.5278  158.6722 C   0  0  0  0  0  0  0  0  0  0  0  0
  146.4920  135.7898  159.9282 C   0  0  0  0  0  0  0  0  0  0  0  0
  145.4003  135.2932  160.2037 O   0  0  0  0  0  0  0  0  0  0  0  0
  144.1921  139.5684  159.5837 H   0  0  0  0  0  0  0  0  0  0  0  0
  143.2005  138.3162  160.3321 H   0  0  0  0  0  0  0  0  0  0  0  0
  144.6228  137.8710  159.3715 H   0  0  0  0  0  0  0  0  0  0  0  0
  144.6817  137.5685  162.9324 H   0  0  0  0  0  0  0  0  0  0  0  0
  144.5327  136.6811  161.4243 H   0  0  0  0  0  0  0  0  0  0  0  0
  147.1630  137.8411  162.5061 H   0  0  0  0  0  0  0  0  0  0  0  0
  146.6708  136.1987  162.7686 H   0  0  0  0  0  0  0  0  0  0  0  0
  149.3021  139.1675  158.2238 H   0  0  0  0  0  0  0  0  0  0  0  0
  152.0778  139.7100  158.8328 H   0  0  0  0  0  0  0  0  0  0  0  0
  151.8935  139.1086  157.2283 H   0  0  0  0  0  0  0  0  0  0  0  0
  149.9218  141.2068  157.9668 H   0  0  0  0  0  0  0  0  0  0  0  0
  150.1760  140.1203  155.6980 H   0  0  0  0  0  0  0  0  0  0  0  0
  151.6899  140.9923  155.4924 H   0  0  0  0  0  0  0  0  0  0  0  0
  150.1636  141.8619  155.6479 H   0  0  0  0  0  0  0  0  0  0  0  0
  151.0278  142.1843  159.9666 H   0  0  0  0  0  0  0  0  0  0  0  0
  152.4476  141.1784  159.7777 H   0  0  0  0  0  0  0  0  0  0  0  0
  152.9822  143.2432  161.0339 H   0  0  0  0  0  0  0  0  0  0  0  0
  153.9128  143.1416  159.5503 H   0  0  0  0  0  0  0  0  0  0  0  0
  151.7840  145.5619  157.8720 H   0  0  0  0  0  0  0  0  0  0  0  0
  153.1920  144.5397  157.6466 H   0  0  0  0  0  0  0  0  0  0  0  0
  151.2335  143.5439  156.5461 H   0  0  0  0  0  0  0  0  0  0  0  0
  150.2939  143.6032  158.0222 H   0  0  0  0  0  0  0  0  0  0  0  0
  148.8873  135.8833  157.4541 H   0  0  0  0  0  0  0  0  0  0  0  0
  146.7466  134.8618  157.9503 H   0  0  0  0  0  0  0  0  0  0  0  0
  1  2  1  0  0  0  0
  1 24  1  0  0  0  0
  1 25  1  0  0  0  0
  1 26  1  0  0  0  0
  2  3  1  0  0  0  0
  3  4  1  0  0  0  0
  3 27  1  0  0  0  0
  3 28  1  0  0  0  0
  4  5  1  0  0  0  0
  4 29  1  0  0  0  0
  4 30  1  0  0  0  0
  5 22  1  0  0  0  0
  5  6  1  0  0  0  0
  6  7  2  0  0  0  0
  7  8  1  0  0  0  0
  7 20  1  0  0  0  0
  8  9  2  0  0  0  0
  8 10  1  0  0  0  0
 10 11  1  0  0  0  0
 10 31  1  0  0  0  0
 11 12  1  0  0  0  0
 11 32  1  0  0  0  0
 11 33  1  0  0  0  0
 12 13  1  0  0  0  0
 12 14  1  0  0  0  0
 12 34  1  0  0  0  0
 13 35  1  0  0  0  0
 13 36  1  0  0  0  0
 13 37  1  0  0  0  0
 14 19  1  0  0  0  0
 14 15  1  0  0  0  0
 15 16  1  0  0  0  0
 15 38  1  0  0  0  0
 15 39  1  0  0  0  0
 16 17  1  0  0  0  0
 16 40  1  0  0  0  0
 16 41  1  0  0  0  0
 17 18  1  0  0  0  0
 18 19  1  0  0  0  0
 18 42  1  0  0  0  0
 18 43  1  0  0  0  0
 19 44  1  0  0  0  0
 19 45  1  0  0  0  0
 20 21  2  0  0  0  0
 20 46  1  0  0  0  0
 21 22  1  0  0  0  0
 21 47  1  0  0  0  0
 22 23  2  0  0  0  0
M  END
> <s_m_source_file>
AV-unprocessed.smi

> <i_m_source_file_index>
1958

> <i_lp_mmshare_version>
43012

> <i_f3d_flags>
0

> <s_epik_input>
W0NIM11PW0NIMl1bQ0gyXW4xbmMoW2NIXVtjSF1jMT1PKUMoPU8pW05IXVtDSDJdW0NASF0oW0NIM10pTjJbQ0gyXVtDSDJdT1tDSDJdW0NIMl0y

> <s_epik_cmdline>
J2VwaWtfcHl0aG9uJywgJy1waCcsICc3LjAnLCAnLXRuJywgJzgnLCAnLW1hJywgJzIwMCcsICctbWV0YWxfYmluZGluZycsICctaW1hZScsICc8aW5maWxlLm1hZT4nLCAnLW9tYWUnLCAnPG91dGZpbGUubWFlPic=

> <r_lp_tautomer_probability>
1

> <r_epik_Ionization_Penalty>
0.206669

> <r_epik_Ionization_Penalty_Charging>
5.75808e-09

> <r_epik_Ionization_Penalty_Neutral>
0.206669

> <r_epik_State_Penalty>
0.196651

> <r_epik_Charging_Adjusted_Penalty>
0.196651

> <i_epik_Tot_Q>
0

> <i_epik_Tot_abs_Q>
0

> <r_epik_Metal_State_Penalty>
0.198415

> <b_epik_Metal_Only>
0

> <s_lp_Force_Field>
OPLS_2005

> <r_lp_Energy>
53.7992

> <b_lp_Chiralities_Consistent>
1

> <s_lp_Variant>
AV-unprocessed.smi:1958-1

> <Gold.Version>
5.8.1

> <Gold.Id.Protein>
6NUR|6NUR_protein|mol2

> <Gold.PLP.Fitness>
44.1913

> <Gold.PLP.PLP>
-42.2037

> <Gold.PLP.part.hbond>
-3.1911

> <Gold.PLP.part.metal>
0.0000

> <Gold.PLP.part.buried>
-6.6597

> <Gold.PLP.part.nonpolar>
-33.7833

> <Gold.PLP.part.repulsive>
0.1770

> <Gold.PLP.ligand.clash>
0.0000

> <Gold.PLP.ligand.torsion>
2.5869

> <Gold.PLP.Chemscore.Hbond>
2.3440

> <Gold.PLP.Chemscore.CHOScore>
0.0000

> <Gold.PLP.Chemscore.Metal>
0.0000

> <Gold.Chemscore.Hbonds>
donor molecule, donor type, donor heavy atom, donor atom, acceptor molecule, acceptor atom, score
      P1  H  6896  6907       L1     9  0.98
      P1  H  6931  6943       L1     6  0.72
      P1  H  6934  6947       L1     2  0.26

> <Gold.PLP.Chemscore.Internal.Correction>
0.1294

> <Gold.Rescore>
     Score         DG    S(hbond)    S(metal)    S(lipo)     H(rot)  DE(clash)    DE(int)     intcor
     17.02     -19.37       2.54        0.00      90.78       2.04       0.02       2.33       ----

> <Gold.Chemscore.Fitness>
17.0226

> <Gold.Chemscore.DG>
-19.3692

> <Gold.Chemscore.ZeroCoef>
-5.4800

> <Gold.Chemscore.Hbond>
2.5430

> <Gold.Chemscore.Metal>
0.0000

> <Gold.Chemscore.Lipo>
90.7804

> <Gold.Chemscore.Internal_Hbond>
0.0000

> <Gold.Chemscore.DEClash>
0.0165

> <Gold.Chemscore.DEInternal>
2.3301

> <Gold.Chemscore.Rot>
2.0413

> <Gold.Chemscore.Internal.Correction>
   9.000000E+99

> <Gold.Chemscore.Hbonds>
donor molecule, donor type, donor heavy atom, donor atom, acceptor molecule, acceptor atom, score
      P1  H  6896  6907       L1     9  0.88
      P1  H  6931  6943       L1     6  0.63
      P1  H  6934  6947       L1     2  0.06

> <Gold.Chemscore.Hbond.Weighted>
-8.4936

> <Gold.Chemscore.Metal.Weighted>
-0.0000

> <Gold.Chemscore.Lipo.Weighted>
-10.6213

> <Gold.Chemscore.Internal_Hbond.Weighted>
0.0000

> <Gold.Chemscore.DEClash.Weighted>
0.0165

> <Gold.Chemscore.DEInternal.Weighted>
2.3301

> <Gold.Chemscore.Rot.Weighted>
5.2257

> <Gold.Chemscore.Internal.Correction.Weighted>
   9.000000E+99

> <Gold.Protein.RotatedTorsions>
[ 6907 6896 6895 6894 ] final    7.19 input  -60.11 | X-H torsion
[ 7974 7965 7964 7962 ] final  -44.73 input  175.53 | X-H torsion
[ 8008 7997 7996 7995 ] final  167.54 input   59.86 | X-H torsion
[ 10167 10162 10161 10158 ] final   99.31 input  -65.29 | X-H torsion
[ 10718 10713 10712 10709 ] final  -38.37 input   66.30 | X-H torsion
[ 10763 10752 10751 10750 ] final    7.97 input  -60.55 | X-H torsion
[ 11005 11000 10999 10996 ] final -165.01 input  -57.11 | X-H torsion

> <Gold.Protein.ActiveResidues>
 VAL166  LYS551  ARG553  GLY616  TRP617  ASP618  TYR619  PRO620  LYS621  CYS622 
 ASP623  PHE694  ASN695  SER759  ASP760  ASP761  ALA762  ILE779  LEU786  VAL792 
 PHE793  MET794  SER795  GLU796  ALA797  LYS798  CYS799  TRP800  GLU811  SER814 

> <Gold.Protein.RotatedAtoms>
  151.6859  135.0954  160.0224 H   0  0  0  0  0  0  0  0  0  0  0  0  # atno 6907 bound_to 6896
  152.3807  133.6538  159.6168 H   0  0  0  0  0  0  0  0  0  0  0  0  # atno 6908 bound_to 6896
  150.7745  133.9034  159.3389 H   0  0  0  0  0  0  0  0  0  0  0  0  # atno 6909 bound_to 6896
  145.9891  140.7200  142.9326 H   0  0  0  0  0  0  0  0  0  0  0  0  # atno 7974 bound_to 7965
  156.1624  140.1614  156.8589 H   0  0  0  0  0  0  0  0  0  0  0  0  # atno 8008 bound_to 7997
  154.5174  140.0786  156.8143 H   0  0  0  0  0  0  0  0  0  0  0  0  # atno 8009 bound_to 7997
  155.3679  140.3398  155.4244 H   0  0  0  0  0  0  0  0  0  0  0  0  # atno 8010 bound_to 7997
  139.7629  144.6948  151.0266 H   0  0  0  0  0  0  0  0  0  0  0  0  # atno 10167 bound_to 10162
  156.3046  130.4244  149.8110 H   0  0  0  0  0  0  0  0  0  0  0  0  # atno 10718 bound_to 10713
  153.2303  135.6892  153.7897 H   0  0  0  0  0  0  0  0  0  0  0  0  # atno 10763 bound_to 10752
  153.7064  135.3289  155.3237 H   0  0  0  0  0  0  0  0  0  0  0  0  # atno 10764 bound_to 10752
  154.8311  135.4580  154.1186 H   0  0  0  0  0  0  0  0  0  0  0  0  # atno 10765 bound_to 10752
  140.5805  134.5146  157.5177 H   0  0  0  0  0  0  0  0  0  0  0  0  # atno 11005 bound_to 11000
  144.6883  140.3039  143.7259 LP  0  0  0  0  0  0  0  0  0  0  0  0  # atno 17320 bound_to 7965
  145.7656  139.1839  143.2242 LP  0  0  0  0  0  0  0  0  0  0  0  0  # atno 17321 bound_to 7965
  140.7808  143.4676  151.0190 LP  0  0  0  0  0  0  0  0  0  0  0  0  # atno 17342 bound_to 10162
  139.8362  143.7625  152.3180 LP  0  0  0  0  0  0  0  0  0  0  0  0  # atno 17343 bound_to 10162
  156.5475  130.8327  151.3289 LP  0  0  0  0  0  0  0  0  0  0  0  0  # atno 17370 bound_to 10713
  157.7376  130.9799  150.2204 LP  0  0  0  0  0  0  0  0  0  0  0  0  # atno 17371 bound_to 10713
  139.9319  134.7947  156.0906 LP  0  0  0  0  0  0  0  0  0  0  0  0  # atno 17394 bound_to 11000
  141.0999  133.6681  156.2731 LP  0  0  0  0  0  0  0  0  0  0  0  0  # atno 17395 bound_to 11000

$$$$
