AV-unprocessed.smi:1466|AV-procd|sdf|5954|dock10
  -GOLD-   22720 6 43D 1   1.00000     0.00000
 Structure written by MMmdl.
 48 49  0  0  0  0  0  0  0  0  1 V2000
  145.7869  128.9126  152.1181 C   0  0  0  0  0  0  0  0  0  0  0  0
  146.9684  129.0233  152.9646 N   0  0  0  0  0  0  0  0  0  0  0  0
  147.5659  127.8230  153.5408 C   0  0  0  0  0  0  0  0  0  0  0  0
  147.5585  130.2861  153.2015 C   0  0  0  0  0  0  0  0  0  0  0  0
  148.7145  130.4232  154.0094 C   0  0  0  0  0  0  0  0  0  0  0  0
  149.2662  131.7024  154.2160 C   0  0  0  0  0  0  0  0  0  0  0  0
  148.6466  132.8222  153.6153 C   0  0  0  0  0  0  0  0  0  0  0  0
  149.1142  134.1597  153.7278 N   0  0  0  0  0  0  0  0  0  0  0  0
  149.9162  134.6952  154.6640 C   0  0  0  0  0  0  0  0  0  0  0  0
  150.3743  134.0982  155.6378 O   0  0  0  0  0  0  0  0  0  0  0  0
  150.1469  135.9924  154.4165 N   0  0  0  0  0  0  0  0  0  0  0  0
  150.9651  136.8698  155.2450 C   0  0  0  0  0  0  0  0  0  0  0  0
  151.5359  138.0451  154.4301 C   0  0  0  0  0  0  0  0  0  0  0  0
  151.0695  139.3357  154.9499 N   0  0  0  0  0  0  0  0  0  0  0  0
  149.8106  139.8446  154.3830 C   0  0  0  0  0  0  0  0  0  0  0  0
  148.6224  139.8085  155.3717 C   0  0  0  0  0  0  0  0  0  0  0  0
  148.9731  139.9750  156.8636 C   0  0  0  0  0  0  0  0  0  0  0  0
  149.8479  141.2017  157.1971 C   0  0  0  0  0  0  0  0  0  0  0  0
  151.1770  141.3384  156.4158 C   0  0  0  0  0  0  0  0  0  0  0  0
  151.7560  140.0083  155.9062 C   0  0  0  0  0  0  0  0  0  0  0  0
  152.8165  139.6022  156.3818 O   0  0  0  0  0  0  0  0  0  0  0  0
  147.5094  132.5865  152.8189 C   0  0  0  0  0  0  0  0  0  0  0  0
  146.9773  131.3632  152.6193 N   0  0  0  0  0  0  0  0  0  0  0  0
  145.9960  129.2897  151.1166 H   0  0  0  0  0  0  0  0  0  0  0  0
  144.9576  129.4813  152.5401 H   0  0  0  0  0  0  0  0  0  0  0  0
  145.4630  127.8762  152.0216 H   0  0  0  0  0  0  0  0  0  0  0  0
  148.5887  127.6951  153.1851 H   0  0  0  0  0  0  0  0  0  0  0  0
  147.0043  126.9291  153.2698 H   0  0  0  0  0  0  0  0  0  0  0  0
  147.5825  127.8887  154.6292 H   0  0  0  0  0  0  0  0  0  0  0  0
  149.1933  129.5735  154.4717 H   0  0  0  0  0  0  0  0  0  0  0  0
  150.1576  131.7920  154.8163 H   0  0  0  0  0  0  0  0  0  0  0  0
  148.7559  134.8001  153.0343 H   0  0  0  0  0  0  0  0  0  0  0  0
  149.7269  136.4028  153.5954 H   0  0  0  0  0  0  0  0  0  0  0  0
  150.3838  137.2299  156.0956 H   0  0  0  0  0  0  0  0  0  0  0  0
  151.7805  136.2749  155.6572 H   0  0  0  0  0  0  0  0  0  0  0  0
  152.6261  138.0084  154.4388 H   0  0  0  0  0  0  0  0  0  0  0  0
  151.2570  137.9466  153.3793 H   0  0  0  0  0  0  0  0  0  0  0  0
  149.9648  140.8647  154.0309 H   0  0  0  0  0  0  0  0  0  0  0  0
  149.5408  139.2965  153.4794 H   0  0  0  0  0  0  0  0  0  0  0  0
  147.8984  140.5695  155.0787 H   0  0  0  0  0  0  0  0  0  0  0  0
  148.1067  138.8544  155.2580 H   0  0  0  0  0  0  0  0  0  0  0  0
  148.0474  140.0375  157.4363 H   0  0  0  0  0  0  0  0  0  0  0  0
  149.4652  139.0697  157.2224 H   0  0  0  0  0  0  0  0  0  0  0  0
  149.2607  142.1072  157.0413 H   0  0  0  0  0  0  0  0  0  0  0  0
  150.0707  141.1794  158.2645 H   0  0  0  0  0  0  0  0  0  0  0  0
  151.0459  142.0129  155.5699 H   0  0  0  0  0  0  0  0  0  0  0  0
  151.9155  141.8302  157.0504 H   0  0  0  0  0  0  0  0  0  0  0  0
  147.0055  133.4054  152.3266 H   0  0  0  0  0  0  0  0  0  0  0  0
  1  2  1  0  0  0  0
  1 24  1  0  0  0  0
  1 25  1  0  0  0  0
  1 26  1  0  0  0  0
  2  3  1  0  0  0  0
  2  4  1  0  0  0  0
  3 27  1  0  0  0  0
  3 28  1  0  0  0  0
  3 29  1  0  0  0  0
  4 23  1  0  0  0  0
  4  5  2  0  0  0  0
  5  6  1  0  0  0  0
  5 30  1  0  0  0  0
  6  7  2  0  0  0  0
  6 31  1  0  0  0  0
  7  8  1  0  0  0  0
  7 22  1  0  0  0  0
  8  9  1  0  0  0  0
  8 32  1  0  0  0  0
  9 10  2  0  0  0  0
  9 11  1  0  0  0  0
 11 12  1  0  0  0  0
 11 33  1  0  0  0  0
 12 13  1  0  0  0  0
 12 34  1  0  0  0  0
 12 35  1  0  0  0  0
 13 14  1  0  0  0  0
 13 36  1  0  0  0  0
 13 37  1  0  0  0  0
 14 20  1  0  0  0  0
 14 15  1  0  0  0  0
 15 16  1  0  0  0  0
 15 38  1  0  0  0  0
 15 39  1  0  0  0  0
 16 17  1  0  0  0  0
 16 40  1  0  0  0  0
 16 41  1  0  0  0  0
 17 18  1  0  0  0  0
 17 42  1  0  0  0  0
 17 43  1  0  0  0  0
 18 19  1  0  0  0  0
 18 44  1  0  0  0  0
 18 45  1  0  0  0  0
 19 20  1  0  0  0  0
 19 46  1  0  0  0  0
 19 47  1  0  0  0  0
 20 21  2  0  0  0  0
 22 23  2  0  0  0  0
 22 48  1  0  0  0  0
M  END
> <s_m_source_file>
AV-unprocessed.smi

> <i_m_source_file_index>
1466

> <i_lp_mmshare_version>
43012

> <i_f3d_flags>
0

> <s_epik_input>
W0NIM11OKFtDSDNdKWMxW2NIXVtjSF1jKFtjSF1uMSlbTkhdQyg9TylbTkhdW0NIMl1bQ0gyXU4yW0NIMl1bQ0gyXVtDSDJdW0NIMl1bQ0gyXUMyPU8=

> <s_epik_cmdline>
J2VwaWtfcHl0aG9uJywgJy1waCcsICc3LjAnLCAnLXRuJywgJzgnLCAnLW1hJywgJzIwMCcsICctbWV0YWxfYmluZGluZycsICctaW1hZScsICc8aW5maWxlLm1hZT4nLCAnLW9tYWUnLCAnPG91dGZpbGUubWFlPic=

> <r_lp_tautomer_probability>
1

> <r_epik_Ionization_Penalty>
0.597116

> <r_epik_Ionization_Penalty_Charging>
0

> <r_epik_Ionization_Penalty_Neutral>
0.597116

> <r_epik_State_Penalty>
0.610079

> <r_epik_Charging_Adjusted_Penalty>
0.610079

> <i_epik_Tot_Q>
0

> <i_epik_Tot_abs_Q>
0

> <r_epik_Metal_State_Penalty>
0.299962

> <b_epik_Metal_Only>
0

> <s_lp_Force_Field>
OPLS_2005

> <r_lp_Energy>
26.5805

> <b_lp_Chiralities_Consistent>
1

> <s_lp_Variant>
AV-unprocessed.smi:1466-2

> <Gold.Version>
5.8.1

> <Gold.Id.Protein>
6NUR|6NUR_protein|mol2

> <Gold.PLP.Fitness>
49.2796

> <Gold.PLP.PLP>
-42.3174

> <Gold.PLP.part.hbond>
-3.7486

> <Gold.PLP.part.metal>
0.0000

> <Gold.PLP.part.buried>
-2.8880

> <Gold.PLP.part.nonpolar>
-35.2522

> <Gold.PLP.part.repulsive>
0.2327

> <Gold.PLP.ligand.clash>
0.0000

> <Gold.PLP.ligand.torsion>
1.0176

> <Gold.PLP.Chemscore.Hbond>
2.9920

> <Gold.PLP.Chemscore.CHOScore>
0.0000

> <Gold.PLP.Chemscore.Metal>
0.0000

> <Gold.Chemscore.Hbonds>
donor molecule, donor type, donor heavy atom, donor atom, acceptor molecule, acceptor atom, score
      L1  H     8    32       P1  7948  0.95
      L1  H    11    33       P1  7948  1.00
      P1  H  7997  8008       L1    21  1.00

> <Gold.PLP.Chemscore.Internal.Correction>
0.0214

> <Gold.Rescore>
     Score         DG    S(hbond)    S(metal)    S(lipo)     H(rot)  DE(clash)    DE(int)     intcor
     15.40     -17.55       2.20        0.00      72.69       1.48       0.06       2.09       ----

> <Gold.Chemscore.Fitness>
15.3971

> <Gold.Chemscore.DG>
-17.5455

> <Gold.Chemscore.ZeroCoef>
-5.4800

> <Gold.Chemscore.Hbond>
2.2014

> <Gold.Chemscore.Metal>
0.0000

> <Gold.Chemscore.Lipo>
72.6853

> <Gold.Chemscore.Internal_Hbond>
0.0000

> <Gold.Chemscore.DEClash>
0.0575

> <Gold.Chemscore.DEInternal>
2.0909

> <Gold.Chemscore.Rot>
1.4810

> <Gold.Chemscore.Internal.Correction>
   9.000000E+99

> <Gold.Chemscore.Hbonds>
donor molecule, donor type, donor heavy atom, donor atom, acceptor molecule, acceptor atom, score
      L1  H     8    32       P1  7948  0.21
      L1  H    11    33       P1  7948  0.37
      P1  H  7997  8008       L1    21  0.95

> <Gold.Chemscore.Hbond.Weighted>
-7.3525

> <Gold.Chemscore.Metal.Weighted>
-0.0000

> <Gold.Chemscore.Lipo.Weighted>
-8.5042

> <Gold.Chemscore.Internal_Hbond.Weighted>
0.0000

> <Gold.Chemscore.DEClash.Weighted>
0.0575

> <Gold.Chemscore.DEInternal.Weighted>
2.0909

> <Gold.Chemscore.Rot.Weighted>
3.7912

> <Gold.Chemscore.Internal.Correction.Weighted>
   9.000000E+99

> <Gold.Protein.RotatedTorsions>
[ 6907 6896 6895 6894 ] final -133.99 input  -60.11 | X-H torsion
[ 7974 7965 7964 7962 ] final  100.70 input  175.53 | X-H torsion
[ 8008 7997 7996 7995 ] final  -65.47 input   59.86 | X-H torsion
[ 10167 10162 10161 10158 ] final  -36.10 input  -65.29 | X-H torsion
[ 10718 10713 10712 10709 ] final -123.26 input   66.30 | X-H torsion
[ 10763 10752 10751 10750 ] final   53.86 input  -60.55 | X-H torsion
[ 11005 11000 10999 10996 ] final -137.98 input  -57.11 | X-H torsion

> <Gold.Protein.ActiveResidues>
 VAL166  LYS551  ARG553  GLY616  TRP617  ASP618  TYR619  PRO620  LYS621  CYS622 
 ASP623  PHE694  ASN695  SER759  ASP760  ASP761  ALA762  ILE779  LEU786  VAL792 
 PHE793  MET794  SER795  GLU796  ALA797  LYS798  CYS799  TRP800  GLU811  SER814 

> <Gold.Protein.RotatedAtoms>
  150.9805  133.6250  159.2723 H   0  0  0  0  0  0  0  0  0  0  0  0  # atno 6907 bound_to 6896
  151.3506  135.0882  159.9411 H   0  0  0  0  0  0  0  0  0  0  0  0  # atno 6908 bound_to 6896
  152.5214  133.9399  159.7675 H   0  0  0  0  0  0  0  0  0  0  0  0  # atno 6909 bound_to 6896
  145.3821  139.2378  143.3398 H   0  0  0  0  0  0  0  0  0  0  0  0  # atno 7974 bound_to 7965
  154.4674  140.0932  156.7055 H   0  0  0  0  0  0  0  0  0  0  0  0  # atno 8008 bound_to 7997
  155.4821  140.3468  155.4323 H   0  0  0  0  0  0  0  0  0  0  0  0  # atno 8009 bound_to 7997
  156.0979  140.1414  156.9495 H   0  0  0  0  0  0  0  0  0  0  0  0  # atno 8010 bound_to 7997
  140.7150  143.3431  151.2314 H   0  0  0  0  0  0  0  0  0  0  0  0  # atno 10167 bound_to 10162
  156.1487  130.6519  150.9882 H   0  0  0  0  0  0  0  0  0  0  0  0  # atno 10718 bound_to 10713
  152.9799  135.5764  154.4809 H   0  0  0  0  0  0  0  0  0  0  0  0  # atno 10763 bound_to 10752
  154.4358  135.2774  155.1883 H   0  0  0  0  0  0  0  0  0  0  0  0  # atno 10764 bound_to 10752
  154.3572  135.6196  153.5726 H   0  0  0  0  0  0  0  0  0  0  0  0  # atno 10765 bound_to 10752
  140.8660  134.2110  157.4680 H   0  0  0  0  0  0  0  0  0  0  0  0  # atno 11005 bound_to 11000
  146.2837  140.4490  142.8766 LP  0  0  0  0  0  0  0  0  0  0  0  0  # atno 17320 bound_to 7965
  144.8500  140.6987  143.6174 LP  0  0  0  0  0  0  0  0  0  0  0  0  # atno 17321 bound_to 7965
  139.6944  143.9638  152.2875 LP  0  0  0  0  0  0  0  0  0  0  0  0  # atno 17342 bound_to 10162
  139.9310  144.6741  150.8363 LP  0  0  0  0  0  0  0  0  0  0  0  0  # atno 17343 bound_to 10162
  157.6639  131.0875  150.7774 LP  0  0  0  0  0  0  0  0  0  0  0  0  # atno 17370 bound_to 10713
  156.7844  130.4870  149.5395 LP  0  0  0  0  0  0  0  0  0  0  0  0  # atno 17371 bound_to 10713
  139.8709  134.9752  156.4873 LP  0  0  0  0  0  0  0  0  0  0  0  0  # atno 17394 bound_to 11000
  140.8629  133.8046  155.9283 LP  0  0  0  0  0  0  0  0  0  0  0  0  # atno 17395 bound_to 11000

$$$$
