AV-unprocessed.smi:48|AV-procd|sdf|462|dock3
  -GOLD-   2262016333D 1   1.00000     0.00000
 Structure written by MMmdl.
 30 32  0  0  0  0  0  0  0  0  1 V2000
  141.2892  134.0124  153.1796 O   0  0  0  0  0  0  0  0  0  0  0  0
  142.2693  134.9819  153.4831 C   0  0  0  0  0  0  0  0  0  0  0  0
  143.1754  135.2159  152.2649 C   0  0  2  0  0  0  0  0  0  0  0  0
  143.8386  134.0063  151.9190 O   0  0  0  0  0  0  0  0  0  0  0  0
  144.9920  134.2997  151.1937 C   0  0  2  0  0  0  0  0  0  0  0  0
  146.0657  133.3633  151.6436 N   0  0  0  0  0  0  0  0  0  0  0  0
  147.2191  133.6780  152.2677 C   0  0  0  0  0  0  0  0  0  0  0  0
  148.0436  132.6776  152.5753 N   0  0  0  0  0  0  0  0  0  0  0  0
  147.3473  131.5852  152.0852 C   0  0  0  0  0  0  0  0  0  0  0  0
  147.6300  130.1978  152.0638 C   0  0  0  0  0  0  0  0  0  0  0  0
  149.0889  129.5781  152.7456 Cl  0  0  0  0  0  0  0  0  0  0  0  0
  146.7268  129.3641  151.4948 N   0  0  0  0  0  0  0  0  0  0  0  0
  145.6034  129.8719  150.9734 C   0  0  0  0  0  0  0  0  0  0  0  0
  145.2023  131.1472  150.9226 N   0  0  0  0  0  0  0  0  0  0  0  0
  146.1141  131.9863  151.4970 C   0  0  0  0  0  0  0  0  0  0  0  0
  145.3723  135.7621  151.4826 C   0  0  1  0  0  0  0  0  0  0  0  0
  145.2613  136.5507  150.3115 O   0  0  0  0  0  0  0  0  0  0  0  0
  144.3482  136.1567  152.5466 C   0  0  1  0  0  0  0  0  0  0  0  0
  143.9817  137.5234  152.5018 O   0  0  0  0  0  0  0  0  0  0  0  0
  142.6068  135.5789  151.4062 H   0  0  0  0  0  0  0  0  0  0  0  0
  144.8497  134.0816  150.1339 H   0  0  0  0  0  0  0  0  0  0  0  0
  146.3925  135.8404  151.8613 H   0  0  0  0  0  0  0  0  0  0  0  0
  144.7579  135.9434  153.5340 H   0  0  0  0  0  0  0  0  0  0  0  0
  141.1404  134.0176  152.2465 H   0  0  0  0  0  0  0  0  0  0  0  0
  141.7474  135.9027  153.7449 H   0  0  0  0  0  0  0  0  0  0  0  0
  142.8483  134.6784  154.3561 H   0  0  0  0  0  0  0  0  0  0  0  0
  147.4679  134.7002  152.5132 H   0  0  0  0  0  0  0  0  0  0  0  0
  144.9265  129.1534  150.5352 H   0  0  0  0  0  0  0  0  0  0  0  0
  144.5584  137.1707  150.4306 H   0  0  0  0  0  0  0  0  0  0  0  0
  143.7654  137.7461  151.6095 H   0  0  0  0  0  0  0  0  0  0  0  0
  1  2  1  0  0  0  0
  1 24  1  0  0  0  0
  2  3  1  0  0  0  0
  2 25  1  0  0  0  0
  2 26  1  0  0  0  0
  3 20  1  0  0  0  0
  3 18  1  0  0  0  0
  3  4  1  0  0  0  0
  4  5  1  0  0  0  0
  5 21  1  0  0  0  0
  5  6  1  0  0  0  0
  5 16  1  0  0  0  0
  6 15  1  0  0  0  0
  6  7  1  0  0  0  0
  7  8  2  0  0  0  0
  7 27  1  0  0  0  0
  8  9  1  0  0  0  0
  9 15  2  0  0  0  0
  9 10  1  0  0  0  0
 10 11  1  0  0  0  0
 10 12  2  0  0  0  0
 12 13  1  0  0  0  0
 13 14  2  0  0  0  0
 13 28  1  0  0  0  0
 14 15  1  0  0  0  0
 16 22  1  0  0  0  0
 16 17  1  0  0  0  0
 16 18  1  0  0  0  0
 17 29  1  0  0  0  0
 18 23  1  0  0  0  0
 18 19  1  0  0  0  0
 19 30  1  0  0  0  0
M  END
> <s_m_source_file>
AV-unprocessed.smi

> <i_m_source_file_index>
48

> <i_lp_mmshare_version>
43012

> <i_f3d_flags>
0

> <s_epik_input>
W09IXVtDSDJdW0NASF0xT1tDQEhdKFtDQEhdKFtPSF0pW0NAQEhdMVtPSF0pbihbY0hdbjIpYyhjMjMpbltjSF1uYzNDbA==

> <s_epik_cmdline>
J2VwaWtfcHl0aG9uJywgJy1waCcsICc3LjAnLCAnLXRuJywgJzgnLCAnLW1hJywgJzIwMCcsICctbWV0YWxfYmluZGluZycsICctaW1hZScsICc8aW5maWxlLm1hZT4nLCAnLW9tYWUnLCAnPG91dGZpbGUubWFlPic=

> <r_lp_tautomer_probability>
1

> <r_epik_Ionization_Penalty>
3.45505e-06

> <r_epik_Ionization_Penalty_Charging>
0

> <r_epik_Ionization_Penalty_Neutral>
3.45505e-06

> <r_epik_State_Penalty>
-0

> <r_epik_Charging_Adjusted_Penalty>
0

> <i_epik_Tot_Q>
0

> <i_epik_Tot_abs_Q>
0

> <r_epik_Metal_State_Penalty>
-0

> <b_epik_Metal_Only>
0

> <s_epik_Chemistry_Notes>
This compound contains an acetal/aminal-like group ( X-CH(R)-Y where X, Y are N, S, or O) that may be acid/base labile, releasing an aldehyde.

> <s_lp_Force_Field>
OPLS_2005

> <r_lp_Energy>
36.5243

> <b_lp_Chiralities_Consistent>
1

> <s_lp_Variant>
AV-unprocessed.smi:48-16

> <Gold.Version>
5.8.1

> <Gold.Id.Protein>
6NUR|6NUR_protein|mol2

> <Gold.PLP.Fitness>
41.7243

> <Gold.PLP.PLP>
-32.8084

> <Gold.PLP.part.hbond>
-4.9207

> <Gold.PLP.part.metal>
0.0000

> <Gold.PLP.part.buried>
-7.0729

> <Gold.PLP.part.nonpolar>
-20.7160

> <Gold.PLP.part.repulsive>
0.5567

> <Gold.PLP.ligand.clash>
0.0000

> <Gold.PLP.ligand.torsion>
0.0381

> <Gold.PLP.Chemscore.Hbond>
1.9920

> <Gold.PLP.Chemscore.CHOScore>
1.0000

> <Gold.PLP.Chemscore.Metal>
0.0000

> <Gold.Chemscore.Hbonds>
donor molecule, donor type, donor heavy atom, donor atom, acceptor molecule, acceptor atom, score
      L1  H    17    29       P1 10171  0.86
      L1  H    19    30       P1 10171  1.00
      L1  C     7    27       P1  7948  1.00

> <Gold.PLP.Chemscore.Internal.Correction>
0.0161

> <Gold.Rescore>
     Score         DG    S(hbond)    S(metal)    S(lipo)     H(rot)  DE(clash)    DE(int)     intcor
      6.30      -6.47       1.98        0.00      35.22       3.80       0.06       0.11       ----

> <Gold.Chemscore.Fitness>
6.3033

> <Gold.Chemscore.DG>
-6.4703

> <Gold.Chemscore.ZeroCoef>
-5.4800

> <Gold.Chemscore.Hbond>
1.9767

> <Gold.Chemscore.Metal>
0.0000

> <Gold.Chemscore.Lipo>
35.2193

> <Gold.Chemscore.Internal_Hbond>
0.0000

> <Gold.Chemscore.DEClash>
0.0604

> <Gold.Chemscore.DEInternal>
0.1066

> <Gold.Chemscore.Rot>
3.8017

> <Gold.Chemscore.Internal.Correction>
   9.000000E+99

> <Gold.Chemscore.Hbonds>
donor molecule, donor type, donor heavy atom, donor atom, acceptor molecule, acceptor atom, score
      L1  H    17    29       P1 10171  0.85
      L1  H    19    30       P1 10171  0.97

> <Gold.Chemscore.Hbond.Weighted>
-6.6020

> <Gold.Chemscore.Metal.Weighted>
-0.0000

> <Gold.Chemscore.Lipo.Weighted>
-4.1207

> <Gold.Chemscore.Internal_Hbond.Weighted>
0.0000

> <Gold.Chemscore.DEClash.Weighted>
0.0604

> <Gold.Chemscore.DEInternal.Weighted>
0.1066

> <Gold.Chemscore.Rot.Weighted>
9.7324

> <Gold.Chemscore.Internal.Correction.Weighted>
   9.000000E+99

> <Gold.Protein.RotatedTorsions>
[ 6907 6896 6895 6894 ] final   -7.51 input  -60.11 | X-H torsion
[ 7974 7965 7964 7962 ] final    1.32 input  175.53 | X-H torsion
[ 8008 7997 7996 7995 ] final -110.50 input   59.86 | X-H torsion
[ 10167 10162 10161 10158 ] final  108.63 input  -65.29 | X-H torsion
[ 10718 10713 10712 10709 ] final  -14.29 input   66.30 | X-H torsion
[ 10763 10752 10751 10750 ] final   91.28 input  -60.55 | X-H torsion
[ 11005 11000 10999 10996 ] final -111.76 input  -57.11 | X-H torsion

> <Gold.Protein.ActiveResidues>
 VAL166  LYS551  ARG553  GLY616  TRP617  ASP618  TYR619  PRO620  LYS621  CYS622 
 ASP623  PHE694  ASN695  SER759  ASP760  ASP761  ALA762  ILE779  LEU786  VAL792 
 PHE793  MET794  SER795  GLU796  ALA797  LYS798  CYS799  TRP800  GLU811  SER814 

> <Gold.Protein.RotatedAtoms>
  151.4484  135.1027  159.9690 H   0  0  0  0  0  0  0  0  0  0  0  0  # atno 6907 bound_to 6896
  152.4897  133.8463  159.7189 H   0  0  0  0  0  0  0  0  0  0  0  0  # atno 6908 bound_to 6896
  150.9039  133.7024  159.2899 H   0  0  0  0  0  0  0  0  0  0  0  0  # atno 6909 bound_to 6896
  146.2439  140.1005  142.8348 H   0  0  0  0  0  0  0  0  0  0  0  0  # atno 7974 bound_to 7965
  154.9754  140.0397  157.2253 H   0  0  0  0  0  0  0  0  0  0  0  0  # atno 8008 bound_to 7997
  154.7763  140.2811  155.6076 H   0  0  0  0  0  0  0  0  0  0  0  0  # atno 8009 bound_to 7997
  156.2929  140.2600  156.2577 H   0  0  0  0  0  0  0  0  0  0  0  0  # atno 8010 bound_to 7997
  139.6830  144.7116  151.1481 H   0  0  0  0  0  0  0  0  0  0  0  0  # atno 10167 bound_to 10162
  156.6181  130.4868  149.6175 H   0  0  0  0  0  0  0  0  0  0  0  0  # atno 10718 bound_to 10713
  153.2065  135.4403  155.0329 H   0  0  0  0  0  0  0  0  0  0  0  0  # atno 10763 bound_to 10752
  154.8176  135.3322  154.7133 H   0  0  0  0  0  0  0  0  0  0  0  0  # atno 10764 bound_to 10752
  153.7574  135.6994  153.4988 H   0  0  0  0  0  0  0  0  0  0  0  0  # atno 10765 bound_to 10752
  141.0715  133.9371  157.2475 H   0  0  0  0  0  0  0  0  0  0  0  0  # atno 11005 bound_to 11000
  145.0572  140.9061  143.4960 LP  0  0  0  0  0  0  0  0  0  0  0  0  # atno 17320 bound_to 7965
  145.1114  139.2755  143.5635 LP  0  0  0  0  0  0  0  0  0  0  0  0  # atno 17321 bound_to 7965
  140.7658  143.5670  150.9036 LP  0  0  0  0  0  0  0  0  0  0  0  0  # atno 17342 bound_to 10162
  139.9344  143.6456  152.3069 LP  0  0  0  0  0  0  0  0  0  0  0  0  # atno 17343 bound_to 10162
  156.2334  130.6808  151.1486 LP  0  0  0  0  0  0  0  0  0  0  0  0  # atno 17370 bound_to 10713
  157.7235  131.0665  150.6033 LP  0  0  0  0  0  0  0  0  0  0  0  0  # atno 17371 bound_to 10713
  139.9528  135.0172  156.9044 LP  0  0  0  0  0  0  0  0  0  0  0  0  # atno 17394 bound_to 11000
  140.5663  134.0486  155.7415 LP  0  0  0  0  0  0  0  0  0  0  0  0  # atno 17395 bound_to 11000

$$$$
