AV-unprocessed.smi:3237|AV-procd|sdf|12366|dock10
  -GOLD-   2272018223D 1   1.00000     0.00000
 Structure written by MMmdl.
 37 39  0  0  0  0  0  0  0  0  2 V2000
  137.7117  137.0995  154.4698 C   0  0  0  0  0  0  0  0  0  0  0  0
  139.1607  137.1157  154.1220 C   0  0  0  0  0  0  0  0  0  0  0  0
  139.9725  138.0619  153.5628 C   0  0  0  0  0  0  0  0  0  0  0  0
  141.2382  137.4083  153.5158 C   0  0  0  0  0  0  0  0  0  0  0  0
  142.4490  137.9588  153.0228 N   0  0  0  0  0  0  0  0  0  0  0  0
  143.6818  137.4265  153.0612 C   0  0  0  0  0  0  0  0  0  0  0  0
  143.9736  136.3329  153.5452 O   0  0  0  0  0  0  0  0  0  0  0  0
  144.5849  138.2501  152.5102 N   0  0  0  0  0  0  0  0  0  0  0  0
  146.0154  137.9752  152.4212 C   0  0  1  0  0  0  0  0  0  0  0  0
  146.8404  139.1759  151.9587 C   0  0  0  0  0  0  0  0  0  0  0  0
  148.2182  138.9725  152.6130 C   0  0  0  0  0  0  0  0  0  0  0  0
  148.0802  137.8502  153.5713 N   0  3  1  0  0  0  0  0  0  0  0  0
  148.8506  138.0182  154.8215 C   0  0  0  0  0  0  0  0  0  0  0  0
  150.0245  138.9582  154.6867 C   0  0  0  0  0  0  0  0  0  0  0  0
  150.2528  137.4634  154.7454 C   0  0  0  0  0  0  0  0  0  0  0  0
  146.6363  137.6464  153.7786 C   0  0  0  0  0  0  0  0  0  0  0  0
  141.1988  136.1854  154.0116 N   0  0  0  0  0  0  0  0  0  0  0  0
  139.8680  135.9869  154.3972 O   0  0  0  0  0  0  0  0  0  0  0  0
  137.2497  138.0647  154.2615 H   0  0  0  0  0  0  0  0  0  0  0  0
  137.5708  136.8787  155.5280 H   0  0  0  0  0  0  0  0  0  0  0  0
  137.1846  136.3405  153.8915 H   0  0  0  0  0  0  0  0  0  0  0  0
  139.6903  139.0550  153.2473 H   0  0  0  0  0  0  0  0  0  0  0  0
  142.3687  138.8803  152.6187 H   0  0  0  0  0  0  0  0  0  0  0  0
  144.2617  139.1292  152.1328 H   0  0  0  0  0  0  0  0  0  0  0  0
  146.1891  137.1447  151.7334 H   0  0  0  0  0  0  0  0  0  0  0  0
  146.8997  139.2428  150.8716 H   0  0  0  0  0  0  0  0  0  0  0  0
  146.3993  140.1048  152.3237 H   0  0  0  0  0  0  0  0  0  0  0  0
  148.9794  138.7208  151.8737 H   0  0  0  0  0  0  0  0  0  0  0  0
  148.5344  139.8881  153.1157 H   0  0  0  0  0  0  0  0  0  0  0  0
  148.2860  137.9685  155.7511 H   0  0  0  0  0  0  0  0  0  0  0  0
  150.1812  139.4532  153.7301 H   0  0  0  0  0  0  0  0  0  0  0  0
  150.3048  139.5401  155.5623 H   0  0  0  0  0  0  0  0  0  0  0  0
  150.6847  137.0619  155.6600 H   0  0  0  0  0  0  0  0  0  0  0  0
  150.5612  136.9655  153.8279 H   0  0  0  0  0  0  0  0  0  0  0  0
  146.2711  138.3350  154.5434 H   0  0  0  0  0  0  0  0  0  0  0  0
  146.4209  136.6286  154.1057 H   0  0  0  0  0  0  0  0  0  0  0  0
  148.4239  137.0244  153.1018 H   0  0  0  0  0  0  0  0  0  0  0  0
  1  2  1  0  0  0  0
  1 19  1  0  0  0  0
  1 20  1  0  0  0  0
  1 21  1  0  0  0  0
  2 18  1  0  0  0  0
  2  3  2  0  0  0  0
  3  4  1  0  0  0  0
  3 22  1  0  0  0  0
  4  5  1  0  0  0  0
  4 17  2  0  0  0  0
  5  6  1  0  0  0  0
  5 23  1  0  0  0  0
  6  7  2  0  0  0  0
  6  8  1  0  0  0  0
  8  9  1  0  0  0  0
  8 24  1  0  0  0  0
  9 16  1  0  0  0  0
  9 10  1  0  0  0  0
  9 25  1  0  0  0  0
 10 11  1  0  0  0  0
 10 26  1  0  0  0  0
 10 27  1  0  0  0  0
 11 12  1  0  0  0  0
 11 28  1  0  0  0  0
 11 29  1  0  0  0  0
 12 13  1  0  0  0  0
 12 16  1  0  0  0  0
 12 37  1  0  0  0  0
 13 15  1  0  0  0  0
 13 14  1  0  0  0  0
 13 30  1  0  0  0  0
 14 15  1  0  0  0  0
 14 31  1  0  0  0  0
 14 32  1  0  0  0  0
 15 33  1  0  0  0  0
 15 34  1  0  0  0  0
 16 35  1  0  0  0  0
 16 36  1  0  0  0  0
 17 18  1  0  0  0  0
M  CHG  1  12   1
M  END
> <s_m_source_file>
AV-unprocessed.smi

> <i_m_source_file_index>
3237

> <i_lp_mmshare_version>
43012

> <i_f3d_flags>
0

> <s_epik_input>
W0NIM11jMVtjSF1jKG5vMSlbTkhdQyg9TylbTkhdW0NAQEhdMltDSDJdW0NIMl1OKFtDSDJdMilbQ0hdM1tDSDJdW0NIMl0z

> <s_epik_cmdline>
J2VwaWtfcHl0aG9uJywgJy1waCcsICc3LjAnLCAnLXRuJywgJzgnLCAnLW1hJywgJzIwMCcsICctbWV0YWxfYmluZGluZycsICctaW1hZScsICc8aW5maWxlLm1hZT4nLCAnLW9tYWUnLCAnPG91dGZpbGUubWFlPic=

> <r_epik_Ionization_Penalty>
0.000720579

> <r_epik_Ionization_Penalty_Charging>
0.000680516

> <r_epik_Ionization_Penalty_Neutral>
4.00628e-05

> <r_epik_State_Penalty>
0.000432256

> <r_epik_Charging_Adjusted_Penalty>
0.00111277

> <i_epik_Tot_Q>
1

> <i_epik_Tot_abs_Q>
1

> <r_epik_Metal_State_Penalty>
0.0255091

> <b_epik_Metal_Only>
0

> <s_lp_Force_Field>
OPLS_2005

> <r_lp_Energy>
35.1178

> <b_lp_Chiralities_Consistent>
1

> <s_lp_Variant>
AV-unprocessed.smi:3237-4

> <Gold.Version>
5.8.1

> <Gold.Id.Protein>
6NUR|6NUR_protein|mol2

> <Gold.PLP.Fitness>
37.2347

> <Gold.PLP.PLP>
-24.6886

> <Gold.PLP.part.hbond>
-4.5364

> <Gold.PLP.part.metal>
0.0000

> <Gold.PLP.part.buried>
5.2570

> <Gold.PLP.part.nonpolar>
-25.0195

> <Gold.PLP.part.repulsive>
0.2889

> <Gold.PLP.ligand.clash>
0.0000

> <Gold.PLP.ligand.torsion>
0.9383

> <Gold.PLP.Chemscore.Hbond>
4.3865

> <Gold.PLP.Chemscore.CHOScore>
0.0000

> <Gold.PLP.Chemscore.Metal>
0.0000

> <Gold.Chemscore.Hbonds>
donor molecule, donor type, donor heavy atom, donor atom, acceptor molecule, acceptor atom, score
      L1  H     5    23       P1 10175  0.70
      L1  H     8    24       P1 10175  0.80
      L1  H    12    37       P1  7948  2.00
      P1  H 11000 11005       L1    18  0.88

> <Gold.PLP.Chemscore.Internal.Correction>
1.2630

> <Gold.Rescore>
     Score         DG    S(hbond)    S(metal)    S(lipo)     H(rot)  DE(clash)    DE(int)     intcor
     14.94     -20.29       2.93        0.00      70.60       1.26       2.37       2.97       ----

> <Gold.Chemscore.Fitness>
14.9447

> <Gold.Chemscore.DG>
-20.2886

> <Gold.Chemscore.ZeroCoef>
-5.4800

> <Gold.Chemscore.Hbond>
2.9257

> <Gold.Chemscore.Metal>
0.0000

> <Gold.Chemscore.Lipo>
70.6011

> <Gold.Chemscore.Internal_Hbond>
0.0000

> <Gold.Chemscore.DEClash>
2.3727

> <Gold.Chemscore.DEInternal>
2.9712

> <Gold.Chemscore.Rot>
1.2593

> <Gold.Chemscore.Internal.Correction>
   9.000000E+99

> <Gold.Chemscore.Hbonds>
donor molecule, donor type, donor heavy atom, donor atom, acceptor molecule, acceptor atom, score
      L1  H     5    23       P1 10175  0.67
      L1  H     8    24       P1 10175  0.75
      L1  H    12    37       P1  7948  0.93
      P1  H 11000 11005       L1    18  0.49

> <Gold.Chemscore.Hbond.Weighted>
-9.7720

> <Gold.Chemscore.Metal.Weighted>
-0.0000

> <Gold.Chemscore.Lipo.Weighted>
-8.2603

> <Gold.Chemscore.Internal_Hbond.Weighted>
0.0000

> <Gold.Chemscore.DEClash.Weighted>
2.3727

> <Gold.Chemscore.DEInternal.Weighted>
2.9712

> <Gold.Chemscore.Rot.Weighted>
3.2237

> <Gold.Chemscore.Internal.Correction.Weighted>
   9.000000E+99

> <Gold.Protein.RotatedTorsions>
[ 6907 6896 6895 6894 ] final -145.20 input  -60.11 | X-H torsion
[ 7974 7965 7964 7962 ] final  106.80 input  175.53 | X-H torsion
[ 8008 7997 7996 7995 ] final   16.18 input   59.86 | X-H torsion
[ 10167 10162 10161 10158 ] final -172.38 input  -65.29 | X-H torsion
[ 10718 10713 10712 10709 ] final  -26.41 input   66.30 | X-H torsion
[ 10763 10752 10751 10750 ] final  -77.85 input  -60.55 | X-H torsion
[ 11005 11000 10999 10996 ] final   79.39 input  -57.11 | X-H torsion

> <Gold.Protein.ActiveResidues>
 VAL166  LYS551  ARG553  GLY616  TRP617  ASP618  TYR619  PRO620  LYS621  CYS622 
 ASP623  PHE694  ASN695  SER759  ASP760  ASP761  ALA762  ILE779  LEU786  VAL792 
 PHE793  MET794  SER795  GLU796  ALA797  LYS798  CYS799  TRP800  GLU811  SER814 

> <Gold.Protein.RotatedAtoms>
  151.1244  133.5081  159.2600 H   0  0  0  0  0  0  0  0  0  0  0  0  # atno 6907 bound_to 6896
  151.1826  135.0367  159.8808 H   0  0  0  0  0  0  0  0  0  0  0  0  # atno 6908 bound_to 6896
  152.5457  134.1095  159.8405 H   0  0  0  0  0  0  0  0  0  0  0  0  # atno 6909 bound_to 6896
  145.3019  139.2567  143.3809 H   0  0  0  0  0  0  0  0  0  0  0  0  # atno 7974 bound_to 7965
  154.8733  140.2962  155.5468 H   0  0  0  0  0  0  0  0  0  0  0  0  # atno 8008 bound_to 7997
  156.3021  140.2456  156.3658 H   0  0  0  0  0  0  0  0  0  0  0  0  # atno 8009 bound_to 7997
  154.8794  140.0398  157.1762 H   0  0  0  0  0  0  0  0  0  0  0  0  # atno 8010 bound_to 7997
  139.5748  144.1558  152.1435 H   0  0  0  0  0  0  0  0  0  0  0  0  # atno 10167 bound_to 10162
  156.4516  130.4485  149.6986 H   0  0  0  0  0  0  0  0  0  0  0  0  # atno 10718 bound_to 10713
  154.5183  135.5750  153.6660 H   0  0  0  0  0  0  0  0  0  0  0  0  # atno 10763 bound_to 10752
  152.9912  135.6175  154.2787 H   0  0  0  0  0  0  0  0  0  0  0  0  # atno 10764 bound_to 10752
  154.2707  135.2853  155.2719 H   0  0  0  0  0  0  0  0  0  0  0  0  # atno 10765 bound_to 10752
  139.9174  134.7839  156.1773 H   0  0  0  0  0  0  0  0  0  0  0  0  # atno 11005 bound_to 11000
  146.3149  140.3536  142.8658 LP  0  0  0  0  0  0  0  0  0  0  0  0  # atno 17320 bound_to 7965
  144.9086  140.7730  143.5822 LP  0  0  0  0  0  0  0  0  0  0  0  0  # atno 17321 bound_to 7965
  140.1099  144.5466  150.6932 LP  0  0  0  0  0  0  0  0  0  0  0  0  # atno 17342 bound_to 10162
  140.7031  143.2448  151.4806 LP  0  0  0  0  0  0  0  0  0  0  0  0  # atno 17343 bound_to 10162
  156.3810  130.7579  151.2572 LP  0  0  0  0  0  0  0  0  0  0  0  0  # atno 17370 bound_to 10713
  157.7502  131.0295  150.4098 LP  0  0  0  0  0  0  0  0  0  0  0  0  # atno 17371 bound_to 10713
  141.0664  133.6817  156.2053 LP  0  0  0  0  0  0  0  0  0  0  0  0  # atno 17394 bound_to 11000
  140.6578  134.4999  157.5581 LP  0  0  0  0  0  0  0  0  0  0  0  0  # atno 17395 bound_to 11000

$$$$
