AV-unprocessed.smi:356|AV-procd|sdf|2412|dock1
  -GOLD-   2262022343D 1   1.00000     0.00000
 Structure written by MMmdl.
 42 44  0  0  0  0  0  0  0  0  2 V2000
  149.6388  141.0844  155.8050 C   0  0  0  0  0  0  0  0  0  0  0  0
  150.4055  141.8159  156.8553 C   0  0  0  0  0  0  0  0  0  0  0  0
  150.5207  143.1687  156.9701 N   0  3  0  0  0  0  0  0  0  0  0  0
  151.3161  143.4825  158.0731 C   0  0  0  0  0  0  0  0  0  0  0  0
  151.7125  144.7126  158.5886 C   0  0  0  0  0  0  0  0  0  0  0  0
  152.5305  144.6835  159.7369 C   0  0  0  0  0  0  0  0  0  0  0  0
  152.9232  143.4650  160.3278 C   0  0  0  0  0  0  0  0  0  0  0  0
  152.5158  142.2239  159.7955 C   0  0  0  0  0  0  0  0  0  0  0  0
  151.7068  142.2607  158.6597 C   0  0  0  0  0  0  0  0  0  0  0  0
  151.1210  141.2604  157.8743 N   0  0  0  0  0  0  0  0  0  0  0  0
  151.3261  139.8435  158.2128 C   0  0  0  0  0  0  0  0  0  0  0  0
  152.7398  139.3454  157.8481 C   0  0  2  0  0  0  0  0  0  0  0  0
  152.7811  139.0070  156.4770 O   0  0  0  0  0  0  0  0  0  0  0  0
  153.1606  138.1010  158.6556 C   0  0  0  0  0  0  0  0  0  0  0  0
  153.5739  138.3567  160.0362 N   0  0  0  0  0  0  0  0  0  0  0  0
  154.7027  139.2811  160.1260 C   0  0  0  0  0  0  0  0  0  0  0  0
  155.1418  139.5133  161.5822 C   0  0  0  0  0  0  0  0  0  0  0  0
  155.4567  138.2665  162.1930 O   0  0  0  0  0  0  0  0  0  0  0  0
  154.3649  137.3532  162.1691 C   0  0  0  0  0  0  0  0  0  0  0  0
  153.9260  137.1132  160.7141 C   0  0  0  0  0  0  0  0  0  0  0  0
  149.0938  141.7837  155.1706 H   0  0  0  0  0  0  0  0  0  0  0  0
  148.9226  140.4034  156.2647 H   0  0  0  0  0  0  0  0  0  0  0  0
  150.3182  140.5046  155.1801 H   0  0  0  0  0  0  0  0  0  0  0  0
  151.4126  145.6473  158.1377 H   0  0  0  0  0  0  0  0  0  0  0  0
  152.8628  145.6144  160.1737 H   0  0  0  0  0  0  0  0  0  0  0  0
  153.5493  143.4821  161.2080 H   0  0  0  0  0  0  0  0  0  0  0  0
  152.8207  141.2978  160.2593 H   0  0  0  0  0  0  0  0  0  0  0  0
  151.1640  139.7512  159.2872 H   0  0  0  0  0  0  0  0  0  0  0  0
  150.5535  139.2375  157.7397 H   0  0  0  0  0  0  0  0  0  0  0  0
  153.4612  140.1490  157.9911 H   0  0  0  0  0  0  0  0  0  0  0  0
  152.2715  138.2222  156.3462 H   0  0  0  0  0  0  0  0  0  0  0  0
  152.3204  137.4050  158.6606 H   0  0  0  0  0  0  0  0  0  0  0  0
  153.9678  137.5873  158.1304 H   0  0  0  0  0  0  0  0  0  0  0  0
  155.5459  138.8926  159.5527 H   0  0  0  0  0  0  0  0  0  0  0  0
  154.4421  140.2435  159.6882 H   0  0  0  0  0  0  0  0  0  0  0  0
  156.0200  140.1582  161.6149 H   0  0  0  0  0  0  0  0  0  0  0  0
  154.3546  140.0146  162.1472 H   0  0  0  0  0  0  0  0  0  0  0  0
  154.6746  136.4160  162.6315 H   0  0  0  0  0  0  0  0  0  0  0  0
  153.5382  137.7464  162.7628 H   0  0  0  0  0  0  0  0  0  0  0  0
  153.0742  136.4324  160.7047 H   0  0  0  0  0  0  0  0  0  0  0  0
  154.7311  136.6125  160.1742 H   0  0  0  0  0  0  0  0  0  0  0  0
  150.0851  143.8282  156.3382 H   0  0  0  0  0  0  0  0  0  0  0  0
  1  2  1  0  0  0  0
  1 21  1  0  0  0  0
  1 22  1  0  0  0  0
  1 23  1  0  0  0  0
  2 10  1  0  0  0  0
  2  3  2  0  0  0  0
  3  4  1  0  0  0  0
  3 42  1  0  0  0  0
  4  9  2  0  0  0  0
  4  5  1  0  0  0  0
  5  6  2  0  0  0  0
  5 24  1  0  0  0  0
  6  7  1  0  0  0  0
  6 25  1  0  0  0  0
  7  8  2  0  0  0  0
  7 26  1  0  0  0  0
  8  9  1  0  0  0  0
  8 27  1  0  0  0  0
  9 10  1  0  0  0  0
 10 11  1  0  0  0  0
 11 12  1  0  0  0  0
 11 28  1  0  0  0  0
 11 29  1  0  0  0  0
 12 13  1  0  0  0  0
 12 14  1  0  0  0  0
 12 30  1  0  0  0  0
 13 31  1  0  0  0  0
 14 15  1  0  0  0  0
 14 32  1  0  0  0  0
 14 33  1  0  0  0  0
 15 20  1  0  0  0  0
 15 16  1  0  0  0  0
 16 17  1  0  0  0  0
 16 34  1  0  0  0  0
 16 35  1  0  0  0  0
 17 18  1  0  0  0  0
 17 36  1  0  0  0  0
 17 37  1  0  0  0  0
 18 19  1  0  0  0  0
 19 20  1  0  0  0  0
 19 38  1  0  0  0  0
 19 39  1  0  0  0  0
 20 40  1  0  0  0  0
 20 41  1  0  0  0  0
M  CHG  1   3   1
M  END
> <s_m_source_file>
AV-unprocessed.smi

> <i_m_source_file_index>
356

> <i_lp_mmshare_version>
43012

> <i_f3d_flags>
0

> <s_epik_input>
W2NIXTFbY0hdW2NIXVtjSF1jKGMxMiluKGMobjIpW0NIM10pW0NIMl1bQ0BIXShbT0hdKVtDSDJdTjNbQ0gyXVtDSDJdT1tDSDJdW0NIMl0z

> <s_epik_cmdline>
J2VwaWtfcHl0aG9uJywgJy1waCcsICc3LjAnLCAnLXRuJywgJzgnLCAnLW1hJywgJzIwMCcsICctbWV0YWxfYmluZGluZycsICctaW1hZScsICc8aW5maWxlLm1hZT4nLCAnLW9tYWUnLCAnPG91dGZpbGUubWFlPic=

> <r_epik_Ionization_Penalty>
1.35865

> <r_epik_Ionization_Penalty_Charging>
1.14429

> <r_epik_Ionization_Penalty_Neutral>
0.214359

> <r_epik_State_Penalty>
1.39809

> <r_epik_Charging_Adjusted_Penalty>
2.54238

> <i_epik_Tot_Q>
1

> <i_epik_Tot_abs_Q>
1

> <r_epik_Metal_State_Penalty>
5.40564

> <b_epik_Metal_Only>
0

> <s_lp_Force_Field>
OPLS_2005

> <r_lp_Energy>
31.5146

> <b_lp_Chiralities_Consistent>
1

> <s_lp_Variant>
AV-unprocessed.smi:356-5

> <Gold.Version>
5.8.1

> <Gold.Id.Protein>
6NUR|6NUR_protein|mol2

> <Gold.PLP.Fitness>
50.1721

> <Gold.PLP.PLP>
-42.1926

> <Gold.PLP.part.hbond>
-2.0000

> <Gold.PLP.part.metal>
0.0000

> <Gold.PLP.part.buried>
-5.5857

> <Gold.PLP.part.nonpolar>
-34.9855

> <Gold.PLP.part.repulsive>
0.0287

> <Gold.PLP.ligand.clash>
0.0000

> <Gold.PLP.ligand.torsion>
0.5526

> <Gold.PLP.Chemscore.Hbond>
2.9840

> <Gold.PLP.Chemscore.CHOScore>
0.0000

> <Gold.PLP.Chemscore.Metal>
0.0000

> <Gold.Chemscore.Hbonds>
donor molecule, donor type, donor heavy atom, donor atom, acceptor molecule, acceptor atom, score
      L1  H     3    42       P1  8028  2.00
      P1  H  7997  8009       L1    13  0.50

> <Gold.PLP.Chemscore.Internal.Correction>
0.1328

> <Gold.Rescore>
     Score         DG    S(hbond)    S(metal)    S(lipo)     H(rot)  DE(clash)    DE(int)     intcor
     18.62     -18.91       1.49        0.00     117.17       2.05       0.02       0.27       ----

> <Gold.Chemscore.Fitness>
18.6238

> <Gold.Chemscore.DG>
-18.9137

> <Gold.Chemscore.ZeroCoef>
-5.4800

> <Gold.Chemscore.Hbond>
1.4920

> <Gold.Chemscore.Metal>
0.0000

> <Gold.Chemscore.Lipo>
117.1654

> <Gold.Chemscore.Internal_Hbond>
0.0000

> <Gold.Chemscore.DEClash>
0.0248

> <Gold.Chemscore.DEInternal>
0.2652

> <Gold.Chemscore.Rot>
2.0539

> <Gold.Chemscore.Internal.Correction>
   9.000000E+99

> <Gold.Chemscore.Hbonds>
donor molecule, donor type, donor heavy atom, donor atom, acceptor molecule, acceptor atom, score
      L1  H     3    42       P1  8028  0.99
      P1  H  7997  8009       L1    13  0.02

> <Gold.Chemscore.Hbond.Weighted>
-4.9833

> <Gold.Chemscore.Metal.Weighted>
-0.0000

> <Gold.Chemscore.Lipo.Weighted>
-13.7084

> <Gold.Chemscore.Internal_Hbond.Weighted>
0.0000

> <Gold.Chemscore.DEClash.Weighted>
0.0248

> <Gold.Chemscore.DEInternal.Weighted>
0.2652

> <Gold.Chemscore.Rot.Weighted>
5.2579

> <Gold.Chemscore.Internal.Correction.Weighted>
   9.000000E+99

> <Gold.Protein.RotatedTorsions>
[ 6907 6896 6895 6894 ] final  122.13 input  -60.11 | X-H torsion
[ 7974 7965 7964 7962 ] final  -10.95 input  175.53 | X-H torsion
[ 8008 7997 7996 7995 ] final -156.53 input   59.86 | X-H torsion
[ 10167 10162 10161 10158 ] final  112.08 input  -65.29 | X-H torsion
[ 10718 10713 10712 10709 ] final -120.40 input   66.30 | X-H torsion
[ 10763 10752 10751 10750 ] final  -73.91 input  -60.55 | X-H torsion
[ 11005 11000 10999 10996 ] final  140.76 input  -57.11 | X-H torsion

> <Gold.Protein.ActiveResidues>
 VAL166  LYS551  ARG553  GLY616  TRP617  ASP618  TYR619  PRO620  LYS621  CYS622 
 ASP623  PHE694  ASN695  SER759  ASP760  ASP761  ALA762  ILE779  LEU786  VAL792 
 PHE793  MET794  SER795  GLU796  ALA797  LYS798  CYS799  TRP800  GLU811  SER814 

> <Gold.Protein.RotatedAtoms>
  152.4267  133.7207  159.6531 H   0  0  0  0  0  0  0  0  0  0  0  0  # atno 6907 bound_to 6896
  150.8144  133.8353  159.3173 H   0  0  0  0  0  0  0  0  0  0  0  0  # atno 6908 bound_to 6896
  151.6054  135.1046  160.0121 H   0  0  0  0  0  0  0  0  0  0  0  0  # atno 6909 bound_to 6896
  146.2204  140.2839  142.8364 H   0  0  0  0  0  0  0  0  0  0  0  0  # atno 7974 bound_to 7965
  155.7186  140.0787  157.2340 H   0  0  0  0  0  0  0  0  0  0  0  0  # atno 8008 bound_to 7997
  154.4048  140.1617  156.2431 H   0  0  0  0  0  0  0  0  0  0  0  0  # atno 8009 bound_to 7997
  155.9217  140.3397  155.6181 H   0  0  0  0  0  0  0  0  0  0  0  0  # atno 8010 bound_to 7997
  139.6562  144.7129  151.1952 H   0  0  0  0  0  0  0  0  0  0  0  0  # atno 10167 bound_to 10162
  156.1255  130.6356  150.9535 H   0  0  0  0  0  0  0  0  0  0  0  0  # atno 10718 bound_to 10713
  154.4659  135.5882  153.6288 H   0  0  0  0  0  0  0  0  0  0  0  0  # atno 10763 bound_to 10752
  152.9828  135.6055  154.3427 H   0  0  0  0  0  0  0  0  0  0  0  0  # atno 10764 bound_to 10752
  154.3304  135.2842  155.2454 H   0  0  0  0  0  0  0  0  0  0  0  0  # atno 10765 bound_to 10752
  140.0351  134.9333  157.0737 H   0  0  0  0  0  0  0  0  0  0  0  0  # atno 11005 bound_to 11000
  144.9176  140.7831  143.5768 LP  0  0  0  0  0  0  0  0  0  0  0  0  # atno 17320 bound_to 7965
  145.2774  139.1931  143.4809 LP  0  0  0  0  0  0  0  0  0  0  0  0  # atno 17321 bound_to 7965
  140.7560  143.6068  150.8645 LP  0  0  0  0  0  0  0  0  0  0  0  0  # atno 17342 bound_to 10162
  139.9721  143.6045  152.2970 LP  0  0  0  0  0  0  0  0  0  0  0  0  # atno 17343 bound_to 10162
  157.6437  131.0907  150.8198 LP  0  0  0  0  0  0  0  0  0  0  0  0  # atno 17370 bound_to 10713
  156.8289  130.5009  149.5334 LP  0  0  0  0  0  0  0  0  0  0  0  0  # atno 17371 bound_to 10713
  140.4161  134.1929  155.7163 LP  0  0  0  0  0  0  0  0  0  0  0  0  # atno 17394 bound_to 11000
  141.1853  133.8327  157.1111 LP  0  0  0  0  0  0  0  0  0  0  0  0  # atno 17395 bound_to 11000

$$$$
