AV-unprocessed.smi:263|AV-procd|sdf|2006|dock1
  -GOLD-   2262021203D 1   1.00000     0.00000
 Structure written by MMmdl.
 57 61  0  0  0  0  0  0  0  0  1 V2000
  149.2282  136.1092  154.3410 O   0  0  0  0  0  0  0  0  0  0  0  0
  149.3540  134.8783  155.0320 C   0  0  0  0  0  0  0  0  0  0  0  0
  150.7073  134.8898  155.7859 C   0  0  0  0  0  0  0  0  0  0  0  0
  151.0213  136.1595  156.4235 N   0  0  0  0  0  0  0  0  0  0  0  0
  150.6823  136.5490  157.6997 C   0  0  0  0  0  0  0  0  0  0  0  0
  151.0780  137.7451  158.0400 N   0  0  0  0  0  0  0  0  0  0  0  0
  151.7379  138.2196  156.9120 C   0  0  0  0  0  0  0  0  0  0  0  0
  152.3994  139.4384  156.5890 C   0  0  0  0  0  0  0  0  0  0  0  0
  152.5230  140.4646  157.4698 N   0  0  0  0  0  0  0  0  0  0  0  0
  152.9406  140.1383  158.8351 C   0  0  0  0  0  0  0  0  0  0  0  0
  153.3717  141.4005  159.6065 C   0  0  0  0  0  0  0  0  0  0  0  0
  152.2911  142.5013  159.5625 C   0  0  1  0  0  0  0  0  0  0  0  0
  151.1654  142.0242  160.2821 O   0  0  0  0  0  0  0  0  0  0  0  0
  152.7699  143.7996  160.2497 C   0  0  0  0  0  0  0  0  0  0  0  0
  151.7488  144.9456  160.1140 C   0  0  0  0  0  0  0  0  0  0  0  0
  151.3689  145.1958  158.6458 C   0  0  0  0  0  0  0  0  0  0  0  0
  150.8694  143.9098  157.9665 C   0  0  0  0  0  0  0  0  0  0  0  0
  151.9124  142.7816  158.0849 C   0  0  2  0  0  0  0  0  0  0  0  0
  151.4858  141.4909  157.3588 C   0  0  0  0  0  0  0  0  0  0  0  0
  152.9207  139.5523  155.3375 N   0  0  0  0  0  0  0  0  0  0  0  0
  152.8118  138.5462  154.4651 C   0  0  0  0  0  0  0  0  0  0  0  0
  152.2295  137.3573  154.6308 N   0  0  0  0  0  0  0  0  0  0  0  0
  151.7005  137.2371  155.8821 C   0  0  0  0  0  0  0  0  0  0  0  0
  148.1845  134.7584  156.0300 C   0  0  0  0  0  0  0  0  0  0  0  0
  146.8320  134.5704  155.3200 C   0  0  0  0  0  0  0  0  0  0  0  0
  146.8898  133.4414  154.4570 O   0  0  0  0  0  0  0  0  0  0  0  0
  147.8425  133.5987  153.4127 C   0  0  0  0  0  0  0  0  0  0  0  0
  149.2584  133.7314  154.0018 C   0  0  0  0  0  0  0  0  0  0  0  0
  149.1414  135.9290  153.4172 H   0  0  0  0  0  0  0  0  0  0  0  0
  150.7214  134.1114  156.5501 H   0  0  0  0  0  0  0  0  0  0  0  0
  151.5193  134.6508  155.0977 H   0  0  0  0  0  0  0  0  0  0  0  0
  150.1319  135.9119  158.3768 H   0  0  0  0  0  0  0  0  0  0  0  0
  152.1185  139.6446  159.3552 H   0  0  0  0  0  0  0  0  0  0  0  0
  153.7723  139.4328  158.8113 H   0  0  0  0  0  0  0  0  0  0  0  0
  153.6126  141.1408  160.6381 H   0  0  0  0  0  0  0  0  0  0  0  0
  154.2943  141.7818  159.1668 H   0  0  0  0  0  0  0  0  0  0  0  0
  150.8560  141.2354  159.8638 H   0  0  0  0  0  0  0  0  0  0  0  0
  152.9809  143.6154  161.3041 H   0  0  0  0  0  0  0  0  0  0  0  0
  153.7132  144.1178  159.8037 H   0  0  0  0  0  0  0  0  0  0  0  0
  150.8514  144.7101  160.6873 H   0  0  0  0  0  0  0  0  0  0  0  0
  152.1579  145.8570  160.5506 H   0  0  0  0  0  0  0  0  0  0  0  0
  150.6023  145.9689  158.5867 H   0  0  0  0  0  0  0  0  0  0  0  0
  152.2358  145.5797  158.1066 H   0  0  0  0  0  0  0  0  0  0  0  0
  149.9254  143.5980  158.4153 H   0  0  0  0  0  0  0  0  0  0  0  0
  150.6582  144.1122  156.9160 H   0  0  0  0  0  0  0  0  0  0  0  0
  152.8127  143.1367  157.5797 H   0  0  0  0  0  0  0  0  0  0  0  0
  151.2714  141.7229  156.3164 H   0  0  0  0  0  0  0  0  0  0  0  0
  150.5597  141.1032  157.7849 H   0  0  0  0  0  0  0  0  0  0  0  0
  153.2556  138.7185  153.4957 H   0  0  0  0  0  0  0  0  0  0  0  0
  148.3527  133.8989  156.6805 H   0  0  0  0  0  0  0  0  0  0  0  0
  148.1458  135.6313  156.6832 H   0  0  0  0  0  0  0  0  0  0  0  0
  146.0453  134.4073  156.0566 H   0  0  0  0  0  0  0  0  0  0  0  0
  146.5547  135.4619  154.7556 H   0  0  0  0  0  0  0  0  0  0  0  0
  147.7920  132.7280  152.7588 H   0  0  0  0  0  0  0  0  0  0  0  0
  147.5892  134.4657  152.8006 H   0  0  0  0  0  0  0  0  0  0  0  0
  149.9765  133.8728  153.1936 H   0  0  0  0  0  0  0  0  0  0  0  0
  149.5227  132.7905  154.4863 H   0  0  0  0  0  0  0  0  0  0  0  0
  1  2  1  0  0  0  0
  1 29  1  0  0  0  0
  2 28  1  0  0  0  0
  2  3  1  0  0  0  0
  2 24  1  0  0  0  0
  3  4  1  0  0  0  0
  3 30  1  0  0  0  0
  3 31  1  0  0  0  0
  4 23  1  0  0  0  0
  4  5  1  0  0  0  0
  5  6  2  0  0  0  0
  5 32  1  0  0  0  0
  6  7  1  0  0  0  0
  7 23  2  0  0  0  0
  7  8  1  0  0  0  0
  8  9  1  0  0  0  0
  8 20  2  0  0  0  0
  9 19  1  0  0  0  0
  9 10  1  0  0  0  0
 10 11  1  0  0  0  0
 10 33  1  0  0  0  0
 10 34  1  0  0  0  0
 11 12  1  0  0  0  0
 11 35  1  0  0  0  0
 11 36  1  0  0  0  0
 12 18  1  0  0  0  0
 12 13  1  0  0  0  0
 12 14  1  0  0  0  0
 13 37  1  0  0  0  0
 14 15  1  0  0  0  0
 14 38  1  0  0  0  0
 14 39  1  0  0  0  0
 15 16  1  0  0  0  0
 15 40  1  0  0  0  0
 15 41  1  0  0  0  0
 16 17  1  0  0  0  0
 16 42  1  0  0  0  0
 16 43  1  0  0  0  0
 17 18  1  0  0  0  0
 17 44  1  0  0  0  0
 17 45  1  0  0  0  0
 18 19  1  0  0  0  0
 18 46  1  0  0  0  0
 19 47  1  0  0  0  0
 19 48  1  0  0  0  0
 20 21  1  0  0  0  0
 21 22  2  0  0  0  0
 21 49  1  0  0  0  0
 22 23  1  0  0  0  0
 24 25  1  0  0  0  0
 24 50  1  0  0  0  0
 24 51  1  0  0  0  0
 25 26  1  0  0  0  0
 25 52  1  0  0  0  0
 25 53  1  0  0  0  0
 26 27  1  0  0  0  0
 27 28  1  0  0  0  0
 27 54  1  0  0  0  0
 27 55  1  0  0  0  0
 28 56  1  0  0  0  0
 28 57  1  0  0  0  0
M  END
> <s_m_source_file>
AV-unprocessed.smi

> <i_m_source_file_index>
263

> <i_lp_mmshare_version>
43012

> <i_f3d_flags>
0

> <s_epik_input>
W0NIMl0xW0NIMl1PW0NIMl1bQ0gyXUMxKFtPSF0pW0NIMl1uKFtjSF1uMiljKGMyMyluW2NIXW5jM04oW0NIMl1bQ0gyXTQpW0NIMl1bQ0BASF0oW0NAXTQ1W09IXSlbQ0gyXVtDSDJdW0NIMl1bQ0gyXTU=

> <s_epik_cmdline>
J2VwaWtfcHl0aG9uJywgJy1waCcsICc3LjAnLCAnLXRuJywgJzgnLCAnLW1hJywgJzIwMCcsICctbWV0YWxfYmluZGluZycsICctaW1hZScsICc8aW5maWxlLm1hZT4nLCAnLW9tYWUnLCAnPG91dGZpbGUubWFlPic=

> <r_lp_tautomer_probability>
1

> <r_epik_Ionization_Penalty>
0.00747493

> <r_epik_Ionization_Penalty_Charging>
0

> <r_epik_Ionization_Penalty_Neutral>
0.00747493

> <r_epik_State_Penalty>
0.00549307

> <r_epik_Charging_Adjusted_Penalty>
0.00549307

> <i_epik_Tot_Q>
0

> <i_epik_Tot_abs_Q>
0

> <r_epik_Metal_State_Penalty>
-0

> <b_epik_Metal_Only>
0

> <s_lp_Force_Field>
OPLS_2005

> <r_lp_Energy>
38.115

> <b_lp_Chiralities_Consistent>
1

> <s_lp_Variant>
AV-unprocessed.smi:263-4

> <Gold.Version>
5.8.1

> <Gold.Id.Protein>
6NUR|6NUR_protein|mol2

> <Gold.PLP.Fitness>
50.6424

> <Gold.PLP.PLP>
-44.0833

> <Gold.PLP.part.hbond>
-5.2870

> <Gold.PLP.part.metal>
0.0000

> <Gold.PLP.part.buried>
-3.1007

> <Gold.PLP.part.nonpolar>
-35.0936

> <Gold.PLP.part.repulsive>
0.1679

> <Gold.PLP.ligand.clash>
0.0000

> <Gold.PLP.ligand.torsion>
1.1353

> <Gold.PLP.Chemscore.Hbond>
2.8080

> <Gold.PLP.Chemscore.CHOScore>
0.0000

> <Gold.PLP.Chemscore.Metal>
0.0000

> <Gold.Chemscore.Hbonds>
donor molecule, donor type, donor heavy atom, donor atom, acceptor molecule, acceptor atom, score
      L1  H     1    29       P1  7948  1.00
      P1  H  7997  8008       L1    20  0.98
      P1  H 10752 10765       L1    22  0.73

> <Gold.PLP.Chemscore.Internal.Correction>
0.4057

> <Gold.Rescore>
     Score         DG    S(hbond)    S(metal)    S(lipo)     H(rot)  DE(clash)    DE(int)     intcor
     19.14     -20.39       2.40        0.00     116.34       2.62       0.11       1.14       ----

> <Gold.Chemscore.Fitness>
19.1448

> <Gold.Chemscore.DG>
-20.3924

> <Gold.Chemscore.ZeroCoef>
-5.4800

> <Gold.Chemscore.Hbond>
2.4002

> <Gold.Chemscore.Metal>
0.0000

> <Gold.Chemscore.Lipo>
116.3368

> <Gold.Chemscore.Internal_Hbond>
0.0000

> <Gold.Chemscore.DEClash>
0.1122

> <Gold.Chemscore.DEInternal>
1.1354

> <Gold.Chemscore.Rot>
2.6232

> <Gold.Chemscore.Internal.Correction>
   9.000000E+99

> <Gold.Chemscore.Hbonds>
donor molecule, donor type, donor heavy atom, donor atom, acceptor molecule, acceptor atom, score
      L1  H     1    29       P1  7948  0.79
      P1  H  7997  8008       L1    20  0.27
      P1  H 10752 10765       L1    22  0.17

> <Gold.Chemscore.Hbond.Weighted>
-8.0165

> <Gold.Chemscore.Metal.Weighted>
-0.0000

> <Gold.Chemscore.Lipo.Weighted>
-13.6114

> <Gold.Chemscore.Internal_Hbond.Weighted>
0.0000

> <Gold.Chemscore.DEClash.Weighted>
0.1122

> <Gold.Chemscore.DEInternal.Weighted>
1.1354

> <Gold.Chemscore.Rot.Weighted>
6.7155

> <Gold.Chemscore.Internal.Correction.Weighted>
   9.000000E+99

> <Gold.Protein.RotatedTorsions>
[ 6907 6896 6895 6894 ] final  -91.11 input  -60.11 | X-H torsion
[ 7974 7965 7964 7962 ] final  132.90 input  175.53 | X-H torsion
[ 8008 7997 7996 7995 ] final   -1.40 input   59.86 | X-H torsion
[ 10167 10162 10161 10158 ] final  -60.57 input  -65.29 | X-H torsion
[ 10718 10713 10712 10709 ] final  -95.78 input   66.30 | X-H torsion
[ 10763 10752 10751 10750 ] final  171.57 input  -60.55 | X-H torsion
[ 11005 11000 10999 10996 ] final  167.35 input  -57.11 | X-H torsion

> <Gold.Protein.ActiveResidues>
 VAL166  LYS551  ARG553  GLY616  TRP617  ASP618  TYR619  PRO620  LYS621  CYS622 
 ASP623  PHE694  ASN695  SER759  ASP760  ASP761  ALA762  ILE779  LEU786  VAL792 
 PHE793  MET794  SER795  GLU796  ALA797  LYS798  CYS799  TRP800  GLU811  SER814 

> <Gold.Protein.RotatedAtoms>
  150.6889  134.2328  159.4441 H   0  0  0  0  0  0  0  0  0  0  0  0  # atno 6907 bound_to 6896
  152.0278  134.9783  160.0581 H   0  0  0  0  0  0  0  0  0  0  0  0  # atno 6908 bound_to 6896
  152.1334  133.4386  159.4769 H   0  0  0  0  0  0  0  0  0  0  0  0  # atno 6909 bound_to 6896
  144.9921  139.4396  143.5334 H   0  0  0  0  0  0  0  0  0  0  0  0  # atno 7974 bound_to 7965
  154.6472  140.2560  155.7255 H   0  0  0  0  0  0  0  0  0  0  0  0  # atno 8008 bound_to 7997
  156.2557  140.2875  156.0811 H   0  0  0  0  0  0  0  0  0  0  0  0  # atno 8009 bound_to 7997
  155.1506  140.0382  157.2810 H   0  0  0  0  0  0  0  0  0  0  0  0  # atno 8010 bound_to 7997
  140.6063  143.2374  151.5814 H   0  0  0  0  0  0  0  0  0  0  0  0  # atno 10167 bound_to 10162
  156.0049  130.5123  150.6127 H   0  0  0  0  0  0  0  0  0  0  0  0  # atno 10718 bound_to 10713
  154.4138  135.2756  155.2020 H   0  0  0  0  0  0  0  0  0  0  0  0  # atno 10763 bound_to 10752
  154.3994  135.6048  153.5892 H   0  0  0  0  0  0  0  0  0  0  0  0  # atno 10764 bound_to 10752
  152.9831  135.5923  154.4424 H   0  0  0  0  0  0  0  0  0  0  0  0  # atno 10765 bound_to 10752
  140.2759  134.7789  157.3716 H   0  0  0  0  0  0  0  0  0  0  0  0  # atno 11005 bound_to 11000
  146.3433  139.9258  142.8760 LP  0  0  0  0  0  0  0  0  0  0  0  0  # atno 17320 bound_to 7965
  145.2271  140.9958  143.4012 LP  0  0  0  0  0  0  0  0  0  0  0  0  # atno 17321 bound_to 7965
  139.5327  144.2869  152.1184 LP  0  0  0  0  0  0  0  0  0  0  0  0  # atno 17342 bound_to 10162
  140.2059  144.4611  150.6409 LP  0  0  0  0  0  0  0  0  0  0  0  0  # atno 17343 bound_to 10162
  157.3957  131.0802  151.1354 LP  0  0  0  0  0  0  0  0  0  0  0  0  # atno 17370 bound_to 10713
  157.2032  130.6404  149.5746 LP  0  0  0  0  0  0  0  0  0  0  0  0  # atno 17371 bound_to 10713
  140.1329  134.5072  155.8091 LP  0  0  0  0  0  0  0  0  0  0  0  0  # atno 17394 bound_to 11000
  141.2170  133.6796  156.7072 LP  0  0  0  0  0  0  0  0  0  0  0  0  # atno 17395 bound_to 11000

$$$$
