AV-unprocessed.smi:243|AV-procd|sdf|1858|dock6
  -GOLD-   2262020493D 1   1.00000     0.00000
 Structure written by MMmdl.
 58 61  0  0  0  0  0  0  0  0  2 V2000
  148.0597  127.1649  151.4694 C   0  0  0  0  0  0  0  0  0  0  0  0
  146.9603  128.1513  151.8898 C   0  0  0  0  0  0  0  0  0  0  0  0
  147.5087  129.4237  152.4243 N   0  3  2  0  0  0  0  0  0  0  0  0
  148.1707  129.2359  153.7407 C   0  0  0  0  0  0  0  0  0  0  0  0
  148.8365  130.5322  154.2416 C   0  0  0  0  0  0  0  0  0  0  0  0
  147.9271  131.7783  154.1958 C   0  0  2  0  0  0  0  0  0  0  0  0
  147.0883  131.9443  155.3970 N   0  0  0  0  0  0  0  0  0  0  0  0
  145.6372  131.7693  155.4076 C   0  0  0  0  0  0  0  0  0  0  0  0
  147.6223  132.6368  156.4365 C   0  0  0  0  0  0  0  0  0  0  0  0
  148.5979  133.5510  156.1893 N   0  0  0  0  0  0  0  0  0  0  0  0
  149.1560  134.2312  157.1946 C   0  0  0  0  0  0  0  0  0  0  0  0
  148.8907  134.1579  158.4999 N   0  0  0  0  0  0  0  0  0  0  0  0
  147.9007  133.2553  158.7545 C   0  0  0  0  0  0  0  0  0  0  0  0
  147.2187  132.4593  157.7910 C   0  0  0  0  0  0  0  0  0  0  0  0
  146.2695  131.6640  158.4226 N   0  0  0  0  0  0  0  0  0  0  0  0
  146.3931  131.9627  159.6869 C   0  0  0  0  0  0  0  0  0  0  0  0
  147.3452  132.9144  159.9757 N   0  0  0  0  0  0  0  0  0  0  0  0
  147.6928  133.4274  161.2926 C   0  0  0  0  0  0  0  0  0  0  0  0
  146.6614  134.4298  161.8627 C   0  0  1  0  0  0  0  0  0  0  0  0
  145.5354  133.7132  162.3405 O   0  0  0  0  0  0  0  0  0  0  0  0
  147.2195  135.2616  163.0116 C   0  0  0  0  0  0  0  0  0  0  0  0
  146.4377  136.5633  162.8978 C   0  0  0  0  0  0  0  0  0  0  0  0
  146.3625  136.7623  161.4967 O   0  0  0  0  0  0  0  0  0  0  0  0
  146.1729  135.5004  160.8636 C   0  0  0  0  0  0  0  0  0  0  0  0
  147.1724  131.8610  152.8459 C   0  0  2  0  0  0  0  0  0  0  0  0
  146.2069  133.0546  152.7472 C   0  0  0  0  0  0  0  0  0  0  0  0
  146.5100  130.5247  152.4578 C   0  0  0  0  0  0  0  0  0  0  0  0
  147.6235  126.2096  151.1762 H   0  0  0  0  0  0  0  0  0  0  0  0
  148.7517  126.9725  152.2900 H   0  0  0  0  0  0  0  0  0  0  0  0
  148.6363  127.5284  150.6195 H   0  0  0  0  0  0  0  0  0  0  0  0
  146.2842  128.3546  151.0579 H   0  0  0  0  0  0  0  0  0  0  0  0
  146.3611  127.6665  152.6618 H   0  0  0  0  0  0  0  0  0  0  0  0
  147.4560  128.8473  154.4628 H   0  0  0  0  0  0  0  0  0  0  0  0
  148.9411  128.4693  153.6469 H   0  0  0  0  0  0  0  0  0  0  0  0
  149.2401  130.3908  155.2451 H   0  0  0  0  0  0  0  0  0  0  0  0
  149.6995  130.7260  153.6034 H   0  0  0  0  0  0  0  0  0  0  0  0
  148.6085  132.6282  154.1721 H   0  0  0  0  0  0  0  0  0  0  0  0
  145.2784  131.6000  156.4239 H   0  0  0  0  0  0  0  0  0  0  0  0
  145.3217  130.9142  154.8191 H   0  0  0  0  0  0  0  0  0  0  0  0
  145.1360  132.6558  155.0191 H   0  0  0  0  0  0  0  0  0  0  0  0
  149.9265  134.9339  156.9129 H   0  0  0  0  0  0  0  0  0  0  0  0
  145.7857  131.4967  160.4493 H   0  0  0  0  0  0  0  0  0  0  0  0
  147.8080  132.5791  161.9687 H   0  0  0  0  0  0  0  0  0  0  0  0
  148.6746  133.8983  161.2267 H   0  0  0  0  0  0  0  0  0  0  0  0
  145.2792  133.0852  161.6821 H   0  0  0  0  0  0  0  0  0  0  0  0
  147.1225  134.7857  163.9885 H   0  0  0  0  0  0  0  0  0  0  0  0
  148.2780  135.4702  162.8491 H   0  0  0  0  0  0  0  0  0  0  0  0
  145.4325  136.4559  163.3087 H   0  0  0  0  0  0  0  0  0  0  0  0
  146.9295  137.3980  163.3977 H   0  0  0  0  0  0  0  0  0  0  0  0
  146.7438  135.4978  159.9360 H   0  0  0  0  0  0  0  0  0  0  0  0
  145.1220  135.3703  160.6001 H   0  0  0  0  0  0  0  0  0  0  0  0
  147.9376  132.0415  152.0889 H   0  0  0  0  0  0  0  0  0  0  0  0
  145.3495  132.9409  153.4099 H   0  0  0  0  0  0  0  0  0  0  0  0
  145.8228  133.1623  151.7325 H   0  0  0  0  0  0  0  0  0  0  0  0
  146.7083  133.9870  153.0085 H   0  0  0  0  0  0  0  0  0  0  0  0
  146.0576  130.6387  151.4735 H   0  0  0  0  0  0  0  0  0  0  0  0
  145.6982  130.2703  153.1384 H   0  0  0  0  0  0  0  0  0  0  0  0
  148.2365  129.7101  151.7851 H   0  0  0  0  0  0  0  0  0  0  0  0
  1  2  1  0  0  0  0
  1 28  1  0  0  0  0
  1 29  1  0  0  0  0
  1 30  1  0  0  0  0
  2  3  1  0  0  0  0
  2 31  1  0  0  0  0
  2 32  1  0  0  0  0
  3 27  1  0  0  0  0
  3  4  1  0  0  0  0
  3 58  1  0  0  0  0
  4  5  1  0  0  0  0
  4 33  1  0  0  0  0
  4 34  1  0  0  0  0
  5  6  1  0  0  0  0
  5 35  1  0  0  0  0
  5 36  1  0  0  0  0
  6  7  1  0  0  0  0
  6 25  1  0  0  0  0
  6 37  1  0  0  0  0
  7  8  1  0  0  0  0
  7  9  1  0  0  0  0
  8 38  1  0  0  0  0
  8 39  1  0  0  0  0
  8 40  1  0  0  0  0
  9 14  1  0  0  0  0
  9 10  2  0  0  0  0
 10 11  1  0  0  0  0
 11 12  2  0  0  0  0
 11 41  1  0  0  0  0
 12 13  1  0  0  0  0
 13 17  1  0  0  0  0
 13 14  2  0  0  0  0
 14 15  1  0  0  0  0
 15 16  2  0  0  0  0
 16 17  1  0  0  0  0
 16 42  1  0  0  0  0
 17 18  1  0  0  0  0
 18 19  1  0  0  0  0
 18 43  1  0  0  0  0
 18 44  1  0  0  0  0
 19 24  1  0  0  0  0
 19 20  1  0  0  0  0
 19 21  1  0  0  0  0
 20 45  1  0  0  0  0
 21 22  1  0  0  0  0
 21 46  1  0  0  0  0
 21 47  1  0  0  0  0
 22 23  1  0  0  0  0
 22 48  1  0  0  0  0
 22 49  1  0  0  0  0
 23 24  1  0  0  0  0
 24 50  1  0  0  0  0
 24 51  1  0  0  0  0
 25 26  1  0  0  0  0
 25 27  1  0  0  0  0
 25 52  1  0  0  0  0
 26 53  1  0  0  0  0
 26 54  1  0  0  0  0
 26 55  1  0  0  0  0
 27 56  1  0  0  0  0
 27 57  1  0  0  0  0
M  CHG  1   3   1
M  END
> <s_m_source_file>
AV-unprocessed.smi

> <i_m_source_file_index>
243

> <i_lp_mmshare_version>
43012

> <i_f3d_flags>
0

> <s_epik_input>
W0NIM11bQ0gyXU4xW0NIMl1bQ0gyXVtDQEhdKFtDQEBIXShbQ0gzXSlbQ0gyXTEpTihbQ0gzXSljKG5bY0hdbjIpYyhjMjMpbltjSF1uM1tDSDJdW0NAQF00KFtPSF0pW0NIMl1bQ0gyXU9bQ0gyXTQ=

> <s_epik_cmdline>
J2VwaWtfcHl0aG9uJywgJy1waCcsICc3LjAnLCAnLXRuJywgJzgnLCAnLW1hJywgJzIwMCcsICctbWV0YWxfYmluZGluZycsICctaW1hZScsICc8aW5maWxlLm1hZT4nLCAnLW9tYWUnLCAnPG91dGZpbGUubWFlPic=

> <r_lp_tautomer_probability>
1

> <r_epik_Ionization_Penalty>
0.00253099

> <r_epik_Ionization_Penalty_Charging>
0.00137877

> <r_epik_Ionization_Penalty_Neutral>
0.00115221

> <r_epik_State_Penalty>
-0

> <r_epik_Charging_Adjusted_Penalty>
0.00137877

> <i_epik_Tot_Q>
1

> <i_epik_Tot_abs_Q>
1

> <r_epik_Metal_State_Penalty>
-0

> <b_epik_Metal_Only>
0

> <s_lp_Force_Field>
OPLS_2005

> <r_lp_Energy>
51.0856

> <b_lp_Chiralities_Consistent>
1

> <s_lp_Variant>
AV-unprocessed.smi:243-11

> <Gold.Version>
5.8.1

> <Gold.Id.Protein>
6NUR|6NUR_protein|mol2

> <Gold.PLP.Fitness>
46.2898

> <Gold.PLP.PLP>
-39.6722

> <Gold.PLP.part.hbond>
-4.0000

> <Gold.PLP.part.metal>
0.0000

> <Gold.PLP.part.buried>
-3.1647

> <Gold.PLP.part.nonpolar>
-31.8871

> <Gold.PLP.part.repulsive>
0.0275

> <Gold.PLP.ligand.clash>
0.0000

> <Gold.PLP.ligand.torsion>
1.4878

> <Gold.PLP.Chemscore.Hbond>
3.0234

> <Gold.PLP.Chemscore.CHOScore>
0.0000

> <Gold.PLP.Chemscore.Metal>
0.0000

> <Gold.Chemscore.Hbonds>
donor molecule, donor type, donor heavy atom, donor atom, acceptor molecule, acceptor atom, score
      L1  H     3    58       P1 10747  1.00
      P1  H  6896  6908       L1    12  1.00

> <Gold.PLP.Chemscore.Internal.Correction>
0.5229

> <Gold.Rescore>
     Score         DG    S(hbond)    S(metal)    S(lipo)     H(rot)  DE(clash)    DE(int)     intcor
     17.61     -20.27       2.79        0.00      95.61       2.24       0.06       2.60       ----

> <Gold.Chemscore.Fitness>
17.6140

> <Gold.Chemscore.DG>
-20.2672

> <Gold.Chemscore.ZeroCoef>
-5.4800

> <Gold.Chemscore.Hbond>
2.7933

> <Gold.Chemscore.Metal>
0.0000

> <Gold.Chemscore.Lipo>
95.6123

> <Gold.Chemscore.Internal_Hbond>
0.0000

> <Gold.Chemscore.DEClash>
0.0556

> <Gold.Chemscore.DEInternal>
2.5976

> <Gold.Chemscore.Rot>
2.2379

> <Gold.Chemscore.Internal.Correction>
   9.000000E+99

> <Gold.Chemscore.Hbonds>
donor molecule, donor type, donor heavy atom, donor atom, acceptor molecule, acceptor atom, score
      L1  H     3    58       P1 10747  0.62
      P1  H  6896  6908       L1    12  0.56
      P1  H  6934  6947       L1    23  0.03

> <Gold.Chemscore.Hbond.Weighted>
-9.3297

> <Gold.Chemscore.Metal.Weighted>
-0.0000

> <Gold.Chemscore.Lipo.Weighted>
-11.1866

> <Gold.Chemscore.Internal_Hbond.Weighted>
0.0000

> <Gold.Chemscore.DEClash.Weighted>
0.0556

> <Gold.Chemscore.DEInternal.Weighted>
2.5976

> <Gold.Chemscore.Rot.Weighted>
5.7291

> <Gold.Chemscore.Internal.Correction.Weighted>
   9.000000E+99

> <Gold.Protein.RotatedTorsions>
[ 6907 6896 6895 6894 ] final  160.95 input  -60.11 | X-H torsion
[ 7974 7965 7964 7962 ] final  160.53 input  175.53 | X-H torsion
[ 8008 7997 7996 7995 ] final   95.41 input   59.86 | X-H torsion
[ 10167 10162 10161 10158 ] final -177.46 input  -65.29 | X-H torsion
[ 10718 10713 10712 10709 ] final   -8.95 input   66.30 | X-H torsion
[ 10763 10752 10751 10750 ] final -103.38 input  -60.55 | X-H torsion
[ 11005 11000 10999 10996 ] final -153.99 input  -57.11 | X-H torsion

> <Gold.Protein.ActiveResidues>
 VAL166  LYS551  ARG553  GLY616  TRP617  ASP618  TYR619  PRO620  LYS621  CYS622 
 ASP623  PHE694  ASN695  SER759  ASP760  ASP761  ALA762  ILE779  LEU786  VAL792 
 PHE793  MET794  SER795  GLU796  ALA797  LYS798  CYS799  TRP800  GLU811  SER814 

> <Gold.Protein.RotatedAtoms>
  151.9630  133.3701  159.4042 H   0  0  0  0  0  0  0  0  0  0  0  0  # atno 6907 bound_to 6896
  150.6961  134.4221  159.5219 H   0  0  0  0  0  0  0  0  0  0  0  0  # atno 6908 bound_to 6896
  152.1912  134.8670  160.0568 H   0  0  0  0  0  0  0  0  0  0  0  0  # atno 6909 bound_to 6896
  144.7732  139.7770  143.6289 H   0  0  0  0  0  0  0  0  0  0  0  0  # atno 7974 bound_to 7965
  156.0685  140.3287  155.7547 H   0  0  0  0  0  0  0  0  0  0  0  0  # atno 8008 bound_to 7997
  155.5343  140.0596  157.2900 H   0  0  0  0  0  0  0  0  0  0  0  0  # atno 8009 bound_to 7997
  154.4518  140.1922  156.0515 H   0  0  0  0  0  0  0  0  0  0  0  0  # atno 8010 bound_to 7997
  139.5479  144.2187  152.1022 H   0  0  0  0  0  0  0  0  0  0  0  0  # atno 10167 bound_to 10162
  156.6951  130.5076  149.5932 H   0  0  0  0  0  0  0  0  0  0  0  0  # atno 10718 bound_to 10713
  154.7803  135.4825  153.9830 H   0  0  0  0  0  0  0  0  0  0  0  0  # atno 10763 bound_to 10752
  153.1484  135.6786  153.8926 H   0  0  0  0  0  0  0  0  0  0  0  0  # atno 10764 bound_to 10752
  153.8578  135.3159  155.3414 H   0  0  0  0  0  0  0  0  0  0  0  0  # atno 10765 bound_to 10752
  140.7022  134.3925  157.5208 H   0  0  0  0  0  0  0  0  0  0  0  0  # atno 11005 bound_to 11000
  146.1894  139.5126  142.9815 LP  0  0  0  0  0  0  0  0  0  0  0  0  # atno 17320 bound_to 7965
  145.6262  141.0313  143.1888 LP  0  0  0  0  0  0  0  0  0  0  0  0  # atno 17321 bound_to 7965
  140.1677  144.4966  150.6597 LP  0  0  0  0  0  0  0  0  0  0  0  0  # atno 17342 bound_to 10162
  140.6733  143.2294  151.5571 LP  0  0  0  0  0  0  0  0  0  0  0  0  # atno 17343 bound_to 10162
  156.1769  130.6474  151.0905 LP  0  0  0  0  0  0  0  0  0  0  0  0  # atno 17370 bound_to 10713
  157.6994  131.0782  150.6867 LP  0  0  0  0  0  0  0  0  0  0  0  0  # atno 17371 bound_to 10713
  139.8894  134.8832  156.2425 LP  0  0  0  0  0  0  0  0  0  0  0  0  # atno 17394 bound_to 11000
  141.0154  133.7071  156.1180 LP  0  0  0  0  0  0  0  0  0  0  0  0  # atno 17395 bound_to 11000

$$$$
