AV-unprocessed.smi:1440|AV-procd|sdf|5873|dock1
  -GOLD-   22720 5553D 1   1.00000     0.00000
 Structure written by MMmdl.
 41 42  0  0  0  0  0  0  0  0  1 V2000
  151.0829  145.4329  160.1026 C   0  0  0  0  0  0  0  0  0  0  0  0
  151.6277  144.0058  160.2547 C   0  0  2  0  0  0  0  0  0  0  0  0
  152.3722  143.8242  161.5906 C   0  0  0  0  0  0  0  0  0  0  0  0
  152.9132  142.3940  161.7460 C   0  0  0  0  0  0  0  0  0  0  0  0
  153.8237  142.0002  160.5642 C   0  0  1  0  0  0  0  0  0  0  0  0
  154.2558  140.6105  160.6834 N   0  0  0  0  0  0  0  0  0  0  0  0
  154.9074  140.0845  161.7315 C   0  0  0  0  0  0  0  0  0  0  0  0
  155.2110  140.7358  162.7323 O   0  0  0  0  0  0  0  0  0  0  0  0
  155.2465  138.5921  161.6235 C   0  0  0  0  0  0  0  0  0  0  0  0
  154.4907  137.7592  162.5555 N   0  0  0  0  0  0  0  0  0  0  0  0
  155.0253  136.9467  163.4812 C   0  0  0  0  0  0  0  0  0  0  0  0
  156.2370  136.7989  163.6371 O   0  0  0  0  0  0  0  0  0  0  0  0
  154.0413  136.1878  164.3723 C   0  0  0  0  0  0  0  0  0  0  0  0
  154.2675  134.7557  164.3050 N   0  0  0  0  0  0  0  0  0  0  0  0
  154.9500  134.0259  163.4205 C   0  0  0  0  0  0  0  0  0  0  0  0
  154.9379  132.7252  163.6769 N   0  0  0  0  0  0  0  0  0  0  0  0
  154.1767  132.7232  164.8119 C   0  0  0  0  0  0  0  0  0  0  0  0
  153.7495  133.9143  165.2313 N   0  0  0  0  0  0  0  0  0  0  0  0
  153.0887  142.1937  159.2249 C   0  0  0  0  0  0  0  0  0  0  0  0
  152.5447  143.6238  159.0774 C   0  0  0  0  0  0  0  0  0  0  0  0
  151.8890  146.1669  160.1001 H   0  0  0  0  0  0  0  0  0  0  0  0
  150.4060  145.6839  160.9198 H   0  0  0  0  0  0  0  0  0  0  0  0
  150.5286  145.5434  159.1702 H   0  0  0  0  0  0  0  0  0  0  0  0
  150.7735  143.3269  160.2507 H   0  0  0  0  0  0  0  0  0  0  0  0
  153.1990  144.5333  161.6520 H   0  0  0  0  0  0  0  0  0  0  0  0
  151.7068  144.0540  162.4233 H   0  0  0  0  0  0  0  0  0  0  0  0
  153.4581  142.3142  162.6873 H   0  0  0  0  0  0  0  0  0  0  0  0
  152.0762  141.6976  161.8155 H   0  0  0  0  0  0  0  0  0  0  0  0
  154.7048  142.6451  160.5658 H   0  0  0  0  0  0  0  0  0  0  0  0
  154.0443  140.0021  159.9059 H   0  0  0  0  0  0  0  0  0  0  0  0
  155.0225  138.2569  160.6106 H   0  0  0  0  0  0  0  0  0  0  0  0
  156.3184  138.4475  161.7706 H   0  0  0  0  0  0  0  0  0  0  0  0
  153.4839  137.8177  162.5032 H   0  0  0  0  0  0  0  0  0  0  0  0
  154.1516  136.5106  165.4085 H   0  0  0  0  0  0  0  0  0  0  0  0
  153.0156  136.4104  164.0736 H   0  0  0  0  0  0  0  0  0  0  0  0
  155.4630  134.4548  162.5720 H   0  0  0  0  0  0  0  0  0  0  0  0
  153.9297  131.8167  165.3448 H   0  0  0  0  0  0  0  0  0  0  0  0
  153.7599  141.9704  158.3947 H   0  0  0  0  0  0  0  0  0  0  0  0
  152.2613  141.4862  159.1517 H   0  0  0  0  0  0  0  0  0  0  0  0
  151.9992  143.7105  158.1372 H   0  0  0  0  0  0  0  0  0  0  0  0
  153.3783  144.3247  159.0161 H   0  0  0  0  0  0  0  0  0  0  0  0
  1  2  1  0  0  0  0
  1 21  1  0  0  0  0
  1 22  1  0  0  0  0
  1 23  1  0  0  0  0
  2 20  1  0  0  0  0
  2  3  1  0  0  0  0
  2 24  1  0  0  0  0
  3  4  1  0  0  0  0
  3 25  1  0  0  0  0
  3 26  1  0  0  0  0
  4  5  1  0  0  0  0
  4 27  1  0  0  0  0
  4 28  1  0  0  0  0
  5  6  1  0  0  0  0
  5 19  1  0  0  0  0
  5 29  1  0  0  0  0
  6  7  1  0  0  0  0
  6 30  1  0  0  0  0
  7  8  2  0  0  0  0
  7  9  1  0  0  0  0
  9 10  1  0  0  0  0
  9 31  1  0  0  0  0
  9 32  1  0  0  0  0
 10 11  1  0  0  0  0
 10 33  1  0  0  0  0
 11 12  2  0  0  0  0
 11 13  1  0  0  0  0
 13 14  1  0  0  0  0
 13 34  1  0  0  0  0
 13 35  1  0  0  0  0
 14 18  1  0  0  0  0
 14 15  1  0  0  0  0
 15 16  2  0  0  0  0
 15 36  1  0  0  0  0
 16 17  1  0  0  0  0
 17 18  2  0  0  0  0
 17 37  1  0  0  0  0
 19 20  1  0  0  0  0
 19 38  1  0  0  0  0
 19 39  1  0  0  0  0
 20 40  1  0  0  0  0
 20 41  1  0  0  0  0
M  END
> <s_m_source_file>
AV-unprocessed.smi

> <i_m_source_file_index>
1440

> <i_lp_mmshare_version>
43012

> <i_f3d_flags>
0

> <s_epik_input>
W0NIM11bQ0BASF0xW0NIMl1bQ0gyXVtDQEhdKFtDSDJdW0NIMl0xKVtOSF1DKD1PKVtDSDJdW05IXUMoPU8pW0NIMl1uMltjSF1uW2NIXW4y

> <s_epik_cmdline>
J2VwaWtfcHl0aG9uJywgJy1waCcsICc3LjAnLCAnLXRuJywgJzgnLCAnLW1hJywgJzIwMCcsICctbWV0YWxfYmluZGluZycsICctaW1hZScsICc8aW5maWxlLm1hZT4nLCAnLW9tYWUnLCAnPG91dGZpbGUubWFlPic=

> <r_lp_tautomer_probability>
1

> <r_epik_Ionization_Penalty>
7.34071e-06

> <r_epik_Ionization_Penalty_Charging>
0

> <r_epik_Ionization_Penalty_Neutral>
7.34071e-06

> <r_epik_State_Penalty>
-0

> <r_epik_Charging_Adjusted_Penalty>
0

> <i_epik_Tot_Q>
0

> <i_epik_Tot_abs_Q>
0

> <r_epik_Metal_State_Penalty>
-0

> <b_epik_Metal_Only>
0

> <s_lp_Force_Field>
OPLS_2005

> <r_lp_Energy>
7.17082

> <b_lp_Chiralities_Consistent>
1

> <s_lp_Variant>
AV-unprocessed.smi:1440-1

> <Gold.Version>
5.8.1

> <Gold.Id.Protein>
6NUR|6NUR_protein|mol2

> <Gold.PLP.Fitness>
46.1460

> <Gold.PLP.PLP>
-46.7004

> <Gold.PLP.part.hbond>
-1.0000

> <Gold.PLP.part.metal>
0.0000

> <Gold.PLP.part.buried>
-6.7743

> <Gold.PLP.part.nonpolar>
-39.4079

> <Gold.PLP.part.repulsive>
0.1632

> <Gold.PLP.ligand.clash>
0.0000

> <Gold.PLP.ligand.torsion>
0.3028

> <Gold.PLP.Chemscore.Hbond>
0.0000

> <Gold.PLP.Chemscore.CHOScore>
0.0000

> <Gold.PLP.Chemscore.Metal>
0.0000

> <Gold.PLP.Chemscore.Internal.Correction>
0.0512

> <Gold.Rescore>
     Score         DG    S(hbond)    S(metal)    S(lipo)     H(rot)  DE(clash)    DE(int)     intcor
      9.18      -9.45       0.00        0.00      96.57       2.86       0.00       0.27       ----

> <Gold.Chemscore.Fitness>
9.1802

> <Gold.Chemscore.DG>
-9.4519

> <Gold.Chemscore.ZeroCoef>
-5.4800

> <Gold.Chemscore.Hbond>
0.0000

> <Gold.Chemscore.Metal>
0.0000

> <Gold.Chemscore.Lipo>
96.5714

> <Gold.Chemscore.Internal_Hbond>
0.0000

> <Gold.Chemscore.DEClash>
0.0038

> <Gold.Chemscore.DEInternal>
0.2679

> <Gold.Chemscore.Rot>
2.8621

> <Gold.Chemscore.Internal.Correction>
   9.000000E+99

> <Gold.Chemscore.Hbond.Weighted>
-0.0000

> <Gold.Chemscore.Metal.Weighted>
-0.0000

> <Gold.Chemscore.Lipo.Weighted>
-11.2989

> <Gold.Chemscore.Internal_Hbond.Weighted>
0.0000

> <Gold.Chemscore.DEClash.Weighted>
0.0038

> <Gold.Chemscore.DEInternal.Weighted>
0.2679

> <Gold.Chemscore.Rot.Weighted>
7.3270

> <Gold.Chemscore.Internal.Correction.Weighted>
   9.000000E+99

> <Gold.Protein.RotatedTorsions>
[ 6907 6896 6895 6894 ] final  -96.00 input  -60.11 | X-H torsion
[ 7974 7965 7964 7962 ] final   84.91 input  175.53 | X-H torsion
[ 8008 7997 7996 7995 ] final -128.60 input   59.86 | X-H torsion
[ 10167 10162 10161 10158 ] final   89.04 input  -65.29 | X-H torsion
[ 10718 10713 10712 10709 ] final  124.07 input   66.30 | X-H torsion
[ 10763 10752 10751 10750 ] final -136.82 input  -60.55 | X-H torsion
[ 11005 11000 10999 10996 ] final   50.38 input  -57.11 | X-H torsion

> <Gold.Protein.ActiveResidues>
 VAL166  LYS551  ARG553  GLY616  TRP617  ASP618  TYR619  PRO620  LYS621  CYS622 
 ASP623  PHE694  ASN695  SER759  ASP760  ASP761  ALA762  ILE779  LEU786  VAL792 
 PHE793  MET794  SER795  GLU796  ALA797  LYS798  CYS799  TRP800  GLU811  SER814 

> <Gold.Protein.RotatedAtoms>
  150.6977  134.1571  159.4161 H   0  0  0  0  0  0  0  0  0  0  0  0  # atno 6907 bound_to 6896
  151.9552  135.0148  160.0553 H   0  0  0  0  0  0  0  0  0  0  0  0  # atno 6908 bound_to 6896
  152.1975  133.4782  159.5078 H   0  0  0  0  0  0  0  0  0  0  0  0  # atno 6909 bound_to 6896
  145.5924  139.2340  143.2291 H   0  0  0  0  0  0  0  0  0  0  0  0  # atno 7974 bound_to 7965
  155.2654  140.0438  157.3001 H   0  0  0  0  0  0  0  0  0  0  0  0  # atno 8008 bound_to 7997
  154.5685  140.2367  155.8195 H   0  0  0  0  0  0  0  0  0  0  0  0  # atno 8009 bound_to 7997
  156.2104  140.3000  155.9728 H   0  0  0  0  0  0  0  0  0  0  0  0  # atno 8010 bound_to 7997
  139.8613  144.6542  150.9055 H   0  0  0  0  0  0  0  0  0  0  0  0  # atno 10167 bound_to 10162
  157.5614  131.1089  150.8531 H   0  0  0  0  0  0  0  0  0  0  0  0  # atno 10718 bound_to 10713
  154.8675  135.3661  154.5122 H   0  0  0  0  0  0  0  0  0  0  0  0  # atno 10763 bound_to 10752
  153.5757  135.7019  153.5490 H   0  0  0  0  0  0  0  0  0  0  0  0  # atno 10764 bound_to 10752
  153.3502  135.4074  155.1603 H   0  0  0  0  0  0  0  0  0  0  0  0  # atno 10765 bound_to 10752
  140.1022  134.5065  155.8752 H   0  0  0  0  0  0  0  0  0  0  0  0  # atno 11005 bound_to 11000
  146.1637  140.6750  142.9266 LP  0  0  0  0  0  0  0  0  0  0  0  0  # atno 17320 bound_to 7965
  144.7345  140.4769  143.6913 LP  0  0  0  0  0  0  0  0  0  0  0  0  # atno 17321 bound_to 7965
  140.7774  143.3742  151.1593 LP  0  0  0  0  0  0  0  0  0  0  0  0  # atno 17342 bound_to 10162
  139.7371  143.8981  152.3038 LP  0  0  0  0  0  0  0  0  0  0  0  0  # atno 17343 bound_to 10162
  156.9028  130.5252  149.5282 LP  0  0  0  0  0  0  0  0  0  0  0  0  # atno 17370 bound_to 10713
  156.0666  130.5708  150.9301 LP  0  0  0  0  0  0  0  0  0  0  0  0  # atno 17371 bound_to 10713
  141.2109  133.6700  156.6541 LP  0  0  0  0  0  0  0  0  0  0  0  0  # atno 17394 bound_to 11000
  140.3204  134.8013  157.4247 LP  0  0  0  0  0  0  0  0  0  0  0  0  # atno 17395 bound_to 11000

$$$$
