#       Name:                AV-unprocessed.smi:2171
#       Creating user name   scv26
#       Creation time:       Fri Mar 27 12:02:37 2020


#       File generated by GOLD software.
#

@<TRIPOS>MOLECULE
AV-unprocessed.smi:2171
    42    44     1
SMALL
NO_CHARGES


@<TRIPOS>ATOM
      1 ****         0.4728   2.0649   0.5419 O.2            1 S1                 0.0000
      2 ****         1.2079   1.0905   0.7051 C.2            1 S1                 0.0000
      3 ****         2.7286   1.2615   0.7773 C.3            1 S1                 0.0000
      4 ****         3.1097   2.4328   1.5482 N.pl3          1 S1                 0.0000
      5 ****         3.1584   2.5786   2.9193 C.2            1 S1                 0.0000
      6 ****         3.5762   3.8524   3.1784 C.2            1 S1                 0.0000
      7 ****         3.7602   4.4171   1.8853 C.2            1 S1                 0.0000
      8 ****         3.4823   3.5649   0.9118 N.2            1 S1                 0.0000
      9 ****         0.7446  -0.1642   0.8137 N.am           1 S1                 0.0000
     10 ****        -0.6669  -0.5367   0.7650 C.3            1 S1                 0.0000
     11 ****        -0.9331  -1.9629   1.2293 C.3            1 S1                 0.0000
     12 ****        -2.3235  -2.2583   0.6566 C.3            1 S1                 0.0000
     13 ****        -2.4868  -1.3988  -0.5421 N.4            1 S1                 1.0000
     14 ****        -2.8297  -2.1468  -1.7816 C.3            1 S1                 0.0000
     15 ****        -2.5849  -1.2856  -3.0295 C.3            1 S1                 0.0000
     16 ****        -1.1003  -0.8963  -3.1624 C.3            1 S1                 0.0000
     17 ****        -0.3642  -0.9093  -1.8087 C.3            1 S1                 0.0000
     18 ****        -1.2978  -0.5049  -0.6409 C.3            1 S1                 0.0000
     19 ****         3.1901   0.3852   1.2350 H              1 S1                 0.0000
     20 ****         3.1294   1.3449  -0.2340 H              1 S1                 0.0000
     21 ****         2.8946   1.7728   3.5884 H              1 S1                 0.0000
     22 ****         3.7277   4.3111   4.1442 H              1 S1                 0.0000
     23 ****         4.0867   5.4137   1.6267 H              1 S1                 0.0000
     24 ****         1.4137  -0.9097   0.9423 H              1 S1                 0.0000
     25 ****        -1.2302   0.1344   1.4171 H              1 S1                 0.0000
     26 ****        -0.2021  -2.6462   0.7942 H              1 S1                 0.0000
     27 ****        -0.8921  -2.0724   2.3136 H              1 S1                 0.0000
     28 ****        -2.4519  -3.3208   0.4453 H              1 S1                 0.0000
     29 ****        -3.0921  -1.9766   1.3770 H              1 S1                 0.0000
     30 ****        -2.2291  -3.0554  -1.8521 H              1 S1                 0.0000
     31 ****        -3.8726  -2.4610  -1.7292 H              1 S1                 0.0000
     32 ****        -2.9150  -1.8084  -3.9277 H              1 S1                 0.0000
     33 ****        -3.1940  -0.3831  -2.9614 H              1 S1                 0.0000
     34 ****        -0.5933  -1.5781  -3.8461 H              1 S1                 0.0000
     35 ****        -1.0321   0.0929  -3.6170 H              1 S1                 0.0000
     36 ****         0.0320  -1.9086  -1.6230 H              1 S1                 0.0000
     37 ****         0.5002  -0.2482  -1.8711 H              1 S1                 0.0000
     38 ****        -1.6544   0.5064  -0.8424 H              1 S1                 0.0000
     39 ****        -3.2691  -0.7900  -0.3480 H              1 S1                 0.0000
     40 ****         0.8671   2.9797   0.4550 LP             1 S1                 0.0000
     41 ****        -0.5185   1.9413   0.4963 LP             1 S1                 0.0000
     42 ****         3.5360   3.7233  -0.0741 LP             1 S1                 0.0000
@<TRIPOS>BOND
    1    1    2 2     
    2    2    3 1     
    3    2    9 am    
    4    3    4 1     
    5    3   19 1     
    6    3   20 1     
    7    4    8 1     
    8    4    5 1     
    9    5    6 2     
   10    5   21 1     
   11    6    7 1     
   12    6   22 1     
   13    7    8 2     
   14    7   23 1     
   15    9   10 1     
   16    9   24 1     
   17   10   18 1     
   18   10   11 1     
   19   10   25 1     
   20   11   12 1     
   21   11   26 1     
   22   11   27 1     
   23   12   13 1     
   24   12   28 1     
   25   12   29 1     
   26   13   18 1     
   27   13   14 1     
   28   13   39 1     
   29   14   15 1     
   30   14   30 1     
   31   14   31 1     
   32   15   16 1     
   33   15   32 1     
   34   15   33 1     
   35   16   17 1     
   36   16   34 1     
   37   16   35 1     
   38   17   18 1     
   39   17   36 1     
   40   17   37 1     
   41   18   38 1     
   42    1   40 1     
   43    1   41 1     
   44    8   42 1     
@<TRIPOS>SUBSTRUCTURE
      1 S1             1
@<TRIPOS>SET
LONE_PAIRS      STATIC     ATOMS    <user>   **** ""
3 40 41 42
DONOR_HYDROGENS      STATIC     ATOMS    <user>   **** ""
2 24 39
ATOM$BLUE        STATIC     ATOMS    COLORGROUP SYSTEM
3 40 41 42
ATOM$RED        STATIC     ATOMS    COLORGROUP SYSTEM
2 24 39
