AV-unprocessed.smi:1553|AV-procd|sdf|6239|dock9
  -GOLD-   22720 6423D 1   1.00000     0.00000
 Structure written by MMmdl.
 37 38  0  0  0  0  0  0  0  0  1 V2000
  152.7644  143.9053  162.2524 C   0  0  0  0  0  0  0  0  0  0  0  0
  152.3587  144.1024  160.8320 C   0  0  0  0  0  0  0  0  0  0  0  0
  152.3512  143.1238  159.9234 N   0  0  0  0  0  0  0  0  0  0  0  0
  151.9307  143.5612  158.6636 C   0  0  0  0  0  0  0  0  0  0  0  0
  151.8656  142.5949  157.5201 C   0  0  0  0  0  0  0  0  0  0  0  0
  150.4490  142.0334  157.3151 C   0  0  0  0  0  0  0  0  0  0  0  0
  150.4409  140.9340  156.3571 N   0  0  0  0  0  0  0  0  0  0  0  0
  151.3494  139.9450  156.3042 C   0  0  0  0  0  0  0  0  0  0  0  0
  152.3250  139.9079  157.0540 O   0  0  0  0  0  0  0  0  0  0  0  0
  151.1460  139.0816  155.2778 N   0  0  0  0  0  0  0  0  0  0  0  0
  149.7891  138.7591  154.8104 C   0  0  0  0  0  0  0  0  0  0  0  0
  149.3306  137.4630  155.5073 C   0  0  0  0  0  0  0  0  0  0  0  0
  150.2461  136.4081  155.2209 O   0  0  0  0  0  0  0  0  0  0  0  0
  151.5869  136.7009  155.6092 C   0  0  0  0  0  0  0  0  0  0  0  0
  152.0557  137.9837  154.8935 C   0  0  2  0  0  0  0  0  0  0  0  0
  153.5608  138.2598  155.0941 C   0  0  0  0  0  0  0  0  0  0  0  0
  151.6212  144.8981  158.6308 C   0  0  0  0  0  0  0  0  0  0  0  0
  151.8441  145.6550  160.1842 S   0  0  0  0  0  0  0  0  0  0  0  0
  152.8218  142.8428  162.4912 H   0  0  0  0  0  0  0  0  0  0  0  0
  152.0376  144.3729  162.9168 H   0  0  0  0  0  0  0  0  0  0  0  0
  153.7410  144.3567  162.4265 H   0  0  0  0  0  0  0  0  0  0  0  0
  152.2030  143.0854  156.6060 H   0  0  0  0  0  0  0  0  0  0  0  0
  152.5611  141.7720  157.6903 H   0  0  0  0  0  0  0  0  0  0  0  0
  150.0594  141.6576  158.2616 H   0  0  0  0  0  0  0  0  0  0  0  0
  149.7662  142.8203  156.9893 H   0  0  0  0  0  0  0  0  0  0  0  0
  149.6914  140.9235  155.6807 H   0  0  0  0  0  0  0  0  0  0  0  0
  149.0641  139.5500  155.0056 H   0  0  0  0  0  0  0  0  0  0  0  0
  149.7934  138.6249  153.7278 H   0  0  0  0  0  0  0  0  0  0  0  0
  149.2570  137.6067  156.5864 H   0  0  0  0  0  0  0  0  0  0  0  0
  148.3399  137.1750  155.1553 H   0  0  0  0  0  0  0  0  0  0  0  0
  151.6502  136.8070  156.6934 H   0  0  0  0  0  0  0  0  0  0  0  0
  152.2188  135.8568  155.3321 H   0  0  0  0  0  0  0  0  0  0  0  0
  151.9334  137.8295  153.8200 H   0  0  0  0  0  0  0  0  0  0  0  0
  154.1567  137.4948  154.5959 H   0  0  0  0  0  0  0  0  0  0  0  0
  153.8517  138.2467  156.1441 H   0  0  0  0  0  0  0  0  0  0  0  0
  153.8484  139.2224  154.6701 H   0  0  0  0  0  0  0  0  0  0  0  0
  151.2784  145.4821  157.7896 H   0  0  0  0  0  0  0  0  0  0  0  0
  1  2  1  0  0  0  0
  1 19  1  0  0  0  0
  1 20  1  0  0  0  0
  1 21  1  0  0  0  0
  2 18  1  0  0  0  0
  2  3  2  0  0  0  0
  3  4  1  0  0  0  0
  4  5  1  0  0  0  0
  4 17  2  0  0  0  0
  5  6  1  0  0  0  0
  5 22  1  0  0  0  0
  5 23  1  0  0  0  0
  6  7  1  0  0  0  0
  6 24  1  0  0  0  0
  6 25  1  0  0  0  0
  7  8  1  0  0  0  0
  7 26  1  0  0  0  0
  8  9  2  0  0  0  0
  8 10  1  0  0  0  0
 10 15  1  0  0  0  0
 10 11  1  0  0  0  0
 11 12  1  0  0  0  0
 11 27  1  0  0  0  0
 11 28  1  0  0  0  0
 12 13  1  0  0  0  0
 12 29  1  0  0  0  0
 12 30  1  0  0  0  0
 13 14  1  0  0  0  0
 14 15  1  0  0  0  0
 14 31  1  0  0  0  0
 14 32  1  0  0  0  0
 15 16  1  0  0  0  0
 15 33  1  0  0  0  0
 16 34  1  0  0  0  0
 16 35  1  0  0  0  0
 16 36  1  0  0  0  0
 17 18  1  0  0  0  0
 17 37  1  0  0  0  0
M  END
> <s_m_source_file>
AV-unprocessed.smi

> <i_m_source_file_index>
1553

> <i_lp_mmshare_version>
43012

> <i_f3d_flags>
0

> <s_epik_input>
W0NIM11jMW5jKFtjSF1zMSlbQ0gyXVtDSDJdW05IXUMoPU8pTjJbQ0gyXVtDSDJdT1tDSDJdW0NASF0yW0NIM10=

> <s_epik_cmdline>
J2VwaWtfcHl0aG9uJywgJy1waCcsICc3LjAnLCAnLXRuJywgJzgnLCAnLW1hJywgJzIwMCcsICctbWV0YWxfYmluZGluZycsICctaW1hZScsICc8aW5maWxlLm1hZT4nLCAnLW9tYWUnLCAnPG91dGZpbGUubWFlPic=

> <r_epik_Ionization_Penalty>
0.0020768

> <r_epik_Ionization_Penalty_Charging>
0

> <r_epik_Ionization_Penalty_Neutral>
0.0020768

> <r_epik_State_Penalty>
0.00139904

> <r_epik_Charging_Adjusted_Penalty>
0.00139904

> <i_epik_Tot_Q>
0

> <i_epik_Tot_abs_Q>
0

> <r_epik_Metal_State_Penalty>
-0

> <b_epik_Metal_Only>
0

> <s_lp_Force_Field>
OPLS_2005

> <r_lp_Energy>
26.8806

> <b_lp_Chiralities_Consistent>
1

> <s_lp_Variant>
AV-unprocessed.smi:1553-2

> <Gold.Version>
5.8.1

> <Gold.Id.Protein>
6NUR|6NUR_protein|mol2

> <Gold.PLP.Fitness>
40.0524

> <Gold.PLP.PLP>
-38.6923

> <Gold.PLP.part.hbond>
-0.8237

> <Gold.PLP.part.metal>
0.0000

> <Gold.PLP.part.buried>
-4.3511

> <Gold.PLP.part.nonpolar>
-34.8002

> <Gold.PLP.part.repulsive>
0.8624

> <Gold.PLP.ligand.clash>
0.0983

> <Gold.PLP.ligand.torsion>
0.6745

> <Gold.PLP.Chemscore.Hbond>
0.7963

> <Gold.PLP.Chemscore.CHOScore>
0.0000

> <Gold.PLP.Chemscore.Metal>
0.0000

> <Gold.Chemscore.Hbonds>
donor molecule, donor type, donor heavy atom, donor atom, acceptor molecule, acceptor atom, score
      P1  H  7997  8009       L1     9  0.83

> <Gold.PLP.Chemscore.Internal.Correction>
0.4187

> <Gold.Rescore>
     Score         DG    S(hbond)    S(metal)    S(lipo)     H(rot)  DE(clash)    DE(int)     intcor
     13.57     -18.05       0.83        0.00     112.81       1.33       1.07       3.41       ----

> <Gold.Chemscore.Fitness>
13.5671

> <Gold.Chemscore.DG>
-18.0532

> <Gold.Chemscore.ZeroCoef>
-5.4800

> <Gold.Chemscore.Hbond>
0.8340

> <Gold.Chemscore.Metal>
0.0000

> <Gold.Chemscore.Lipo>
112.8096

> <Gold.Chemscore.Internal_Hbond>
0.0000

> <Gold.Chemscore.DEClash>
1.0724

> <Gold.Chemscore.DEInternal>
3.4136

> <Gold.Chemscore.Rot>
1.3325

> <Gold.Chemscore.Internal.Correction>
   9.000000E+99

> <Gold.Chemscore.Hbonds>
donor molecule, donor type, donor heavy atom, donor atom, acceptor molecule, acceptor atom, score
      P1  H  7997  8009       L1     9  0.82

> <Gold.Chemscore.Hbond.Weighted>
-2.7855

> <Gold.Chemscore.Metal.Weighted>
-0.0000

> <Gold.Chemscore.Lipo.Weighted>
-13.1987

> <Gold.Chemscore.Internal_Hbond.Weighted>
0.0000

> <Gold.Chemscore.DEClash.Weighted>
1.0724

> <Gold.Chemscore.DEInternal.Weighted>
3.4136

> <Gold.Chemscore.Rot.Weighted>
3.4111

> <Gold.Chemscore.Internal.Correction.Weighted>
   9.000000E+99

> <Gold.Protein.RotatedTorsions>
[ 6907 6896 6895 6894 ] final  155.25 input  -60.11 | X-H torsion
[ 7974 7965 7964 7962 ] final  -95.72 input  175.53 | X-H torsion
[ 8008 7997 7996 7995 ] final -173.04 input   59.86 | X-H torsion
[ 10167 10162 10161 10158 ] final  -82.61 input  -65.29 | X-H torsion
[ 10718 10713 10712 10709 ] final    4.73 input   66.30 | X-H torsion
[ 10763 10752 10751 10750 ] final  161.90 input  -60.55 | X-H torsion
[ 11005 11000 10999 10996 ] final  178.06 input  -57.11 | X-H torsion

> <Gold.Protein.ActiveResidues>
 VAL166  LYS551  ARG553  GLY616  TRP617  ASP618  TYR619  PRO620  LYS621  CYS622 
 ASP623  PHE694  ASN695  SER759  ASP760  ASP761  ALA762  ILE779  LEU786  VAL792 
 PHE793  MET794  SER795  GLU796  ALA797  LYS798  CYS799  TRP800  GLU811  SER814 

> <Gold.Protein.RotatedAtoms>
  152.0469  133.4002  159.4360 H   0  0  0  0  0  0  0  0  0  0  0  0  # atno 6907 bound_to 6896
  150.6872  134.3352  159.4853 H   0  0  0  0  0  0  0  0  0  0  0  0  # atno 6908 bound_to 6896
  152.1157  134.9242  160.0615 H   0  0  0  0  0  0  0  0  0  0  0  0  # atno 6909 bound_to 6896
  145.3563  140.9484  143.2526 H   0  0  0  0  0  0  0  0  0  0  0  0  # atno 7974 bound_to 7965
  155.9523  140.1128  157.0966 H   0  0  0  0  0  0  0  0  0  0  0  0  # atno 8008 bound_to 7997
  154.4112  140.1198  156.5135 H   0  0  0  0  0  0  0  0  0  0  0  0  # atno 8009 bound_to 7997
  155.6826  140.3473  155.4864 H   0  0  0  0  0  0  0  0  0  0  0  0  # atno 8010 bound_to 7997
  140.4303  143.2551  151.8768 H   0  0  0  0  0  0  0  0  0  0  0  0  # atno 10167 bound_to 10162
  156.8970  130.5708  149.5648 H   0  0  0  0  0  0  0  0  0  0  0  0  # atno 10718 bound_to 10713
  154.2702  135.2766  155.2741 H   0  0  0  0  0  0  0  0  0  0  0  0  # atno 10763 bound_to 10752
  154.5308  135.5730  153.6761 H   0  0  0  0  0  0  0  0  0  0  0  0  # atno 10764 bound_to 10752
  152.9946  135.6227  154.2856 H   0  0  0  0  0  0  0  0  0  0  0  0  # atno 10765 bound_to 10752
  140.3910  134.6862  157.4507 H   0  0  0  0  0  0  0  0  0  0  0  0  # atno 11005 bound_to 11000
  144.8680  139.5080  143.6781 LP  0  0  0  0  0  0  0  0  0  0  0  0  # atno 17320 bound_to 7965
  146.2947  139.7241  142.9136 LP  0  0  0  0  0  0  0  0  0  0  0  0  # atno 17321 bound_to 7965
  139.4785  144.5341  151.8624 LP  0  0  0  0  0  0  0  0  0  0  0  0  # atno 17342 bound_to 10162
  140.4434  144.1955  150.5892 LP  0  0  0  0  0  0  0  0  0  0  0  0  # atno 17343 bound_to 10162
  156.0601  130.5655  150.9174 LP  0  0  0  0  0  0  0  0  0  0  0  0  # atno 17370 bound_to 10713
  157.6049  131.0939  150.8896 LP  0  0  0  0  0  0  0  0  0  0  0  0  # atno 17371 bound_to 10713
  140.0407  134.6272  155.8985 LP  0  0  0  0  0  0  0  0  0  0  0  0  # atno 17394 bound_to 11000
  141.1891  133.6564  156.5352 LP  0  0  0  0  0  0  0  0  0  0  0  0  # atno 17395 bound_to 11000

$$$$
