AV-unprocessed.smi:3005|AV-procd|sdf|11443|dock2
  -GOLD-   2272016373D 1   1.00000     0.00000
 Structure written by MMmdl.
 33 34  0  0  0  0  0  0  0  0  1 V2000
  151.5257  137.8403  154.5644 C   0  0  0  0  0  0  0  0  0  0  0  0
  150.8659  139.1257  154.9609 C   0  0  0  0  0  0  0  0  0  0  0  0
  151.5434  140.0186  155.7957 N   0  0  0  0  0  0  0  0  0  0  0  0
  150.8348  141.1194  156.0584 C   0  0  0  0  0  0  0  0  0  0  0  0
  151.3541  142.4697  157.0661 S   0  0  0  0  0  0  0  0  0  0  0  0
  151.3215  141.6743  158.6989 C   0  0  0  0  0  0  0  0  0  0  0  0
  152.6777  141.0633  159.0632 C   0  0  0  0  0  0  0  0  0  0  0  0
  153.1355  140.1379  158.3927 O   0  0  0  0  0  0  0  0  0  0  0  0
  153.3881  141.6225  160.1294 N   0  0  0  0  0  0  0  0  0  0  0  0
  154.0788  140.7936  161.1062 C   0  0  0  0  0  0  0  0  0  0  0  0
  153.8000  141.9234  162.1024 C   0  0  0  0  0  0  0  0  0  0  0  0
  152.7142  142.4210  161.1431 C   0  0  0  0  0  0  0  0  0  0  0  0
  149.2576  141.1246  155.2851 S   0  0  0  0  0  0  0  0  0  0  0  0
  149.6170  139.5654  154.5865 C   0  0  0  0  0  0  0  0  0  0  0  0
  148.6233  138.8770  153.7035 C   0  0  0  0  0  0  0  0  0  0  0  0
  147.4135  139.7737  153.4309 C   0  0  0  0  0  0  0  0  0  0  0  0
  147.3280  140.3306  152.2203 N   0  0  0  0  0  0  0  0  0  0  0  0
  146.5679  139.9655  154.3025 O   0  0  0  0  0  0  0  0  0  0  0  0
  151.6677  137.7898  153.4847 H   0  0  0  0  0  0  0  0  0  0  0  0
  150.9221  136.9819  154.8595 H   0  0  0  0  0  0  0  0  0  0  0  0
  152.5055  137.7279  155.0295 H   0  0  0  0  0  0  0  0  0  0  0  0
  151.0634  142.4172  159.4542 H   0  0  0  0  0  0  0  0  0  0  0  0
  150.5313  140.9244  158.7044 H   0  0  0  0  0  0  0  0  0  0  0  0
  153.5498  139.8684  161.3443 H   0  0  0  0  0  0  0  0  0  0  0  0
  155.1350  140.6329  160.8872 H   0  0  0  0  0  0  0  0  0  0  0  0
  153.4242  141.5858  163.0688 H   0  0  0  0  0  0  0  0  0  0  0  0
  154.6333  142.6199  162.2113 H   0  0  0  0  0  0  0  0  0  0  0  0
  152.7350  143.4936  160.9484 H   0  0  0  0  0  0  0  0  0  0  0  0
  151.7167  142.0576  161.3992 H   0  0  0  0  0  0  0  0  0  0  0  0
  149.0973  138.5828  152.7660 H   0  0  0  0  0  0  0  0  0  0  0  0
  148.2756  137.9568  154.1744 H   0  0  0  0  0  0  0  0  0  0  0  0
  146.5478  140.9297  151.9931 H   0  0  0  0  0  0  0  0  0  0  0  0
  148.0468  140.1489  151.5347 H   0  0  0  0  0  0  0  0  0  0  0  0
  1  2  1  0  0  0  0
  1 19  1  0  0  0  0
  1 20  1  0  0  0  0
  1 21  1  0  0  0  0
  2 14  2  0  0  0  0
  2  3  1  0  0  0  0
  3  4  2  0  0  0  0
  4  5  1  0  0  0  0
  4 13  1  0  0  0  0
  5  6  1  0  0  0  0
  6  7  1  0  0  0  0
  6 22  1  0  0  0  0
  6 23  1  0  0  0  0
  7  8  2  0  0  0  0
  7  9  1  0  0  0  0
  9 12  1  0  0  0  0
  9 10  1  0  0  0  0
 10 11  1  0  0  0  0
 10 24  1  0  0  0  0
 10 25  1  0  0  0  0
 11 12  1  0  0  0  0
 11 26  1  0  0  0  0
 11 27  1  0  0  0  0
 12 28  1  0  0  0  0
 12 29  1  0  0  0  0
 13 14  1  0  0  0  0
 14 15  1  0  0  0  0
 15 16  1  0  0  0  0
 15 30  1  0  0  0  0
 15 31  1  0  0  0  0
 16 17  1  0  0  0  0
 16 18  2  0  0  0  0
 17 32  1  0  0  0  0
 17 33  1  0  0  0  0
M  END
> <s_m_source_file>
AV-unprocessed.smi

> <i_m_source_file_index>
3005

> <i_lp_mmshare_version>
43012

> <i_f3d_flags>
0

> <s_epik_input>
W05IMl1DKD1PKVtDSDJdYzFzYyhuYzFbQ0gzXSlTW0NIMl1DKD1PKU4yW0NIMl1bQ0gyXVtDSDJdMg==

> <s_epik_cmdline>
J2VwaWtfcHl0aG9uJywgJy1waCcsICc3LjAnLCAnLXRuJywgJzgnLCAnLW1hJywgJzIwMCcsICctbWV0YWxfYmluZGluZycsICctaW1hZScsICc8aW5maWxlLm1hZT4nLCAnLW9tYWUnLCAnPG91dGZpbGUubWFlPic=

> <r_lp_tautomer_probability>
1

> <r_epik_Ionization_Penalty>
8.1701e-07

> <r_epik_Ionization_Penalty_Charging>
0

> <r_epik_Ionization_Penalty_Neutral>
8.1701e-07

> <r_epik_State_Penalty>
-0

> <r_epik_Charging_Adjusted_Penalty>
0

> <i_epik_Tot_Q>
0

> <i_epik_Tot_abs_Q>
0

> <r_epik_Metal_State_Penalty>
-0

> <b_epik_Metal_Only>
0

> <s_lp_Force_Field>
OPLS_2005

> <r_lp_Energy>
11.7673

> <b_lp_Chiralities_Consistent>
1

> <s_lp_Variant>
AV-unprocessed.smi:3005-1

> <Gold.Version>
5.8.1

> <Gold.Id.Protein>
6NUR|6NUR_protein|mol2

> <Gold.PLP.Fitness>
44.2776

> <Gold.PLP.PLP>
-39.4121

> <Gold.PLP.part.hbond>
-2.1068

> <Gold.PLP.part.metal>
0.0000

> <Gold.PLP.part.buried>
-1.6256

> <Gold.PLP.part.nonpolar>
-35.2304

> <Gold.PLP.part.repulsive>
0.1975

> <Gold.PLP.ligand.clash>
0.0000

> <Gold.PLP.ligand.torsion>
0.9661

> <Gold.PLP.Chemscore.Hbond>
1.9440

> <Gold.PLP.Chemscore.CHOScore>
0.0000

> <Gold.PLP.Chemscore.Metal>
0.0000

> <Gold.Chemscore.Hbonds>
donor molecule, donor type, donor heavy atom, donor atom, acceptor molecule, acceptor atom, score
      L1  H    17    33       P1  7957  1.00
      P1  H  7997  8008       L1     8  0.99

> <Gold.PLP.Chemscore.Internal.Correction>
0.9657

> <Gold.Rescore>
     Score         DG    S(hbond)    S(metal)    S(lipo)     H(rot)  DE(clash)    DE(int)     intcor
     14.68     -15.99       1.88        0.00      88.92       2.41       0.29       1.02       ----

> <Gold.Chemscore.Fitness>
14.6777

> <Gold.Chemscore.DG>
-15.9925

> <Gold.Chemscore.ZeroCoef>
-5.4800

> <Gold.Chemscore.Hbond>
1.8837

> <Gold.Chemscore.Metal>
0.0000

> <Gold.Chemscore.Lipo>
88.9170

> <Gold.Chemscore.Internal_Hbond>
0.0000

> <Gold.Chemscore.DEClash>
0.2910

> <Gold.Chemscore.DEInternal>
1.0238

> <Gold.Chemscore.Rot>
2.4149

> <Gold.Chemscore.Internal.Correction>
   9.000000E+99

> <Gold.Chemscore.Hbonds>
donor molecule, donor type, donor heavy atom, donor atom, acceptor molecule, acceptor atom, score
      L1  H    17    33       P1  7957  0.93
      P1  H  7997  8008       L1     8  0.91

> <Gold.Chemscore.Hbond.Weighted>
-6.2915

> <Gold.Chemscore.Metal.Weighted>
-0.0000

> <Gold.Chemscore.Lipo.Weighted>
-10.4033

> <Gold.Chemscore.Internal_Hbond.Weighted>
0.0000

> <Gold.Chemscore.DEClash.Weighted>
0.2910

> <Gold.Chemscore.DEInternal.Weighted>
1.0238

> <Gold.Chemscore.Rot.Weighted>
6.1822

> <Gold.Chemscore.Internal.Correction.Weighted>
   9.000000E+99

> <Gold.Protein.RotatedTorsions>
[ 6907 6896 6895 6894 ] final -105.46 input  -60.11 | X-H torsion
[ 7974 7965 7964 7962 ] final  -11.09 input  175.53 | X-H torsion
[ 8008 7997 7996 7995 ] final  -83.84 input   59.86 | X-H torsion
[ 10167 10162 10161 10158 ] final  172.32 input  -65.29 | X-H torsion
[ 10718 10713 10712 10709 ] final -168.40 input   66.30 | X-H torsion
[ 10763 10752 10751 10750 ] final  134.19 input  -60.55 | X-H torsion
[ 11005 11000 10999 10996 ] final -110.89 input  -57.11 | X-H torsion

> <Gold.Protein.ActiveResidues>
 VAL166  LYS551  ARG553  GLY616  TRP617  ASP618  TYR619  PRO620  LYS621  CYS622 
 ASP623  PHE694  ASN695  SER759  ASP760  ASP761  ALA762  ILE779  LEU786  VAL792 
 PHE793  MET794  SER795  GLU796  ALA797  LYS798  CYS799  TRP800  GLU811  SER814 

> <Gold.Protein.RotatedAtoms>
  150.7338  134.0123  159.3673 H   0  0  0  0  0  0  0  0  0  0  0  0  # atno 6907 bound_to 6896
  151.8083  135.0686  160.0419 H   0  0  0  0  0  0  0  0  0  0  0  0  # atno 6908 bound_to 6896
  152.3091  133.5698  159.5705 H   0  0  0  0  0  0  0  0  0  0  0  0  # atno 6909 bound_to 6896
  146.2199  140.2860  142.8365 H   0  0  0  0  0  0  0  0  0  0  0  0  # atno 7974 bound_to 7965
  154.6234  140.0613  156.9643 H   0  0  0  0  0  0  0  0  0  0  0  0  # atno 8008 bound_to 7997
  155.1781  140.3297  155.4361 H   0  0  0  0  0  0  0  0  0  0  0  0  # atno 8009 bound_to 7997
  156.2444  140.1902  156.6879 H   0  0  0  0  0  0  0  0  0  0  0  0  # atno 8010 bound_to 7997
  139.5073  144.3387  152.0040 H   0  0  0  0  0  0  0  0  0  0  0  0  # atno 10167 bound_to 10162
  156.6964  130.9179  151.3075 H   0  0  0  0  0  0  0  0  0  0  0  0  # atno 10718 bound_to 10713
  153.8194  135.3118  155.3409 H   0  0  0  0  0  0  0  0  0  0  0  0  # atno 10763 bound_to 10752
  154.8019  135.4721  154.0299 H   0  0  0  0  0  0  0  0  0  0  0  0  # atno 10764 bound_to 10752
  153.1703  135.6876  153.8707 H   0  0  0  0  0  0  0  0  0  0  0  0  # atno 10765 bound_to 10752
  141.0766  133.9291  157.2377 H   0  0  0  0  0  0  0  0  0  0  0  0  # atno 11005 bound_to 11000
  144.9162  140.7814  143.5777 LP  0  0  0  0  0  0  0  0  0  0  0  0  # atno 17320 bound_to 7965
  145.2794  139.1924  143.4799 LP  0  0  0  0  0  0  0  0  0  0  0  0  # atno 17321 bound_to 7965
  140.2825  144.3844  150.6114 LP  0  0  0  0  0  0  0  0  0  0  0  0  # atno 17342 bound_to 10162
  140.6007  143.2167  151.7077 LP  0  0  0  0  0  0  0  0  0  0  0  0  # atno 17343 bound_to 10162
  157.6990  130.9312  150.0728 LP  0  0  0  0  0  0  0  0  0  0  0  0  # atno 17370 bound_to 10713
  156.1760  130.3648  149.9099 LP  0  0  0  0  0  0  0  0  0  0  0  0  # atno 17371 bound_to 10713
  139.9578  135.0161  156.9177 LP  0  0  0  0  0  0  0  0  0  0  0  0  # atno 17394 bound_to 11000
  140.5561  134.0580  155.7384 LP  0  0  0  0  0  0  0  0  0  0  0  0  # atno 17395 bound_to 11000

$$$$
