AV-unprocessed.smi:2166|AV-procd|sdf|8815|dock3
  -GOLD-   2272012 03D 1   1.00000     0.00000
 Structure written by MMmdl.
 38 39  0  0  0  0  0  0  0  0  1 V2000
  154.7278  137.4666  164.5451 C   0  0  0  0  0  0  0  0  0  0  0  0
  154.1319  135.8309  164.0356 S   0  0  0  0  0  0  0  0  0  0  0  0
  154.8458  135.7019  162.3683 C   0  0  1  0  0  0  0  0  0  0  0  0
  154.7843  134.2472  161.8753 C   0  0  0  0  0  0  0  0  0  0  0  0
  154.1644  136.6577  161.3797 C   0  0  0  0  0  0  0  0  0  0  0  0
  153.4891  136.2038  160.4553 O   0  0  0  0  0  0  0  0  0  0  0  0
  154.3573  137.9703  161.6105 N   0  0  0  0  0  0  0  0  0  0  0  0
  153.8309  139.0779  160.8952 C   0  0  0  0  0  0  0  0  0  0  0  0
  154.2181  140.3435  161.3835 C   0  0  0  0  0  0  0  0  0  0  0  0
  153.7401  141.5062  160.7502 C   0  0  0  0  0  0  0  0  0  0  0  0
  152.8786  141.3920  159.6364 C   0  0  0  0  0  0  0  0  0  0  0  0
  152.3836  142.5461  158.9915 N   0  0  0  0  0  0  0  0  0  0  0  0
  150.9675  142.5840  158.6373 C   0  0  0  0  0  0  0  0  0  0  0  0
  150.6825  143.7651  157.6937 C   0  0  0  0  0  0  0  0  0  0  0  0
  151.1313  144.9761  158.2925 O   0  0  0  0  0  0  0  0  0  0  0  0
  152.5357  144.9610  158.5267 C   0  0  0  0  0  0  0  0  0  0  0  0
  152.8913  143.8198  159.4959 C   0  0  0  0  0  0  0  0  0  0  0  0
  152.5563  140.0787  159.2157 C   0  0  0  0  0  0  0  0  0  0  0  0
  153.0123  138.9628  159.8226 N   0  0  0  0  0  0  0  0  0  0  0  0
  154.4150  137.6755  165.5680 H   0  0  0  0  0  0  0  0  0  0  0  0
  154.3224  138.2456  163.8997 H   0  0  0  0  0  0  0  0  0  0  0  0
  155.8161  137.5074  164.5018 H   0  0  0  0  0  0  0  0  0  0  0  0
  155.8997  135.9738  162.4468 H   0  0  0  0  0  0  0  0  0  0  0  0
  155.1944  134.1503  160.8692 H   0  0  0  0  0  0  0  0  0  0  0  0
  153.7606  133.8710  161.8573 H   0  0  0  0  0  0  0  0  0  0  0  0
  155.3629  133.5924  162.5277 H   0  0  0  0  0  0  0  0  0  0  0  0
  154.9358  138.2019  162.4045 H   0  0  0  0  0  0  0  0  0  0  0  0
  154.8757  140.4289  162.2364 H   0  0  0  0  0  0  0  0  0  0  0  0
  154.0496  142.4723  161.1201 H   0  0  0  0  0  0  0  0  0  0  0  0
  150.6757  141.6538  158.1483 H   0  0  0  0  0  0  0  0  0  0  0  0
  150.3693  142.6823  159.5444 H   0  0  0  0  0  0  0  0  0  0  0  0
  151.1719  143.6198  156.7290 H   0  0  0  0  0  0  0  0  0  0  0  0
  149.6125  143.8402  157.4995 H   0  0  0  0  0  0  0  0  0  0  0  0
  153.0716  144.8501  157.5827 H   0  0  0  0  0  0  0  0  0  0  0  0
  152.8347  145.9197  158.9508 H   0  0  0  0  0  0  0  0  0  0  0  0
  152.4484  144.0116  160.4743 H   0  0  0  0  0  0  0  0  0  0  0  0
  153.9711  143.7978  159.6362 H   0  0  0  0  0  0  0  0  0  0  0  0
  151.9014  139.8951  158.3772 H   0  0  0  0  0  0  0  0  0  0  0  0
  1  2  1  0  0  0  0
  1 20  1  0  0  0  0
  1 21  1  0  0  0  0
  1 22  1  0  0  0  0
  2  3  1  0  0  0  0
  3  4  1  0  0  0  0
  3  5  1  0  0  0  0
  3 23  1  0  0  0  0
  4 24  1  0  0  0  0
  4 25  1  0  0  0  0
  4 26  1  0  0  0  0
  5  6  2  0  0  0  0
  5  7  1  0  0  0  0
  7  8  1  0  0  0  0
  7 27  1  0  0  0  0
  8 19  1  0  0  0  0
  8  9  2  0  0  0  0
  9 10  1  0  0  0  0
  9 28  1  0  0  0  0
 10 11  2  0  0  0  0
 10 29  1  0  0  0  0
 11 12  1  0  0  0  0
 11 18  1  0  0  0  0
 12 17  1  0  0  0  0
 12 13  1  0  0  0  0
 13 14  1  0  0  0  0
 13 30  1  0  0  0  0
 13 31  1  0  0  0  0
 14 15  1  0  0  0  0
 14 32  1  0  0  0  0
 14 33  1  0  0  0  0
 15 16  1  0  0  0  0
 16 17  1  0  0  0  0
 16 34  1  0  0  0  0
 16 35  1  0  0  0  0
 17 36  1  0  0  0  0
 17 37  1  0  0  0  0
 18 19  2  0  0  0  0
 18 38  1  0  0  0  0
M  END
> <s_m_source_file>
AV-unprocessed.smi

> <i_m_source_file_index>
2166

> <i_lp_mmshare_version>
43012

> <i_f3d_flags>
0

> <s_epik_input>
W0NIM11TW0NASF0oW0NIM10pQyg9TylbTkhdYzFbY0hdW2NIXWMoW2NIXW4xKU4yW0NIMl1bQ0gyXU9bQ0gyXVtDSDJdMg==

> <s_epik_cmdline>
J2VwaWtfcHl0aG9uJywgJy1waCcsICc3LjAnLCAnLXRuJywgJzgnLCAnLW1hJywgJzIwMCcsICctbWV0YWxfYmluZGluZycsICctaW1hZScsICc8aW5maWxlLm1hZT4nLCAnLW9tYWUnLCAnPG91dGZpbGUubWFlPic=

> <r_lp_tautomer_probability>
1

> <r_epik_Ionization_Penalty>
0.0038652

> <r_epik_Ionization_Penalty_Charging>
0

> <r_epik_Ionization_Penalty_Neutral>
0.0038652

> <r_epik_State_Penalty>
0.00681294

> <r_epik_Charging_Adjusted_Penalty>
0.00681294

> <i_epik_Tot_Q>
0

> <i_epik_Tot_abs_Q>
0

> <r_epik_Metal_State_Penalty>
-0

> <b_epik_Metal_Only>
0

> <s_lp_Force_Field>
OPLS_2005

> <r_lp_Energy>
24.7489

> <b_lp_Chiralities_Consistent>
1

> <s_lp_Variant>
AV-unprocessed.smi:2166-2

> <Gold.Version>
5.8.1

> <Gold.Id.Protein>
6NUR|6NUR_protein|mol2

> <Gold.PLP.Fitness>
40.1807

> <Gold.PLP.PLP>
-37.6780

> <Gold.PLP.part.hbond>
-1.0000

> <Gold.PLP.part.metal>
0.0000

> <Gold.PLP.part.buried>
-3.4355

> <Gold.PLP.part.nonpolar>
-33.6547

> <Gold.PLP.part.repulsive>
0.1636

> <Gold.PLP.ligand.clash>
0.0000

> <Gold.PLP.ligand.torsion>
0.4425

> <Gold.PLP.Chemscore.Hbond>
1.0000

> <Gold.PLP.Chemscore.CHOScore>
0.0000

> <Gold.PLP.Chemscore.Metal>
0.0000

> <Gold.Chemscore.Hbonds>
donor molecule, donor type, donor heavy atom, donor atom, acceptor molecule, acceptor atom, score
      P1  H  6896  6909       L1     6  1.00

> <Gold.PLP.Chemscore.Internal.Correction>
0.3878

> <Gold.Rescore>
     Score         DG    S(hbond)    S(metal)    S(lipo)     H(rot)  DE(clash)    DE(int)     intcor
     16.00     -17.97       1.00        0.00     106.87       1.31       0.08       1.89       ----

> <Gold.Chemscore.Fitness>
16.0022

> <Gold.Chemscore.DG>
-17.9683

> <Gold.Chemscore.ZeroCoef>
-5.4800

> <Gold.Chemscore.Hbond>
0.9999

> <Gold.Chemscore.Metal>
0.0000

> <Gold.Chemscore.Lipo>
106.8695

> <Gold.Chemscore.Internal_Hbond>
0.0000

> <Gold.Chemscore.DEClash>
0.0811

> <Gold.Chemscore.DEInternal>
1.8851

> <Gold.Chemscore.Rot>
1.3105

> <Gold.Chemscore.Internal.Correction>
   9.000000E+99

> <Gold.Chemscore.Hbonds>
donor molecule, donor type, donor heavy atom, donor atom, acceptor molecule, acceptor atom, score
      P1  H  6896  6909       L1     6  1.00

> <Gold.Chemscore.Hbond.Weighted>
-3.3395

> <Gold.Chemscore.Metal.Weighted>
-0.0000

> <Gold.Chemscore.Lipo.Weighted>
-12.5037

> <Gold.Chemscore.Internal_Hbond.Weighted>
0.0000

> <Gold.Chemscore.DEClash.Weighted>
0.0811

> <Gold.Chemscore.DEInternal.Weighted>
1.8851

> <Gold.Chemscore.Rot.Weighted>
3.3549

> <Gold.Chemscore.Internal.Correction.Weighted>
   9.000000E+99

> <Gold.Protein.RotatedTorsions>
[ 6907 6896 6895 6894 ] final  158.23 input  -60.11 | X-H torsion
[ 7974 7965 7964 7962 ] final   60.29 input  175.53 | X-H torsion
[ 8008 7997 7996 7995 ] final   63.00 input   59.86 | X-H torsion
[ 10167 10162 10161 10158 ] final   67.73 input  -65.29 | X-H torsion
[ 10718 10713 10712 10709 ] final   44.73 input   66.30 | X-H torsion
[ 10763 10752 10751 10750 ] final  -43.80 input  -60.55 | X-H torsion
[ 11005 11000 10999 10996 ] final   94.57 input  -57.11 | X-H torsion

> <Gold.Protein.ActiveResidues>
 VAL166  LYS551  ARG553  GLY616  TRP617  ASP618  TYR619  PRO620  LYS621  CYS622 
 ASP623  PHE694  ASN695  SER759  ASP760  ASP761  ALA762  ILE779  LEU786  VAL792 
 PHE793  MET794  SER795  GLU796  ALA797  LYS798  CYS799  TRP800  GLU811  SER814 

> <Gold.Protein.RotatedAtoms>
  152.0034  133.3834  159.4190 H   0  0  0  0  0  0  0  0  0  0  0  0  # atno 6907 bound_to 6896
  150.6907  134.3809  159.5043 H   0  0  0  0  0  0  0  0  0  0  0  0  # atno 6908 bound_to 6896
  152.1560  134.8950  160.0595 H   0  0  0  0  0  0  0  0  0  0  0  0  # atno 6909 bound_to 6896
  145.8977  139.3557  143.0611 H   0  0  0  0  0  0  0  0  0  0  0  0  # atno 7974 bound_to 7965
  155.6233  140.3496  155.4659 H   0  0  0  0  0  0  0  0  0  0  0  0  # atno 8008 bound_to 7997
  156.0062  140.1223  157.0523 H   0  0  0  0  0  0  0  0  0  0  0  0  # atno 8009 bound_to 7997
  154.4265  140.1090  156.5752 H   0  0  0  0  0  0  0  0  0  0  0  0  # atno 8010 bound_to 7997
  140.0864  144.5027  150.7128 H   0  0  0  0  0  0  0  0  0  0  0  0  # atno 10167 bound_to 10162
  157.4300  130.8019  149.7594 H   0  0  0  0  0  0  0  0  0  0  0  0  # atno 10718 bound_to 10713
  154.0016  135.6693  153.4759 H   0  0  0  0  0  0  0  0  0  0  0  0  # atno 10763 bound_to 10752
  153.0660  135.5001  154.8197 H   0  0  0  0  0  0  0  0  0  0  0  0  # atno 10764 bound_to 10752
  154.7049  135.3086  154.9248 H   0  0  0  0  0  0  0  0  0  0  0  0  # atno 10765 bound_to 10752
  139.8797  134.8852  156.3884 H   0  0  0  0  0  0  0  0  0  0  0  0  # atno 11005 bound_to 11000
  145.8830  140.9351  143.0591 LP  0  0  0  0  0  0  0  0  0  0  0  0  # atno 17320 bound_to 7965
  144.6734  140.0805  143.7469 LP  0  0  0  0  0  0  0  0  0  0  0  0  # atno 17321 bound_to 7965
  140.7051  143.2462  151.4749 LP  0  0  0  0  0  0  0  0  0  0  0  0  # atno 17342 bound_to 10162
  139.5750  144.1840  152.1890 LP  0  0  0  0  0  0  0  0  0  0  0  0  # atno 17343 bound_to 10162
  155.9910  130.3941  150.3005 LP  0  0  0  0  0  0  0  0  0  0  0  0  # atno 17370 bound_to 10713
  157.1161  131.0234  151.3028 LP  0  0  0  0  0  0  0  0  0  0  0  0  # atno 17371 bound_to 10713
  140.9350  133.7553  156.0073 LP  0  0  0  0  0  0  0  0  0  0  0  0  # atno 17394 bound_to 11000
  140.8286  134.3205  157.5357 LP  0  0  0  0  0  0  0  0  0  0  0  0  # atno 17395 bound_to 11000

$$$$
