AV-unprocessed.smi:1398|AV-procd|sdf|5680|dock8
  -GOLD-   22720 5303D 1   1.00000     0.00000
 Structure written by MMmdl.
 41 42  0  0  0  0  0  0  0  0  1 V2000
  151.4412  138.1797  154.9349 C   0  0  0  0  0  0  0  0  0  0  0  0
  150.1194  138.1134  154.4112 O   0  0  0  0  0  0  0  0  0  0  0  0
  149.3622  139.2690  154.3832 C   0  0  0  0  0  0  0  0  0  0  0  0
  149.8718  140.3888  154.9552 N   0  0  0  0  0  0  0  0  0  0  0  0
  149.1348  141.5181  154.9251 C   0  0  0  0  0  0  0  0  0  0  0  0
  147.8654  141.5942  154.3232 C   0  0  0  0  0  0  0  0  0  0  0  0
  147.3343  140.4341  153.7301 C   0  0  0  0  0  0  0  0  0  0  0  0
  148.0892  139.2372  153.7674 C   0  0  0  0  0  0  0  0  0  0  0  0
  147.6532  138.0174  153.1817 N   0  0  0  0  0  0  0  0  0  0  0  0
  146.3964  137.5643  153.0399 C   0  0  0  0  0  0  0  0  0  0  0  0
  145.3808  138.1550  153.4078 O   0  0  0  0  0  0  0  0  0  0  0  0
  146.3811  136.3555  152.4615 N   0  0  0  0  0  0  0  0  0  0  0  0
  145.1836  135.5641  152.2036 C   0  0  0  0  0  0  0  0  0  0  0  0
  145.5223  134.2675  151.4403 C   0  0  0  0  0  0  0  0  0  0  0  0
  146.4745  133.3304  152.2015 C   0  0  0  0  0  0  0  0  0  0  0  0
  147.4094  133.8005  152.8516 O   0  0  0  0  0  0  0  0  0  0  0  0
  146.2464  132.0023  152.1346 N   0  0  0  0  0  0  0  0  0  0  0  0
  147.0244  130.9665  152.8143 C   0  0  0  0  0  0  0  0  0  0  0  0
  146.2442  129.6661  152.6178 C   0  0  0  0  0  0  0  0  0  0  0  0
  145.4377  129.9018  151.3483 C   0  0  0  0  0  0  0  0  0  0  0  0
  145.1651  131.4062  151.3523 C   0  0  0  0  0  0  0  0  0  0  0  0
  151.8971  137.1909  154.8875 H   0  0  0  0  0  0  0  0  0  0  0  0
  151.4419  138.4938  155.9797 H   0  0  0  0  0  0  0  0  0  0  0  0
  152.0666  138.8600  154.3553 H   0  0  0  0  0  0  0  0  0  0  0  0
  149.5734  142.3890  155.3891 H   0  0  0  0  0  0  0  0  0  0  0  0
  147.3142  142.5227  154.3119 H   0  0  0  0  0  0  0  0  0  0  0  0
  146.3706  140.4876  153.2474 H   0  0  0  0  0  0  0  0  0  0  0  0
  148.3893  137.3794  152.9159 H   0  0  0  0  0  0  0  0  0  0  0  0
  147.2637  135.9453  152.1932 H   0  0  0  0  0  0  0  0  0  0  0  0
  144.6735  135.3403  153.1424 H   0  0  0  0  0  0  0  0  0  0  0  0
  144.5020  136.1814  151.6170 H   0  0  0  0  0  0  0  0  0  0  0  0
  144.5985  133.7273  151.2301 H   0  0  0  0  0  0  0  0  0  0  0  0
  145.9730  134.5151  150.4787 H   0  0  0  0  0  0  0  0  0  0  0  0
  148.0078  130.8939  152.3478 H   0  0  0  0  0  0  0  0  0  0  0  0
  147.1632  131.1813  153.8746 H   0  0  0  0  0  0  0  0  0  0  0  0
  146.8910  128.7907  152.5519 H   0  0  0  0  0  0  0  0  0  0  0  0
  145.5649  129.5168  153.4582 H   0  0  0  0  0  0  0  0  0  0  0  0
  146.0431  129.6424  150.4787 H   0  0  0  0  0  0  0  0  0  0  0  0
  144.5251  129.3064  151.3098 H   0  0  0  0  0  0  0  0  0  0  0  0
  144.2134  131.6228  151.8400 H   0  0  0  0  0  0  0  0  0  0  0  0
  145.1245  131.8037  150.3368 H   0  0  0  0  0  0  0  0  0  0  0  0
  1  2  1  0  0  0  0
  1 22  1  0  0  0  0
  1 23  1  0  0  0  0
  1 24  1  0  0  0  0
  2  3  1  0  0  0  0
  3  8  1  0  0  0  0
  3  4  2  0  0  0  0
  4  5  1  0  0  0  0
  5  6  2  0  0  0  0
  5 25  1  0  0  0  0
  6  7  1  0  0  0  0
  6 26  1  0  0  0  0
  7  8  2  0  0  0  0
  7 27  1  0  0  0  0
  8  9  1  0  0  0  0
  9 10  1  0  0  0  0
  9 28  1  0  0  0  0
 10 11  2  0  0  0  0
 10 12  1  0  0  0  0
 12 13  1  0  0  0  0
 12 29  1  0  0  0  0
 13 14  1  0  0  0  0
 13 30  1  0  0  0  0
 13 31  1  0  0  0  0
 14 15  1  0  0  0  0
 14 32  1  0  0  0  0
 14 33  1  0  0  0  0
 15 16  2  0  0  0  0
 15 17  1  0  0  0  0
 17 21  1  0  0  0  0
 17 18  1  0  0  0  0
 18 19  1  0  0  0  0
 18 34  1  0  0  0  0
 18 35  1  0  0  0  0
 19 20  1  0  0  0  0
 19 36  1  0  0  0  0
 19 37  1  0  0  0  0
 20 21  1  0  0  0  0
 20 38  1  0  0  0  0
 20 39  1  0  0  0  0
 21 40  1  0  0  0  0
 21 41  1  0  0  0  0
M  END
> <s_m_source_file>
AV-unprocessed.smi

> <i_m_source_file_index>
1398

> <i_lp_mmshare_version>
43012

> <i_f3d_flags>
0

> <s_epik_input>
W0NIM11PYzFuW2NIXVtjSF1bY0hdYzFbTkhdQyg9TylbTkhdW0NIMl1bQ0gyXUMoPU8pTjJbQ0gyXVtDSDJdW0NIMl1bQ0gyXTI=

> <s_epik_cmdline>
J2VwaWtfcHl0aG9uJywgJy1waCcsICc3LjAnLCAnLXRuJywgJzgnLCAnLW1hJywgJzIwMCcsICctbWV0YWxfYmluZGluZycsICctaW1hZScsICc8aW5maWxlLm1hZT4nLCAnLW9tYWUnLCAnPG91dGZpbGUubWFlPic=

> <r_lp_tautomer_probability>
1

> <r_epik_Ionization_Penalty>
8.61088e-05

> <r_epik_Ionization_Penalty_Charging>
0

> <r_epik_Ionization_Penalty_Neutral>
8.61088e-05

> <r_epik_State_Penalty>
-0

> <r_epik_Charging_Adjusted_Penalty>
0

> <i_epik_Tot_Q>
0

> <i_epik_Tot_abs_Q>
0

> <r_epik_Metal_State_Penalty>
-0

> <b_epik_Metal_Only>
0

> <s_lp_Force_Field>
OPLS_2005

> <r_lp_Energy>
29.8369

> <b_lp_Chiralities_Consistent>
1

> <s_lp_Variant>
AV-unprocessed.smi:1398-1

> <Gold.Version>
5.8.1

> <Gold.Id.Protein>
6NUR|6NUR_protein|mol2

> <Gold.PLP.Fitness>
44.9784

> <Gold.PLP.PLP>
-34.3359

> <Gold.PLP.part.hbond>
-3.0000

> <Gold.PLP.part.metal>
0.0000

> <Gold.PLP.part.buried>
-2.9076

> <Gold.PLP.part.nonpolar>
-29.2826

> <Gold.PLP.part.repulsive>
1.9138

> <Gold.PLP.ligand.clash>
0.0000

> <Gold.PLP.ligand.torsion>
0.5223

> <Gold.PLP.Chemscore.Hbond>
2.8880

> <Gold.PLP.Chemscore.CHOScore>
0.9973

> <Gold.PLP.Chemscore.Metal>
0.0000

> <Gold.Chemscore.Hbonds>
donor molecule, donor type, donor heavy atom, donor atom, acceptor molecule, acceptor atom, score
      L1  H     9    28       P1  7948  0.98
      L1  H    12    29       P1  7948  0.94
      P1  H  7989  7998       L1     4  0.25
      L1  C     5    25       P1  8028  1.00

> <Gold.PLP.Chemscore.Internal.Correction>
0.0313

> <Gold.Rescore>
     Score         DG    S(hbond)    S(metal)    S(lipo)     H(rot)  DE(clash)    DE(int)     intcor
     13.69     -17.52       2.36        0.00      75.47       1.83       0.58       3.26       ----

> <Gold.Chemscore.Fitness>
13.6853

> <Gold.Chemscore.DG>
-17.5221

> <Gold.Chemscore.ZeroCoef>
-5.4800

> <Gold.Chemscore.Hbond>
2.3612

> <Gold.Chemscore.Metal>
0.0000

> <Gold.Chemscore.Lipo>
75.4713

> <Gold.Chemscore.Internal_Hbond>
0.0000

> <Gold.Chemscore.DEClash>
0.5763

> <Gold.Chemscore.DEInternal>
3.2605

> <Gold.Chemscore.Rot>
1.8260

> <Gold.Chemscore.Internal.Correction>
   9.000000E+99

> <Gold.Chemscore.Hbonds>
donor molecule, donor type, donor heavy atom, donor atom, acceptor molecule, acceptor atom, score
      L1  H     9    28       P1  7948  0.93
      L1  H    12    29       P1  7948  0.91
      P1  H  7989  7998       L1     4  0.02

> <Gold.Chemscore.Hbond.Weighted>
-7.8864

> <Gold.Chemscore.Metal.Weighted>
-0.0000

> <Gold.Chemscore.Lipo.Weighted>
-8.8301

> <Gold.Chemscore.Internal_Hbond.Weighted>
0.0000

> <Gold.Chemscore.DEClash.Weighted>
0.5763

> <Gold.Chemscore.DEInternal.Weighted>
3.2605

> <Gold.Chemscore.Rot.Weighted>
4.6744

> <Gold.Chemscore.Internal.Correction.Weighted>
   9.000000E+99

> <Gold.Protein.RotatedTorsions>
[ 6907 6896 6895 6894 ] final  147.66 input  -60.11 | X-H torsion
[ 7974 7965 7964 7962 ] final   83.07 input  175.53 | X-H torsion
[ 8008 7997 7996 7995 ] final -106.02 input   59.86 | X-H torsion
[ 10167 10162 10161 10158 ] final   65.28 input  -65.29 | X-H torsion
[ 10718 10713 10712 10709 ] final  -24.35 input   66.30 | X-H torsion
[ 10763 10752 10751 10750 ] final  -84.50 input  -60.55 | X-H torsion
[ 11005 11000 10999 10996 ] final  108.24 input  -57.11 | X-H torsion

> <Gold.Protein.ActiveResidues>
 VAL166  LYS551  ARG553  GLY616  TRP617  ASP618  TYR619  PRO620  LYS621  CYS622 
 ASP623  PHE694  ASN695  SER759  ASP760  ASP761  ALA762  ILE779  LEU786  VAL792 
 PHE793  MET794  SER795  GLU796  ALA797  LYS798  CYS799  TRP800  GLU811  SER814 

> <Gold.Protein.RotatedAtoms>
  152.1518  133.4527  159.4817 H   0  0  0  0  0  0  0  0  0  0  0  0  # atno 6907 bound_to 6896
  150.6896  134.2179  159.4394 H   0  0  0  0  0  0  0  0  0  0  0  0  # atno 6908 bound_to 6896
  152.0076  134.9893  160.0618 H   0  0  0  0  0  0  0  0  0  0  0  0  # atno 6909 bound_to 6896
  145.6167  139.2378  143.2161 H   0  0  0  0  0  0  0  0  0  0  0  0  # atno 7974 bound_to 7965
  154.9084  140.0410  157.1932 H   0  0  0  0  0  0  0  0  0  0  0  0  # atno 8008 bound_to 7997
  154.8373  140.2909  155.5661 H   0  0  0  0  0  0  0  0  0  0  0  0  # atno 8009 bound_to 7997
  156.2990  140.2489  156.3309 H   0  0  0  0  0  0  0  0  0  0  0  0  # atno 8010 bound_to 7997
  140.1130  144.4801  150.6966 H   0  0  0  0  0  0  0  0  0  0  0  0  # atno 10167 bound_to 10162
  156.4788  130.4540  149.6824 H   0  0  0  0  0  0  0  0  0  0  0  0  # atno 10718 bound_to 10713
  154.6003  135.5518  153.7367 H   0  0  0  0  0  0  0  0  0  0  0  0  # atno 10763 bound_to 10752
  153.0152  135.6364  154.1724 H   0  0  0  0  0  0  0  0  0  0  0  0  # atno 10764 bound_to 10752
  154.1664  135.2894  155.3074 H   0  0  0  0  0  0  0  0  0  0  0  0  # atno 10765 bound_to 10752
  139.8841  134.9425  156.5943 H   0  0  0  0  0  0  0  0  0  0  0  0  # atno 11005 bound_to 11000
  146.1463  140.6988  142.9343 LP  0  0  0  0  0  0  0  0  0  0  0  0  # atno 17320 bound_to 7965
  144.7247  140.4488  143.6981 LP  0  0  0  0  0  0  0  0  0  0  0  0  # atno 17321 bound_to 7965
  140.6915  143.2379  151.5118 LP  0  0  0  0  0  0  0  0  0  0  0  0  # atno 17342 bound_to 10162
  139.5609  144.2159  152.1690 LP  0  0  0  0  0  0  0  0  0  0  0  0  # atno 17343 bound_to 10162
  156.3543  130.7448  151.2412 LP  0  0  0  0  0  0  0  0  0  0  0  0  # atno 17370 bound_to 10713
  157.7485  131.0368  150.4427 LP  0  0  0  0  0  0  0  0  0  0  0  0  # atno 17371 bound_to 10713
  140.7932  133.8565  155.8663 LP  0  0  0  0  0  0  0  0  0  0  0  0  # atno 17394 bound_to 11000
  140.9659  134.1595  157.4616 LP  0  0  0  0  0  0  0  0  0  0  0  0  # atno 17395 bound_to 11000

$$$$
