AV-unprocessed.smi:962|AV-procd|sdf|4275|dock4
  -GOLD-   22720 2183D 1   1.00000     0.00000
 Structure written by MMmdl.
 42 43  0  0  0  0  0  0  0  0  1 V2000
  150.0900  144.4841  159.6967 C   0  0  0  0  0  0  0  0  0  0  0  0
  151.6204  144.6692  159.6172 C   0  0  0  0  0  0  0  0  0  0  0  0
  152.0514  144.4469  158.1539 C   0  0  0  0  0  0  0  0  0  0  0  0
  151.9486  146.1118  160.0496 C   0  0  0  0  0  0  0  0  0  0  0  0
  152.3379  143.6826  160.5157 C   0  0  0  0  0  0  0  0  0  0  0  0
  152.3714  143.6558  161.8915 C   0  0  0  0  0  0  0  0  0  0  0  0
  153.2862  142.3073  162.5051 S   0  0  0  0  0  0  0  0  0  0  0  0
  153.6118  141.8169  160.8483 C   0  0  0  0  0  0  0  0  0  0  0  0
  154.3498  140.5667  160.4912 C   0  0  0  0  0  0  0  0  0  0  0  0
  153.4396  139.4199  160.0073 C   0  0  0  0  0  0  0  0  0  0  0  0
  152.5250  139.8464  158.9498 N   0  0  0  0  0  0  0  0  0  0  0  0
  152.6869  139.6133  157.6344 C   0  0  0  0  0  0  0  0  0  0  0  0
  153.5923  138.9113  157.1822 O   0  0  0  0  0  0  0  0  0  0  0  0
  151.7731  140.2248  156.8504 N   0  0  0  0  0  0  0  0  0  0  0  0
  150.8180  141.2573  157.2637 C   0  0  0  0  0  0  0  0  0  0  0  0
  150.2479  141.8371  155.9690 C   0  0  0  0  0  0  0  0  0  0  0  0
  150.4109  140.7144  154.9545 C   0  0  0  0  0  0  0  0  0  0  0  0
  151.6689  139.9776  155.4137 C   0  0  0  0  0  0  0  0  0  0  0  0
  153.0631  142.6292  159.9435 N   0  0  0  0  0  0  0  0  0  0  0  0
  149.5704  145.1954  159.0537 H   0  0  0  0  0  0  0  0  0  0  0  0
  149.7202  144.6359  160.7116 H   0  0  0  0  0  0  0  0  0  0  0  0
  149.7905  143.4844  159.3793 H   0  0  0  0  0  0  0  0  0  0  0  0
  151.8328  143.4290  157.8285 H   0  0  0  0  0  0  0  0  0  0  0  0
  153.1215  144.6093  158.0199 H   0  0  0  0  0  0  0  0  0  0  0  0
  151.5336  145.1279  157.4777 H   0  0  0  0  0  0  0  0  0  0  0  0
  151.4295  146.8409  159.4264 H   0  0  0  0  0  0  0  0  0  0  0  0
  153.0157  146.3225  159.9717 H   0  0  0  0  0  0  0  0  0  0  0  0
  151.6528  146.2921  161.0838 H   0  0  0  0  0  0  0  0  0  0  0  0
  151.9039  144.3377  162.5859 H   0  0  0  0  0  0  0  0  0  0  0  0
  155.0919  140.8006  159.7272 H   0  0  0  0  0  0  0  0  0  0  0  0
  154.9072  140.2410  161.3699 H   0  0  0  0  0  0  0  0  0  0  0  0
  154.0553  138.5869  159.6637 H   0  0  0  0  0  0  0  0  0  0  0  0
  152.8539  139.0362  160.8425 H   0  0  0  0  0  0  0  0  0  0  0  0
  151.7433  140.4203  159.2306 H   0  0  0  0  0  0  0  0  0  0  0  0
  150.0280  140.7939  157.8567 H   0  0  0  0  0  0  0  0  0  0  0  0
  151.2855  142.0382  157.8659 H   0  0  0  0  0  0  0  0  0  0  0  0
  149.2144  142.1691  156.0719 H   0  0  0  0  0  0  0  0  0  0  0  0
  150.8449  142.6962  155.6599 H   0  0  0  0  0  0  0  0  0  0  0  0
  149.5527  140.0435  155.0122 H   0  0  0  0  0  0  0  0  0  0  0  0
  150.4834  141.0770  153.9286 H   0  0  0  0  0  0  0  0  0  0  0  0
  152.5526  140.3842  154.9193 H   0  0  0  0  0  0  0  0  0  0  0  0
  151.6121  138.9124  155.1847 H   0  0  0  0  0  0  0  0  0  0  0  0
  1  2  1  0  0  0  0
  1 20  1  0  0  0  0
  1 21  1  0  0  0  0
  1 22  1  0  0  0  0
  2  3  1  0  0  0  0
  2  4  1  0  0  0  0
  2  5  1  0  0  0  0
  3 23  1  0  0  0  0
  3 24  1  0  0  0  0
  3 25  1  0  0  0  0
  4 26  1  0  0  0  0
  4 27  1  0  0  0  0
  4 28  1  0  0  0  0
  5 19  1  0  0  0  0
  5  6  2  0  0  0  0
  6  7  1  0  0  0  0
  6 29  1  0  0  0  0
  7  8  1  0  0  0  0
  8  9  1  0  0  0  0
  8 19  2  0  0  0  0
  9 10  1  0  0  0  0
  9 30  1  0  0  0  0
  9 31  1  0  0  0  0
 10 11  1  0  0  0  0
 10 32  1  0  0  0  0
 10 33  1  0  0  0  0
 11 12  1  0  0  0  0
 11 34  1  0  0  0  0
 12 13  2  0  0  0  0
 12 14  1  0  0  0  0
 14 18  1  0  0  0  0
 14 15  1  0  0  0  0
 15 16  1  0  0  0  0
 15 35  1  0  0  0  0
 15 36  1  0  0  0  0
 16 17  1  0  0  0  0
 16 37  1  0  0  0  0
 16 38  1  0  0  0  0
 17 18  1  0  0  0  0
 17 39  1  0  0  0  0
 17 40  1  0  0  0  0
 18 41  1  0  0  0  0
 18 42  1  0  0  0  0
M  END
> <s_m_source_file>
AV-unprocessed.smi

> <i_m_source_file_index>
962

> <i_lp_mmshare_version>
43012

> <i_f3d_flags>
0

> <s_epik_input>
W0NIM11DKFtDSDNdKShbQ0gzXSljMVtjSF1zYyhuMSlbQ0gyXVtDSDJdW05IXUMoPU8pTjJbQ0gyXVtDSDJdW0NIMl1bQ0gyXTI=

> <s_epik_cmdline>
J2VwaWtfcHl0aG9uJywgJy1waCcsICc3LjAnLCAnLXRuJywgJzgnLCAnLW1hJywgJzIwMCcsICctbWV0YWxfYmluZGluZycsICctaW1hZScsICc8aW5maWxlLm1hZT4nLCAnLW9tYWUnLCAnPG91dGZpbGUubWFlPic=

> <r_epik_Ionization_Penalty>
0.00160156

> <r_epik_Ionization_Penalty_Charging>
0

> <r_epik_Ionization_Penalty_Neutral>
0.00160156

> <r_epik_State_Penalty>
0.00103428

> <r_epik_Charging_Adjusted_Penalty>
0.00103428

> <i_epik_Tot_Q>
0

> <i_epik_Tot_abs_Q>
0

> <r_epik_Metal_State_Penalty>
-0

> <b_epik_Metal_Only>
0

> <s_lp_Force_Field>
OPLS_2005

> <r_lp_Energy>
25.7371

> <b_lp_Chiralities_Consistent>
1

> <s_lp_Variant>
AV-unprocessed.smi:962-1

> <Gold.Version>
5.8.1

> <Gold.Id.Protein>
6NUR|6NUR_protein|mol2

> <Gold.PLP.Fitness>
50.1259

> <Gold.PLP.PLP>
-48.6495

> <Gold.PLP.part.hbond>
-1.0000

> <Gold.PLP.part.metal>
0.0000

> <Gold.PLP.part.buried>
-2.9303

> <Gold.PLP.part.nonpolar>
-44.3845

> <Gold.PLP.part.repulsive>
0.1187

> <Gold.PLP.ligand.clash>
0.0000

> <Gold.PLP.ligand.torsion>
0.6760

> <Gold.PLP.Chemscore.Hbond>
0.9280

> <Gold.PLP.Chemscore.CHOScore>
0.0000

> <Gold.PLP.Chemscore.Metal>
0.0000

> <Gold.Chemscore.Hbonds>
donor molecule, donor type, donor heavy atom, donor atom, acceptor molecule, acceptor atom, score
      P1  H  7997  8008       L1    13  0.78

> <Gold.PLP.Chemscore.Internal.Correction>
0.0443

> <Gold.Rescore>
     Score         DG    S(hbond)    S(metal)    S(lipo)     H(rot)  DE(clash)    DE(int)     intcor
     16.83     -18.75       0.38        0.00     133.56       1.41       0.23       1.69       ----

> <Gold.Chemscore.Fitness>
16.8264

> <Gold.Chemscore.DG>
-18.7483

> <Gold.Chemscore.ZeroCoef>
-5.4800

> <Gold.Chemscore.Hbond>
0.3783

> <Gold.Chemscore.Metal>
0.0000

> <Gold.Chemscore.Lipo>
133.5649

> <Gold.Chemscore.Internal_Hbond>
0.0000

> <Gold.Chemscore.DEClash>
0.2317

> <Gold.Chemscore.DEInternal>
1.6901

> <Gold.Chemscore.Rot>
1.4149

> <Gold.Chemscore.Internal.Correction>
   9.000000E+99

> <Gold.Chemscore.Hbonds>
donor molecule, donor type, donor heavy atom, donor atom, acceptor molecule, acceptor atom, score
      P1  H  7997  8008       L1    13  0.14

> <Gold.Chemscore.Hbond.Weighted>
-1.2634

> <Gold.Chemscore.Metal.Weighted>
-0.0000

> <Gold.Chemscore.Lipo.Weighted>
-15.6271

> <Gold.Chemscore.Internal_Hbond.Weighted>
0.0000

> <Gold.Chemscore.DEClash.Weighted>
0.2317

> <Gold.Chemscore.DEInternal.Weighted>
1.6901

> <Gold.Chemscore.Rot.Weighted>
3.6222

> <Gold.Chemscore.Internal.Correction.Weighted>
   9.000000E+99

> <Gold.Protein.RotatedTorsions>
[ 6907 6896 6895 6894 ] final  -18.29 input  -60.11 | X-H torsion
[ 7974 7965 7964 7962 ] final   63.57 input  175.53 | X-H torsion
[ 8008 7997 7996 7995 ] final  -92.88 input   59.86 | X-H torsion
[ 10167 10162 10161 10158 ] final -148.11 input  -65.29 | X-H torsion
[ 10718 10713 10712 10709 ] final -163.37 input   66.30 | X-H torsion
[ 10763 10752 10751 10750 ] final  179.12 input  -60.55 | X-H torsion
[ 11005 11000 10999 10996 ] final   43.06 input  -57.11 | X-H torsion

> <Gold.Protein.ActiveResidues>
 VAL166  LYS551  ARG553  GLY616  TRP617  ASP618  TYR619  PRO620  LYS621  CYS622 
 ASP623  PHE694  ASN695  SER759  ASP760  ASP761  ALA762  ILE779  LEU786  VAL792 
 PHE793  MET794  SER795  GLU796  ALA797  LYS798  CYS799  TRP800  GLU811  SER814 

> <Gold.Protein.RotatedAtoms>
  151.2804  135.0712  159.9167 H   0  0  0  0  0  0  0  0  0  0  0  0  # atno 6907 bound_to 6896
  152.5335  134.0036  159.7916 H   0  0  0  0  0  0  0  0  0  0  0  0  # atno 6908 bound_to 6896
  151.0289  133.5757  159.2693 H   0  0  0  0  0  0  0  0  0  0  0  0  # atno 6909 bound_to 6896
  145.8603  139.3310  143.0823 H   0  0  0  0  0  0  0  0  0  0  0  0  # atno 7974 bound_to 7965
  154.7286  140.0504  157.0706 H   0  0  0  0  0  0  0  0  0  0  0  0  # atno 8008 bound_to 7997
  155.0331  140.3160  155.4732 H   0  0  0  0  0  0  0  0  0  0  0  0  # atno 8009 bound_to 7997
  156.2835  140.2146  156.5453 H   0  0  0  0  0  0  0  0  0  0  0  0  # atno 8010 bound_to 7997
  139.7561  143.8446  152.2597 H   0  0  0  0  0  0  0  0  0  0  0  0  # atno 10167 bound_to 10162
  156.6238  130.8901  151.2963 H   0  0  0  0  0  0  0  0  0  0  0  0  # atno 10718 bound_to 10713
  154.5165  135.2791  155.1299 H   0  0  0  0  0  0  0  0  0  0  0  0  # atno 10763 bound_to 10752
  154.2873  135.6274  153.5375 H   0  0  0  0  0  0  0  0  0  0  0  0  # atno 10764 bound_to 10752
  152.9928  135.5665  154.5643 H   0  0  0  0  0  0  0  0  0  0  0  0  # atno 10765 bound_to 10752
  140.1680  134.4258  155.8275 H   0  0  0  0  0  0  0  0  0  0  0  0  # atno 11005 bound_to 11000
  145.9256  140.9085  143.0383 LP  0  0  0  0  0  0  0  0  0  0  0  0  # atno 17320 bound_to 7965
  144.6727  140.1348  143.7441 LP  0  0  0  0  0  0  0  0  0  0  0  0  # atno 17321 bound_to 7965
  139.8438  144.7197  150.9298 LP  0  0  0  0  0  0  0  0  0  0  0  0  # atno 17342 bound_to 10162
  140.7803  143.3959  151.1230 LP  0  0  0  0  0  0  0  0  0  0  0  0  # atno 17343 bound_to 10162
  157.7220  130.9571  150.1477 LP  0  0  0  0  0  0  0  0  0  0  0  0  # atno 17370 bound_to 10713
  156.2290  130.3680  149.8467 LP  0  0  0  0  0  0  0  0  0  0  0  0  # atno 17371 bound_to 10713
  141.2215  133.6943  156.7713 LP  0  0  0  0  0  0  0  0  0  0  0  0  # atno 17394 bound_to 11000
  140.2411  134.8613  157.3574 LP  0  0  0  0  0  0  0  0  0  0  0  0  # atno 17395 bound_to 11000

$$$$
