AV-unprocessed.smi:3354|AV-procd|sdf|12962|dock9
  -GOLD-   2272019403D 1   1.00000     0.00000
 Structure written by MMmdl.
 38 40  0  0  0  0  0  0  0  0  1 V2000
  149.7809  142.9638  158.4590 C   0  0  0  0  0  0  0  0  0  0  0  0
  150.8078  141.9960  157.9118 C   0  0  1  0  0  0  0  0  0  0  0  0
  151.3001  140.8505  158.7667 C   0  0  0  0  0  0  0  0  0  0  0  0
  150.4252  140.5753  157.5599 C   0  0  2  0  0  0  0  0  0  0  0  0
  150.9823  139.9837  156.3813 N   0  0  0  0  0  0  0  0  0  0  0  0
  150.0825  139.4016  155.3998 C   0  0  0  0  0  0  0  0  0  0  0  0
  150.9912  138.8538  154.2863 C   0  0  2  0  0  0  0  0  0  0  0  0
  150.5359  137.5406  153.8386 N   0  0  0  0  0  0  0  0  0  0  0  0
  150.7863  136.3872  154.4734 C   0  0  0  0  0  0  0  0  0  0  0  0
  151.4277  136.3164  155.5216 O   0  0  0  0  0  0  0  0  0  0  0  0
  150.2312  135.3470  153.8283 N   0  0  0  0  0  0  0  0  0  0  0  0
  150.2989  133.9654  154.1545 C   0  0  0  0  0  0  0  0  0  0  0  0
  151.0470  133.4375  155.2346 C   0  0  0  0  0  0  0  0  0  0  0  0
  151.0520  132.0446  155.4412 C   0  0  0  0  0  0  0  0  0  0  0  0
  150.3162  131.2307  154.5584 C   0  0  0  0  0  0  0  0  0  0  0  0
  149.6090  131.7187  153.5176 N   0  0  0  0  0  0  0  0  0  0  0  0
  149.6095  133.0551  153.3253 C   0  0  0  0  0  0  0  0  0  0  0  0
  152.4000  138.8137  154.8991 C   0  0  0  0  0  0  0  0  0  0  0  0
  152.2498  139.5887  156.1973 C   0  0  0  0  0  0  0  0  0  0  0  0
  153.1948  139.7833  156.9605 O   0  0  0  0  0  0  0  0  0  0  0  0
  149.0561  142.4460  159.0883 H   0  0  0  0  0  0  0  0  0  0  0  0
  149.2473  143.4439  157.6387 H   0  0  0  0  0  0  0  0  0  0  0  0
  150.2717  143.7342  159.0538 H   0  0  0  0  0  0  0  0  0  0  0  0
  151.5553  142.4665  157.2753 H   0  0  0  0  0  0  0  0  0  0  0  0
  152.3634  140.6249  158.7121 H   0  0  0  0  0  0  0  0  0  0  0  0
  150.8501  140.7185  159.7486 H   0  0  0  0  0  0  0  0  0  0  0  0
  149.4004  140.2836  157.7826 H   0  0  0  0  0  0  0  0  0  0  0  0
  149.5032  138.6104  155.8790 H   0  0  0  0  0  0  0  0  0  0  0  0
  149.3829  140.1460  155.0172 H   0  0  0  0  0  0  0  0  0  0  0  0
  150.9836  139.5537  153.4482 H   0  0  0  0  0  0  0  0  0  0  0  0
  149.9969  137.5098  152.9855 H   0  0  0  0  0  0  0  0  0  0  0  0
  149.6563  135.5744  153.0304 H   0  0  0  0  0  0  0  0  0  0  0  0
  151.6253  134.0645  155.8950 H   0  0  0  0  0  0  0  0  0  0  0  0
  151.6122  131.6097  156.2557 H   0  0  0  0  0  0  0  0  0  0  0  0
  150.3007  130.1586  154.6884 H   0  0  0  0  0  0  0  0  0  0  0  0
  149.0361  133.4094  152.4811 H   0  0  0  0  0  0  0  0  0  0  0  0
  152.7256  137.7975  155.1265 H   0  0  0  0  0  0  0  0  0  0  0  0
  153.1414  139.2772  154.2473 H   0  0  0  0  0  0  0  0  0  0  0  0
  1  2  1  0  0  0  0
  1 21  1  0  0  0  0
  1 22  1  0  0  0  0
  1 23  1  0  0  0  0
  2  4  1  0  0  0  0
  2  3  1  0  0  0  0
  2 24  1  0  0  0  0
  3  4  1  0  0  0  0
  3 25  1  0  0  0  0
  3 26  1  0  0  0  0
  4  5  1  0  0  0  0
  4 27  1  0  0  0  0
  5 19  1  0  0  0  0
  5  6  1  0  0  0  0
  6  7  1  0  0  0  0
  6 28  1  0  0  0  0
  6 29  1  0  0  0  0
  7  8  1  0  0  0  0
  7 18  1  0  0  0  0
  7 30  1  0  0  0  0
  8  9  1  0  0  0  0
  8 31  1  0  0  0  0
  9 10  2  0  0  0  0
  9 11  1  0  0  0  0
 11 12  1  0  0  0  0
 11 32  1  0  0  0  0
 12 17  1  0  0  0  0
 12 13  2  0  0  0  0
 13 14  1  0  0  0  0
 13 33  1  0  0  0  0
 14 15  2  0  0  0  0
 14 34  1  0  0  0  0
 15 16  1  0  0  0  0
 15 35  1  0  0  0  0
 16 17  2  0  0  0  0
 17 36  1  0  0  0  0
 18 19  1  0  0  0  0
 18 37  1  0  0  0  0
 18 38  1  0  0  0  0
 19 20  2  0  0  0  0
M  END
> <s_m_source_file>
AV-unprocessed.smi

> <i_m_source_file_index>
3354

> <i_lp_mmshare_version>
43012

> <i_f3d_flags>
0

> <s_epik_input>
W0NIM11bQ0BASF0xW0NIMl1bQ0BIXTFOMltDSDJdW0NASF0oW0NIMl1DMj1PKVtOSF1DKD1PKVtOSF1jM1tjSF1bY0hdW2NIXW5bY0hdMw==

> <s_epik_cmdline>
J2VwaWtfcHl0aG9uJywgJy1waCcsICc3LjAnLCAnLXRuJywgJzgnLCAnLW1hJywgJzIwMCcsICctbWV0YWxfYmluZGluZycsICctaW1hZScsICc8aW5maWxlLm1hZT4nLCAnLW9tYWUnLCAnPG91dGZpbGUubWFlPic=

> <r_epik_Ionization_Penalty>
0.00456191

> <r_epik_Ionization_Penalty_Charging>
0

> <r_epik_Ionization_Penalty_Neutral>
0.00456191

> <r_epik_State_Penalty>
0.00327094

> <r_epik_Charging_Adjusted_Penalty>
0.00327094

> <i_epik_Tot_Q>
0

> <i_epik_Tot_abs_Q>
0

> <r_epik_Metal_State_Penalty>
-0

> <b_epik_Metal_Only>
0

> <s_lp_Force_Field>
OPLS_2005

> <r_lp_Energy>
40.9267

> <b_lp_Chiralities_Consistent>
1

> <s_lp_Variant>
AV-unprocessed.smi:3354-8

> <Gold.Version>
5.8.1

> <Gold.Id.Protein>
6NUR|6NUR_protein|mol2

> <Gold.PLP.Fitness>
41.7631

> <Gold.PLP.PLP>
-33.8664

> <Gold.PLP.part.hbond>
-4.7161

> <Gold.PLP.part.metal>
0.0000

> <Gold.PLP.part.buried>
-1.7510

> <Gold.PLP.part.nonpolar>
-28.1290

> <Gold.PLP.part.repulsive>
0.2588

> <Gold.PLP.ligand.clash>
0.0000

> <Gold.PLP.ligand.torsion>
0.4988

> <Gold.PLP.Chemscore.Hbond>
2.7652

> <Gold.PLP.Chemscore.CHOScore>
0.0731

> <Gold.PLP.Chemscore.Metal>
0.0000

> <Gold.Chemscore.Hbonds>
donor molecule, donor type, donor heavy atom, donor atom, acceptor molecule, acceptor atom, score
      L1  H     8    31       P1  7948  0.78
      L1  H    11    32       P1  7948  0.25
      P1  H  7997  8009       L1    20  0.42
      P1  H 10752 10763       L1    10  0.01

> <Gold.PLP.Chemscore.Internal.Correction>
0.3794

> <Gold.Rescore>
     Score         DG    S(hbond)    S(metal)    S(lipo)     H(rot)  DE(clash)    DE(int)     intcor
     11.90     -16.30       1.68        0.00      71.63       1.24       0.28       4.12       ----

> <Gold.Chemscore.Fitness>
11.9015

> <Gold.Chemscore.DG>
-16.3032

> <Gold.Chemscore.ZeroCoef>
-5.4800

> <Gold.Chemscore.Hbond>
1.6786

> <Gold.Chemscore.Metal>
0.0000

> <Gold.Chemscore.Lipo>
71.6317

> <Gold.Chemscore.Internal_Hbond>
0.0000

> <Gold.Chemscore.DEClash>
0.2811

> <Gold.Chemscore.DEInternal>
4.1206

> <Gold.Chemscore.Rot>
1.2361

> <Gold.Chemscore.Internal.Correction>
   9.000000E+99

> <Gold.Chemscore.Hbonds>
donor molecule, donor type, donor heavy atom, donor atom, acceptor molecule, acceptor atom, score
      L1  H     8    31       P1  7948  0.17
      P1  H  7997  8009       L1    20  0.39

> <Gold.Chemscore.Hbond.Weighted>
-5.6066

> <Gold.Chemscore.Metal.Weighted>
-0.0000

> <Gold.Chemscore.Lipo.Weighted>
-8.3809

> <Gold.Chemscore.Internal_Hbond.Weighted>
0.0000

> <Gold.Chemscore.DEClash.Weighted>
0.2811

> <Gold.Chemscore.DEInternal.Weighted>
4.1206

> <Gold.Chemscore.Rot.Weighted>
3.1643

> <Gold.Chemscore.Internal.Correction.Weighted>
   9.000000E+99

> <Gold.Protein.RotatedTorsions>
[ 6907 6896 6895 6894 ] final  141.74 input  -60.11 | X-H torsion
[ 7974 7965 7964 7962 ] final   80.39 input  175.53 | X-H torsion
[ 8008 7997 7996 7995 ] final -166.96 input   59.86 | X-H torsion
[ 10167 10162 10161 10158 ] final   85.38 input  -65.29 | X-H torsion
[ 10718 10713 10712 10709 ] final   25.01 input   66.30 | X-H torsion
[ 10763 10752 10751 10750 ] final   29.21 input  -60.55 | X-H torsion
[ 11005 11000 10999 10996 ] final  135.53 input  -57.11 | X-H torsion

> <Gold.Protein.ActiveResidues>
 VAL166  LYS551  ARG553  GLY616  TRP617  ASP618  TYR619  PRO620  LYS621  CYS622 
 ASP623  PHE694  ASN695  SER759  ASP760  ASP761  ALA762  ILE779  LEU786  VAL792 
 PHE793  MET794  SER795  GLU796  ALA797  LYS798  CYS799  TRP800  GLU811  SER814 

> <Gold.Protein.RotatedAtoms>
  152.2272  133.5030  159.5195 H   0  0  0  0  0  0  0  0  0  0  0  0  # atno 6907 bound_to 6896
  150.7028  134.1264  159.4062 H   0  0  0  0  0  0  0  0  0  0  0  0  # atno 6908 bound_to 6896
  151.9185  135.0308  160.0571 H   0  0  0  0  0  0  0  0  0  0  0  0  # atno 6909 bound_to 6896
  145.6518  139.2449  143.1972 H   0  0  0  0  0  0  0  0  0  0  0  0  # atno 7974 bound_to 7965
  155.8711  140.0993  157.1549 H   0  0  0  0  0  0  0  0  0  0  0  0  # atno 8008 bound_to 7997
  154.3997  140.1347  156.4142 H   0  0  0  0  0  0  0  0  0  0  0  0  # atno 8009 bound_to 7997
  155.7749  140.3460  155.5269 H   0  0  0  0  0  0  0  0  0  0  0  0  # atno 8010 bound_to 7997
  139.8983  144.6344  150.8664 H   0  0  0  0  0  0  0  0  0  0  0  0  # atno 10167 bound_to 10162
  157.1876  130.6831  149.6137 H   0  0  0  0  0  0  0  0  0  0  0  0  # atno 10718 bound_to 10713
  153.0444  135.6494  154.0856 H   0  0  0  0  0  0  0  0  0  0  0  0  # atno 10763 bound_to 10752
  154.0556  135.2892  155.3335 H   0  0  0  0  0  0  0  0  0  0  0  0  # atno 10764 bound_to 10752
  154.6691  135.5363  153.8181 H   0  0  0  0  0  0  0  0  0  0  0  0  # atno 10765 bound_to 10752
  139.9986  134.9487  157.0021 H   0  0  0  0  0  0  0  0  0  0  0  0  # atno 11005 bound_to 11000
  146.1198  140.7324  142.9463 LP  0  0  0  0  0  0  0  0  0  0  0  0  # atno 17320 bound_to 7965
  144.7120  140.4073  143.7073 LP  0  0  0  0  0  0  0  0  0  0  0  0  # atno 17321 bound_to 7965
  140.7712  143.3456  151.2118 LP  0  0  0  0  0  0  0  0  0  0  0  0  # atno 17342 bound_to 10162
  139.7048  143.9474  152.2921 LP  0  0  0  0  0  0  0  0  0  0  0  0  # atno 17343 bound_to 10162
  155.9716  130.4625  150.6150 LP  0  0  0  0  0  0  0  0  0  0  0  0  # atno 17370 bound_to 10713
  157.3892  131.0793  151.1408 LP  0  0  0  0  0  0  0  0  0  0  0  0  # atno 17371 bound_to 10713
  140.4771  134.1327  155.7211 LP  0  0  0  0  0  0  0  0  0  0  0  0  # atno 17394 bound_to 11000
  141.1624  133.8767  157.1810 LP  0  0  0  0  0  0  0  0  0  0  0  0  # atno 17395 bound_to 11000

$$$$
