AV-unprocessed.smi:1260|AV-procd|sdf|5297|dock9
  -GOLD-   22720 4413D 1   1.00000     0.00000
 Structure written by MMmdl.
 37 39  0  0  0  0  0  0  0  0  2 V2000
  150.9982  135.3974  155.2204 O   0  0  0  0  0  0  0  0  0  0  0  0
  150.1380  136.2662  155.0837 C   0  0  0  0  0  0  0  0  0  0  0  0
  150.5218  137.7440  155.1992 C   0  0  0  0  0  0  0  0  0  0  0  0
  151.9616  137.9280  155.2418 N   0  0  0  0  0  0  0  0  0  0  0  0
  152.7696  138.6914  154.5033 C   0  0  0  0  0  0  0  0  0  0  0  0
  154.0360  138.5566  154.8654 N   0  0  0  0  0  0  0  0  0  0  0  0
  153.9705  137.6451  155.9059 N   0  0  0  0  0  0  0  0  0  0  0  0
  152.7421  137.2702  156.1356 N   0  0  0  0  0  0  0  0  0  0  0  0
  148.8443  135.9904  154.8489 N   0  0  0  0  0  0  0  0  0  0  0  0
  148.2851  134.6525  154.6648 C   0  0  2  0  0  0  0  0  0  0  0  0
  149.2462  133.7004  153.9272 C   0  0  0  0  0  0  0  0  0  0  0  0
  148.3515  132.9138  152.9635 C   0  0  0  0  0  0  0  0  0  0  0  0
  147.3116  133.8873  152.6102 N   0  3  1  0  0  0  0  0  0  0  0  0
  146.1171  133.4113  151.8836 C   0  0  0  0  0  0  0  0  0  0  0  0
  145.2755  134.6384  151.4716 C   0  0  0  0  0  0  0  0  0  0  0  0
  144.9671  135.5656  152.6693 C   0  0  0  0  0  0  0  0  0  0  0  0
  146.2426  135.9213  153.4639 C   0  0  0  0  0  0  0  0  0  0  0  0
  146.9746  134.6211  153.8425 C   0  0  2  0  0  0  0  0  0  0  0  0
  150.1188  138.2926  154.3471 H   0  0  0  0  0  0  0  0  0  0  0  0
  150.0842  138.1783  156.0994 H   0  0  0  0  0  0  0  0  0  0  0  0
  152.4340  139.3359  153.7038 H   0  0  0  0  0  0  0  0  0  0  0  0
  148.2065  136.7674  154.7549 H   0  0  0  0  0  0  0  0  0  0  0  0
  148.0810  134.2206  155.6469 H   0  0  0  0  0  0  0  0  0  0  0  0
  149.9783  134.2702  153.3527 H   0  0  0  0  0  0  0  0  0  0  0  0
  149.7980  133.0506  154.6073 H   0  0  0  0  0  0  0  0  0  0  0  0
  148.8905  132.5542  152.0864 H   0  0  0  0  0  0  0  0  0  0  0  0
  147.9002  132.0584  153.4692 H   0  0  0  0  0  0  0  0  0  0  0  0
  146.4221  132.8500  150.9999 H   0  0  0  0  0  0  0  0  0  0  0  0
  145.5378  132.7348  152.5138 H   0  0  0  0  0  0  0  0  0  0  0  0
  145.8190  135.2059  150.7150 H   0  0  0  0  0  0  0  0  0  0  0  0
  144.3469  134.3137  151.0015 H   0  0  0  0  0  0  0  0  0  0  0  0
  144.4759  136.4753  152.3229 H   0  0  0  0  0  0  0  0  0  0  0  0
  144.2576  135.0687  153.3322 H   0  0  0  0  0  0  0  0  0  0  0  0
  146.8900  136.5630  152.8647 H   0  0  0  0  0  0  0  0  0  0  0  0
  145.9727  136.4842  154.3578 H   0  0  0  0  0  0  0  0  0  0  0  0
  146.2767  134.0014  154.4098 H   0  0  0  0  0  0  0  0  0  0  0  0
  147.7659  134.5557  152.0045 H   0  0  0  0  0  0  0  0  0  0  0  0
  1  2  2  0  0  0  0
  2  3  1  0  0  0  0
  2  9  1  0  0  0  0
  3  4  1  0  0  0  0
  3 19  1  0  0  0  0
  3 20  1  0  0  0  0
  4  8  1  0  0  0  0
  4  5  1  0  0  0  0
  5  6  2  0  0  0  0
  5 21  1  0  0  0  0
  6  7  1  0  0  0  0
  7  8  2  0  0  0  0
  9 10  1  0  0  0  0
  9 22  1  0  0  0  0
 10 18  1  0  0  0  0
 10 11  1  0  0  0  0
 10 23  1  0  0  0  0
 11 12  1  0  0  0  0
 11 24  1  0  0  0  0
 11 25  1  0  0  0  0
 12 13  1  0  0  0  0
 12 26  1  0  0  0  0
 12 27  1  0  0  0  0
 13 18  1  0  0  0  0
 13 14  1  0  0  0  0
 13 37  1  0  0  0  0
 14 15  1  0  0  0  0
 14 28  1  0  0  0  0
 14 29  1  0  0  0  0
 15 16  1  0  0  0  0
 15 30  1  0  0  0  0
 15 31  1  0  0  0  0
 16 17  1  0  0  0  0
 16 32  1  0  0  0  0
 16 33  1  0  0  0  0
 17 18  1  0  0  0  0
 17 34  1  0  0  0  0
 17 35  1  0  0  0  0
 18 36  1  0  0  0  0
M  CHG  1  13   1
M  END
> <s_m_source_file>
AV-unprocessed.smi

> <i_m_source_file_index>
1260

> <i_lp_mmshare_version>
43012

> <i_f3d_flags>
0

> <s_epik_input>
bjFubltjSF1uMVtDSDJdQyg9TylbTkhdW0NASF0oW0NIMl1bQ0gyXTIpW0NAQEhdKE4yMylbQ0gyXVtDSDJdW0NIMl1bQ0gyXTM=

> <s_epik_cmdline>
J2VwaWtfcHl0aG9uJywgJy1waCcsICc3LjAnLCAnLXRuJywgJzgnLCAnLW1hJywgJzIwMCcsICctbWV0YWxfYmluZGluZycsICctaW1hZScsICc8aW5maWxlLm1hZT4nLCAnLW9tYWUnLCAnPG91dGZpbGUubWFlPic=

> <r_lp_tautomer_probability>
1

> <r_epik_Ionization_Penalty>
0.00234324

> <r_epik_Ionization_Penalty_Charging>
0.00233897

> <r_epik_Ionization_Penalty_Neutral>
4.26861e-06

> <r_epik_State_Penalty>
0.00161477

> <r_epik_Charging_Adjusted_Penalty>
0.00395374

> <i_epik_Tot_Q>
1

> <i_epik_Tot_abs_Q>
1

> <r_epik_Metal_State_Penalty>
-0

> <b_epik_Metal_Only>
0

> <s_lp_Force_Field>
OPLS_2005

> <r_lp_Energy>
44.4325

> <b_lp_Chiralities_Consistent>
1

> <s_lp_Variant>
AV-unprocessed.smi:1260-5

> <Gold.Version>
5.8.1

> <Gold.Id.Protein>
6NUR|6NUR_protein|mol2

> <Gold.PLP.Fitness>
38.6477

> <Gold.PLP.PLP>
-28.6274

> <Gold.PLP.part.hbond>
-6.5804

> <Gold.PLP.part.metal>
0.0000

> <Gold.PLP.part.buried>
-3.0381

> <Gold.PLP.part.nonpolar>
-19.0881

> <Gold.PLP.part.repulsive>
0.1242

> <Gold.PLP.ligand.clash>
0.0000

> <Gold.PLP.ligand.torsion>
0.4745

> <Gold.PLP.Chemscore.Hbond>
3.6560

> <Gold.PLP.Chemscore.CHOScore>
0.0000

> <Gold.PLP.Chemscore.Metal>
0.0000

> <Gold.Chemscore.Hbonds>
donor molecule, donor type, donor heavy atom, donor atom, acceptor molecule, acceptor atom, score
      L1  H    13    37       P1  7948  1.95
      P1  H  7997  8008       L1     6  0.70
      P1  H 10752 10764       L1     1  1.00

> <Gold.PLP.Chemscore.Internal.Correction>
0.0013

> <Gold.Rescore>
     Score         DG    S(hbond)    S(metal)    S(lipo)     H(rot)  DE(clash)    DE(int)     intcor
      7.88     -10.93       1.90        0.00      35.67       1.98       0.01       3.04       ----

> <Gold.Chemscore.Fitness>
7.8837

> <Gold.Chemscore.DG>
-10.9341

> <Gold.Chemscore.ZeroCoef>
-5.4800

> <Gold.Chemscore.Hbond>
1.8977

> <Gold.Chemscore.Metal>
0.0000

> <Gold.Chemscore.Lipo>
35.6717

> <Gold.Chemscore.Internal_Hbond>
0.0000

> <Gold.Chemscore.DEClash>
0.0098

> <Gold.Chemscore.DEInternal>
3.0406

> <Gold.Chemscore.Rot>
1.9757

> <Gold.Chemscore.Internal.Correction>
   9.000000E+99

> <Gold.Chemscore.Hbonds>
donor molecule, donor type, donor heavy atom, donor atom, acceptor molecule, acceptor atom, score
      L1  H    13    37       P1  7948  0.30
      P1  H  7997  8008       L1     6  0.11
      P1  H 10752 10764       L1     1  0.91

> <Gold.Chemscore.Hbond.Weighted>
-6.3383

> <Gold.Chemscore.Metal.Weighted>
-0.0000

> <Gold.Chemscore.Lipo.Weighted>
-4.1736

> <Gold.Chemscore.Internal_Hbond.Weighted>
0.0000

> <Gold.Chemscore.DEClash.Weighted>
0.0098

> <Gold.Chemscore.DEInternal.Weighted>
3.0406

> <Gold.Chemscore.Rot.Weighted>
5.0578

> <Gold.Chemscore.Internal.Correction.Weighted>
   9.000000E+99

> <Gold.Protein.RotatedTorsions>
[ 6907 6896 6895 6894 ] final -175.46 input  -60.11 | X-H torsion
[ 7974 7965 7964 7962 ] final -148.26 input  175.53 | X-H torsion
[ 8008 7997 7996 7995 ] final  -13.87 input   59.86 | X-H torsion
[ 10167 10162 10161 10158 ] final -107.96 input  -65.29 | X-H torsion
[ 10718 10713 10712 10709 ] final  -10.42 input   66.30 | X-H torsion
[ 10763 10752 10751 10750 ] final  -47.80 input  -60.55 | X-H torsion
[ 11005 11000 10999 10996 ] final   91.89 input  -57.11 | X-H torsion

> <Gold.Protein.ActiveResidues>
 VAL166  LYS551  ARG553  GLY616  TRP617  ASP618  TYR619  PRO620  LYS621  CYS622 
 ASP623  PHE694  ASN695  SER759  ASP760  ASP761  ALA762  ILE779  LEU786  VAL792 
 PHE793  MET794  SER795  GLU796  ALA797  LYS798  CYS799  TRP800  GLU811  SER814 

> <Gold.Protein.RotatedAtoms>
  151.5890  133.3369  159.3023 H   0  0  0  0  0  0  0  0  0  0  0  0  # atno 6907 bound_to 6896
  150.8271  134.7510  159.6833 H   0  0  0  0  0  0  0  0  0  0  0  0  # atno 6908 bound_to 6896
  152.4359  134.5694  159.9968 H   0  0  0  0  0  0  0  0  0  0  0  0  # atno 6909 bound_to 6896
  144.8040  140.5219  143.5687 H   0  0  0  0  0  0  0  0  0  0  0  0  # atno 7974 bound_to 7965
  154.5256  140.2238  155.8896 H   0  0  0  0  0  0  0  0  0  0  0  0  # atno 8008 bound_to 7997
  156.1710  140.3122  155.8937 H   0  0  0  0  0  0  0  0  0  0  0  0  # atno 8009 bound_to 7997
  155.3559  140.0458  157.3037 H   0  0  0  0  0  0  0  0  0  0  0  0  # atno 8010 bound_to 7997
  140.1713  143.4040  152.1352 H   0  0  0  0  0  0  0  0  0  0  0  0  # atno 10167 bound_to 10162
  156.6737  130.5017  149.5992 H   0  0  0  0  0  0  0  0  0  0  0  0  # atno 10718 bound_to 10713
  154.0673  135.6609  153.4819 H   0  0  0  0  0  0  0  0  0  0  0  0  # atno 10763 bound_to 10752
  153.0404  135.5149  154.7601 H   0  0  0  0  0  0  0  0  0  0  0  0  # atno 10764 bound_to 10752
  154.6656  135.3021  154.9777 H   0  0  0  0  0  0  0  0  0  0  0  0  # atno 10765 bound_to 10752
  139.8831  134.8701  156.3493 H   0  0  0  0  0  0  0  0  0  0  0  0  # atno 11005 bound_to 11000
  145.5483  139.1476  143.3408 LP  0  0  0  0  0  0  0  0  0  0  0  0  # atno 17320 bound_to 7965
  146.2328  140.5621  142.8968 LP  0  0  0  0  0  0  0  0  0  0  0  0  # atno 17321 bound_to 7965
  139.5337  144.7186  151.4968 LP  0  0  0  0  0  0  0  0  0  0  0  0  # atno 17342 bound_to 10162
  140.6580  143.8558  150.6856 LP  0  0  0  0  0  0  0  0  0  0  0  0  # atno 17343 bound_to 10162
  156.1919  130.6565  151.1071 LP  0  0  0  0  0  0  0  0  0  0  0  0  # atno 17370 bound_to 10713
  157.7068  131.0752  150.6639 LP  0  0  0  0  0  0  0  0  0  0  0  0  # atno 17371 bound_to 10713
  140.9605  133.7392  156.0394 LP  0  0  0  0  0  0  0  0  0  0  0  0  # atno 17394 bound_to 11000
  140.7995  134.3525  157.5443 LP  0  0  0  0  0  0  0  0  0  0  0  0  # atno 17395 bound_to 11000

$$$$
