#       Name:                AV-unprocessed.smi:2706
#       Creating user name   scv26
#       Creation time:       Fri Mar 27 14:49:32 2020


#       File generated by GOLD software.
#

@<TRIPOS>MOLECULE
AV-unprocessed.smi:2706
    46    49     1
SMALL
NO_CHARGES


@<TRIPOS>ATOM
      1 ****        -3.8238  -0.0001  -3.3220 C.3            1 S1                 0.0000
      2 ****        -2.7376  -0.0001  -4.2870 N.pl3          1 S1                 0.0000
      3 ****        -3.1050   0.3158  -5.6569 C.3            1 S1                 0.0000
      4 ****        -1.4170  -0.0001  -3.8804 C.2            1 S1                 0.0000
      5 ****        -0.4402  -0.0001  -4.8073 C.2            1 S1                 0.0000
      6 ****         0.9451  -0.0001  -4.3854 C.2            1 S1                 0.0000
      7 ****         1.2743  -0.0001  -3.0775 C.2            1 S1                 0.0000
      8 ****         0.2501  -0.0001  -2.0468 C.2            1 S1                 0.0000
      9 ****         0.5960  -0.0000  -0.7917 N.2            1 S1                 0.0000
     10 ****        -0.3300   0.0001   0.2461 C.2            1 S1                 0.0000
     11 ****        -1.5631   0.0002   0.1836 O.2            1 S1                 0.0000
     12 ****         0.3135  -0.0000   1.4217 N.am           1 S1                 0.0000
     13 ****        -0.2866   0.0001   2.7173 C.3            1 S1                 0.0000
     14 ****         0.3362   0.7635   3.8722 C.3            1 S1                 0.0000
     15 ****         1.7986   1.1024   4.1837 C.3            1 S1                 0.0000
     16 ****         2.7620   0.7722   3.0257 C.3            1 S1                 0.0000
     17 ****         2.7619  -0.7721   3.0259 C.3            1 S1                 0.0000
     18 ****         1.7986  -1.1021   4.1838 C.3            1 S1                 0.0000
     19 ****         2.1658   0.0002   5.1710 C.3            1 S1                 0.0000
     20 ****         0.3361  -0.7633   3.8722 C.3            1 S1                 0.0000
     21 ****        -1.0722  -0.0001  -2.5298 N.pl3          1 S1                 0.0000
     22 ****        -3.5167  -0.4845  -2.3945 H              1 S1                 0.0000
     23 ****        -4.6900  -0.5356  -3.7117 H              1 S1                 0.0000
     24 ****        -4.1241   1.0222  -3.0913 H              1 S1                 0.0000
     25 ****        -2.3008   0.0500  -6.3438 H              1 S1                 0.0000
     26 ****        -3.3029   1.3831  -5.7583 H              1 S1                 0.0000
     27 ****        -3.9991  -0.2320  -5.9558 H              1 S1                 0.0000
     28 ****        -0.6811  -0.0001  -5.8607 H              1 S1                 0.0000
     29 ****         1.7269  -0.0002  -5.1306 H              1 S1                 0.0000
     30 ****         2.3246  -0.0001  -2.8244 H              1 S1                 0.0000
     31 ****         1.3232  -0.0001   1.3980 H              1 S1                 0.0000
     32 ****        -1.3755   0.0001   2.7206 H              1 S1                 0.0000
     33 ****        -0.3679   1.2351   4.5554 H              1 S1                 0.0000
     34 ****         1.9081   2.1147   4.5736 H              1 S1                 0.0000
     35 ****         2.4624   1.2176   2.0781 H              1 S1                 0.0000
     36 ****         3.7625   1.1456   3.2474 H              1 S1                 0.0000
     37 ****         2.4623  -1.2176   2.0783 H              1 S1                 0.0000
     38 ****         3.7625  -1.1456   3.2476 H              1 S1                 0.0000
     39 ****         1.9080  -2.1144   4.5738 H              1 S1                 0.0000
     40 ****         3.2178   0.0002   5.4631 H              1 S1                 0.0000
     41 ****         1.5455   0.0002   6.0693 H              1 S1                 0.0000
     42 ****        -0.3680  -1.2348   4.5555 H              1 S1                 0.0000
     43 ****        -1.8482  -0.0000  -1.8835 H              1 S1                 0.0000
     44 ****         1.5697  -0.0000  -0.5640 LP             1 S1                 0.0000
     45 ****        -2.0186   0.0002  -0.7067 LP             1 S1                 0.0000
     46 ****        -2.1063   0.0003   1.0232 LP             1 S1                 0.0000
@<TRIPOS>BOND
    1    1    2 1     
    2    1   22 1     
    3    1   23 1     
    4    1   24 1     
    5    2    3 1     
    6    2    4 1     
    7    3   25 1     
    8    3   26 1     
    9    3   27 1     
   10    4   21 1     
   11    4    5 2     
   12    5    6 1     
   13    5   28 1     
   14    6    7 2     
   15    6   29 1     
   16    7    8 1     
   17    7   30 1     
   18    8    9 2     
   19    8   21 1     
   20    9   10 1     
   21   10   11 2     
   22   10   12 am    
   23   12   13 1     
   24   12   31 1     
   25   13   20 1     
   26   13   14 1     
   27   13   32 1     
   28   14   20 1     
   29   14   15 1     
   30   14   33 1     
   31   15   19 1     
   32   15   16 1     
   33   15   34 1     
   34   16   17 1     
   35   16   35 1     
   36   16   36 1     
   37   17   18 1     
   38   17   37 1     
   39   17   38 1     
   40   18   19 1     
   41   18   20 1     
   42   18   39 1     
   43   19   40 1     
   44   19   41 1     
   45   20   42 1     
   46   21   43 1     
   47    9   44 1     
   48   11   45 1     
   49   11   46 1     
@<TRIPOS>SUBSTRUCTURE
      1 S1             1
@<TRIPOS>SET
LONE_PAIRS      STATIC     ATOMS    <user>   **** ""
3 44 45 46
DONOR_HYDROGENS      STATIC     ATOMS    <user>   **** ""
2 31 43
ATOM$BLUE        STATIC     ATOMS    COLORGROUP SYSTEM
3 44 45 46
ATOM$RED        STATIC     ATOMS    COLORGROUP SYSTEM
2 31 43
