AV-unprocessed.smi:1639|AV-procd|sdf|6550|dock2
  -GOLD-   22720 7233D 1   1.00000     0.00000
 Structure written by MMmdl.
 38 39  0  0  0  0  0  0  0  0  2 V2000
  151.8717  145.5905  159.5122 C   0  0  0  0  0  0  0  0  0  0  0  0
  151.9812  144.1664  158.9635 C   0  0  0  0  0  0  0  0  0  0  0  0
  152.2181  143.2755  160.0412 O   0  0  0  0  0  0  0  0  0  0  0  0
  153.0550  142.1776  159.7067 C   0  0  2  0  0  0  0  0  0  0  0  0
  152.2449  141.1700  158.8741 C   0  0  0  0  0  0  0  0  0  0  0  0
  153.0729  139.8976  158.6296 C   0  0  0  0  0  0  0  0  0  0  0  0
  153.5804  139.3063  159.9569 C   0  0  0  0  0  0  0  0  0  0  0  0
  154.3045  140.3116  160.7312 N   0  0  0  0  0  0  0  0  0  0  0  0
  154.9360  139.7836  161.8641 C   0  0  0  0  0  0  0  0  0  0  0  0
  154.4819  138.5880  162.4518 C   0  0  0  0  0  0  0  0  0  0  0  0
  155.1825  138.1292  163.5806 C   0  0  0  0  0  0  0  0  0  0  0  0
  154.7905  136.8519  164.2928 C   0  0  0  0  0  0  0  0  0  0  0  0
  156.2380  138.8054  164.0788 N   0  0  0  0  0  0  0  0  0  0  0  0
  156.6196  139.9375  163.4768 C   0  0  0  0  0  0  0  0  0  0  0  0
  157.6960  140.6197  163.9917 N   0  0  0  0  0  0  0  0  0  0  0  0
  156.0028  140.4369  162.3957 N   0  3  0  0  0  0  0  0  0  0  0  0
  153.5448  141.5273  161.0114 C   0  0  0  0  0  0  0  0  0  0  0  0
  151.6884  146.3047  158.7093 H   0  0  0  0  0  0  0  0  0  0  0  0
  152.7909  145.8861  160.0187 H   0  0  0  0  0  0  0  0  0  0  0  0
  151.0529  145.6732  160.2273 H   0  0  0  0  0  0  0  0  0  0  0  0
  151.0602  143.8922  158.4465 H   0  0  0  0  0  0  0  0  0  0  0  0
  152.7985  144.1089  158.2429 H   0  0  0  0  0  0  0  0  0  0  0  0
  153.9244  142.4956  159.1266 H   0  0  0  0  0  0  0  0  0  0  0  0
  151.3253  140.9112  159.4006 H   0  0  0  0  0  0  0  0  0  0  0  0
  151.9474  141.6165  157.9249 H   0  0  0  0  0  0  0  0  0  0  0  0
  152.4752  139.1588  158.0950 H   0  0  0  0  0  0  0  0  0  0  0  0
  153.9224  140.1336  157.9871 H   0  0  0  0  0  0  0  0  0  0  0  0
  152.7379  138.9337  160.5414 H   0  0  0  0  0  0  0  0  0  0  0  0
  154.2323  138.4547  159.7572 H   0  0  0  0  0  0  0  0  0  0  0  0
  153.6368  138.0485  162.0487 H   0  0  0  0  0  0  0  0  0  0  0  0
  153.9325  136.3809  163.8117 H   0  0  0  0  0  0  0  0  0  0  0  0
  154.5271  137.0601  165.3300 H   0  0  0  0  0  0  0  0  0  0  0  0
  155.6176  136.1415  164.2828 H   0  0  0  0  0  0  0  0  0  0  0  0
  158.1819  140.2691  164.8045 H   0  0  0  0  0  0  0  0  0  0  0  0
  158.0104  141.4805  163.5676 H   0  0  0  0  0  0  0  0  0  0  0  0
  154.1671  142.2312  161.5658 H   0  0  0  0  0  0  0  0  0  0  0  0
  152.6909  141.2850  161.6461 H   0  0  0  0  0  0  0  0  0  0  0  0
  156.3246  141.3026  161.9629 H   0  0  0  0  0  0  0  0  0  0  0  0
  1  2  1  0  0  0  0
  1 18  1  0  0  0  0
  1 19  1  0  0  0  0
  1 20  1  0  0  0  0
  2  3  1  0  0  0  0
  2 21  1  0  0  0  0
  2 22  1  0  0  0  0
  3  4  1  0  0  0  0
  4 17  1  0  0  0  0
  4  5  1  0  0  0  0
  4 23  1  0  0  0  0
  5  6  1  0  0  0  0
  5 24  1  0  0  0  0
  5 25  1  0  0  0  0
  6  7  1  0  0  0  0
  6 26  1  0  0  0  0
  6 27  1  0  0  0  0
  7  8  1  0  0  0  0
  7 28  1  0  0  0  0
  7 29  1  0  0  0  0
  8  9  1  0  0  0  0
  8 17  1  0  0  0  0
  9 16  1  0  0  0  0
  9 10  2  0  0  0  0
 10 11  1  0  0  0  0
 10 30  1  0  0  0  0
 11 12  1  0  0  0  0
 11 13  2  0  0  0  0
 12 31  1  0  0  0  0
 12 32  1  0  0  0  0
 12 33  1  0  0  0  0
 13 14  1  0  0  0  0
 14 15  1  0  0  0  0
 14 16  2  0  0  0  0
 15 34  1  0  0  0  0
 15 35  1  0  0  0  0
 16 38  1  0  0  0  0
 17 36  1  0  0  0  0
 17 37  1  0  0  0  0
M  CHG  1  16   1
M  END
> <s_m_source_file>
AV-unprocessed.smi

> <i_m_source_file_index>
1639

> <i_lp_mmshare_version>
43012

> <i_f3d_flags>
0

> <s_epik_input>
W0NIM11bQ0gyXU9bQ0BASF0xW0NIMl1bQ0gyXVtDSDJdTihbQ0gyXTEpYzJbY0hdYyhbQ0gzXSluYyhuMilbTkgyXQ==

> <s_epik_cmdline>
J2VwaWtfcHl0aG9uJywgJy1waCcsICc3LjAnLCAnLXRuJywgJzgnLCAnLW1hJywgJzIwMCcsICctbWV0YWxfYmluZGluZycsICctaW1hZScsICc8aW5maWxlLm1hZT4nLCAnLW9tYWUnLCAnPG91dGZpbGUubWFlPic=

> <r_lp_tautomer_probability>
0.424989

> <r_epik_Ionization_Penalty>
0.443088

> <r_epik_Ionization_Penalty_Charging>
0.443085

> <r_epik_Ionization_Penalty_Neutral>
3.21819e-06

> <r_epik_State_Penalty>
1.26241

> <r_epik_Charging_Adjusted_Penalty>
1.70549

> <i_epik_Tot_Q>
1

> <i_epik_Tot_abs_Q>
1

> <r_epik_Metal_State_Penalty>
1.59997

> <b_epik_Metal_Only>
0

> <s_lp_Force_Field>
OPLS_2005

> <r_lp_Energy>
14.3037

> <b_lp_Chiralities_Consistent>
1

> <s_lp_Variant>
AV-unprocessed.smi:1639-3

> <Gold.Version>
5.8.1

> <Gold.Id.Protein>
6NUR|6NUR_protein|mol2

> <Gold.PLP.Fitness>
32.2047

> <Gold.PLP.PLP>
-33.6927

> <Gold.PLP.part.hbond>
-1.6811

> <Gold.PLP.part.metal>
0.0000

> <Gold.PLP.part.buried>
-3.2493

> <Gold.PLP.part.nonpolar>
-28.2019

> <Gold.PLP.part.repulsive>
0.0093

> <Gold.PLP.ligand.clash>
0.0611

> <Gold.PLP.ligand.torsion>
0.7914

> <Gold.PLP.Chemscore.Hbond>
0.0000

> <Gold.PLP.Chemscore.CHOScore>
0.0000

> <Gold.PLP.Chemscore.Metal>
0.0000

> <Gold.PLP.Chemscore.Internal.Correction>
0.1560

> <Gold.Rescore>
     Score         DG    S(hbond)    S(metal)    S(lipo)     H(rot)  DE(clash)    DE(int)     intcor
     11.65     -12.49       0.00        0.00      91.74       1.46       0.30       0.54       ----

> <Gold.Chemscore.Fitness>
11.6507

> <Gold.Chemscore.DG>
-12.4863

> <Gold.Chemscore.ZeroCoef>
-5.4800

> <Gold.Chemscore.Hbond>
0.0000

> <Gold.Chemscore.Metal>
0.0000

> <Gold.Chemscore.Lipo>
91.7398

> <Gold.Chemscore.Internal_Hbond>
0.0000

> <Gold.Chemscore.DEClash>
0.2968

> <Gold.Chemscore.DEInternal>
0.5388

> <Gold.Chemscore.Rot>
1.4560

> <Gold.Chemscore.Internal.Correction>
   9.000000E+99

> <Gold.Chemscore.Hbond.Weighted>
-0.0000

> <Gold.Chemscore.Metal.Weighted>
-0.0000

> <Gold.Chemscore.Lipo.Weighted>
-10.7336

> <Gold.Chemscore.Internal_Hbond.Weighted>
0.0000

> <Gold.Chemscore.DEClash.Weighted>
0.2968

> <Gold.Chemscore.DEInternal.Weighted>
0.5388

> <Gold.Chemscore.Rot.Weighted>
3.7272

> <Gold.Chemscore.Internal.Correction.Weighted>
   9.000000E+99

> <Gold.Protein.RotatedTorsions>
[ 6907 6896 6895 6894 ] final   -4.97 input  -60.11 | X-H torsion
[ 7974 7965 7964 7962 ] final  153.85 input  175.53 | X-H torsion
[ 8008 7997 7996 7995 ] final -148.34 input   59.86 | X-H torsion
[ 10167 10162 10161 10158 ] final -130.44 input  -65.29 | X-H torsion
[ 10718 10713 10712 10709 ] final -144.28 input   66.30 | X-H torsion
[ 10763 10752 10751 10750 ] final -156.41 input  -60.55 | X-H torsion
[ 11005 11000 10999 10996 ] final  132.01 input  -57.11 | X-H torsion

> <Gold.Protein.ActiveResidues>
 VAL166  LYS551  ARG553  GLY616  TRP617  ASP618  TYR619  PRO620  LYS621  CYS622 
 ASP623  PHE694  ASN695  SER759  ASP760  ASP761  ALA762  ILE779  LEU786  VAL792 
 PHE793  MET794  SER795  GLU796  ALA797  LYS798  CYS799  TRP800  GLU811  SER814 

> <Gold.Protein.RotatedAtoms>
  151.4890  135.1056  159.9798 H   0  0  0  0  0  0  0  0  0  0  0  0  # atno 6907 bound_to 6896
  152.4748  133.8110  159.7014 H   0  0  0  0  0  0  0  0  0  0  0  0  # atno 6908 bound_to 6896
  150.8780  133.7350  159.2967 H   0  0  0  0  0  0  0  0  0  0  0  0  # atno 6909 bound_to 6896
  144.8127  139.6856  143.6134 H   0  0  0  0  0  0  0  0  0  0  0  0  # atno 7974 bound_to 7965
  155.5900  140.0651  157.2761 H   0  0  0  0  0  0  0  0  0  0  0  0  # atno 8008 bound_to 7997
  154.4308  140.1837  156.1112 H   0  0  0  0  0  0  0  0  0  0  0  0  # atno 8009 bound_to 7997
  156.0239  140.3314  155.7072 H   0  0  0  0  0  0  0  0  0  0  0  0  # atno 8010 bound_to 7997
  139.9293  143.6290  152.2534 H   0  0  0  0  0  0  0  0  0  0  0  0  # atno 10167 bound_to 10162
  156.3682  130.7774  151.1951 H   0  0  0  0  0  0  0  0  0  0  0  0  # atno 10718 bound_to 10713
  154.7714  135.3146  154.8181 H   0  0  0  0  0  0  0  0  0  0  0  0  # atno 10763 bound_to 10752
  153.8915  135.6825  153.4764 H   0  0  0  0  0  0  0  0  0  0  0  0  # atno 10764 bound_to 10752
  153.1329  135.4772  154.9312 H   0  0  0  0  0  0  0  0  0  0  0  0  # atno 10765 bound_to 10752
  139.9765  134.9562  156.9521 H   0  0  0  0  0  0  0  0  0  0  0  0  # atno 11005 bound_to 11000
  146.2427  139.6034  142.9480 LP  0  0  0  0  0  0  0  0  0  0  0  0  # atno 17320 bound_to 7965
  145.5286  141.0428  143.2395 LP  0  0  0  0  0  0  0  0  0  0  0  0  # atno 17321 bound_to 7965
  139.6795  144.7656  151.1634 LP  0  0  0  0  0  0  0  0  0  0  0  0  # atno 17342 bound_to 10162
  140.7641  143.5745  150.8960 LP  0  0  0  0  0  0  0  0  0  0  0  0  # atno 17343 bound_to 10162
  157.7481  131.0380  150.4483 LP  0  0  0  0  0  0  0  0  0  0  0  0  # atno 17370 bound_to 10713
  156.4705  130.4051  149.6521 LP  0  0  0  0  0  0  0  0  0  0  0  0  # atno 17371 bound_to 10713
  140.5185  134.0931  155.7286 LP  0  0  0  0  0  0  0  0  0  0  0  0  # atno 17394 bound_to 11000
  141.1441  133.9086  157.2257 LP  0  0  0  0  0  0  0  0  0  0  0  0  # atno 17395 bound_to 11000

$$$$
