AV-unprocessed.smi:2183|AV-procd|sdf|8866|dock1
  -GOLD-   2272012 63D 1   1.00000     0.00000
 Structure written by MMmdl.
 40 42  0  0  0  0  0  0  0  0  1 V2000
  151.3297  136.9398  154.1893 O   0  0  0  0  0  0  0  0  0  0  0  0
  151.9710  138.1822  153.9810 C   0  0  0  0  0  0  0  0  0  0  0  0
  151.7746  139.1676  155.0987 C   0  0  0  0  0  0  0  0  0  0  0  0
  151.0472  140.2803  154.9706 N   0  0  0  0  0  0  0  0  0  0  0  0
  151.1380  140.8527  156.2237 C   0  0  0  0  0  0  0  0  0  0  0  0
  150.5807  142.0491  156.7295 C   0  0  0  0  0  0  0  0  0  0  0  0
  150.8116  142.4350  158.0661 C   0  0  0  0  0  0  0  0  0  0  0  0
  151.6024  141.6326  158.9138 C   0  0  0  0  0  0  0  0  0  0  0  0
  152.1677  140.4370  158.4295 C   0  0  0  0  0  0  0  0  0  0  0  0
  151.9330  140.0555  157.0946 C   0  0  0  0  0  0  0  0  0  0  0  0
  152.3292  138.9683  156.3210 N   0  0  0  0  0  0  0  0  0  0  0  0
  153.1626  137.8554  156.7572 C   0  0  0  0  0  0  0  0  0  0  0  0
  153.0392  137.5694  158.2683 C   0  0  1  0  0  0  0  0  0  0  0  0
  151.8300  136.8880  158.5377 O   0  0  0  0  0  0  0  0  0  0  0  0
  154.2023  136.7211  158.8027 C   0  0  0  0  0  0  0  0  0  0  0  0
  153.9149  136.3304  160.1390 O   0  0  0  0  0  0  0  0  0  0  0  0
  154.4958  137.0424  161.1664 C   0  0  0  0  0  0  0  0  0  0  0  0
  154.4789  136.4486  162.4456 C   0  0  0  0  0  0  0  0  0  0  0  0
  155.0519  137.1036  163.5525 C   0  0  0  0  0  0  0  0  0  0  0  0
  155.6518  138.3662  163.3896 C   0  0  0  0  0  0  0  0  0  0  0  0
  156.3580  139.1699  164.7432 Cl  0  0  0  0  0  0  0  0  0  0  0  0
  155.6746  138.9712  162.1192 C   0  0  0  0  0  0  0  0  0  0  0  0
  155.1005  138.3159  161.0124 C   0  0  0  0  0  0  0  0  0  0  0  0
  150.8680  136.7035  153.3997 H   0  0  0  0  0  0  0  0  0  0  0  0
  153.0380  138.0019  153.8493 H   0  0  0  0  0  0  0  0  0  0  0  0
  151.5937  138.6086  153.0521 H   0  0  0  0  0  0  0  0  0  0  0  0
  149.9743  142.6708  156.0876 H   0  0  0  0  0  0  0  0  0  0  0  0
  150.3805  143.3514  158.4424 H   0  0  0  0  0  0  0  0  0  0  0  0
  151.7753  141.9357  159.9360 H   0  0  0  0  0  0  0  0  0  0  0  0
  152.7748  139.8219  159.0763 H   0  0  0  0  0  0  0  0  0  0  0  0
  152.8867  136.9710  156.1819 H   0  0  0  0  0  0  0  0  0  0  0  0
  154.1986  138.0691  156.4936 H   0  0  0  0  0  0  0  0  0  0  0  0
  153.0088  138.5089  158.8200 H   0  0  0  0  0  0  0  0  0  0  0  0
  151.1238  137.5157  158.5384 H   0  0  0  0  0  0  0  0  0  0  0  0
  154.3180  135.8307  158.1821 H   0  0  0  0  0  0  0  0  0  0  0  0
  155.1333  137.2892  158.7579 H   0  0  0  0  0  0  0  0  0  0  0  0
  154.0216  135.4792  162.5800 H   0  0  0  0  0  0  0  0  0  0  0  0
  155.0314  136.6354  164.5256 H   0  0  0  0  0  0  0  0  0  0  0  0
  156.1343  139.9402  161.9905 H   0  0  0  0  0  0  0  0  0  0  0  0
  155.1397  138.8120  160.0547 H   0  0  0  0  0  0  0  0  0  0  0  0
  1  2  1  0  0  0  0
  1 24  1  0  0  0  0
  2  3  1  0  0  0  0
  2 25  1  0  0  0  0
  2 26  1  0  0  0  0
  3 11  1  0  0  0  0
  3  4  2  0  0  0  0
  4  5  1  0  0  0  0
  5 10  2  0  0  0  0
  5  6  1  0  0  0  0
  6  7  2  0  0  0  0
  6 27  1  0  0  0  0
  7  8  1  0  0  0  0
  7 28  1  0  0  0  0
  8  9  2  0  0  0  0
  8 29  1  0  0  0  0
  9 10  1  0  0  0  0
  9 30  1  0  0  0  0
 10 11  1  0  0  0  0
 11 12  1  0  0  0  0
 12 13  1  0  0  0  0
 12 31  1  0  0  0  0
 12 32  1  0  0  0  0
 13 14  1  0  0  0  0
 13 15  1  0  0  0  0
 13 33  1  0  0  0  0
 14 34  1  0  0  0  0
 15 16  1  0  0  0  0
 15 35  1  0  0  0  0
 15 36  1  0  0  0  0
 16 17  1  0  0  0  0
 17 23  1  0  0  0  0
 17 18  2  0  0  0  0
 18 19  1  0  0  0  0
 18 37  1  0  0  0  0
 19 20  2  0  0  0  0
 19 38  1  0  0  0  0
 20 21  1  0  0  0  0
 20 22  1  0  0  0  0
 22 23  2  0  0  0  0
 22 39  1  0  0  0  0
 23 40  1  0  0  0  0
M  END
> <s_m_source_file>
AV-unprocessed.smi

> <i_m_source_file_index>
2183

> <i_lp_mmshare_version>
43012

> <i_f3d_flags>
0

> <s_epik_input>
W2NIXTFbY0hdW2NIXVtjSF1jKGMxMiluKGMobjIpW0NIMl1bT0hdKVtDSDJdW0NASF0oW09IXSlbQ0gyXU9jM1tjSF1bY0hdYyhDbClbY0hdW2NIXTM=

> <s_epik_cmdline>
J2VwaWtfcHl0aG9uJywgJy1waCcsICc3LjAnLCAnLXRuJywgJzgnLCAnLW1hJywgJzIwMCcsICctbWV0YWxfYmluZGluZycsICctaW1hZScsICc8aW5maWxlLm1hZT4nLCAnLW9tYWUnLCAnPG91dGZpbGUubWFlPic=

> <r_lp_tautomer_probability>
1

> <r_epik_Ionization_Penalty>
0.0586933

> <r_epik_Ionization_Penalty_Charging>
0

> <r_epik_Ionization_Penalty_Neutral>
0.0586933

> <r_epik_State_Penalty>
0.0507031

> <r_epik_Charging_Adjusted_Penalty>
0.0507031

> <i_epik_Tot_Q>
0

> <i_epik_Tot_abs_Q>
0

> <r_epik_Metal_State_Penalty>
5.29335e-05

> <b_epik_Metal_Only>
0

> <s_lp_Force_Field>
OPLS_2005

> <r_lp_Energy>
14.4391

> <b_lp_Chiralities_Consistent>
1

> <s_lp_Variant>
AV-unprocessed.smi:2183-2

> <Gold.Version>
5.8.1

> <Gold.Id.Protein>
6NUR|6NUR_protein|mol2

> <Gold.PLP.Fitness>
53.5628

> <Gold.PLP.PLP>
-43.5968

> <Gold.PLP.part.hbond>
-4.9994

> <Gold.PLP.part.metal>
0.0000

> <Gold.PLP.part.buried>
-6.4795

> <Gold.PLP.part.nonpolar>
-31.8825

> <Gold.PLP.part.repulsive>
0.0554

> <Gold.PLP.ligand.clash>
0.0000

> <Gold.PLP.ligand.torsion>
1.1119

> <Gold.PLP.Chemscore.Hbond>
3.9913

> <Gold.PLP.Chemscore.CHOScore>
0.0000

> <Gold.PLP.Chemscore.Metal>
0.0000

> <Gold.Chemscore.Hbonds>
donor molecule, donor type, donor heavy atom, donor atom, acceptor molecule, acceptor atom, score
      L1  H     1    24       P1  7949  0.67
      P1  H  6896  6907       L1    16  0.57
      P1  H  7989  7998       L1     4  1.00
      P1  H 10752 10765       L1     1  0.94

> <Gold.PLP.Chemscore.Internal.Correction>
0.2161

> <Gold.Rescore>
     Score         DG    S(hbond)    S(metal)    S(lipo)     H(rot)  DE(clash)    DE(int)     intcor
     16.59     -20.40       3.13        0.00     104.66       3.04       1.74       2.07       ----

> <Gold.Chemscore.Fitness>
16.5883

> <Gold.Chemscore.DG>
-20.4024

> <Gold.Chemscore.ZeroCoef>
-5.4800

> <Gold.Chemscore.Hbond>
3.1285

> <Gold.Chemscore.Metal>
0.0000

> <Gold.Chemscore.Lipo>
104.6557

> <Gold.Chemscore.Internal_Hbond>
0.0000

> <Gold.Chemscore.DEClash>
1.7411

> <Gold.Chemscore.DEInternal>
2.0730

> <Gold.Chemscore.Rot>
3.0358

> <Gold.Chemscore.Internal.Correction>
   9.000000E+99

> <Gold.Chemscore.Hbonds>
donor molecule, donor type, donor heavy atom, donor atom, acceptor molecule, acceptor atom, score
      L1  H     1    24       P1  7949  0.11
      P1  H  6896  6907       L1    16  0.35
      P1  H  7989  7998       L1     4  0.30
      P1  H 10752 10765       L1     1  0.13

> <Gold.Chemscore.Hbond.Weighted>
-10.4492

> <Gold.Chemscore.Metal.Weighted>
-0.0000

> <Gold.Chemscore.Lipo.Weighted>
-12.2447

> <Gold.Chemscore.Internal_Hbond.Weighted>
0.0000

> <Gold.Chemscore.DEClash.Weighted>
1.7411

> <Gold.Chemscore.DEInternal.Weighted>
2.0730

> <Gold.Chemscore.Rot.Weighted>
7.7716

> <Gold.Chemscore.Internal.Correction.Weighted>
   9.000000E+99

> <Gold.Protein.RotatedTorsions>
[ 6907 6896 6895 6894 ] final   38.70 input  -60.11 | X-H torsion
[ 7974 7965 7964 7962 ] final  -73.22 input  175.53 | X-H torsion
[ 8008 7997 7996 7995 ] final   -7.83 input   59.86 | X-H torsion
[ 10167 10162 10161 10158 ] final -127.67 input  -65.29 | X-H torsion
[ 10718 10713 10712 10709 ] final  156.55 input   66.30 | X-H torsion
[ 10763 10752 10751 10750 ] final  160.38 input  -60.55 | X-H torsion
[ 11005 11000 10999 10996 ] final   26.35 input  -57.11 | X-H torsion

> <Gold.Protein.ActiveResidues>
 VAL166  LYS551  ARG553  GLY616  TRP617  ASP618  TYR619  PRO620  LYS621  CYS622 
 ASP623  PHE694  ASN695  SER759  ASP760  ASP761  ALA762  ILE779  LEU786  VAL792 
 PHE793  MET794  SER795  GLU796  ALA797  LYS798  CYS799  TRP800  GLU811  SER814 

> <Gold.Protein.RotatedAtoms>
  152.1599  134.8921  160.0542 H   0  0  0  0  0  0  0  0  0  0  0  0  # atno 6907 bound_to 6896
  151.9921  133.3789  159.4156 H   0  0  0  0  0  0  0  0  0  0  0  0  # atno 6908 bound_to 6896
  150.6886  134.3848  159.5094 H   0  0  0  0  0  0  0  0  0  0  0  0  # atno 6909 bound_to 6896
  145.6550  140.9270  143.0964 H   0  0  0  0  0  0  0  0  0  0  0  0  # atno 7974 bound_to 7965
  154.5800  140.2397  155.8067 H   0  0  0  0  0  0  0  0  0  0  0  0  # atno 8008 bound_to 7997
  156.2172  140.3008  155.9824 H   0  0  0  0  0  0  0  0  0  0  0  0  # atno 8009 bound_to 7997
  155.2558  140.0412  157.2982 H   0  0  0  0  0  0  0  0  0  0  0  0  # atno 8010 bound_to 7997
  139.9584  143.5978  152.2453 H   0  0  0  0  0  0  0  0  0  0  0  0  # atno 10167 bound_to 10162
  157.2035  131.0681  151.2011 H   0  0  0  0  0  0  0  0  0  0  0  0  # atno 10718 bound_to 10713
  154.2465  135.2773  155.2833 H   0  0  0  0  0  0  0  0  0  0  0  0  # atno 10763 bound_to 10752
  154.5501  135.5677  153.6918 H   0  0  0  0  0  0  0  0  0  0  0  0  # atno 10764 bound_to 10752
  152.9989  135.6272  154.2610 H   0  0  0  0  0  0  0  0  0  0  0  0  # atno 10765 bound_to 10752
  140.3380  134.2364  155.7693 H   0  0  0  0  0  0  0  0  0  0  0  0  # atno 11005 bound_to 11000
  144.7109  139.8376  143.7415 LP  0  0  0  0  0  0  0  0  0  0  0  0  # atno 17320 bound_to 7965
  146.1172  139.4185  143.0251 LP  0  0  0  0  0  0  0  0  0  0  0  0  # atno 17321 bound_to 7965
  139.6573  144.7662  151.2030 LP  0  0  0  0  0  0  0  0  0  0  0  0  # atno 17342 bound_to 10162
  140.7561  143.6065  150.8648 LP  0  0  0  0  0  0  0  0  0  0  0  0  # atno 17343 bound_to 10162
  157.3744  130.7198  149.6587 LP  0  0  0  0  0  0  0  0  0  0  0  0  # atno 17370 bound_to 10713
  155.9698  130.4190  150.4353 LP  0  0  0  0  0  0  0  0  0  0  0  0  # atno 17371 bound_to 10713
  141.2046  133.7882  157.0278 LP  0  0  0  0  0  0  0  0  0  0  0  0  # atno 17394 bound_to 11000
  140.0805  134.9651  157.1616 LP  0  0  0  0  0  0  0  0  0  0  0  0  # atno 17395 bound_to 11000

$$$$
