AV-unprocessed.smi:1891|AV-procd|sdf|7668|dock6
  -GOLD-   22720 9403D 1   1.00000     0.00000
 Structure written by MMmdl.
 37 39  0  0  0  0  0  0  0  0  2 V2000
  151.6010  136.7091  154.1106 O   0  0  0  0  0  0  0  0  0  0  0  0
  151.8425  138.0240  154.5585 C   0  0  0  0  0  0  0  0  0  0  0  0
  150.6478  138.9060  154.4001 C   0  0  0  0  0  0  0  0  0  0  0  0
  149.5797  138.6554  153.5911 N   0  3  0  0  0  0  0  0  0  0  0  0
  148.6491  139.6892  153.7013 C   0  0  0  0  0  0  0  0  0  0  0  0
  147.4188  139.8792  153.0795 C   0  0  0  0  0  0  0  0  0  0  0  0
  146.7132  141.0527  153.4181 C   0  0  0  0  0  0  0  0  0  0  0  0
  147.2342  141.9824  154.3416 C   0  0  0  0  0  0  0  0  0  0  0  0
  148.4824  141.7784  154.9662 C   0  0  0  0  0  0  0  0  0  0  0  0
  149.1733  140.6158  154.6251 C   0  0  0  0  0  0  0  0  0  0  0  0
  150.4051  140.0917  155.0325 N   0  0  0  0  0  0  0  0  0  0  0  0
  151.2058  140.8395  156.0149 C   0  0  0  0  0  0  0  0  0  0  0  0
  150.5759  140.8534  157.4220 C   0  0  1  0  0  0  0  0  0  0  0  0
  150.9569  139.6874  158.1275 O   0  0  0  0  0  0  0  0  0  0  0  0
  150.9333  142.1312  158.1689 C   0  0  0  0  0  0  0  0  0  0  0  0
  150.0435  143.2291  158.1768 C   0  0  0  0  0  0  0  0  0  0  0  0
  150.3713  144.4063  158.8765 C   0  0  0  0  0  0  0  0  0  0  0  0
  151.5895  144.4937  159.5763 C   0  0  0  0  0  0  0  0  0  0  0  0
  151.9050  145.6257  160.2491 F   0  0  0  0  0  0  0  0  0  0  0  0
  152.4777  143.4015  159.5790 C   0  0  0  0  0  0  0  0  0  0  0  0
  152.1511  142.2223  158.8809 C   0  0  0  0  0  0  0  0  0  0  0  0
  153.0122  141.1763  158.9034 F   0  0  0  0  0  0  0  0  0  0  0  0
  151.6149  136.7081  153.1647 H   0  0  0  0  0  0  0  0  0  0  0  0
  152.1523  137.9999  155.6030 H   0  0  0  0  0  0  0  0  0  0  0  0
  152.6751  138.4400  153.9907 H   0  0  0  0  0  0  0  0  0  0  0  0
  147.0175  139.1685  152.3718 H   0  0  0  0  0  0  0  0  0  0  0  0
  145.7531  141.2437  152.9607 H   0  0  0  0  0  0  0  0  0  0  0  0
  146.6651  142.8703  154.5763 H   0  0  0  0  0  0  0  0  0  0  0  0
  148.8720  142.4960  155.6731 H   0  0  0  0  0  0  0  0  0  0  0  0
  152.2007  140.3957  156.0496 H   0  0  0  0  0  0  0  0  0  0  0  0
  151.3409  141.8555  155.6412 H   0  0  0  0  0  0  0  0  0  0  0  0
  149.4912  140.8036  157.3267 H   0  0  0  0  0  0  0  0  0  0  0  0
  150.3129  139.0152  157.9642 H   0  0  0  0  0  0  0  0  0  0  0  0
  149.1027  143.1727  157.6489 H   0  0  0  0  0  0  0  0  0  0  0  0
  149.6867  145.2417  158.8772 H   0  0  0  0  0  0  0  0  0  0  0  0
  153.4103  143.4671  160.1197 H   0  0  0  0  0  0  0  0  0  0  0  0
  149.4963  137.8320  153.0089 H   0  0  0  0  0  0  0  0  0  0  0  0
  1  2  1  0  0  0  0
  1 23  1  0  0  0  0
  2  3  1  0  0  0  0
  2 24  1  0  0  0  0
  2 25  1  0  0  0  0
  3 11  1  0  0  0  0
  3  4  2  0  0  0  0
  4  5  1  0  0  0  0
  4 37  1  0  0  0  0
  5 10  2  0  0  0  0
  5  6  1  0  0  0  0
  6  7  2  0  0  0  0
  6 26  1  0  0  0  0
  7  8  1  0  0  0  0
  7 27  1  0  0  0  0
  8  9  2  0  0  0  0
  8 28  1  0  0  0  0
  9 10  1  0  0  0  0
  9 29  1  0  0  0  0
 10 11  1  0  0  0  0
 11 12  1  0  0  0  0
 12 13  1  0  0  0  0
 12 30  1  0  0  0  0
 12 31  1  0  0  0  0
 13 14  1  0  0  0  0
 13 15  1  0  0  0  0
 13 32  1  0  0  0  0
 14 33  1  0  0  0  0
 15 21  1  0  0  0  0
 15 16  2  0  0  0  0
 16 17  1  0  0  0  0
 16 34  1  0  0  0  0
 17 18  2  0  0  0  0
 17 35  1  0  0  0  0
 18 19  1  0  0  0  0
 18 20  1  0  0  0  0
 20 21  2  0  0  0  0
 20 36  1  0  0  0  0
 21 22  1  0  0  0  0
M  CHG  1   4   1
M  END
> <s_m_source_file>
AV-unprocessed.smi

> <i_m_source_file_index>
1891

> <i_lp_mmshare_version>
43012

> <i_f3d_flags>
0

> <s_epik_input>
W2NIXTFbY0hdW2NIXVtjSF1jKGMxMiluKGMobjIpW0NIMl1bT0hdKVtDSDJdW0NASF0oW09IXSljM1tjSF1bY0hdYyhGKVtjSF1jM0Y=

> <s_epik_cmdline>
J2VwaWtfcHl0aG9uJywgJy1waCcsICc3LjAnLCAnLXRuJywgJzgnLCAnLW1hJywgJzIwMCcsICctbWV0YWxfYmluZGluZycsICctaW1hZScsICc8aW5maWxlLm1hZT4nLCAnLW9tYWUnLCAnPG91dGZpbGUubWFlPic=

> <r_epik_Ionization_Penalty>
1.35643

> <r_epik_Ionization_Penalty_Charging>
1.35557

> <r_epik_Ionization_Penalty_Neutral>
0.00085758

> <r_epik_State_Penalty>
1.43401

> <r_epik_Charging_Adjusted_Penalty>
2.78958

> <i_epik_Tot_Q>
1

> <i_epik_Tot_abs_Q>
1

> <r_epik_Metal_State_Penalty>
5.47166

> <b_epik_Metal_Only>
0

> <s_lp_Force_Field>
OPLS_2005

> <r_lp_Energy>
14.1785

> <b_lp_Chiralities_Consistent>
1

> <s_lp_Variant>
AV-unprocessed.smi:1891-4

> <Gold.Version>
5.8.1

> <Gold.Id.Protein>
6NUR|6NUR_protein|mol2

> <Gold.PLP.Fitness>
60.0967

> <Gold.PLP.PLP>
-50.6763

> <Gold.PLP.part.hbond>
-4.0000

> <Gold.PLP.part.metal>
0.0000

> <Gold.PLP.part.buried>
0.9372

> <Gold.PLP.part.nonpolar>
-47.9884

> <Gold.PLP.part.repulsive>
0.0780

> <Gold.PLP.ligand.clash>
0.0000

> <Gold.PLP.ligand.torsion>
1.3016

> <Gold.PLP.Chemscore.Hbond>
4.0000

> <Gold.PLP.Chemscore.CHOScore>
0.0000

> <Gold.PLP.Chemscore.Metal>
0.0000

> <Gold.Chemscore.Hbonds>
donor molecule, donor type, donor heavy atom, donor atom, acceptor molecule, acceptor atom, score
      L1  H     1    23       P1  7949  1.00
      L1  H     4    37       P1  7948  2.00
      P1  H 10752 10764       L1     1  1.00

> <Gold.PLP.Chemscore.Internal.Correction>
0.0237

> <Gold.Rescore>
     Score         DG    S(hbond)    S(metal)    S(lipo)     H(rot)  DE(clash)    DE(int)     intcor
     16.52     -19.71       2.47        0.00     115.70       2.95       0.31       2.87       ----

> <Gold.Chemscore.Fitness>
16.5208

> <Gold.Chemscore.DG>
-19.7054

> <Gold.Chemscore.ZeroCoef>
-5.4800

> <Gold.Chemscore.Hbond>
2.4652

> <Gold.Chemscore.Metal>
0.0000

> <Gold.Chemscore.Lipo>
115.7041

> <Gold.Chemscore.Internal_Hbond>
0.0000

> <Gold.Chemscore.DEClash>
0.3102

> <Gold.Chemscore.DEInternal>
2.8744

> <Gold.Chemscore.Rot>
2.9475

> <Gold.Chemscore.Internal.Correction>
   9.000000E+99

> <Gold.Chemscore.Hbonds>
donor molecule, donor type, donor heavy atom, donor atom, acceptor molecule, acceptor atom, score
      L1  H     1    23       P1  7949  0.93
      L1  H     4    37       P1  7948  0.82
      P1  H 10752 10764       L1     1  0.25

> <Gold.Chemscore.Hbond.Weighted>
-8.2337

> <Gold.Chemscore.Metal.Weighted>
-0.0000

> <Gold.Chemscore.Lipo.Weighted>
-13.5374

> <Gold.Chemscore.Internal_Hbond.Weighted>
0.0000

> <Gold.Chemscore.DEClash.Weighted>
0.3102

> <Gold.Chemscore.DEInternal.Weighted>
2.8744

> <Gold.Chemscore.Rot.Weighted>
7.5457

> <Gold.Chemscore.Internal.Correction.Weighted>
   9.000000E+99

> <Gold.Protein.RotatedTorsions>
[ 6907 6896 6895 6894 ] final  -76.10 input  -60.11 | X-H torsion
[ 7974 7965 7964 7962 ] final   70.32 input  175.53 | X-H torsion
[ 8008 7997 7996 7995 ] final  -58.32 input   59.86 | X-H torsion
[ 10167 10162 10161 10158 ] final  -77.75 input  -65.29 | X-H torsion
[ 10718 10713 10712 10709 ] final  156.56 input   66.30 | X-H torsion
[ 10763 10752 10751 10750 ] final  -65.03 input  -60.55 | X-H torsion
[ 11005 11000 10999 10996 ] final   36.86 input  -57.11 | X-H torsion

> <Gold.Protein.ActiveResidues>
 VAL166  LYS551  ARG553  GLY616  TRP617  ASP618  TYR619  PRO620  LYS621  CYS622 
 ASP623  PHE694  ASN695  SER759  ASP760  ASP761  ALA762  ILE779  LEU786  VAL792 
 PHE793  MET794  SER795  GLU796  ALA797  LYS798  CYS799  TRP800  GLU811  SER814 

> <Gold.Protein.RotatedAtoms>
  150.7038  134.4622  159.5385 H   0  0  0  0  0  0  0  0  0  0  0  0  # atno 6907 bound_to 6896
  152.2294  134.8333  160.0484 H   0  0  0  0  0  0  0  0  0  0  0  0  # atno 6908 bound_to 6896
  151.9155  133.3537  159.3915 H   0  0  0  0  0  0  0  0  0  0  0  0  # atno 6909 bound_to 6896
  145.7796  139.2881  143.1274 H   0  0  0  0  0  0  0  0  0  0  0  0  # atno 7974 bound_to 7965
  154.4304  140.1086  156.5939 H   0  0  0  0  0  0  0  0  0  0  0  0  # atno 8008 bound_to 7997
  155.5983  140.3493  155.4567 H   0  0  0  0  0  0  0  0  0  0  0  0  # atno 8009 bound_to 7997
  156.0193  140.1236  157.0363 H   0  0  0  0  0  0  0  0  0  0  0  0  # atno 8010 bound_to 7997
  140.4742  143.2418  151.8158 H   0  0  0  0  0  0  0  0  0  0  0  0  # atno 10167 bound_to 10162
  157.2033  131.0681  151.2013 H   0  0  0  0  0  0  0  0  0  0  0  0  # atno 10718 bound_to 10713
  154.3389  135.6161  153.5587 H   0  0  0  0  0  0  0  0  0  0  0  0  # atno 10763 bound_to 10752
  152.9805  135.5765  154.4876 H   0  0  0  0  0  0  0  0  0  0  0  0  # atno 10764 bound_to 10752
  154.4576  135.2855  155.1713 H   0  0  0  0  0  0  0  0  0  0  0  0  # atno 10765 bound_to 10752
  140.2283  134.3558  155.7975 H   0  0  0  0  0  0  0  0  0  0  0  0  # atno 11005 bound_to 11000
  146.0088  140.8454  142.9981 LP  0  0  0  0  0  0  0  0  0  0  0  0  # atno 17320 bound_to 7965
  144.6799  140.2459  143.7338 LP  0  0  0  0  0  0  0  0  0  0  0  0  # atno 17321 bound_to 7965
  139.4823  144.4853  151.9254 LP  0  0  0  0  0  0  0  0  0  0  0  0  # atno 17342 bound_to 10162
  140.3939  144.2581  150.5897 LP  0  0  0  0  0  0  0  0  0  0  0  0  # atno 17343 bound_to 10162
  157.3746  130.7199  149.6588 LP  0  0  0  0  0  0  0  0  0  0  0  0  # atno 17370 bound_to 10713
  155.9698  130.4189  150.4351 LP  0  0  0  0  0  0  0  0  0  0  0  0  # atno 17371 bound_to 10713
  141.2219  133.7231  156.8689 LP  0  0  0  0  0  0  0  0  0  0  0  0  # atno 17394 bound_to 11000
  140.1777  134.9055  157.2911 LP  0  0  0  0  0  0  0  0  0  0  0  0  # atno 17395 bound_to 11000

$$$$
