AV-unprocessed.smi:36|AV-procd|sdf|291|dock3
  -GOLD-   2262016 83D 1   1.00000     0.00000
 Structure written by MMmdl.
 64 67  0  0  0  0  0  0  0  0  1 V2000
  152.4438  131.1877  163.1927 C   0  0  0  0  0  0  0  0  0  0  0  0
  153.4213  131.2076  164.3797 C   0  0  0  0  0  0  0  0  0  0  0  0
  153.2605  132.5240  165.1596 C   0  0  0  0  0  0  0  0  0  0  0  0
  153.1445  130.0117  165.3061 C   0  0  0  0  0  0  0  0  0  0  0  0
  155.2096  131.0973  163.7182 Si  0  0  0  0  0  0  0  0  0  0  0  0
  156.4680  131.3867  165.1145 C   0  0  0  0  0  0  0  0  0  0  0  0
  155.5414  129.4150  162.9012 C   0  0  0  0  0  0  0  0  0  0  0  0
  155.3955  132.2960  162.5364 O   0  0  0  0  0  0  0  0  0  0  0  0
  154.7246  132.2995  161.2924 C   0  0  0  0  0  0  0  0  0  0  0  0
  155.3125  133.4102  160.4079 C   0  0  2  0  0  0  0  0  0  0  0  0
  154.4848  133.6591  159.2787 O   0  0  0  0  0  0  0  0  0  0  0  0
  155.2293  134.2812  158.2745 C   0  0  1  0  0  0  0  0  0  0  0  0
  154.8846  135.7377  158.2483 N   0  0  0  0  0  0  0  0  0  0  0  0
  155.6024  136.7764  158.7213 C   0  0  0  0  0  0  0  0  0  0  0  0
  155.0455  137.9744  158.5591 N   0  0  0  0  0  0  0  0  0  0  0  0
  153.8481  137.6698  157.9201 C   0  0  0  0  0  0  0  0  0  0  0  0
  152.7546  138.5533  157.4594 C   0  0  0  0  0  0  0  0  0  0  0  0
  152.8890  139.8309  157.6506 N   0  0  0  0  0  0  0  0  0  0  0  0
  151.8836  140.7050  157.2562 C   0  0  0  0  0  0  0  0  0  0  0  0
  151.0802  140.5876  156.3266 O   0  0  0  0  0  0  0  0  0  0  0  0
  151.8604  141.9758  158.0438 C   0  0  0  0  0  0  0  0  0  0  0  0
  152.8609  142.2358  159.0050 C   0  0  0  0  0  0  0  0  0  0  0  0
  152.8370  143.4351  159.7433 C   0  0  0  0  0  0  0  0  0  0  0  0
  151.8134  144.3774  159.5248 C   0  0  0  0  0  0  0  0  0  0  0  0
  150.8133  144.1211  158.5670 C   0  0  0  0  0  0  0  0  0  0  0  0
  150.8370  142.9230  157.8265 C   0  0  0  0  0  0  0  0  0  0  0  0
  151.7387  137.7864  156.8739 N   0  0  0  0  0  0  0  0  0  0  0  0
  151.7407  136.3905  156.7277 C   0  0  0  0  0  0  0  0  0  0  0  0
  152.7001  135.5988  157.1269 N   0  0  0  0  0  0  0  0  0  0  0  0
  153.7317  136.3109  157.7225 C   0  0  0  0  0  0  0  0  0  0  0  0
  156.7156  134.0990  158.6200 C   0  0  0  0  0  0  0  0  0  0  0  0
  156.6802  133.1215  159.7817 C   0  0  2  0  0  0  0  0  0  0  0  0
  156.7812  131.7873  159.3204 O   0  0  0  0  0  0  0  0  0  0  0  0
  151.4100  131.2718  163.5291 H   0  0  0  0  0  0  0  0  0  0  0  0
  152.5286  130.2627  162.6221 H   0  0  0  0  0  0  0  0  0  0  0  0
  152.6355  132.0148  162.5083 H   0  0  0  0  0  0  0  0  0  0  0  0
  153.4717  133.3873  164.5272 H   0  0  0  0  0  0  0  0  0  0  0  0
  153.9387  132.5686  166.0120 H   0  0  0  0  0  0  0  0  0  0  0  0
  152.2458  132.6373  165.5425 H   0  0  0  0  0  0  0  0  0  0  0  0
  152.1289  130.0441  165.7018 H   0  0  0  0  0  0  0  0  0  0  0  0
  153.8272  130.0009  166.1561 H   0  0  0  0  0  0  0  0  0  0  0  0
  153.2610  129.0649  164.7780 H   0  0  0  0  0  0  0  0  0  0  0  0
  156.4053  130.6083  165.8745 H   0  0  0  0  0  0  0  0  0  0  0  0
  156.3030  132.3401  165.6157 H   0  0  0  0  0  0  0  0  0  0  0  0
  157.4912  131.3896  164.7396 H   0  0  0  0  0  0  0  0  0  0  0  0
  155.4176  128.5944  163.6077 H   0  0  0  0  0  0  0  0  0  0  0  0
  156.5563  129.3557  162.5088 H   0  0  0  0  0  0  0  0  0  0  0  0
  154.8623  129.2333  162.0686 H   0  0  0  0  0  0  0  0  0  0  0  0
  154.8458  131.3272  160.8136 H   0  0  0  0  0  0  0  0  0  0  0  0
  153.6571  132.4484  161.4555 H   0  0  0  0  0  0  0  0  0  0  0  0
  155.3929  134.3340  160.9813 H   0  0  0  0  0  0  0  0  0  0  0  0
  154.9468  133.9033  157.2913 H   0  0  0  0  0  0  0  0  0  0  0  0
  156.5623  136.6564  159.2015 H   0  0  0  0  0  0  0  0  0  0  0  0
  153.6509  141.5191  159.1777 H   0  0  0  0  0  0  0  0  0  0  0  0
  153.6046  143.6325  160.4772 H   0  0  0  0  0  0  0  0  0  0  0  0
  151.7956  145.2966  160.0917 H   0  0  0  0  0  0  0  0  0  0  0  0
  150.0280  144.8433  158.3992 H   0  0  0  0  0  0  0  0  0  0  0  0
  150.0665  142.7348  157.0928 H   0  0  0  0  0  0  0  0  0  0  0  0
  150.8500  135.9951  156.2376 H   0  0  0  0  0  0  0  0  0  0  0  0
  157.2787  133.7411  157.7572 H   0  0  0  0  0  0  0  0  0  0  0  0
  157.1427  135.0506  158.9413 H   0  0  0  0  0  0  0  0  0  0  0  0
  157.4911  133.3028  160.4875 H   0  0  0  0  0  0  0  0  0  0  0  0
  157.5956  131.4220  159.6305 H   0  0  0  0  0  0  0  0  0  0  0  0
  150.9341  138.2848  156.5217 H   0  0  0  0  0  0  0  0  0  0  0  0
  1  2  1  0  0  0  0
  1 34  1  0  0  0  0
  1 35  1  0  0  0  0
  1 36  1  0  0  0  0
  2  3  1  0  0  0  0
  2  4  1  0  0  0  0
  2  5  1  0  0  0  0
  3 37  1  0  0  0  0
  3 38  1  0  0  0  0
  3 39  1  0  0  0  0
  4 40  1  0  0  0  0
  4 41  1  0  0  0  0
  4 42  1  0  0  0  0
  5  6  1  0  0  0  0
  5  7  1  0  0  0  0
  5  8  1  0  0  0  0
  6 43  1  0  0  0  0
  6 44  1  0  0  0  0
  6 45  1  0  0  0  0
  7 46  1  0  0  0  0
  7 47  1  0  0  0  0
  7 48  1  0  0  0  0
  8  9  1  0  0  0  0
  9 10  1  0  0  0  0
  9 49  1  0  0  0  0
  9 50  1  0  0  0  0
 10 32  1  0  0  0  0
 10 11  1  0  0  0  0
 10 51  1  0  0  0  0
 11 12  1  0  0  0  0
 12 13  1  0  0  0  0
 12 31  1  0  0  0  0
 12 52  1  0  0  0  0
 13 30  1  0  0  0  0
 13 14  1  0  0  0  0
 14 15  2  0  0  0  0
 14 53  1  0  0  0  0
 15 16  1  0  0  0  0
 16 30  2  0  0  0  0
 16 17  1  0  0  0  0
 17 18  2  0  0  0  0
 17 27  1  0  0  0  0
 18 19  1  0  0  0  0
 19 20  2  0  0  0  0
 19 21  1  0  0  0  0
 21 26  1  0  0  0  0
 21 22  2  0  0  0  0
 22 23  1  0  0  0  0
 22 54  1  0  0  0  0
 23 24  2  0  0  0  0
 23 55  1  0  0  0  0
 24 25  1  0  0  0  0
 24 56  1  0  0  0  0
 25 26  2  0  0  0  0
 25 57  1  0  0  0  0
 26 58  1  0  0  0  0
 27 28  1  0  0  0  0
 27 64  1  0  0  0  0
 28 29  2  0  0  0  0
 28 59  1  0  0  0  0
 29 30  1  0  0  0  0
 31 32  1  0  0  0  0
 31 60  1  0  0  0  0
 31 61  1  0  0  0  0
 32 33  1  0  0  0  0
 32 62  1  0  0  0  0
 33 63  1  0  0  0  0
M  END
> <s_m_source_file>
AV-unprocessed.smi

> <i_m_source_file_index>
36

> <i_lp_mmshare_version>
43012

> <i_f3d_flags>
0

> <s_epik_input>
W0NIM11DKFtDSDNdKShbQ0gzXSlbU2ldKFtDSDNdKShbQ0gzXSlPW0NIMl1bQ0BASF0xT1tDQEhdKFtDSDJdW0NASF0xW09IXSluKFtjSF1uMiljKGMyMyluW2NIXW5jM1tOSF1DKD1PKWM0W2NIXVtjSF1bY0hdW2NIXVtjSF00

> <s_epik_cmdline>
J2VwaWtfcHl0aG9uJywgJy1waCcsICc3LjAnLCAnLXRuJywgJzgnLCAnLW1hJywgJzIwMCcsICctbWV0YWxfYmluZGluZycsICctaW1hZScsICc8aW5maWxlLm1hZT4nLCAnLW9tYWUnLCAnPG91dGZpbGUubWFlPic=

> <r_epik_Ionization_Penalty>
0.0850405

> <r_epik_Ionization_Penalty_Charging>
0.0850403

> <r_epik_Ionization_Penalty_Neutral>
1.47497e-07

> <r_epik_State_Penalty>
2.6133

> <r_epik_Charging_Adjusted_Penalty>
2.69834

> <i_epik_Tot_Q>
0

> <i_epik_Tot_abs_Q>
0

> <r_epik_Metal_State_Penalty>
2.92945

> <b_epik_Metal_Only>
0

> <s_epik_Chemistry_Notes>
This compound contains an acetal/aminal-like group ( X-CH(R)-Y where X, Y are N, S, or O) that may be acid/base labile, releasing an aldehyde.

> <s_lp_Force_Field>
OPLS_2005

> <r_lp_Energy>
50.6146

> <b_lp_Chiralities_Consistent>
1

> <s_lp_Variant>
AV-unprocessed.smi:36-13

> <Gold.Version>
5.8.1

> <Gold.Id.Protein>
6NUR|6NUR_protein|mol2

> <Gold.PLP.Fitness>
45.0119

> <Gold.PLP.PLP>
-38.3315

> <Gold.PLP.part.hbond>
-3.3520

> <Gold.PLP.part.metal>
0.0000

> <Gold.PLP.part.buried>
-5.8604

> <Gold.PLP.part.nonpolar>
-27.8276

> <Gold.PLP.part.repulsive>
0.0882

> <Gold.PLP.ligand.clash>
0.0000

> <Gold.PLP.ligand.torsion>
0.8615

> <Gold.PLP.Chemscore.Hbond>
2.6825

> <Gold.PLP.Chemscore.CHOScore>
0.0000

> <Gold.PLP.Chemscore.Metal>
0.0000

> <Gold.Chemscore.Hbonds>
donor molecule, donor type, donor heavy atom, donor atom, acceptor molecule, acceptor atom, score
      P1  H  6896  6907       L1    11  1.00
      P1  H  7997  8010       L1    18  0.95
      P1  H 10752 10764       L1    29  0.71

> <Gold.PLP.Chemscore.Internal.Correction>
0.3558

> <Gold.Rescore>
     Score         DG    S(hbond)    S(metal)    S(lipo)     H(rot)  DE(clash)    DE(int)     intcor
     15.98     -16.62       1.40        0.00     114.47       2.70       0.02       0.62       ----

> <Gold.Chemscore.Fitness>
15.9803

> <Gold.Chemscore.DG>
-16.6248

> <Gold.Chemscore.ZeroCoef>
-5.4800

> <Gold.Chemscore.Hbond>
1.3996

> <Gold.Chemscore.Metal>
0.0000

> <Gold.Chemscore.Lipo>
114.4660

> <Gold.Chemscore.Internal_Hbond>
0.0000

> <Gold.Chemscore.DEClash>
0.0210

> <Gold.Chemscore.DEInternal>
0.6235

> <Gold.Chemscore.Rot>
2.7041

> <Gold.Chemscore.Internal.Correction>
   9.000000E+99

> <Gold.Chemscore.Hbonds>
donor molecule, donor type, donor heavy atom, donor atom, acceptor molecule, acceptor atom, score
      P1  H  6896  6907       L1    11  0.79
      P1  H  7997  8010       L1    18  0.18
      P1  H 10752 10764       L1    29  0.02

> <Gold.Chemscore.Hbond.Weighted>
-4.6748

> <Gold.Chemscore.Metal.Weighted>
-0.0000

> <Gold.Chemscore.Lipo.Weighted>
-13.3925

> <Gold.Chemscore.Internal_Hbond.Weighted>
0.0000

> <Gold.Chemscore.DEClash.Weighted>
0.0210

> <Gold.Chemscore.DEInternal.Weighted>
0.6235

> <Gold.Chemscore.Rot.Weighted>
6.9225

> <Gold.Chemscore.Internal.Correction.Weighted>
   9.000000E+99

> <Gold.Protein.RotatedTorsions>
[ 6907 6896 6895 6894 ] final   93.59 input  -60.11 | X-H torsion
[ 7974 7965 7964 7962 ] final  157.15 input  175.53 | X-H torsion
[ 8008 7997 7996 7995 ] final   53.04 input   59.86 | X-H torsion
[ 10167 10162 10161 10158 ] final   48.45 input  -65.29 | X-H torsion
[ 10718 10713 10712 10709 ] final  132.26 input   66.30 | X-H torsion
[ 10763 10752 10751 10750 ] final    6.16 input  -60.55 | X-H torsion
[ 11005 11000 10999 10996 ] final   35.46 input  -57.11 | X-H torsion

> <Gold.Protein.ActiveResidues>
 VAL166  LYS551  ARG553  GLY616  TRP617  ASP618  TYR619  PRO620  LYS621  CYS622 
 ASP623  PHE694  ASN695  SER759  ASP760  ASP761  ALA762  ILE779  LEU786  VAL792 
 PHE793  MET794  SER795  GLU796  ALA797  LYS798  CYS799  TRP800  GLU811  SER814 

> <Gold.Protein.RotatedAtoms>
  152.5452  134.1324  159.8444 H   0  0  0  0  0  0  0  0  0  0  0  0  # atno 6907 bound_to 6896
  151.1368  133.4991  159.2605 H   0  0  0  0  0  0  0  0  0  0  0  0  # atno 6908 bound_to 6896
  151.1615  135.0286  159.8767 H   0  0  0  0  0  0  0  0  0  0  0  0  # atno 6909 bound_to 6896
  144.7920  139.7302  143.6217 H   0  0  0  0  0  0  0  0  0  0  0  0  # atno 7974 bound_to 7965
  155.4617  140.3462  155.4313 H   0  0  0  0  0  0  0  0  0  0  0  0  # atno 8008 bound_to 7997
  156.1156  140.1473  156.9306 H   0  0  0  0  0  0  0  0  0  0  0  0  # atno 8009 bound_to 7997
  154.4787  140.0877  156.7304 H   0  0  0  0  0  0  0  0  0  0  0  0  # atno 8010 bound_to 7997
  140.2932  144.3022  150.6236 H   0  0  0  0  0  0  0  0  0  0  0  0  # atno 10167 bound_to 10162
  157.4889  131.1089  150.9583 H   0  0  0  0  0  0  0  0  0  0  0  0  # atno 10718 bound_to 10713
  153.2509  135.6913  153.7680 H   0  0  0  0  0  0  0  0  0  0  0  0  # atno 10763 bound_to 10752
  153.6774  135.3334  155.3170 H   0  0  0  0  0  0  0  0  0  0  0  0  # atno 10764 bound_to 10752
  154.8394  135.4514  154.1466 H   0  0  0  0  0  0  0  0  0  0  0  0  # atno 10765 bound_to 10752
  140.2424  134.3399  155.7920 H   0  0  0  0  0  0  0  0  0  0  0  0  # atno 11005 bound_to 11000
  146.2175  139.5576  142.9640 LP  0  0  0  0  0  0  0  0  0  0  0  0  # atno 17320 bound_to 7965
  145.5770  141.0387  143.2143 LP  0  0  0  0  0  0  0  0  0  0  0  0  # atno 17321 bound_to 7965
  140.5715  143.2180  151.7591 LP  0  0  0  0  0  0  0  0  0  0  0  0  # atno 17342 bound_to 10162
  139.4933  144.4210  151.9977 LP  0  0  0  0  0  0  0  0  0  0  0  0  # atno 17343 bound_to 10162
  157.0292  130.5704  149.5341 LP  0  0  0  0  0  0  0  0  0  0  0  0  # atno 17370 bound_to 10713
  156.0162  130.5256  150.8141 LP  0  0  0  0  0  0  0  0  0  0  0  0  # atno 17371 bound_to 10713
  141.2209  133.7306  156.8906 LP  0  0  0  0  0  0  0  0  0  0  0  0  # atno 17394 bound_to 11000
  140.1640  134.9146  157.2750 LP  0  0  0  0  0  0  0  0  0  0  0  0  # atno 17395 bound_to 11000

$$$$
