AV-unprocessed.smi:3189|AV-procd|sdf|12189|dock5
  -GOLD-   2272018 33D 1   1.00000     0.00000
 Structure written by MMmdl.
 30 31  0  0  0  0  0  0  0  0  1 V2000
  153.4140  142.5716  161.3064 C   0  0  0  0  0  0  0  0  0  0  0  0
  153.0734  141.7540  160.0745 C   0  0  0  0  0  0  0  0  0  0  0  0
  153.7732  140.6085  159.9210 N   0  0  0  0  0  0  0  0  0  0  0  0
  153.5049  139.8402  158.8454 C   0  0  0  0  0  0  0  0  0  0  0  0
  152.5405  140.1744  157.8756 C   0  0  0  0  0  0  0  0  0  0  0  0
  151.8171  141.3815  158.0250 C   0  0  0  0  0  0  0  0  0  0  0  0
  150.8069  141.8051  157.1183 N   0  0  0  0  0  0  0  0  0  0  0  0
  150.5110  141.3239  155.8950 C   0  0  0  0  0  0  0  0  0  0  0  0
  151.1271  140.4236  155.3281 O   0  0  0  0  0  0  0  0  0  0  0  0
  149.5037  141.9698  155.2820 N   0  0  0  0  0  0  0  0  0  0  0  0
  148.9576  141.6996  153.9854 C   0  0  2  0  0  0  0  0  0  0  0  0
  147.4497  141.6865  153.8628 C   0  0  0  0  0  0  0  0  0  0  0  0
  148.2194  140.3967  153.7443 C   0  0  2  0  0  0  0  0  0  0  0  0
  148.1103  139.3261  154.8122 C   0  0  0  0  0  0  0  0  0  0  0  0
  152.0827  142.1827  159.1602 C   0  0  0  0  0  0  0  0  0  0  0  0
  151.2189  143.6614  159.4213 Cl  0  0  0  0  0  0  0  0  0  0  0  0
  153.7684  143.5615  161.0177 H   0  0  0  0  0  0  0  0  0  0  0  0
  154.1937  142.0948  161.9020 H   0  0  0  0  0  0  0  0  0  0  0  0
  152.5331  142.6909  161.9381 H   0  0  0  0  0  0  0  0  0  0  0  0
  154.0720  138.9253  158.7581 H   0  0  0  0  0  0  0  0  0  0  0  0
  152.3676  139.4990  157.0521 H   0  0  0  0  0  0  0  0  0  0  0  0
  150.2868  142.6211  157.4063 H   0  0  0  0  0  0  0  0  0  0  0  0
  149.1524  142.7972  155.7422 H   0  0  0  0  0  0  0  0  0  0  0  0
  149.4790  142.1297  153.1312 H   0  0  0  0  0  0  0  0  0  0  0  0
  146.8642  141.8457  154.7667 H   0  0  0  0  0  0  0  0  0  0  0  0
  147.0161  142.0962  152.9527 H   0  0  0  0  0  0  0  0  0  0  0  0
  148.3163  139.9896  152.7396 H   0  0  0  0  0  0  0  0  0  0  0  0
  147.9245  139.7651  155.7930 H   0  0  0  0  0  0  0  0  0  0  0  0
  149.0342  138.7493  154.8579 H   0  0  0  0  0  0  0  0  0  0  0  0
  147.2887  138.6489  154.5785 H   0  0  0  0  0  0  0  0  0  0  0  0
  1  2  1  0  0  0  0
  1 17  1  0  0  0  0
  1 18  1  0  0  0  0
  1 19  1  0  0  0  0
  2 15  1  0  0  0  0
  2  3  2  0  0  0  0
  3  4  1  0  0  0  0
  4  5  2  0  0  0  0
  4 20  1  0  0  0  0
  5  6  1  0  0  0  0
  5 21  1  0  0  0  0
  6  7  1  0  0  0  0
  6 15  2  0  0  0  0
  7  8  1  0  0  0  0
  7 22  1  0  0  0  0
  8  9  2  0  0  0  0
  8 10  1  0  0  0  0
 10 11  1  0  0  0  0
 10 23  1  0  0  0  0
 11 13  1  0  0  0  0
 11 12  1  0  0  0  0
 11 24  1  0  0  0  0
 12 13  1  0  0  0  0
 12 25  1  0  0  0  0
 12 26  1  0  0  0  0
 13 14  1  0  0  0  0
 13 27  1  0  0  0  0
 14 28  1  0  0  0  0
 14 29  1  0  0  0  0
 14 30  1  0  0  0  0
 15 16  1  0  0  0  0
M  END
> <s_m_source_file>
AV-unprocessed.smi

> <i_m_source_file_index>
3189

> <i_lp_mmshare_version>
43012

> <i_f3d_flags>
0

> <s_epik_input>
W0NIM11jMW5bY0hdW2NIXWMoYzFDbClbTkhdQyg9TylbTkhdW0NAQEhdMltDSDJdW0NASF0yW0NIM10=

> <s_epik_cmdline>
J2VwaWtfcHl0aG9uJywgJy1waCcsICc3LjAnLCAnLXRuJywgJzgnLCAnLW1hJywgJzIwMCcsICctbWV0YWxfYmluZGluZycsICctaW1hZScsICc8aW5maWxlLm1hZT4nLCAnLW9tYWUnLCAnPG91dGZpbGUubWFlPic=

> <r_epik_Ionization_Penalty>
0.00994309

> <r_epik_Ionization_Penalty_Charging>
0

> <r_epik_Ionization_Penalty_Neutral>
0.00994309

> <r_epik_State_Penalty>
0.00754503

> <r_epik_Charging_Adjusted_Penalty>
0.00754503

> <i_epik_Tot_Q>
0

> <i_epik_Tot_abs_Q>
0

> <r_epik_Metal_State_Penalty>
0.00742071

> <b_epik_Metal_Only>
0

> <s_lp_Force_Field>
OPLS_2005

> <r_lp_Energy>
34.6575

> <b_lp_Chiralities_Consistent>
1

> <s_lp_Variant>
AV-unprocessed.smi:3189-3

> <Gold.Version>
5.8.1

> <Gold.Id.Protein>
6NUR|6NUR_protein|mol2

> <Gold.PLP.Fitness>
36.0068

> <Gold.PLP.PLP>
-30.4131

> <Gold.PLP.part.hbond>
-2.0000

> <Gold.PLP.part.metal>
0.0000

> <Gold.PLP.part.buried>
-0.7854

> <Gold.PLP.part.nonpolar>
-26.1419

> <Gold.PLP.part.repulsive>
0.2577

> <Gold.PLP.ligand.clash>
0.0000

> <Gold.PLP.ligand.torsion>
0.1487

> <Gold.PLP.Chemscore.Hbond>
1.9508

> <Gold.PLP.Chemscore.CHOScore>
0.0000

> <Gold.PLP.Chemscore.Metal>
0.0000

> <Gold.Chemscore.Hbonds>
donor molecule, donor type, donor heavy atom, donor atom, acceptor molecule, acceptor atom, score
      L1  H    10    23       P1  8028  0.94
      P1  H  7989  7998       L1     9  0.98

> <Gold.PLP.Chemscore.Internal.Correction>
0.0388

> <Gold.Rescore>
     Score         DG    S(hbond)    S(metal)    S(lipo)     H(rot)  DE(clash)    DE(int)     intcor
     15.96     -18.57       1.68        0.00      85.75       1.00       1.29       1.33       ----

> <Gold.Chemscore.Fitness>
15.9555

> <Gold.Chemscore.DG>
-18.5724

> <Gold.Chemscore.ZeroCoef>
-5.4800

> <Gold.Chemscore.Hbond>
1.6827

> <Gold.Chemscore.Metal>
0.0000

> <Gold.Chemscore.Lipo>
85.7460

> <Gold.Chemscore.Internal_Hbond>
0.0000

> <Gold.Chemscore.DEClash>
1.2913

> <Gold.Chemscore.DEInternal>
1.3255

> <Gold.Chemscore.Rot>
1.0000

> <Gold.Chemscore.Internal.Correction>
   9.000000E+99

> <Gold.Chemscore.Hbonds>
donor molecule, donor type, donor heavy atom, donor atom, acceptor molecule, acceptor atom, score
      L1  H    10    23       P1  8028  0.90
      P1  H  7989  7998       L1     9  0.79

> <Gold.Chemscore.Hbond.Weighted>
-5.6201

> <Gold.Chemscore.Metal.Weighted>
-0.0000

> <Gold.Chemscore.Lipo.Weighted>
-10.0323

> <Gold.Chemscore.Internal_Hbond.Weighted>
0.0000

> <Gold.Chemscore.DEClash.Weighted>
1.2913

> <Gold.Chemscore.DEInternal.Weighted>
1.3255

> <Gold.Chemscore.Rot.Weighted>
2.5600

> <Gold.Chemscore.Internal.Correction.Weighted>
   9.000000E+99

> <Gold.Protein.RotatedTorsions>
[ 6907 6896 6895 6894 ] final   23.91 input  -60.11 | X-H torsion
[ 7974 7965 7964 7962 ] final -107.89 input  175.53 | X-H torsion
[ 8008 7997 7996 7995 ] final  -20.40 input   59.86 | X-H torsion
[ 10167 10162 10161 10158 ] final  145.58 input  -65.29 | X-H torsion
[ 10718 10713 10712 10709 ] final  159.52 input   66.30 | X-H torsion
[ 10763 10752 10751 10750 ] final -117.81 input  -60.55 | X-H torsion
[ 11005 11000 10999 10996 ] final   31.60 input  -57.11 | X-H torsion

> <Gold.Protein.ActiveResidues>
 VAL166  LYS551  ARG553  GLY616  TRP617  ASP618  TYR619  PRO620  LYS621  CYS622 
 ASP623  PHE694  ASN695  SER759  ASP760  ASP761  ALA762  ILE779  LEU786  VAL792 
 PHE793  MET794  SER795  GLU796  ALA797  LYS798  CYS799  TRP800  GLU811  SER814 

> <Gold.Protein.RotatedAtoms>
  151.9496  135.0175  160.0540 H   0  0  0  0  0  0  0  0  0  0  0  0  # atno 6907 bound_to 6896
  152.1965  133.4805  159.5044 H   0  0  0  0  0  0  0  0  0  0  0  0  # atno 6908 bound_to 6896
  150.6945  134.1562  159.4202 H   0  0  0  0  0  0  0  0  0  0  0  0  # atno 6909 bound_to 6896
  145.1997  140.9051  143.3377 H   0  0  0  0  0  0  0  0  0  0  0  0  # atno 7974 bound_to 7965
  154.4773  140.2063  155.9849 H   0  0  0  0  0  0  0  0  0  0  0  0  # atno 8008 bound_to 7997
  156.1109  140.3229  155.8041 H   0  0  0  0  0  0  0  0  0  0  0  0  # atno 8009 bound_to 7997
  155.4637  140.0526  157.2978 H   0  0  0  0  0  0  0  0  0  0  0  0  # atno 8010 bound_to 7997
  139.4923  144.5891  151.6717 H   0  0  0  0  0  0  0  0  0  0  0  0  # atno 10167 bound_to 10162
  157.1631  131.0592  151.2222 H   0  0  0  0  0  0  0  0  0  0  0  0  # atno 10718 bound_to 10713
  154.8567  135.4296  154.2039 H   0  0  0  0  0  0  0  0  0  0  0  0  # atno 10763 bound_to 10752
  153.3080  135.6973  153.7148 H   0  0  0  0  0  0  0  0  0  0  0  0  # atno 10764 bound_to 10752
  153.6251  135.3495  155.2998 H   0  0  0  0  0  0  0  0  0  0  0  0  # atno 10765 bound_to 10752
  140.2822  134.2960  155.7797 H   0  0  0  0  0  0  0  0  0  0  0  0  # atno 11005 bound_to 11000
  144.9960  139.3643  143.6191 LP  0  0  0  0  0  0  0  0  0  0  0  0  # atno 17320 bound_to 7965
  146.3420  139.9163  142.8773 LP  0  0  0  0  0  0  0  0  0  0  0  0  # atno 17321 bound_to 7965
  140.5514  144.0419  150.6129 LP  0  0  0  0  0  0  0  0  0  0  0  0  # atno 17342 bound_to 10162
  140.3474  143.2983  152.0524 LP  0  0  0  0  0  0  0  0  0  0  0  0  # atno 17343 bound_to 10162
  157.4114  130.7387  149.6842 LP  0  0  0  0  0  0  0  0  0  0  0  0  # atno 17370 bound_to 10713
  155.9750  130.4094  150.3878 LP  0  0  0  0  0  0  0  0  0  0  0  0  # atno 17371 bound_to 10713
  141.2161  133.7532  156.9498 LP  0  0  0  0  0  0  0  0  0  0  0  0  # atno 17394 bound_to 11000
  140.1273  134.9379  157.2287 LP  0  0  0  0  0  0  0  0  0  0  0  0  # atno 17395 bound_to 11000

$$$$
