#       Name:                AV-unprocessed.smi:264
#       Creating user name   scv26
#       Creation time:       Thu Mar 26 21:20:46 2020


#       File generated by GOLD software.
#

@<TRIPOS>MOLECULE
AV-unprocessed.smi:264
    64    68     1
SMALL
NO_CHARGES


@<TRIPOS>ATOM
      1 ****        -2.7115  -0.9334  -6.1485 C.3            1 S1                 0.0000
      2 ****        -2.5172  -1.7993  -4.8929 C.3            1 S1                 0.0000
      3 ****        -3.7511  -2.3993  -4.4992 O.3            1 S1                 0.0000
      4 ****        -4.0589  -2.0483  -3.1574 C.3            1 S1                 0.0000
      5 ****        -2.7034  -1.7752  -2.5198 C.3            1 S1                 0.0000
      6 ****        -1.9415  -1.0899  -3.6452 C.3            1 S1                 0.0000
      7 ****        -2.2840   0.2879  -3.6422 O.3            1 S1                 0.0000
      8 ****        -0.4030  -1.2173  -3.5356 C.3            1 S1                 0.0000
      9 ****         0.1493  -0.5660  -2.3578 N.pl3          1 S1                 0.0000
     10 ****         0.5975   0.7331  -2.2740 C.2            1 S1                 0.0000
     11 ****         1.0381   1.0953  -1.1005 N.2            1 S1                 0.0000
     12 ****         0.8959  -0.0445  -0.3178 C.ar           1 S1                 0.0000
     13 ****         1.1654  -0.3491   1.0459 C.ar           1 S1                 0.0000
     14 ****         1.6905   0.5588   1.9058 N.3            1 S1                 0.0000
     15 ****         3.0370   1.0093   1.5789 C.3            1 S1                 0.0000
     16 ****         3.3732   2.2724   2.3843 C.3            1 S1                 0.0000
     17 ****         3.1850   2.0337   3.7790 O.3            1 S1                 0.0000
     18 ****         1.8629   1.6175   4.1352 C.3            1 S1                 0.0000
     19 ****         1.8458   1.3455   5.6357 C.3            1 S1                 0.0000
     20 ****         0.4501   1.7843   6.0520 C.3            1 S1                 0.0000
     21 ****         0.2625   2.9615   5.2890 O.3            1 S1                 0.0000
     22 ****         0.8158   2.7480   3.9953 C.3            1 S1                 0.0000
     23 ****         1.4929   0.3460   3.3363 C.3            1 S1                 0.0000
     24 ****         0.8701  -1.6049   1.4768 N.ar           1 S1                 0.0000
     25 ****         0.3581  -2.5051   0.6324 C.ar           1 S1                 0.0000
     26 ****         0.0608  -2.3616  -0.6604 N.ar           1 S1                 0.0000
     27 ****         0.3423  -1.1005  -1.0957 C.ar           1 S1                 0.0000
     28 ****        -1.7769  -0.4574  -6.4458 H              1 S1                 0.0000
     29 ****        -3.4538  -0.1512  -5.9869 H              1 S1                 0.0000
     30 ****        -3.0551  -1.5408  -6.9860 H              1 S1                 0.0000
     31 ****        -1.8620  -2.6314  -5.1544 H              1 S1                 0.0000
     32 ****        -4.6747  -1.1478  -3.1555 H              1 S1                 0.0000
     33 ****        -4.6115  -2.8407  -2.6524 H              1 S1                 0.0000
     34 ****        -2.7680  -1.1838  -1.6053 H              1 S1                 0.0000
     35 ****        -2.2331  -2.7271  -2.2707 H              1 S1                 0.0000
     36 ****        -2.0080   0.6629  -2.8199 H              1 S1                 0.0000
     37 ****        -0.1077  -2.2673  -3.5167 H              1 S1                 0.0000
     38 ****         0.0703  -0.7837  -4.4177 H              1 S1                 0.0000
     39 ****         0.5768   1.4118  -3.1147 H              1 S1                 0.0000
     40 ****         3.7437   0.2138   1.8195 H              1 S1                 0.0000
     41 ****         3.1438   1.2163   0.5146 H              1 S1                 0.0000
     42 ****         4.4119   2.5565   2.2152 H              1 S1                 0.0000
     43 ****         2.7627   3.1113   2.0496 H              1 S1                 0.0000
     44 ****         2.0632   0.3095   5.8977 H              1 S1                 0.0000
     45 ****         2.5802   1.9750   6.1409 H              1 S1                 0.0000
     46 ****        -0.2976   1.0394   5.7752 H              1 S1                 0.0000
     47 ****         0.3681   1.9796   7.1213 H              1 S1                 0.0000
     48 ****         1.2478   3.6850   3.6446 H              1 S1                 0.0000
     49 ****         0.0191   2.4722   3.3034 H              1 S1                 0.0000
     50 ****         0.4586   0.0631   3.5383 H              1 S1                 0.0000
     51 ****         2.1219  -0.4871   3.6539 H              1 S1                 0.0000
     52 ****         0.1569  -3.4793   1.0531 H              1 S1                 0.0000
     53 ****        -3.6731  -3.3936  -4.5713 LP             1 S1                 0.0000
     54 ****        -4.4820  -2.0777  -5.1011 LP             1 S1                 0.0000
     55 ****        -3.2735   0.3900  -3.7445 LP             1 S1                 0.0000
     56 ****        -1.8212   0.7524  -4.3972 LP             1 S1                 0.0000
     57 ****         1.3960   1.9882  -0.8270 LP             1 S1                 0.0000
     58 ****         1.0796   1.3286   1.7208 LP             1 S1                 0.0000
     59 ****         3.3898   2.8797   4.2714 LP             1 S1                 0.0000
     60 ****         3.8248   1.3196   4.0630 LP             1 S1                 0.0000
     61 ****         0.7253   3.7291   5.7323 LP             1 S1                 0.0000
     62 ****        -0.7141   3.1614   5.2103 LP             1 S1                 0.0000
     63 ****         1.0370  -1.8557   2.4303 LP             1 S1                 0.0000
     64 ****        -0.3194  -3.0856  -1.2359 LP             1 S1                 0.0000
@<TRIPOS>BOND
    1    1    2 1     
    2    1   28 1     
    3    1   29 1     
    4    1   30 1     
    5    2    6 1     
    6    2    3 1     
    7    2   31 1     
    8    3    4 1     
    9    4    5 1     
   10    4   32 1     
   11    4   33 1     
   12    5    6 1     
   13    5   34 1     
   14    5   35 1     
   15    6    7 1     
   16    6    8 1     
   17    7   36 1     
   18    8    9 1     
   19    8   37 1     
   20    8   38 1     
   21    9   27 1     
   22    9   10 1     
   23   10   11 2     
   24   10   39 1     
   25   11   12 1     
   26   12   27 ar    
   27   12   13 ar    
   28   13   14 1     
   29   13   24 ar    
   30   14   23 1     
   31   14   15 1     
   32   15   16 1     
   33   15   40 1     
   34   15   41 1     
   35   16   17 1     
   36   16   42 1     
   37   16   43 1     
   38   17   18 1     
   39   18   22 1     
   40   18   19 1     
   41   18   23 1     
   42   19   20 1     
   43   19   44 1     
   44   19   45 1     
   45   20   21 1     
   46   20   46 1     
   47   20   47 1     
   48   21   22 1     
   49   22   48 1     
   50   22   49 1     
   51   23   50 1     
   52   23   51 1     
   53   24   25 ar    
   54   25   26 ar    
   55   25   52 1     
   56   26   27 ar    
   57    3   53 1     
   58    3   54 1     
   59    7   55 1     
   60    7   56 1     
   61   11   57 1     
   62   14   58 1     
   63   17   59 1     
   64   17   60 1     
   65   21   61 1     
   66   21   62 1     
   67   24   63 1     
   68   26   64 1     
@<TRIPOS>SUBSTRUCTURE
      1 S1             1
@<TRIPOS>SET
LONE_PAIRS      STATIC     ATOMS    <user>   **** ""
12 53 54 55 56 57 58 59 60 61 62 63 64
DONOR_HYDROGENS      STATIC     ATOMS    <user>   **** ""
1 36
ATOM$BLUE        STATIC     ATOMS    COLORGROUP SYSTEM
12 53 54 55 56 57 58 59 60 61 62 63 64
ATOM$RED        STATIC     ATOMS    COLORGROUP SYSTEM
1 36
