AV-unprocessed.smi:3344|AV-procd|sdf|12898|dock7
  -GOLD-   2272019303D 1   1.00000     0.00000
 Structure written by MMmdl.
 43 44  0  0  0  0  0  0  0  0  2 V2000
  150.8409  135.9091  156.5304 C   0  0  0  0  0  0  0  0  0  0  0  0
  150.1479  136.7336  155.4267 C   0  0  1  0  0  0  0  0  0  0  0  0
  148.6150  136.6580  155.5092 C   0  0  0  0  0  0  0  0  0  0  0  0
  148.0476  136.5629  156.5980 O   0  0  0  0  0  0  0  0  0  0  0  0
  147.9513  136.7015  154.3429 N   0  0  0  0  0  0  0  0  0  0  0  0
  146.4999  136.6647  154.2075 C   0  0  0  0  0  0  0  0  0  0  0  0
  146.0070  135.2753  153.7557 C   0  0  0  0  0  0  0  0  0  0  0  0
  146.3312  134.9780  152.3343 N   0  3  0  0  0  0  0  0  0  0  0  0
  145.5306  135.8026  151.3861 C   0  0  0  0  0  0  0  0  0  0  0  0
  144.1531  135.2129  151.0276 C   0  0  0  0  0  0  0  0  0  0  0  0
  144.2017  134.3125  149.7834 C   0  0  0  0  0  0  0  0  0  0  0  0
  144.9354  132.9823  149.9992 C   0  0  0  0  0  0  0  0  0  0  0  0
  146.3620  133.1285  150.5554 C   0  0  0  0  0  0  0  0  0  0  0  0
  146.3881  133.5155  152.0473 C   0  0  0  0  0  0  0  0  0  0  0  0
  150.5848  138.1245  155.4230 N   0  0  0  0  0  0  0  0  0  0  0  0
  150.3262  139.1031  154.5527 C   0  0  0  0  0  0  0  0  0  0  0  0
  150.8553  140.2727  154.8837 N   0  0  0  0  0  0  0  0  0  0  0  0
  151.4629  139.9244  156.0566 C   0  0  0  0  0  0  0  0  0  0  0  0
  151.3226  138.6530  156.4314 N   0  0  0  0  0  0  0  0  0  0  0  0
  150.5389  134.8621  156.4868 H   0  0  0  0  0  0  0  0  0  0  0  0
  150.6057  136.2786  157.5295 H   0  0  0  0  0  0  0  0  0  0  0  0
  151.9247  135.9407  156.4152 H   0  0  0  0  0  0  0  0  0  0  0  0
  150.4459  136.3023  154.4693 H   0  0  0  0  0  0  0  0  0  0  0  0
  148.4896  136.7808  153.4921 H   0  0  0  0  0  0  0  0  0  0  0  0
  146.0307  136.9517  155.1502 H   0  0  0  0  0  0  0  0  0  0  0  0
  146.2287  137.4276  153.4783 H   0  0  0  0  0  0  0  0  0  0  0  0
  146.4219  134.4972  154.3980 H   0  0  0  0  0  0  0  0  0  0  0  0
  144.9251  135.2382  153.8881 H   0  0  0  0  0  0  0  0  0  0  0  0
  145.3968  136.8029  151.7997 H   0  0  0  0  0  0  0  0  0  0  0  0
  146.1154  135.9622  150.4794 H   0  0  0  0  0  0  0  0  0  0  0  0
  143.7052  134.6932  151.8754 H   0  0  0  0  0  0  0  0  0  0  0  0
  143.4814  136.0422  150.8026 H   0  0  0  0  0  0  0  0  0  0  0  0
  143.1820  134.0970  149.4620 H   0  0  0  0  0  0  0  0  0  0  0  0
  144.6634  134.8545  148.9570 H   0  0  0  0  0  0  0  0  0  0  0  0
  144.3477  132.3417  150.6581 H   0  0  0  0  0  0  0  0  0  0  0  0
  144.9820  132.4580  149.0440 H   0  0  0  0  0  0  0  0  0  0  0  0
  146.8439  132.1547  150.4603 H   0  0  0  0  0  0  0  0  0  0  0  0
  146.9624  133.8086  149.9504 H   0  0  0  0  0  0  0  0  0  0  0  0
  147.3176  133.1394  152.4746 H   0  0  0  0  0  0  0  0  0  0  0  0
  145.5847  132.9981  152.5737 H   0  0  0  0  0  0  0  0  0  0  0  0
  149.7361  138.9586  153.6594 H   0  0  0  0  0  0  0  0  0  0  0  0
  152.0193  140.6301  156.6558 H   0  0  0  0  0  0  0  0  0  0  0  0
  147.2756  135.3135  152.2078 H   0  0  0  0  0  0  0  0  0  0  0  0
  1  2  1  0  0  0  0
  1 20  1  0  0  0  0
  1 21  1  0  0  0  0
  1 22  1  0  0  0  0
  2  3  1  0  0  0  0
  2 15  1  0  0  0  0
  2 23  1  0  0  0  0
  3  4  2  0  0  0  0
  3  5  1  0  0  0  0
  5  6  1  0  0  0  0
  5 24  1  0  0  0  0
  6  7  1  0  0  0  0
  6 25  1  0  0  0  0
  6 26  1  0  0  0  0
  7  8  1  0  0  0  0
  7 27  1  0  0  0  0
  7 28  1  0  0  0  0
  8 14  1  0  0  0  0
  8  9  1  0  0  0  0
  8 43  1  0  0  0  0
  9 10  1  0  0  0  0
  9 29  1  0  0  0  0
  9 30  1  0  0  0  0
 10 11  1  0  0  0  0
 10 31  1  0  0  0  0
 10 32  1  0  0  0  0
 11 12  1  0  0  0  0
 11 33  1  0  0  0  0
 11 34  1  0  0  0  0
 12 13  1  0  0  0  0
 12 35  1  0  0  0  0
 12 36  1  0  0  0  0
 13 14  1  0  0  0  0
 13 37  1  0  0  0  0
 13 38  1  0  0  0  0
 14 39  1  0  0  0  0
 14 40  1  0  0  0  0
 15 19  1  0  0  0  0
 15 16  1  0  0  0  0
 16 17  2  0  0  0  0
 16 41  1  0  0  0  0
 17 18  1  0  0  0  0
 18 19  2  0  0  0  0
 18 42  1  0  0  0  0
M  CHG  1   8   1
M  END
> <s_m_source_file>
AV-unprocessed.smi

> <i_m_source_file_index>
3344

> <i_lp_mmshare_version>
43012

> <i_f3d_flags>
0

> <s_epik_input>
bjFbY0hdbltjSF1uMVtDQEhdKFtDSDNdKUMoPU8pW05IXVtDSDJdW0NIMl1OMltDSDJdW0NIMl1bQ0gyXVtDSDJdW0NIMl1bQ0gyXTI=

> <s_epik_cmdline>
J2VwaWtfcHl0aG9uJywgJy1waCcsICc3LjAnLCAnLXRuJywgJzgnLCAnLW1hJywgJzIwMCcsICctbWV0YWxfYmluZGluZycsICctaW1hZScsICc8aW5maWxlLm1hZT4nLCAnLW9tYWUnLCAnPG91dGZpbGUubWFlPic=

> <r_lp_tautomer_probability>
1

> <r_epik_Ionization_Penalty>
0.00266407

> <r_epik_Ionization_Penalty_Charging>
0.00265606

> <r_epik_Ionization_Penalty_Neutral>
8.01095e-06

> <r_epik_State_Penalty>
0.00184955

> <r_epik_Charging_Adjusted_Penalty>
0.00450561

> <i_epik_Tot_Q>
1

> <i_epik_Tot_abs_Q>
1

> <r_epik_Metal_State_Penalty>
-0

> <b_epik_Metal_Only>
0

> <s_lp_Force_Field>
OPLS_2005

> <r_lp_Energy>
28.0166

> <b_lp_Chiralities_Consistent>
1

> <s_lp_Variant>
AV-unprocessed.smi:3344-2

> <Gold.Version>
5.8.1

> <Gold.Id.Protein>
6NUR|6NUR_protein|mol2

> <Gold.PLP.Fitness>
41.9699

> <Gold.PLP.PLP>
-29.1149

> <Gold.PLP.part.hbond>
-3.0000

> <Gold.PLP.part.metal>
0.0000

> <Gold.PLP.part.buried>
-2.3701

> <Gold.PLP.part.nonpolar>
-23.7546

> <Gold.PLP.part.repulsive>
0.1193

> <Gold.PLP.ligand.clash>
0.0000

> <Gold.PLP.ligand.torsion>
1.1321

> <Gold.PLP.Chemscore.Hbond>
3.9920

> <Gold.PLP.Chemscore.CHOScore>
1.0000

> <Gold.PLP.Chemscore.Metal>
0.0000

> <Gold.Chemscore.Hbonds>
donor molecule, donor type, donor heavy atom, donor atom, acceptor molecule, acceptor atom, score
      L1  H     5    24       P1  7948  1.00
      L1  H     8    43       P1  7948  2.00
      P1  H  7989  7998       L1    17  1.00
      L1  C    16    41       P1  7957  0.53

> <Gold.PLP.Chemscore.Internal.Correction>
0.1432

> <Gold.Rescore>
     Score         DG    S(hbond)    S(metal)    S(lipo)     H(rot)  DE(clash)    DE(int)     intcor
     13.19     -14.58       2.87        0.00      51.28       2.54       0.40       0.99       ----

> <Gold.Chemscore.Fitness>
13.1890

> <Gold.Chemscore.DG>
-14.5787

> <Gold.Chemscore.ZeroCoef>
-5.4800

> <Gold.Chemscore.Hbond>
2.8731

> <Gold.Chemscore.Metal>
0.0000

> <Gold.Chemscore.Lipo>
51.2759

> <Gold.Chemscore.Internal_Hbond>
0.0000

> <Gold.Chemscore.DEClash>
0.4033

> <Gold.Chemscore.DEInternal>
0.9864

> <Gold.Chemscore.Rot>
2.5377

> <Gold.Chemscore.Internal.Correction>
   9.000000E+99

> <Gold.Chemscore.Hbonds>
donor molecule, donor type, donor heavy atom, donor atom, acceptor molecule, acceptor atom, score
      L1  H     5    24       P1  7948  0.97
      L1  H     8    43       P1  7948  1.00
      P1  H  7989  7998       L1    17  0.60

> <Gold.Chemscore.Hbond.Weighted>
-9.5960

> <Gold.Chemscore.Metal.Weighted>
-0.0000

> <Gold.Chemscore.Lipo.Weighted>
-5.9993

> <Gold.Chemscore.Internal_Hbond.Weighted>
0.0000

> <Gold.Chemscore.DEClash.Weighted>
0.4033

> <Gold.Chemscore.DEInternal.Weighted>
0.9864

> <Gold.Chemscore.Rot.Weighted>
6.4966

> <Gold.Chemscore.Internal.Correction.Weighted>
   9.000000E+99

> <Gold.Protein.RotatedTorsions>
[ 6907 6896 6895 6894 ] final -130.97 input  -60.11 | X-H torsion
[ 7974 7965 7964 7962 ] final -119.81 input  175.53 | X-H torsion
[ 8008 7997 7996 7995 ] final   10.90 input   59.86 | X-H torsion
[ 10167 10162 10161 10158 ] final -123.55 input  -65.29 | X-H torsion
[ 10718 10713 10712 10709 ] final   26.64 input   66.30 | X-H torsion
[ 10763 10752 10751 10750 ] final   48.53 input  -60.55 | X-H torsion
[ 11005 11000 10999 10996 ] final   49.34 input  -57.11 | X-H torsion

> <Gold.Protein.ActiveResidues>
 VAL166  LYS551  ARG553  GLY616  TRP617  ASP618  TYR619  PRO620  LYS621  CYS622 
 ASP623  PHE694  ASN695  SER759  ASP760  ASP761  ALA762  ILE779  LEU786  VAL792 
 PHE793  MET794  SER795  GLU796  ALA797  LYS798  CYS799  TRP800  GLU811  SER814 

> <Gold.Protein.RotatedAtoms>
  150.9457  133.6606  159.2781 H   0  0  0  0  0  0  0  0  0  0  0  0  # atno 6907 bound_to 6896
  151.3979  135.0965  159.9556 H   0  0  0  0  0  0  0  0  0  0  0  0  # atno 6908 bound_to 6896
  152.5088  133.8957  159.7471 H   0  0  0  0  0  0  0  0  0  0  0  0  # atno 6909 bound_to 6896
  145.0583  140.8271  143.4167 H   0  0  0  0  0  0  0  0  0  0  0  0  # atno 7974 bound_to 7965
  154.7997  140.2850  155.5931 H   0  0  0  0  0  0  0  0  0  0  0  0  # atno 8008 bound_to 7997
  156.2975  140.2589  156.2791 H   0  0  0  0  0  0  0  0  0  0  0  0  # atno 8009 bound_to 7997
  154.9573  140.0378  157.2162 H   0  0  0  0  0  0  0  0  0  0  0  0  # atno 8010 bound_to 7997
  140.0023  143.5528  152.2298 H   0  0  0  0  0  0  0  0  0  0  0  0  # atno 10167 bound_to 10162
  157.2096  130.6928  149.6222 H   0  0  0  0  0  0  0  0  0  0  0  0  # atno 10718 bound_to 10713
  152.9791  135.5941  154.3941 H   0  0  0  0  0  0  0  0  0  0  0  0  # atno 10763 bound_to 10752
  154.3594  135.2767  155.2330 H   0  0  0  0  0  0  0  0  0  0  0  0  # atno 10764 bound_to 10752
  154.4334  135.6030  153.6138 H   0  0  0  0  0  0  0  0  0  0  0  0  # atno 10765 bound_to 10752
  140.1112  134.4952  155.8676 H   0  0  0  0  0  0  0  0  0  0  0  0  # atno 11005 bound_to 11000
  145.1440  139.2555  143.5475 LP  0  0  0  0  0  0  0  0  0  0  0  0  # atno 17320 bound_to 7965
  146.3523  140.1125  142.8603 LP  0  0  0  0  0  0  0  0  0  0  0  0  # atno 17321 bound_to 7965
  139.6263  144.7637  151.2631 LP  0  0  0  0  0  0  0  0  0  0  0  0  # atno 17342 bound_to 10162
  140.7414  143.6558  150.8208 LP  0  0  0  0  0  0  0  0  0  0  0  0  # atno 17343 bound_to 10162
  155.9692  130.4555  150.5892 LP  0  0  0  0  0  0  0  0  0  0  0  0  # atno 17370 bound_to 10713
  157.3686  131.0762  151.1577 LP  0  0  0  0  0  0  0  0  0  0  0  0  # atno 17371 bound_to 10713
  141.2130  133.6728  156.6709 LP  0  0  0  0  0  0  0  0  0  0  0  0  # atno 17394 bound_to 11000
  140.3088  134.8103  157.4159 LP  0  0  0  0  0  0  0  0  0  0  0  0  # atno 17395 bound_to 11000

$$$$
