AV-unprocessed.smi:2572|AV-procd|sdf|10111|dock6
  -GOLD-   2272014133D 1   1.00000     0.00000
 Structure written by MMmdl.
 38 39  0  0  0  0  0  0  0  0  1 V2000
  148.4373  136.4693  159.7459 C   0  0  0  0  0  0  0  0  0  0  0  0
  148.3464  137.8525  159.4100 O   0  0  0  0  0  0  0  0  0  0  0  0
  149.0857  138.2813  158.3215 C   0  0  0  0  0  0  0  0  0  0  0  0
  148.3839  138.8724  157.2020 C   0  0  0  0  0  0  0  0  0  0  0  0
  149.0930  139.2907  156.1315 C   0  0  0  0  0  0  0  0  0  0  0  0
  150.5489  139.1633  156.0730 C   0  0  0  0  0  0  0  0  0  0  0  0
  151.2177  139.5312  155.1077 O   0  0  0  0  0  0  0  0  0  0  0  0
  151.0971  138.5965  157.1888 N   0  0  0  0  0  0  0  0  0  0  0  0
  152.5437  138.3760  157.2998 C   0  0  0  0  0  0  0  0  0  0  0  0
  153.1358  139.0641  158.5496 C   0  0  1  0  0  0  0  0  0  0  0  0
  154.5462  138.9826  158.4843 O   0  0  0  0  0  0  0  0  0  0  0  0
  152.7524  140.5545  158.6169 C   0  0  0  0  0  0  0  0  0  0  0  0
  153.5848  141.3571  159.6308 C   0  0  0  0  0  0  0  0  0  0  0  0
  152.9886  142.7247  159.9048 C   0  0  0  0  0  0  0  0  0  0  0  0
  152.7145  143.6066  158.8382 C   0  0  0  0  0  0  0  0  0  0  0  0
  152.1582  144.8751  159.0947 C   0  0  0  0  0  0  0  0  0  0  0  0
  151.8714  145.2648  160.4174 C   0  0  0  0  0  0  0  0  0  0  0  0
  152.1412  144.3856  161.4841 C   0  0  0  0  0  0  0  0  0  0  0  0
  152.6999  143.1181  161.2286 C   0  0  0  0  0  0  0  0  0  0  0  0
  150.3758  138.1638  158.2892 N   0  0  0  0  0  0  0  0  0  0  0  0
  147.8110  136.2727  160.6159 H   0  0  0  0  0  0  0  0  0  0  0  0
  149.4571  136.1803  160.0066 H   0  0  0  0  0  0  0  0  0  0  0  0
  148.0798  135.8307  158.9361 H   0  0  0  0  0  0  0  0  0  0  0  0
  147.3089  138.9717  157.2330 H   0  0  0  0  0  0  0  0  0  0  0  0
  148.5725  139.7317  155.2942 H   0  0  0  0  0  0  0  0  0  0  0  0
  152.8064  137.3167  157.2721 H   0  0  0  0  0  0  0  0  0  0  0  0
  153.0048  138.7959  156.4038 H   0  0  0  0  0  0  0  0  0  0  0  0
  152.7882  138.5652  159.4554 H   0  0  0  0  0  0  0  0  0  0  0  0
  154.7831  138.1462  158.1143 H   0  0  0  0  0  0  0  0  0  0  0  0
  152.8329  141.0059  157.6268 H   0  0  0  0  0  0  0  0  0  0  0  0
  151.7024  140.6342  158.9017 H   0  0  0  0  0  0  0  0  0  0  0  0
  153.6557  140.8100  160.5718 H   0  0  0  0  0  0  0  0  0  0  0  0
  154.6070  141.4804  159.2710 H   0  0  0  0  0  0  0  0  0  0  0  0
  152.9290  143.3130  157.8209 H   0  0  0  0  0  0  0  0  0  0  0  0
  151.9508  145.5490  158.2767 H   0  0  0  0  0  0  0  0  0  0  0  0
  151.4445  146.2373  160.6135 H   0  0  0  0  0  0  0  0  0  0  0  0
  151.9196  144.6835  162.4985 H   0  0  0  0  0  0  0  0  0  0  0  0
  152.9041  142.4477  162.0507 H   0  0  0  0  0  0  0  0  0  0  0  0
  1  2  1  0  0  0  0
  1 21  1  0  0  0  0
  1 22  1  0  0  0  0
  1 23  1  0  0  0  0
  2  3  1  0  0  0  0
  3 20  2  0  0  0  0
  3  4  1  0  0  0  0
  4  5  2  0  0  0  0
  4 24  1  0  0  0  0
  5  6  1  0  0  0  0
  5 25  1  0  0  0  0
  6  7  2  0  0  0  0
  6  8  1  0  0  0  0
  8  9  1  0  0  0  0
  8 20  1  0  0  0  0
  9 10  1  0  0  0  0
  9 26  1  0  0  0  0
  9 27  1  0  0  0  0
 10 11  1  0  0  0  0
 10 12  1  0  0  0  0
 10 28  1  0  0  0  0
 11 29  1  0  0  0  0
 12 13  1  0  0  0  0
 12 30  1  0  0  0  0
 12 31  1  0  0  0  0
 13 14  1  0  0  0  0
 13 32  1  0  0  0  0
 13 33  1  0  0  0  0
 14 19  1  0  0  0  0
 14 15  2  0  0  0  0
 15 16  1  0  0  0  0
 15 34  1  0  0  0  0
 16 17  2  0  0  0  0
 16 35  1  0  0  0  0
 17 18  1  0  0  0  0
 17 36  1  0  0  0  0
 18 19  2  0  0  0  0
 18 37  1  0  0  0  0
 19 38  1  0  0  0  0
M  END
> <s_m_source_file>
AV-unprocessed.smi

> <i_m_source_file_index>
2572

> <i_lp_mmshare_version>
43012

> <i_f3d_flags>
0

> <s_epik_input>
W0NIM11PYzFbY0hdW2NIXWMoPU8pbihuMSlbQ0gyXVtDQEhdKFtPSF0pW0NIMl1bQ0gyXWMyW2NIXVtjSF1bY0hdW2NIXVtjSF0y

> <s_epik_cmdline>
J2VwaWtfcHl0aG9uJywgJy1waCcsICc3LjAnLCAnLXRuJywgJzgnLCAnLW1hJywgJzIwMCcsICctbWV0YWxfYmluZGluZycsICctaW1hZScsICc8aW5maWxlLm1hZT4nLCAnLW9tYWUnLCAnPG91dGZpbGUubWFlPic=

> <r_lp_tautomer_probability>
1

> <r_epik_Ionization_Penalty>
8.48543e-06

> <r_epik_Ionization_Penalty_Charging>
6.90219e-06

> <r_epik_Ionization_Penalty_Neutral>
1.58323e-06

> <r_epik_State_Penalty>
-0

> <r_epik_Charging_Adjusted_Penalty>
6.90219e-06

> <i_epik_Tot_Q>
0

> <i_epik_Tot_abs_Q>
0

> <r_epik_Metal_State_Penalty>
-0

> <b_epik_Metal_Only>
0

> <s_lp_Force_Field>
OPLS_2005

> <r_lp_Energy>
30.5458

> <b_lp_Chiralities_Consistent>
1

> <s_lp_Variant>
AV-unprocessed.smi:2572-2

> <Gold.Version>
5.8.1

> <Gold.Id.Protein>
6NUR|6NUR_protein|mol2

> <Gold.PLP.Fitness>
45.8920

> <Gold.PLP.PLP>
-40.0179

> <Gold.PLP.part.hbond>
-3.1979

> <Gold.PLP.part.metal>
0.0000

> <Gold.PLP.part.buried>
-4.5141

> <Gold.PLP.part.nonpolar>
-32.3347

> <Gold.PLP.part.repulsive>
0.0370

> <Gold.PLP.ligand.clash>
0.0000

> <Gold.PLP.ligand.torsion>
0.2084

> <Gold.PLP.Chemscore.Hbond>
2.0840

> <Gold.PLP.Chemscore.CHOScore>
0.0000

> <Gold.PLP.Chemscore.Metal>
0.0000

> <Gold.Chemscore.Hbonds>
donor molecule, donor type, donor heavy atom, donor atom, acceptor molecule, acceptor atom, score
      P1  H  6934  6947       L1     2  0.17
      P1  H  7989  7998       L1     7  0.75
      P1  H  7997  8010       L1    11  1.00

> <Gold.PLP.Chemscore.Internal.Correction>
0.0389

> <Gold.Rescore>
     Score         DG    S(hbond)    S(metal)    S(lipo)     H(rot)  DE(clash)    DE(int)     intcor
     17.58     -17.96       1.93        0.00     106.76       2.52       0.03       0.35       ----

> <Gold.Chemscore.Fitness>
17.5802

> <Gold.Chemscore.DG>
-17.9554

> <Gold.Chemscore.ZeroCoef>
-5.4800

> <Gold.Chemscore.Hbond>
1.9277

> <Gold.Chemscore.Metal>
0.0000

> <Gold.Chemscore.Lipo>
106.7620

> <Gold.Chemscore.Internal_Hbond>
0.0000

> <Gold.Chemscore.DEClash>
0.0261

> <Gold.Chemscore.DEInternal>
0.3491

> <Gold.Chemscore.Rot>
2.5212

> <Gold.Chemscore.Internal.Correction>
   9.000000E+99

> <Gold.Chemscore.Hbonds>
donor molecule, donor type, donor heavy atom, donor atom, acceptor molecule, acceptor atom, score
      P1  H  6934  6947       L1     2  0.15
      P1  H  7989  7998       L1     7  0.75
      P1  H  7997  8010       L1    11  0.19

> <Gold.Chemscore.Hbond.Weighted>
-6.4385

> <Gold.Chemscore.Metal.Weighted>
-0.0000

> <Gold.Chemscore.Lipo.Weighted>
-12.4912

> <Gold.Chemscore.Internal_Hbond.Weighted>
0.0000

> <Gold.Chemscore.DEClash.Weighted>
0.0261

> <Gold.Chemscore.DEInternal.Weighted>
0.3491

> <Gold.Chemscore.Rot.Weighted>
6.4543

> <Gold.Chemscore.Internal.Correction.Weighted>
   9.000000E+99

> <Gold.Protein.RotatedTorsions>
[ 6907 6896 6895 6894 ] final  -39.33 input  -60.11 | X-H torsion
[ 7974 7965 7964 7962 ] final   96.34 input  175.53 | X-H torsion
[ 8008 7997 7996 7995 ] final    3.35 input   59.86 | X-H torsion
[ 10167 10162 10161 10158 ] final  114.11 input  -65.29 | X-H torsion
[ 10718 10713 10712 10709 ] final  110.44 input   66.30 | X-H torsion
[ 10763 10752 10751 10750 ] final -115.14 input  -60.55 | X-H torsion
[ 11005 11000 10999 10996 ] final  -35.29 input  -57.11 | X-H torsion

> <Gold.Protein.ActiveResidues>
 VAL166  LYS551  ARG553  GLY616  TRP617  ASP618  TYR619  PRO620  LYS621  CYS622 
 ASP623  PHE694  ASN695  SER759  ASP760  ASP761  ALA762  ILE779  LEU786  VAL792 
 PHE793  MET794  SER795  GLU796  ALA797  LYS798  CYS799  TRP800  GLU811  SER814 

> <Gold.Protein.RotatedAtoms>
  150.9917  134.9250  159.7902 H   0  0  0  0  0  0  0  0  0  0  0  0  # atno 6907 bound_to 6896
  152.5253  134.3273  159.9180 H   0  0  0  0  0  0  0  0  0  0  0  0  # atno 6908 bound_to 6896
  151.3279  133.3971  159.2694 H   0  0  0  0  0  0  0  0  0  0  0  0  # atno 6909 bound_to 6896
  145.4402  139.2302  143.3096 H   0  0  0  0  0  0  0  0  0  0  0  0  # atno 7974 bound_to 7965
  154.7026  140.2676  155.6705 H   0  0  0  0  0  0  0  0  0  0  0  0  # atno 8008 bound_to 7997
  156.2770  140.2769  156.1565 H   0  0  0  0  0  0  0  0  0  0  0  0  # atno 8009 bound_to 7997
  155.0744  140.0372  157.2609 H   0  0  0  0  0  0  0  0  0  0  0  0  # atno 8010 bound_to 7997
  139.6412  144.7124  151.2232 H   0  0  0  0  0  0  0  0  0  0  0  0  # atno 10167 bound_to 10162
  157.6494  131.0932  150.6602 H   0  0  0  0  0  0  0  0  0  0  0  0  # atno 10718 bound_to 10713
  154.8469  135.4392  154.1616 H   0  0  0  0  0  0  0  0  0  0  0  0  # atno 10763 bound_to 10752
  153.2751  135.6948  153.7447 H   0  0  0  0  0  0  0  0  0  0  0  0  # atno 10764 bound_to 10752
  153.6673  135.3425  155.3119 H   0  0  0  0  0  0  0  0  0  0  0  0  # atno 10765 bound_to 10752
  140.9784  133.7070  156.1642 H   0  0  0  0  0  0  0  0  0  0  0  0  # atno 11005 bound_to 11000
  146.2560  140.5149  142.8873 LP  0  0  0  0  0  0  0  0  0  0  0  0  # atno 17320 bound_to 7965
  144.8126  140.6413  143.6405 LP  0  0  0  0  0  0  0  0  0  0  0  0  # atno 17321 bound_to 7965
  140.7492  143.6308  150.8425 LP  0  0  0  0  0  0  0  0  0  0  0  0  # atno 17342 bound_to 10162
  139.9946  143.5810  152.2898 LP  0  0  0  0  0  0  0  0  0  0  0  0  # atno 17343 bound_to 10162
  156.6915  130.4596  149.5598 LP  0  0  0  0  0  0  0  0  0  0  0  0  # atno 17370 bound_to 10713
  156.1858  130.6528  151.1005 LP  0  0  0  0  0  0  0  0  0  0  0  0  # atno 17371 bound_to 10713
  140.7223  134.4345  157.5574 LP  0  0  0  0  0  0  0  0  0  0  0  0  # atno 17394 bound_to 11000
  139.8940  134.8717  156.2197 LP  0  0  0  0  0  0  0  0  0  0  0  0  # atno 17395 bound_to 11000

$$$$
