AV-unprocessed.smi:1645|AV-procd|sdf|6623|dock6
  -GOLD-   22720 7323D 1   1.00000     0.00000
 Structure written by MMmdl.
 55 58  0  0  0  0  0  0  0  0  4 V2000
  147.7956  136.9373  155.1137 O   0  0  0  0  0  0  0  0  0  0  0  0
  147.3813  137.7053  154.2377 C   0  0  0  0  0  0  0  0  0  0  0  0
  147.8980  138.9412  154.1195 N   0  0  0  0  0  0  0  0  0  0  0  0
  148.8527  139.5913  154.9461 C   0  0  0  0  0  0  0  0  0  0  0  0
  149.9484  138.9317  155.5521 C   0  0  0  0  0  0  0  0  0  0  0  0
  150.8264  139.6590  156.3812 C   0  0  0  0  0  0  0  0  0  0  0  0
  150.6042  141.0405  156.6110 C   0  0  0  0  0  0  0  0  0  0  0  0
  151.4256  141.8455  157.4332 N   0  0  0  0  0  0  0  0  0  0  0  0
  151.7744  141.2907  158.7453 C   0  0  0  0  0  0  0  0  0  0  0  0
  152.9791  142.0204  159.3642 C   0  0  0  0  0  0  0  0  0  0  0  0
  152.7490  143.5373  159.4007 C   0  0  0  0  0  0  0  0  0  0  0  0
  152.4278  144.0480  157.9898 C   0  0  0  0  0  0  0  0  0  0  0  0
  151.2301  143.2959  157.3847 C   0  0  0  0  0  0  0  0  0  0  0  0
  149.5304  141.6185  156.0191 N   0  3  0  0  0  0  0  0  0  0  0  0
  148.6641  140.9599  155.2197 C   0  0  0  0  0  0  0  0  0  0  0  0
  146.4267  137.4562  153.3015 N   0  5  0  0  0  0  0  0  0  0  0  0
  145.3327  136.4956  153.4611 C   0  0  1  0  0  0  0  0  0  0  0  0
  143.9636  137.1219  153.1306 C   0  0  0  0  0  0  0  0  0  0  0  0
  143.1504  136.0037  152.4504 C   0  0  0  0  0  0  0  0  0  0  0  0
  144.0518  134.8366  152.3946 N   0  3  1  0  0  0  0  0  0  0  0  0
  143.8360  133.8660  151.2990 C   0  0  0  0  0  0  0  0  0  0  0  0
  144.7953  132.6723  151.4808 C   0  0  0  0  0  0  0  0  0  0  0  0
  146.2621  133.1298  151.6223 C   0  0  0  0  0  0  0  0  0  0  0  0
  146.4095  134.2017  152.7206 C   0  0  0  0  0  0  0  0  0  0  0  0
  145.4278  135.3578  152.4375 C   0  0  2  0  0  0  0  0  0  0  0  0
  147.5957  139.4616  153.3090 H   0  0  0  0  0  0  0  0  0  0  0  0
  150.1233  137.8765  155.4074 H   0  0  0  0  0  0  0  0  0  0  0  0
  151.6603  139.1352  156.8227 H   0  0  0  0  0  0  0  0  0  0  0  0
  150.9084  141.3818  159.4018 H   0  0  0  0  0  0  0  0  0  0  0  0
  152.0110  140.2288  158.6847 H   0  0  0  0  0  0  0  0  0  0  0  0
  153.1635  141.6455  160.3715 H   0  0  0  0  0  0  0  0  0  0  0  0
  153.8765  141.8013  158.7839 H   0  0  0  0  0  0  0  0  0  0  0  0
  151.9252  143.7718  160.0759 H   0  0  0  0  0  0  0  0  0  0  0  0
  153.6314  144.0432  159.7939 H   0  0  0  0  0  0  0  0  0  0  0  0
  152.2205  145.1180  158.0170 H   0  0  0  0  0  0  0  0  0  0  0  0
  153.3010  143.9181  157.3488 H   0  0  0  0  0  0  0  0  0  0  0  0
  151.1062  143.6272  156.3534 H   0  0  0  0  0  0  0  0  0  0  0  0
  150.3160  143.5505  157.9227 H   0  0  0  0  0  0  0  0  0  0  0  0
  147.8510  141.5490  154.8207 H   0  0  0  0  0  0  0  0  0  0  0  0
  145.2924  136.0610  154.4615 H   0  0  0  0  0  0  0  0  0  0  0  0
  143.4721  137.4960  154.0292 H   0  0  0  0  0  0  0  0  0  0  0  0
  144.0651  137.9622  152.4416 H   0  0  0  0  0  0  0  0  0  0  0  0
  142.2433  135.7556  153.0028 H   0  0  0  0  0  0  0  0  0  0  0  0
  142.8589  136.3098  151.4439 H   0  0  0  0  0  0  0  0  0  0  0  0
  142.8011  133.5228  151.3118 H   0  0  0  0  0  0  0  0  0  0  0  0
  144.0050  134.3503  150.3360 H   0  0  0  0  0  0  0  0  0  0  0  0
  144.5075  132.1126  152.3718 H   0  0  0  0  0  0  0  0  0  0  0  0
  144.6976  131.9835  150.6412 H   0  0  0  0  0  0  0  0  0  0  0  0
  146.9027  132.2756  151.8430 H   0  0  0  0  0  0  0  0  0  0  0  0
  146.6073  133.5368  150.6712 H   0  0  0  0  0  0  0  0  0  0  0  0
  146.2125  133.7508  153.6952 H   0  0  0  0  0  0  0  0  0  0  0  0
  147.4391  134.5634  152.7441 H   0  0  0  0  0  0  0  0  0  0  0  0
  145.6564  135.7843  151.4575 H   0  0  0  0  0  0  0  0  0  0  0  0
  143.9198  134.3413  153.2648 H   0  0  0  0  0  0  0  0  0  0  0  0
  149.3626  142.6098  156.1903 H   0  0  0  0  0  0  0  0  0  0  0  0
  1  2  2  0  0  0  0
  2  3  1  0  0  0  0
  2 16  1  0  0  0  0
  3  4  1  0  0  0  0
  3 26  1  0  0  0  0
  4 15  1  0  0  0  0
  4  5  2  0  0  0  0
  5  6  1  0  0  0  0
  5 27  1  0  0  0  0
  6  7  2  0  0  0  0
  6 28  1  0  0  0  0
  7  8  1  0  0  0  0
  7 14  1  0  0  0  0
  8 13  1  0  0  0  0
  8  9  1  0  0  0  0
  9 10  1  0  0  0  0
  9 29  1  0  0  0  0
  9 30  1  0  0  0  0
 10 11  1  0  0  0  0
 10 31  1  0  0  0  0
 10 32  1  0  0  0  0
 11 12  1  0  0  0  0
 11 33  1  0  0  0  0
 11 34  1  0  0  0  0
 12 13  1  0  0  0  0
 12 35  1  0  0  0  0
 12 36  1  0  0  0  0
 13 37  1  0  0  0  0
 13 38  1  0  0  0  0
 14 15  2  0  0  0  0
 14 55  1  0  0  0  0
 15 39  1  0  0  0  0
 16 17  1  0  0  0  0
 17 25  1  0  0  0  0
 17 18  1  0  0  0  0
 17 40  1  0  0  0  0
 18 19  1  0  0  0  0
 18 41  1  0  0  0  0
 18 42  1  0  0  0  0
 19 20  1  0  0  0  0
 19 43  1  0  0  0  0
 19 44  1  0  0  0  0
 20 25  1  0  0  0  0
 20 21  1  0  0  0  0
 20 54  1  0  0  0  0
 21 22  1  0  0  0  0
 21 45  1  0  0  0  0
 21 46  1  0  0  0  0
 22 23  1  0  0  0  0
 22 47  1  0  0  0  0
 22 48  1  0  0  0  0
 23 24  1  0  0  0  0
 23 49  1  0  0  0  0
 23 50  1  0  0  0  0
 24 25  1  0  0  0  0
 24 51  1  0  0  0  0
 24 52  1  0  0  0  0
 25 53  1  0  0  0  0
M  CHG  1  14   1
M  CHG  1  16  -1
M  CHG  1  20   1
M  END
> <s_m_source_file>
AV-unprocessed.smi

> <i_m_source_file_index>
1645

> <i_lp_mmshare_version>
43012

> <i_f3d_flags>
0

> <s_epik_input>
W0NIMl0xW0NIMl1bQ0gyXVtDSDJdW0NASF0oTjEyKVtDQEBIXShbQ0gyXVtDSDJdMilbTkhdQyg9TylbTkhdYzNbY0hdW2NIXWMobltjSF0zKU40W0NIMl1bQ0gyXVtDSDJdW0NIMl1bQ0gyXTQ=

> <s_epik_cmdline>
J2VwaWtfcHl0aG9uJywgJy1waCcsICc3LjAnLCAnLXRuJywgJzgnLCAnLW1hJywgJzIwMCcsICctbWV0YWxfYmluZGluZycsICctaW1hZScsICc8aW5maWxlLm1hZT4nLCAnLW9tYWUnLCAnPG91dGZpbGUubWFlPic=

> <r_lp_tautomer_probability>
0.999994

> <r_epik_Ionization_Penalty>
8.55589

> <r_epik_Ionization_Penalty_Charging>
8.55589

> <r_epik_Ionization_Penalty_Neutral>
3.8092e-06

> <r_epik_State_Penalty>
8.15703

> <r_epik_Charging_Adjusted_Penalty>
16.7129

> <i_epik_Tot_Q>
1

> <i_epik_Tot_abs_Q>
3

> <r_epik_Metal_State_Penalty>
4.13781

> <b_epik_Metal_Only>
1

> <s_lp_Force_Field>
OPLS_2005

> <r_lp_Energy>
51.9528

> <b_lp_Chiralities_Consistent>
1

> <s_lp_Variant>
AV-unprocessed.smi:1645-24

> <Gold.Version>
5.8.1

> <Gold.Id.Protein>
6NUR|6NUR_protein|mol2

> <Gold.PLP.Fitness>
45.0876

> <Gold.PLP.PLP>
-40.6157

> <Gold.PLP.part.hbond>
-1.0000

> <Gold.PLP.part.metal>
0.0000

> <Gold.PLP.part.buried>
-2.1750

> <Gold.PLP.part.nonpolar>
-38.7663

> <Gold.PLP.part.repulsive>
0.6819

> <Gold.PLP.ligand.clash>
0.0000

> <Gold.PLP.ligand.torsion>
0.9171

> <Gold.PLP.Chemscore.Hbond>
2.0000

> <Gold.PLP.Chemscore.CHOScore>
0.0000

> <Gold.PLP.Chemscore.Metal>
0.0000

> <Gold.Chemscore.Hbonds>
donor molecule, donor type, donor heavy atom, donor atom, acceptor molecule, acceptor atom, score
      L1  H    14    55       P1  8028  1.01

> <Gold.PLP.Chemscore.Internal.Correction>
0.3062

> <Gold.Rescore>
     Score         DG    S(hbond)    S(metal)    S(lipo)     H(rot)  DE(clash)    DE(int)     intcor
     17.35     -19.50       0.99        0.00     113.51       1.00       0.05       2.09       ----

> <Gold.Chemscore.Fitness>
17.3513

> <Gold.Chemscore.DG>
-19.4965

> <Gold.Chemscore.ZeroCoef>
-5.4800

> <Gold.Chemscore.Hbond>
0.9869

> <Gold.Chemscore.Metal>
0.0000

> <Gold.Chemscore.Lipo>
113.5069

> <Gold.Chemscore.Internal_Hbond>
0.0000

> <Gold.Chemscore.DEClash>
0.0542

> <Gold.Chemscore.DEInternal>
2.0910

> <Gold.Chemscore.Rot>
1.0000

> <Gold.Chemscore.Internal.Correction>
   9.000000E+99

> <Gold.Chemscore.Hbonds>
donor molecule, donor type, donor heavy atom, donor atom, acceptor molecule, acceptor atom, score
      L1  H    14    55       P1  8028  0.49

> <Gold.Chemscore.Hbond.Weighted>
-3.2962

> <Gold.Chemscore.Metal.Weighted>
-0.0000

> <Gold.Chemscore.Lipo.Weighted>
-13.2803

> <Gold.Chemscore.Internal_Hbond.Weighted>
0.0000

> <Gold.Chemscore.DEClash.Weighted>
0.0542

> <Gold.Chemscore.DEInternal.Weighted>
2.0910

> <Gold.Chemscore.Rot.Weighted>
2.5600

> <Gold.Chemscore.Internal.Correction.Weighted>
   9.000000E+99

> <Gold.Protein.RotatedTorsions>
[ 6907 6896 6895 6894 ] final -175.66 input  -60.11 | X-H torsion
[ 7974 7965 7964 7962 ] final  -96.10 input  175.53 | X-H torsion
[ 8008 7997 7996 7995 ] final  115.43 input   59.86 | X-H torsion
[ 10167 10162 10161 10158 ] final   44.62 input  -65.29 | X-H torsion
[ 10718 10713 10712 10709 ] final   22.20 input   66.30 | X-H torsion
[ 10763 10752 10751 10750 ] final   82.40 input  -60.55 | X-H torsion
[ 11005 11000 10999 10996 ] final   -4.05 input  -57.11 | X-H torsion

> <Gold.Protein.ActiveResidues>
 VAL166  LYS551  ARG553  GLY616  TRP617  ASP618  TYR619  PRO620  LYS621  CYS622 
 ASP623  PHE694  ASN695  SER759  ASP760  ASP761  ALA762  ILE779  LEU786  VAL792 
 PHE793  MET794  SER795  GLU796  ALA797  LYS798  CYS799  TRP800  GLU811  SER814 

> <Gold.Protein.RotatedAtoms>
  151.5921  133.3365  159.3029 H   0  0  0  0  0  0  0  0  0  0  0  0  # atno 6907 bound_to 6896
  150.8254  134.7486  159.6820 H   0  0  0  0  0  0  0  0  0  0  0  0  # atno 6908 bound_to 6896
  152.4344  134.5721  159.9976 H   0  0  0  0  0  0  0  0  0  0  0  0  # atno 6909 bound_to 6896
  145.3513  140.9477  143.2553 H   0  0  0  0  0  0  0  0  0  0  0  0  # atno 7974 bound_to 7965
  156.2381  140.2939  156.0367 H   0  0  0  0  0  0  0  0  0  0  0  0  # atno 8008 bound_to 7997
  155.2033  140.0410  157.2938 H   0  0  0  0  0  0  0  0  0  0  0  0  # atno 8009 bound_to 7997
  154.6116  140.2453  155.7669 H   0  0  0  0  0  0  0  0  0  0  0  0  # atno 8010 bound_to 7997
  140.3324  144.2571  150.6166 H   0  0  0  0  0  0  0  0  0  0  0  0  # atno 10167 bound_to 10162
  157.1490  130.6666  149.6005 H   0  0  0  0  0  0  0  0  0  0  0  0  # atno 10718 bound_to 10713
  153.1199  135.4730  154.9178 H   0  0  0  0  0  0  0  0  0  0  0  0  # atno 10763 bound_to 10752
  154.7565  135.3120  154.8462 H   0  0  0  0  0  0  0  0  0  0  0  0  # atno 10764 bound_to 10752
  153.9029  135.6873  153.4808 H   0  0  0  0  0  0  0  0  0  0  0  0  # atno 10765 bound_to 10752
  140.6760  133.9195  155.8524 H   0  0  0  0  0  0  0  0  0  0  0  0  # atno 11005 bound_to 11000
  144.8716  139.5031  143.6765 LP  0  0  0  0  0  0  0  0  0  0  0  0  # atno 17320 bound_to 7965
  146.2967  139.7299  142.9122 LP  0  0  0  0  0  0  0  0  0  0  0  0  # atno 17321 bound_to 7965
  140.5384  143.2228  151.8124 LP  0  0  0  0  0  0  0  0  0  0  0  0  # atno 17342 bound_to 10162
  139.4854  144.4631  151.9517 LP  0  0  0  0  0  0  0  0  0  0  0  0  # atno 17343 bound_to 10162
  155.9774  130.4751  150.6591 LP  0  0  0  0  0  0  0  0  0  0  0  0  # atno 17370 bound_to 10713
  157.4238  131.0840  151.1105 LP  0  0  0  0  0  0  0  0  0  0  0  0  # atno 17371 bound_to 10713
  141.0355  134.0695  157.3964 LP  0  0  0  0  0  0  0  0  0  0  0  0  # atno 17394 bound_to 11000
  139.8966  135.0147  156.7062 LP  0  0  0  0  0  0  0  0  0  0  0  0  # atno 17395 bound_to 11000

$$$$
