AV-unprocessed.smi:21|AV-procd|sdf|137|dock4
  -GOLD-   2262015333D 1   1.00000     0.00000
 Structure written by MMmdl.
 62 65  0  0  0  0  0  0  0  0  2 V2000
  140.1103  135.9134  153.6140 C   0  0  0  0  0  0  0  0  0  0  0  0
  141.2737  136.7000  153.4156 O   0  0  0  0  0  0  0  0  0  0  0  0
  142.4811  135.9555  153.4792 C   0  0  1  0  0  0  0  0  0  0  0  0
  142.6453  134.9747  152.3228 C   0  0  0  0  0  0  0  0  0  0  0  0
  144.1631  134.7549  152.2426 C   0  0  1  0  0  0  0  0  0  0  0  0
  144.6543  134.3065  150.8439 C   0  0  0  0  0  0  0  0  0  0  0  0
  145.2271  132.9572  150.8574 N   0  0  0  0  0  0  0  0  0  0  0  0
  145.0600  132.1338  149.6661 C   0  0  0  0  0  0  0  0  0  0  0  0
  146.1066  132.5813  151.8317 C   0  0  0  0  0  0  0  0  0  0  0  0
  146.9200  133.5321  152.3645 N   0  0  0  0  0  0  0  0  0  0  0  0
  147.8035  133.2274  153.3172 C   0  0  0  0  0  0  0  0  0  0  0  0
  148.0392  132.0454  153.8833 N   0  0  0  0  0  0  0  0  0  0  0  0
  147.2294  131.0787  153.3681 C   0  0  0  0  0  0  0  0  0  0  0  0
  146.2492  131.2539  152.3461 C   0  0  0  0  0  0  0  0  0  0  0  0
  145.6491  130.0284  152.0739 N   0  0  0  0  0  0  0  0  0  0  0  0
  146.2273  129.1899  152.8878 C   0  0  0  0  0  0  0  0  0  0  0  0
  147.1779  129.7390  153.7163 N   0  0  0  0  0  0  0  0  0  0  0  0
  147.9656  129.0322  154.7173 C   0  0  0  0  0  0  0  0  0  0  0  0
  149.4609  128.8384  154.3396 C   0  0  2  0  0  0  0  0  0  0  0  0
  149.7858  127.3792  153.9395 C   0  0  0  0  0  0  0  0  0  0  0  0
  149.5484  127.1641  152.5637 O   0  0  0  0  0  0  0  0  0  0  0  0
  150.4173  129.3428  155.4518 C   0  0  2  0  0  0  0  0  0  0  0  0
  150.3126  130.8296  155.7511 C   0  0  0  0  0  0  0  0  0  0  0  0
  151.6106  131.0998  156.5029 C   0  0  0  0  0  0  0  0  0  0  0  0
  152.5656  130.2010  155.9506 O   0  0  0  0  0  0  0  0  0  0  0  0
  151.9105  129.2499  155.1179 C   0  0  0  0  0  0  0  0  0  0  0  0
  144.7788  136.0046  152.7809 N   0  3  1  0  0  0  0  0  0  0  0  0
  145.7470  136.7256  151.9210 C   0  0  0  0  0  0  0  0  0  0  0  0
  143.6875  136.8704  153.2830 C   0  0  0  0  0  0  0  0  0  0  0  0
  142.5719  135.4359  154.4350 H   0  0  0  0  0  0  0  0  0  0  0  0
  144.4258  133.9786  152.9627 H   0  0  0  0  0  0  0  0  0  0  0  0
  139.2298  136.5559  153.5934 H   0  0  0  0  0  0  0  0  0  0  0  0
  140.1342  135.4084  154.5802 H   0  0  0  0  0  0  0  0  0  0  0  0
  139.9934  135.1648  152.8300 H   0  0  0  0  0  0  0  0  0  0  0  0
  142.0935  134.0456  152.4698 H   0  0  0  0  0  0  0  0  0  0  0  0
  142.2835  135.4382  151.4038 H   0  0  0  0  0  0  0  0  0  0  0  0
  143.8573  134.4013  150.1071 H   0  0  0  0  0  0  0  0  0  0  0  0
  145.4422  134.9777  150.5020 H   0  0  0  0  0  0  0  0  0  0  0  0
  145.9485  132.1812  149.0361 H   0  0  0  0  0  0  0  0  0  0  0  0
  144.2122  132.4755  149.0721 H   0  0  0  0  0  0  0  0  0  0  0  0
  144.8712  131.0941  149.9357 H   0  0  0  0  0  0  0  0  0  0  0  0
  148.4069  134.0476  153.6779 H   0  0  0  0  0  0  0  0  0  0  0  0
  145.9680  128.1413  152.9110 H   0  0  0  0  0  0  0  0  0  0  0  0
  147.8938  129.5916  155.6507 H   0  0  0  0  0  0  0  0  0  0  0  0
  147.4883  128.0739  154.9208 H   0  0  0  0  0  0  0  0  0  0  0  0
  149.6452  129.4563  153.4593 H   0  0  0  0  0  0  0  0  0  0  0  0
  150.8362  127.1520  154.1179 H   0  0  0  0  0  0  0  0  0  0  0  0
  149.2081  126.6659  154.5277 H   0  0  0  0  0  0  0  0  0  0  0  0
  150.3559  127.3072  152.0936 H   0  0  0  0  0  0  0  0  0  0  0  0
  150.2425  128.7821  156.3710 H   0  0  0  0  0  0  0  0  0  0  0  0
  150.2943  131.4039  154.8236 H   0  0  0  0  0  0  0  0  0  0  0  0
  149.4340  131.1042  156.3331 H   0  0  0  0  0  0  0  0  0  0  0  0
  151.9365  132.1362  156.4132 H   0  0  0  0  0  0  0  0  0  0  0  0
  151.4903  130.8715  157.5627 H   0  0  0  0  0  0  0  0  0  0  0  0
  152.3151  128.2506  155.2788 H   0  0  0  0  0  0  0  0  0  0  0  0
  152.0919  129.5249  154.0778 H   0  0  0  0  0  0  0  0  0  0  0  0
  145.2864  137.0591  150.9903 H   0  0  0  0  0  0  0  0  0  0  0  0
  146.6073  136.0994  151.6851 H   0  0  0  0  0  0  0  0  0  0  0  0
  146.1235  137.6070  152.4418 H   0  0  0  0  0  0  0  0  0  0  0  0
  143.4484  137.6257  152.5318 H   0  0  0  0  0  0  0  0  0  0  0  0
  143.9729  137.3900  154.1981 H   0  0  0  0  0  0  0  0  0  0  0  0
  145.2974  135.7115  153.5967 H   0  0  0  0  0  0  0  0  0  0  0  0
  1  2  1  0  0  0  0
  1 32  1  0  0  0  0
  1 33  1  0  0  0  0
  1 34  1  0  0  0  0
  2  3  1  0  0  0  0
  3 30  1  0  0  0  0
  3 29  1  0  0  0  0
  3  4  1  0  0  0  0
  4  5  1  0  0  0  0
  4 35  1  0  0  0  0
  4 36  1  0  0  0  0
  5 31  1  0  0  0  0
  5  6  1  0  0  0  0
  5 27  1  0  0  0  0
  6  7  1  0  0  0  0
  6 37  1  0  0  0  0
  6 38  1  0  0  0  0
  7  8  1  0  0  0  0
  7  9  1  0  0  0  0
  8 39  1  0  0  0  0
  8 40  1  0  0  0  0
  8 41  1  0  0  0  0
  9 14  1  0  0  0  0
  9 10  2  0  0  0  0
 10 11  1  0  0  0  0
 11 12  2  0  0  0  0
 11 42  1  0  0  0  0
 12 13  1  0  0  0  0
 13 17  1  0  0  0  0
 13 14  2  0  0  0  0
 14 15  1  0  0  0  0
 15 16  2  0  0  0  0
 16 17  1  0  0  0  0
 16 43  1  0  0  0  0
 17 18  1  0  0  0  0
 18 19  1  0  0  0  0
 18 44  1  0  0  0  0
 18 45  1  0  0  0  0
 19 20  1  0  0  0  0
 19 22  1  0  0  0  0
 19 46  1  0  0  0  0
 20 21  1  0  0  0  0
 20 47  1  0  0  0  0
 20 48  1  0  0  0  0
 21 49  1  0  0  0  0
 22 26  1  0  0  0  0
 22 23  1  0  0  0  0
 22 50  1  0  0  0  0
 23 24  1  0  0  0  0
 23 51  1  0  0  0  0
 23 52  1  0  0  0  0
 24 25  1  0  0  0  0
 24 53  1  0  0  0  0
 24 54  1  0  0  0  0
 25 26  1  0  0  0  0
 26 55  1  0  0  0  0
 26 56  1  0  0  0  0
 27 28  1  0  0  0  0
 27 29  1  0  0  0  0
 27 62  1  0  0  0  0
 28 57  1  0  0  0  0
 28 58  1  0  0  0  0
 28 59  1  0  0  0  0
 29 60  1  0  0  0  0
 29 61  1  0  0  0  0
M  CHG  1  27   1
M  END
> <s_m_source_file>
AV-unprocessed.smi

> <i_m_source_file_index>
21

> <i_lp_mmshare_version>
43012

> <i_f3d_flags>
0

> <s_epik_input>
W0NIM11PW0NASF0xW0NIMl1bQ0BIXShOKFtDSDNdKVtDSDJdMSlbQ0gyXU4oW0NIM10pYyhuW2NIXW4yKWMoYzIzKW5bY0hdbjNbQ0gyXVtDQEhdKFtDSDJdW09IXSlbQ0BASF00W0NIMl1bQ0gyXU9bQ0gyXTQ=

> <s_epik_cmdline>
J2VwaWtfcHl0aG9uJywgJy1waCcsICc3LjAnLCAnLXRuJywgJzgnLCAnLW1hJywgJzIwMCcsICctbWV0YWxfYmluZGluZycsICctaW1hZScsICc8aW5maWxlLm1hZT4nLCAnLW9tYWUnLCAnPG91dGZpbGUubWFlPic=

> <r_lp_tautomer_probability>
1

> <r_epik_Ionization_Penalty>
0.0157465

> <r_epik_Ionization_Penalty_Charging>
0.015354

> <r_epik_Ionization_Penalty_Neutral>
0.000392529

> <r_epik_State_Penalty>
0.0120612

> <r_epik_Charging_Adjusted_Penalty>
0.0274152

> <i_epik_Tot_Q>
1

> <i_epik_Tot_abs_Q>
1

> <r_epik_Metal_State_Penalty>
0.0121253

> <b_epik_Metal_Only>
0

> <s_lp_Force_Field>
OPLS_2005

> <r_lp_Energy>
60.1072

> <b_lp_Chiralities_Consistent>
1

> <s_lp_Variant>
AV-unprocessed.smi:21-17

> <Gold.Version>
5.8.1

> <Gold.Id.Protein>
6NUR|6NUR_protein|mol2

> <Gold.PLP.Fitness>
44.2218

> <Gold.PLP.PLP>
-44.3904

> <Gold.PLP.part.hbond>
-1.0000

> <Gold.PLP.part.metal>
0.0000

> <Gold.PLP.part.buried>
-4.7174

> <Gold.PLP.part.nonpolar>
-39.3055

> <Gold.PLP.part.repulsive>
0.6489

> <Gold.PLP.ligand.clash>
0.0000

> <Gold.PLP.ligand.torsion>
2.8214

> <Gold.PLP.Chemscore.Hbond>
1.0000

> <Gold.PLP.Chemscore.CHOScore>
0.6825

> <Gold.PLP.Chemscore.Metal>
0.0000

> <Gold.Chemscore.Hbonds>
donor molecule, donor type, donor heavy atom, donor atom, acceptor molecule, acceptor atom, score
      L1  H    21    49       P1 10737  1.00
      L1  C    11    42       P1  7948  0.15

> <Gold.PLP.Chemscore.Internal.Correction>
0.4268

> <Gold.Rescore>
     Score         DG    S(hbond)    S(metal)    S(lipo)     H(rot)  DE(clash)    DE(int)     intcor
      7.84     -10.71       0.99        0.00      83.81       3.08       0.05       2.83       ----

> <Gold.Chemscore.Fitness>
7.8370

> <Gold.Chemscore.DG>
-10.7132

> <Gold.Chemscore.ZeroCoef>
-5.4800

> <Gold.Chemscore.Hbond>
0.9886

> <Gold.Chemscore.Metal>
0.0000

> <Gold.Chemscore.Lipo>
83.8074

> <Gold.Chemscore.Internal_Hbond>
0.0000

> <Gold.Chemscore.DEClash>
0.0466

> <Gold.Chemscore.DEInternal>
2.8295

> <Gold.Chemscore.Rot>
3.0758

> <Gold.Chemscore.Internal.Correction>
   9.000000E+99

> <Gold.Chemscore.Hbonds>
donor molecule, donor type, donor heavy atom, donor atom, acceptor molecule, acceptor atom, score
      L1  H    21    49       P1 10737  1.00

> <Gold.Chemscore.Hbond.Weighted>
-3.3019

> <Gold.Chemscore.Metal.Weighted>
-0.0000

> <Gold.Chemscore.Lipo.Weighted>
-9.8055

> <Gold.Chemscore.Internal_Hbond.Weighted>
0.0000

> <Gold.Chemscore.DEClash.Weighted>
0.0466

> <Gold.Chemscore.DEInternal.Weighted>
2.8295

> <Gold.Chemscore.Rot.Weighted>
7.8741

> <Gold.Chemscore.Internal.Correction.Weighted>
   9.000000E+99

> <Gold.Protein.RotatedTorsions>
[ 6907 6896 6895 6894 ] final   50.05 input  -60.11 | X-H torsion
[ 7974 7965 7964 7962 ] final  179.51 input  175.53 | X-H torsion
[ 8008 7997 7996 7995 ] final   91.07 input   59.86 | X-H torsion
[ 10167 10162 10161 10158 ] final   46.60 input  -65.29 | X-H torsion
[ 10718 10713 10712 10709 ] final   95.64 input   66.30 | X-H torsion
[ 10763 10752 10751 10750 ] final  -74.96 input  -60.55 | X-H torsion
[ 11005 11000 10999 10996 ] final  -98.68 input  -57.11 | X-H torsion

> <Gold.Protein.ActiveResidues>
 VAL166  LYS551  ARG553  GLY616  TRP617  ASP618  TYR619  PRO620  LYS621  CYS622 
 ASP623  PHE694  ASN695  SER759  ASP760  ASP761  ALA762  ILE779  LEU786  VAL792 
 PHE793  MET794  SER795  GLU796  ALA797  LYS798  CYS799  TRP800  GLU811  SER814 

> <Gold.Protein.RotatedAtoms>
  152.2975  134.7650  160.0364 H   0  0  0  0  0  0  0  0  0  0  0  0  # atno 6907 bound_to 6896
  151.8174  133.3384  159.3582 H   0  0  0  0  0  0  0  0  0  0  0  0  # atno 6908 bound_to 6896
  150.7258  134.5535  159.5851 H   0  0  0  0  0  0  0  0  0  0  0  0  # atno 6909 bound_to 6896
  144.7145  140.0558  143.6434 H   0  0  0  0  0  0  0  0  0  0  0  0  # atno 7974 bound_to 7965
  156.0194  140.3342  155.7023 H   0  0  0  0  0  0  0  0  0  0  0  0  # atno 8008 bound_to 7997
  155.6044  140.0659  157.2741 H   0  0  0  0  0  0  0  0  0  0  0  0  # atno 8009 bound_to 7997
  154.4310  140.1804  156.1195 H   0  0  0  0  0  0  0  0  0  0  0  0  # atno 8010 bound_to 7997
  140.3123  144.2806  150.6197 H   0  0  0  0  0  0  0  0  0  0  0  0  # atno 10167 bound_to 10162
  157.6936  131.0552  150.4370 H   0  0  0  0  0  0  0  0  0  0  0  0  # atno 10718 bound_to 10713
  154.4802  135.5847  153.6384 H   0  0  0  0  0  0  0  0  0  0  0  0  # atno 10763 bound_to 10752
  152.9846  135.6088  154.3256 H   0  0  0  0  0  0  0  0  0  0  0  0  # atno 10764 bound_to 10752
  154.3146  135.2844  155.2528 H   0  0  0  0  0  0  0  0  0  0  0  0  # atno 10765 bound_to 10752
  141.1336  133.8264  157.0872 H   0  0  0  0  0  0  0  0  0  0  0  0  # atno 11005 bound_to 11000
  145.9905  139.3011  143.0987 LP  0  0  0  0  0  0  0  0  0  0  0  0  # atno 17320 bound_to 7965
  145.8908  140.9305  143.0553 LP  0  0  0  0  0  0  0  0  0  0  0  0  # atno 17321 bound_to 7965
  140.5557  143.2199  151.7851 LP  0  0  0  0  0  0  0  0  0  0  0  0  # atno 17342 bound_to 10162
  139.4891  144.4416  151.9757 LP  0  0  0  0  0  0  0  0  0  0  0  0  # atno 17343 bound_to 10162
  156.4732  130.4057  149.6506 LP  0  0  0  0  0  0  0  0  0  0  0  0  # atno 17370 bound_to 10713
  156.3579  130.7466  151.2434 LP  0  0  0  0  0  0  0  0  0  0  0  0  # atno 17371 bound_to 10713
  140.0415  134.9852  157.0970 LP  0  0  0  0  0  0  0  0  0  0  0  0  # atno 17394 bound_to 11000
  140.4128  134.1963  155.7163 LP  0  0  0  0  0  0  0  0  0  0  0  0  # atno 17395 bound_to 11000

$$$$
