#       Name:                AV-unprocessed.smi:3204
#       Creating user name   scv26
#       Creation time:       Fri Mar 27 18:08:53 2020


#       File generated by GOLD software.
#

@<TRIPOS>MOLECULE
AV-unprocessed.smi:3204
    36    37     1
SMALL
NO_CHARGES


@<TRIPOS>ATOM
      1 ****        -3.6330  -2.9721   1.4255 C.3            1 S1                 0.0000
      2 ****        -3.0446  -2.6746   0.0416 C.3            1 S1                 0.0000
      3 ****        -2.2610  -1.3755   0.0170 C.ar           1 S1                 0.0000
      4 ****        -2.9751  -0.2380  -0.1373 N.ar           1 S1                 0.0000
      5 ****        -2.2883   0.9067  -0.1459 C.ar           1 S1                 0.0000
      6 ****        -0.9666   1.0462  -0.0141 N.ar           1 S1                 0.0000
      7 ****        -0.2369  -0.0840   0.1457 C.ar           1 S1                 0.0000
      8 ****         1.1542   0.0049   0.2983 N.pl3          1 S1                 0.0000
      9 ****         1.8508   1.2850   0.2367 C.3            1 S1                 0.0000
     10 ****         3.3001   1.1499   0.7066 C.3            1 S1                 0.0000
     11 ****         3.9736   2.1854   0.0150 O.3            1 S1                 0.0000
     12 ****         3.4834   2.1799  -1.3168 C.3            1 S1                 0.0000
     13 ****         1.9950   1.8307  -1.1880 C.3            1 S1                 0.0000
     14 ****         1.2237   3.0041  -1.3474 O.3            1 S1                 0.0000
     15 ****        -0.8572  -1.3517   0.1682 C.ar           1 S1                 0.0000
     16 ****        -0.1394  -2.4897   0.3338 F              1 S1                 0.0000
     17 ****        -4.1924  -3.9078   1.4167 H              1 S1                 0.0000
     18 ****        -4.3125  -2.1810   1.7442 H              1 S1                 0.0000
     19 ****        -2.8462  -3.0612   2.1751 H              1 S1                 0.0000
     20 ****        -2.4000  -3.4964  -0.2716 H              1 S1                 0.0000
     21 ****        -3.8474  -2.6197  -0.6947 H              1 S1                 0.0000
     22 ****        -2.8603   1.8138  -0.2718 H              1 S1                 0.0000
     23 ****         1.6960  -0.8398   0.4127 H              1 S1                 0.0000
     24 ****         1.3506   2.0150   0.8755 H              1 S1                 0.0000
     25 ****         3.4022   1.2527   1.7872 H              1 S1                 0.0000
     26 ****         3.7313   0.1911   0.4119 H              1 S1                 0.0000
     27 ****         3.6713   3.1306  -1.8175 H              1 S1                 0.0000
     28 ****         4.0050   1.4013  -1.8754 H              1 S1                 0.0000
     29 ****         1.7058   1.1056  -1.9502 H              1 S1                 0.0000
     30 ****         0.3182   2.7880  -1.1823 H              1 S1                 0.0000
     31 ****        -3.9697  -0.2533  -0.2400 LP             1 S1                 0.0000
     32 ****        -0.5336   1.9474  -0.0326 LP             1 S1                 0.0000
     33 ****         4.9592   2.0169   0.0192 LP             1 S1                 0.0000
     34 ****         3.7843   3.0671   0.4473 LP             1 S1                 0.0000
     35 ****         1.3241   3.3509  -2.2799 LP             1 S1                 0.0000
     36 ****         1.5291   3.7006  -0.6980 LP             1 S1                 0.0000
@<TRIPOS>BOND
    1    1    2 1     
    2    1   17 1     
    3    1   18 1     
    4    1   19 1     
    5    2    3 1     
    6    2   20 1     
    7    2   21 1     
    8    3   15 ar    
    9    3    4 ar    
   10    4    5 ar    
   11    5    6 ar    
   12    5   22 1     
   13    6    7 ar    
   14    7    8 1     
   15    7   15 ar    
   16    8    9 1     
   17    8   23 1     
   18    9   13 1     
   19    9   10 1     
   20    9   24 1     
   21   10   11 1     
   22   10   25 1     
   23   10   26 1     
   24   11   12 1     
   25   12   13 1     
   26   12   27 1     
   27   12   28 1     
   28   13   14 1     
   29   13   29 1     
   30   14   30 1     
   31   15   16 1     
   32    4   31 1     
   33    6   32 1     
   34   11   33 1     
   35   11   34 1     
   36   14   35 1     
   37   14   36 1     
@<TRIPOS>SUBSTRUCTURE
      1 S1             1
@<TRIPOS>SET
LONE_PAIRS      STATIC     ATOMS    <user>   **** ""
6 31 32 33 34 35 36
DONOR_HYDROGENS      STATIC     ATOMS    <user>   **** ""
2 23 30
ATOM$BLUE        STATIC     ATOMS    COLORGROUP SYSTEM
6 31 32 33 34 35 36
ATOM$RED        STATIC     ATOMS    COLORGROUP SYSTEM
2 23 30
