AV-unprocessed.smi:2647|AV-procd|sdf|10284|dock9
  -GOLD-   2272014293D 1   1.00000     0.00000
 Structure written by MMmdl.
 31 32  0  0  0  0  0  0  0  0  2 V2000
  149.1804  135.8179  159.2043 O   0  0  0  0  0  0  0  0  0  0  0  0
  148.6574  136.8808  159.5471 C   0  0  0  0  0  0  0  0  0  0  0  0
  148.9071  138.0028  158.8568 N   0  0  0  0  0  0  0  0  0  0  0  0
  149.7772  138.1158  157.6911 C   0  0  0  0  0  0  0  0  0  0  0  0
  150.6042  139.4108  157.7264 C   0  0  0  0  0  0  0  0  0  0  0  0
  151.6133  139.4308  158.8868 C   0  0  0  0  0  0  0  0  0  0  0  0
  152.1885  140.7668  159.0740 N   0  0  0  0  0  0  0  0  0  0  0  0
  151.4688  141.8976  159.0939 C   0  0  0  0  0  0  0  0  0  0  0  0
  150.2505  141.9898  158.9453 O   0  0  0  0  0  0  0  0  0  0  0  0
  152.3594  143.1084  159.3370 C   0  0  0  0  0  0  0  0  0  0  0  0
  153.7565  142.4919  159.4576 C   0  0  0  0  0  0  0  0  0  0  0  0
  153.4923  141.0029  159.2789 C   0  0  0  0  0  0  0  0  0  0  0  0
  154.3881  140.1606  159.3269 O   0  0  0  0  0  0  0  0  0  0  0  0
  147.8210  137.0609  160.5947 N   0  5  0  0  0  0  0  0  0  0  0  0
  147.4921  136.0208  161.3785 C   0  0  0  0  0  0  0  0  0  0  0  0
  147.5449  136.0857  162.7187 N   0  0  0  0  0  0  0  0  0  0  0  0
  147.1696  134.9014  163.3382 N   0  0  0  0  0  0  0  0  0  0  0  0
  146.8503  133.9655  162.4444 C   0  0  0  0  0  0  0  0  0  0  0  0
  146.9811  134.4453  160.7657 S   0  0  0  0  0  0  0  0  0  0  0  0
  148.4563  138.8490  159.1723 H   0  0  0  0  0  0  0  0  0  0  0  0
  150.4303  137.2441  157.6227 H   0  0  0  0  0  0  0  0  0  0  0  0
  149.1476  138.1022  156.8012 H   0  0  0  0  0  0  0  0  0  0  0  0
  151.1334  139.5269  156.7795 H   0  0  0  0  0  0  0  0  0  0  0  0
  149.9363  140.2688  157.8134 H   0  0  0  0  0  0  0  0  0  0  0  0
  151.1264  139.0997  159.8057 H   0  0  0  0  0  0  0  0  0  0  0  0
  152.4092  138.7078  158.6998 H   0  0  0  0  0  0  0  0  0  0  0  0
  152.2930  143.8072  158.5024 H   0  0  0  0  0  0  0  0  0  0  0  0
  152.0623  143.6221  160.2518 H   0  0  0  0  0  0  0  0  0  0  0  0
  154.4301  142.8557  158.6810 H   0  0  0  0  0  0  0  0  0  0  0  0
  154.2045  142.6866  160.4326 H   0  0  0  0  0  0  0  0  0  0  0  0
  146.5383  132.9863  162.7753 H   0  0  0  0  0  0  0  0  0  0  0  0
  1  2  2  0  0  0  0
  2  3  1  0  0  0  0
  2 14  1  0  0  0  0
  3  4  1  0  0  0  0
  3 20  1  0  0  0  0
  4  5  1  0  0  0  0
  4 21  1  0  0  0  0
  4 22  1  0  0  0  0
  5  6  1  0  0  0  0
  5 23  1  0  0  0  0
  5 24  1  0  0  0  0
  6  7  1  0  0  0  0
  6 25  1  0  0  0  0
  6 26  1  0  0  0  0
  7 12  1  0  0  0  0
  7  8  1  0  0  0  0
  8  9  2  0  0  0  0
  8 10  1  0  0  0  0
 10 11  1  0  0  0  0
 10 27  1  0  0  0  0
 10 28  1  0  0  0  0
 11 12  1  0  0  0  0
 11 29  1  0  0  0  0
 11 30  1  0  0  0  0
 12 13  2  0  0  0  0
 14 15  1  0  0  0  0
 15 19  1  0  0  0  0
 15 16  2  0  0  0  0
 16 17  1  0  0  0  0
 17 18  2  0  0  0  0
 18 19  1  0  0  0  0
 18 31  1  0  0  0  0
M  CHG  1  14  -1
M  END
> <s_m_source_file>
AV-unprocessed.smi

> <i_m_source_file_index>
2647

> <i_lp_mmshare_version>
43012

> <i_f3d_flags>
0

> <s_epik_input>
czFbY0hdbm5jMVtOSF1DKD1PKVtOSF1bQ0gyXVtDSDJdW0NIMl1OMkMoPU8pW0NIMl1bQ0gyXUMyPU8=

> <s_epik_cmdline>
J2VwaWtfcHl0aG9uJywgJy1waCcsICc3LjAnLCAnLXRuJywgJzgnLCAnLW1hJywgJzIwMCcsICctbWV0YWxfYmluZGluZycsICctaW1hZScsICc8aW5maWxlLm1hZT4nLCAnLW9tYWUnLCAnPG91dGZpbGUubWFlPic=

> <r_lp_tautomer_probability>
1

> <r_epik_Ionization_Penalty>
3.50019

> <r_epik_Ionization_Penalty_Charging>
3.45871

> <r_epik_Ionization_Penalty_Neutral>
0.0414811

> <r_epik_State_Penalty>
3.45698

> <r_epik_Charging_Adjusted_Penalty>
6.91569

> <i_epik_Tot_Q>
-1

> <i_epik_Tot_abs_Q>
1

> <r_epik_Metal_State_Penalty>
0.503209

> <b_epik_Metal_Only>
1

> <s_lp_Force_Field>
OPLS_2005

> <r_lp_Energy>
9.35786

> <b_lp_Chiralities_Consistent>
1

> <s_lp_Variant>
AV-unprocessed.smi:2647-2

> <Gold.Version>
5.8.1

> <Gold.Id.Protein>
6NUR|6NUR_protein|mol2

> <Gold.PLP.Fitness>
47.6736

> <Gold.PLP.PLP>
-33.7606

> <Gold.PLP.part.hbond>
-6.0669

> <Gold.PLP.part.metal>
0.0000

> <Gold.PLP.part.buried>
-5.5853

> <Gold.PLP.part.nonpolar>
-21.5620

> <Gold.PLP.part.repulsive>
0.2702

> <Gold.PLP.ligand.clash>
0.0000

> <Gold.PLP.ligand.torsion>
0.7788

> <Gold.PLP.Chemscore.Hbond>
5.1234

> <Gold.PLP.Chemscore.CHOScore>
0.0000

> <Gold.PLP.Chemscore.Metal>
0.0000

> <Gold.Chemscore.Hbonds>
donor molecule, donor type, donor heavy atom, donor atom, acceptor molecule, acceptor atom, score
      P1  H  6896  6908       L1     1  1.00
      P1  H  6931  6943       L1    14  1.22
      P1  H  6934  6947       L1    14  1.52
      P1  H  7997  8008       L1    13  0.76

> <Gold.PLP.Chemscore.Internal.Correction>
0.1005

> <Gold.Rescore>
     Score         DG    S(hbond)    S(metal)    S(lipo)     H(rot)  DE(clash)    DE(int)     intcor
     11.69     -13.84       2.66        0.00      46.26       2.32       0.23       1.92       ----

> <Gold.Chemscore.Fitness>
11.6885

> <Gold.Chemscore.DG>
-13.8373

> <Gold.Chemscore.ZeroCoef>
-5.4800

> <Gold.Chemscore.Hbond>
2.6616

> <Gold.Chemscore.Metal>
0.0000

> <Gold.Chemscore.Lipo>
46.2550

> <Gold.Chemscore.Internal_Hbond>
0.0000

> <Gold.Chemscore.DEClash>
0.2331

> <Gold.Chemscore.DEInternal>
1.9158

> <Gold.Chemscore.Rot>
2.3219

> <Gold.Chemscore.Internal.Correction>
   9.000000E+99

> <Gold.Chemscore.Hbonds>
donor molecule, donor type, donor heavy atom, donor atom, acceptor molecule, acceptor atom, score
      P1  H  6896  6908       L1     1  0.96
      P1  H  6931  6943       L1    14  0.07
      P1  H  6934  6947       L1    14  0.67
      P1  H  7997  8008       L1    13  0.29

> <Gold.Chemscore.Hbond.Weighted>
-8.8896

> <Gold.Chemscore.Metal.Weighted>
-0.0000

> <Gold.Chemscore.Lipo.Weighted>
-5.4118

> <Gold.Chemscore.Internal_Hbond.Weighted>
0.0000

> <Gold.Chemscore.DEClash.Weighted>
0.2331

> <Gold.Chemscore.DEInternal.Weighted>
1.9158

> <Gold.Chemscore.Rot.Weighted>
5.9441

> <Gold.Chemscore.Internal.Correction.Weighted>
   9.000000E+99

> <Gold.Protein.RotatedTorsions>
[ 6907 6896 6895 6894 ] final  163.93 input  -60.11 | X-H torsion
[ 7974 7965 7964 7962 ] final  -75.26 input  175.53 | X-H torsion
[ 8008 7997 7996 7995 ] final -116.81 input   59.86 | X-H torsion
[ 10167 10162 10161 10158 ] final   38.45 input  -65.29 | X-H torsion
[ 10718 10713 10712 10709 ] final -108.70 input   66.30 | X-H torsion
[ 10763 10752 10751 10750 ] final  139.43 input  -60.55 | X-H torsion
[ 11005 11000 10999 10996 ] final  -30.78 input  -57.11 | X-H torsion

> <Gold.Protein.ActiveResidues>
 VAL166  LYS551  ARG553  GLY616  TRP617  ASP618  TYR619  PRO620  LYS621  CYS622 
 ASP623  PHE694  ASN695  SER759  ASP760  ASP761  ALA762  ILE779  LEU786  VAL792 
 PHE793  MET794  SER795  GLU796  ALA797  LYS798  CYS799  TRP800  GLU811  SER814 

> <Gold.Protein.RotatedAtoms>
  151.9177  133.3577  159.3885 H   0  0  0  0  0  0  0  0  0  0  0  0  # atno 6907 bound_to 6896
  150.7044  134.4667  159.5415 H   0  0  0  0  0  0  0  0  0  0  0  0  # atno 6908 bound_to 6896
  152.2285  134.8345  160.0527 H   0  0  0  0  0  0  0  0  0  0  0  0  # atno 6909 bound_to 6896
  145.6284  140.9344  143.1100 H   0  0  0  0  0  0  0  0  0  0  0  0  # atno 7974 bound_to 7965
  155.0738  140.0393  157.2617 H   0  0  0  0  0  0  0  0  0  0  0  0  # atno 8008 bound_to 7997
  154.6961  140.2663  155.6740 H   0  0  0  0  0  0  0  0  0  0  0  0  # atno 8009 bound_to 7997
  156.2745  140.2750  156.1556 H   0  0  0  0  0  0  0  0  0  0  0  0  # atno 8010 bound_to 7997
  140.3936  144.1819  150.6131 H   0  0  0  0  0  0  0  0  0  0  0  0  # atno 10167 bound_to 10162
  156.0499  130.5726  150.7997 H   0  0  0  0  0  0  0  0  0  0  0  0  # atno 10718 bound_to 10713
  153.9060  135.3016  155.3448 H   0  0  0  0  0  0  0  0  0  0  0  0  # atno 10763 bound_to 10752
  154.7647  135.4916  153.9534 H   0  0  0  0  0  0  0  0  0  0  0  0  # atno 10764 bound_to 10752
  153.1219  135.6784  153.9422 H   0  0  0  0  0  0  0  0  0  0  0  0  # atno 10765 bound_to 10752
  140.9412  133.7277  156.1079 H   0  0  0  0  0  0  0  0  0  0  0  0  # atno 11005 bound_to 11000
  144.7203  139.8052  143.7384 LP  0  0  0  0  0  0  0  0  0  0  0  0  # atno 17320 bound_to 7965
  146.1376  139.4425  143.0129 LP  0  0  0  0  0  0  0  0  0  0  0  0  # atno 17321 bound_to 7965
  140.4814  143.2378  151.8949 LP  0  0  0  0  0  0  0  0  0  0  0  0  # atno 17342 bound_to 10162
  139.4788  144.5265  151.8728 LP  0  0  0  0  0  0  0  0  0  0  0  0  # atno 17343 bound_to 10162
  157.5414  131.0941  150.9822 LP  0  0  0  0  0  0  0  0  0  0  0  0  # atno 17370 bound_to 10713
  157.0104  130.5634  149.5320 LP  0  0  0  0  0  0  0  0  0  0  0  0  # atno 17371 bound_to 10713
  140.7731  134.3810  157.5503 LP  0  0  0  0  0  0  0  0  0  0  0  0  # atno 17394 bound_to 11000
  139.8821  134.9034  156.2855 LP  0  0  0  0  0  0  0  0  0  0  0  0  # atno 17395 bound_to 11000

$$$$
