AV-unprocessed.smi:2009|AV-procd|sdf|8145|dock8
  -GOLD-   2272010383D 1   1.00000     0.00000
 Structure written by MMmdl.
 38 39  0  0  0  0  0  0  0  0  1 V2000
  151.3746  138.7655  154.8825 C   0  0  0  0  0  0  0  0  0  0  0  0
  151.0687  139.7768  155.9978 C   0  0  2  0  0  0  0  0  0  0  0  0
  150.2967  141.0217  155.5040 C   0  0  0  0  0  0  0  0  0  0  0  0
  149.0647  140.7030  154.8004 N   0  0  0  0  0  0  0  0  0  0  0  0
  148.1301  141.5725  154.2775 C   0  0  0  0  0  0  0  0  0  0  0  0
  147.1440  140.8177  153.7104 C   0  0  0  0  0  0  0  0  0  0  0  0
  147.5667  139.4795  153.9447 C   0  0  0  0  0  0  0  0  0  0  0  0
  148.7148  139.4135  154.5995 N   0  0  0  0  0  0  0  0  0  0  0  0
  152.3241  140.1616  156.6500 N   0  0  0  0  0  0  0  0  0  0  0  0
  152.7210  139.5427  158.2106 S   0  0  0  0  0  0  0  0  0  0  0  0
  151.5469  138.8504  158.7633 O   0  0  0  0  0  0  0  0  0  0  0  0
  154.0216  138.8630  158.1104 O   0  0  0  0  0  0  0  0  0  0  0  0
  152.9273  141.0376  159.0615 N   0  0  0  0  0  0  0  0  0  0  0  0
  153.4381  140.9485  160.4440 C   0  0  0  0  0  0  0  0  0  0  0  0
  153.9206  142.3150  160.9582 C   0  0  0  0  0  0  0  0  0  0  0  0
  152.8234  143.3750  160.8317 C   0  0  0  0  0  0  0  0  0  0  0  0
  152.3593  143.4474  159.3745 C   0  0  0  0  0  0  0  0  0  0  0  0
  151.8884  142.0732  158.8709 C   0  0  0  0  0  0  0  0  0  0  0  0
  150.4619  138.4649  154.3676 H   0  0  0  0  0  0  0  0  0  0  0  0
  151.8357  137.8642  155.2874 H   0  0  0  0  0  0  0  0  0  0  0  0
  152.0565  139.1778  154.1382 H   0  0  0  0  0  0  0  0  0  0  0  0
  150.4495  139.2692  156.7383 H   0  0  0  0  0  0  0  0  0  0  0  0
  150.0547  141.6629  156.3531 H   0  0  0  0  0  0  0  0  0  0  0  0
  150.9197  141.6271  154.8460 H   0  0  0  0  0  0  0  0  0  0  0  0
  148.2467  142.6440  154.3499 H   0  0  0  0  0  0  0  0  0  0  0  0
  146.2554  141.1676  153.2064 H   0  0  0  0  0  0  0  0  0  0  0  0
  147.0762  138.5599  153.6614 H   0  0  0  0  0  0  0  0  0  0  0  0
  153.1237  140.1741  156.0173 H   0  0  0  0  0  0  0  0  0  0  0  0
  152.6498  140.5561  161.0877 H   0  0  0  0  0  0  0  0  0  0  0  0
  154.2631  140.2372  160.4852 H   0  0  0  0  0  0  0  0  0  0  0  0
  154.2370  142.2294  161.9981 H   0  0  0  0  0  0  0  0  0  0  0  0
  154.7994  142.6278  160.3929 H   0  0  0  0  0  0  0  0  0  0  0  0
  151.9829  143.1227  161.4795 H   0  0  0  0  0  0  0  0  0  0  0  0
  153.1957  144.3460  161.1593 H   0  0  0  0  0  0  0  0  0  0  0  0
  151.5525  144.1744  159.2768 H   0  0  0  0  0  0  0  0  0  0  0  0
  153.1759  143.8059  158.7464 H   0  0  0  0  0  0  0  0  0  0  0  0
  151.6233  142.1489  157.8168 H   0  0  0  0  0  0  0  0  0  0  0  0
  150.9842  141.7674  159.3990 H   0  0  0  0  0  0  0  0  0  0  0  0
  1  2  1  0  0  0  0
  1 19  1  0  0  0  0
  1 20  1  0  0  0  0
  1 21  1  0  0  0  0
  2  3  1  0  0  0  0
  2  9  1  0  0  0  0
  2 22  1  0  0  0  0
  3  4  1  0  0  0  0
  3 23  1  0  0  0  0
  3 24  1  0  0  0  0
  4  8  1  0  0  0  0
  4  5  1  0  0  0  0
  5  6  2  0  0  0  0
  5 25  1  0  0  0  0
  6  7  1  0  0  0  0
  6 26  1  0  0  0  0
  7  8  2  0  0  0  0
  7 27  1  0  0  0  0
  9 10  1  0  0  0  0
  9 28  1  0  0  0  0
 10 11  2  0  0  0  0
 10 12  2  0  0  0  0
 10 13  1  0  0  0  0
 13 18  1  0  0  0  0
 13 14  1  0  0  0  0
 14 15  1  0  0  0  0
 14 29  1  0  0  0  0
 14 30  1  0  0  0  0
 15 16  1  0  0  0  0
 15 31  1  0  0  0  0
 15 32  1  0  0  0  0
 16 17  1  0  0  0  0
 16 33  1  0  0  0  0
 16 34  1  0  0  0  0
 17 18  1  0  0  0  0
 17 35  1  0  0  0  0
 17 36  1  0  0  0  0
 18 37  1  0  0  0  0
 18 38  1  0  0  0  0
M  END
> <s_m_source_file>
AV-unprocessed.smi

> <i_m_source_file_index>
2009

> <i_lp_mmshare_version>
43012

> <i_f3d_flags>
0

> <s_epik_input>
bjFbY0hdW2NIXVtjSF1uMVtDSDJdW0NAQEhdKFtDSDNdKVtOSF1TKD1PKSg9TylOMltDSDJdW0NIMl1bQ0gyXVtDSDJdW0NIMl0y

> <s_epik_cmdline>
J2VwaWtfcHl0aG9uJywgJy1waCcsICc3LjAnLCAnLXRuJywgJzgnLCAnLW1hJywgJzIwMCcsICctbWV0YWxfYmluZGluZycsICctaW1hZScsICc8aW5maWxlLm1hZT4nLCAnLW9tYWUnLCAnPG91dGZpbGUubWFlPic=

> <r_lp_tautomer_probability>
1

> <r_epik_Ionization_Penalty>
0.0313937

> <r_epik_Ionization_Penalty_Charging>
0

> <r_epik_Ionization_Penalty_Neutral>
0.0313937

> <r_epik_State_Penalty>
0.0259441

> <r_epik_Charging_Adjusted_Penalty>
0.0259441

> <i_epik_Tot_Q>
0

> <i_epik_Tot_abs_Q>
0

> <r_epik_Metal_State_Penalty>
0.365037

> <b_epik_Metal_Only>
0

> <s_lp_Force_Field>
OPLS_2005

> <r_lp_Energy>
7.7354

> <b_lp_Chiralities_Consistent>
1

> <s_lp_Variant>
AV-unprocessed.smi:2009-1

> <Gold.Version>
5.8.1

> <Gold.Id.Protein>
6NUR|6NUR_protein|mol2

> <Gold.PLP.Fitness>
42.6385

> <Gold.PLP.PLP>
-38.0629

> <Gold.PLP.part.hbond>
-1.7290

> <Gold.PLP.part.metal>
0.0000

> <Gold.PLP.part.buried>
-2.9714

> <Gold.PLP.part.nonpolar>
-33.0389

> <Gold.PLP.part.repulsive>
0.1306

> <Gold.PLP.ligand.clash>
0.0000

> <Gold.PLP.ligand.torsion>
1.0910

> <Gold.PLP.Chemscore.Hbond>
0.9920

> <Gold.PLP.Chemscore.CHOScore>
1.0000

> <Gold.PLP.Chemscore.Metal>
0.0000

> <Gold.Chemscore.Hbonds>
donor molecule, donor type, donor heavy atom, donor atom, acceptor molecule, acceptor atom, score
      P1  H  7997  8010       L1    12  1.00
      L1  C     5    25       P1  8028  1.00

> <Gold.PLP.Chemscore.Internal.Correction>
0.7818

> <Gold.Rescore>
     Score         DG    S(hbond)    S(metal)    S(lipo)     H(rot)  DE(clash)    DE(int)     intcor
     12.72     -15.34       0.96        0.00      96.75       1.82       0.05       2.57       ----

> <Gold.Chemscore.Fitness>
12.7243

> <Gold.Chemscore.DG>
-15.3378

> <Gold.Chemscore.ZeroCoef>
-5.4800

> <Gold.Chemscore.Hbond>
0.9602

> <Gold.Chemscore.Metal>
0.0000

> <Gold.Chemscore.Lipo>
96.7458

> <Gold.Chemscore.Internal_Hbond>
0.0000

> <Gold.Chemscore.DEClash>
0.0454

> <Gold.Chemscore.DEInternal>
2.5681

> <Gold.Chemscore.Rot>
1.8237

> <Gold.Chemscore.Internal.Correction>
   9.000000E+99

> <Gold.Chemscore.Hbonds>
donor molecule, donor type, donor heavy atom, donor atom, acceptor molecule, acceptor atom, score
      P1  H  7997  8010       L1    12  0.39

> <Gold.Chemscore.Hbond.Weighted>
-3.2071

> <Gold.Chemscore.Metal.Weighted>
-0.0000

> <Gold.Chemscore.Lipo.Weighted>
-11.3193

> <Gold.Chemscore.Internal_Hbond.Weighted>
0.0000

> <Gold.Chemscore.DEClash.Weighted>
0.0454

> <Gold.Chemscore.DEInternal.Weighted>
2.5681

> <Gold.Chemscore.Rot.Weighted>
4.6686

> <Gold.Chemscore.Internal.Correction.Weighted>
   9.000000E+99

> <Gold.Protein.RotatedTorsions>
[ 6907 6896 6895 6894 ] final  -76.37 input  -60.11 | X-H torsion
[ 7974 7965 7964 7962 ] final  146.66 input  175.53 | X-H torsion
[ 8008 7997 7996 7995 ] final    7.73 input   59.86 | X-H torsion
[ 10167 10162 10161 10158 ] final -165.85 input  -65.29 | X-H torsion
[ 10718 10713 10712 10709 ] final   -1.16 input   66.30 | X-H torsion
[ 10763 10752 10751 10750 ] final  157.30 input  -60.55 | X-H torsion
[ 11005 11000 10999 10996 ] final -131.63 input  -57.11 | X-H torsion

> <Gold.Protein.ActiveResidues>
 VAL166  LYS551  ARG553  GLY616  TRP617  ASP618  TYR619  PRO620  LYS621  CYS622 
 ASP623  PHE694  ASN695  SER759  ASP760  ASP761  ALA762  ILE779  LEU786  VAL792 
 PHE793  MET794  SER795  GLU796  ALA797  LYS798  CYS799  TRP800  GLU811  SER814 

> <Gold.Protein.RotatedAtoms>
  150.7029  134.4582  159.5367 H   0  0  0  0  0  0  0  0  0  0  0  0  # atno 6907 bound_to 6896
  152.2261  134.8363  160.0489 H   0  0  0  0  0  0  0  0  0  0  0  0  # atno 6908 bound_to 6896
  151.9196  133.3547  159.3929 H   0  0  0  0  0  0  0  0  0  0  0  0  # atno 6909 bound_to 6896
  144.8653  139.5933  143.5912 H   0  0  0  0  0  0  0  0  0  0  0  0  # atno 7974 bound_to 7965
  154.7576  140.2778  155.6240 H   0  0  0  0  0  0  0  0  0  0  0  0  # atno 8008 bound_to 7997
  156.2909  140.2666  156.2273 H   0  0  0  0  0  0  0  0  0  0  0  0  # atno 8009 bound_to 7997
  155.0058  140.0372  157.2369 H   0  0  0  0  0  0  0  0  0  0  0  0  # atno 8010 bound_to 7997
  139.6154  144.0729  152.1883 H   0  0  0  0  0  0  0  0  0  0  0  0  # atno 10167 bound_to 10162
  156.8097  130.5420  149.5710 H   0  0  0  0  0  0  0  0  0  0  0  0  # atno 10718 bound_to 10713
  154.1980  135.2791  155.3000 H   0  0  0  0  0  0  0  0  0  0  0  0  # atno 10763 bound_to 10752
  154.5876  135.5570  153.7250 H   0  0  0  0  0  0  0  0  0  0  0  0  # atno 10764 bound_to 10752
  153.0095  135.6360  154.2119 H   0  0  0  0  0  0  0  0  0  0  0  0  # atno 10765 bound_to 10752
  140.9241  134.1405  157.4289 H   0  0  0  0  0  0  0  0  0  0  0  0  # atno 11005 bound_to 11000
  146.2891  139.7088  142.9174 LP  0  0  0  0  0  0  0  0  0  0  0  0  # atno 17320 bound_to 7965
  145.4233  141.0408  143.2951 LP  0  0  0  0  0  0  0  0  0  0  0  0  # atno 17321 bound_to 7965
  140.0358  144.6045  150.7450 LP  0  0  0  0  0  0  0  0  0  0  0  0  # atno 17342 bound_to 10162
  140.7348  143.2733  151.3821 LP  0  0  0  0  0  0  0  0  0  0  0  0  # atno 17343 bound_to 10162
  156.1052  130.5999  150.9958 LP  0  0  0  0  0  0  0  0  0  0  0  0  # atno 17370 bound_to 10713
  157.6512  131.0896  150.8047 LP  0  0  0  0  0  0  0  0  0  0  0  0  # atno 17371 bound_to 10713
  139.8782  134.9982  156.5887 LP  0  0  0  0  0  0  0  0  0  0  0  0  # atno 17394 bound_to 11000
  140.7949  133.8552  155.8677 LP  0  0  0  0  0  0  0  0  0  0  0  0  # atno 17395 bound_to 11000

$$$$
