AV-unprocessed.smi:2424|AV-procd|sdf|9573|dock3
  -GOLD-   2272013203D 1   1.00000     0.00000
 Structure written by MMmdl.
 49 50  0  0  0  0  0  0  0  0  2 V2000
  147.6057  132.2238  161.4076 C   0  0  0  0  0  0  0  0  0  0  0  0
  147.2988  133.5672  160.7250 C   0  0  0  0  0  0  0  0  0  0  0  0
  146.5188  134.5897  161.5936 C   0  0  0  0  0  0  0  0  0  0  0  0
  147.3242  134.8695  162.8834 C   0  0  0  0  0  0  0  0  0  0  0  0
  147.6612  136.3473  163.1381 C   0  0  0  0  0  0  0  0  0  0  0  0
  145.9983  135.8611  160.8710 C   0  0  1  0  0  0  0  0  0  0  0  0
  146.7364  136.2141  159.6609 N   0  0  0  0  0  0  0  0  0  0  0  0
  147.9324  136.8165  159.6326 C   0  0  0  0  0  0  0  0  0  0  0  0
  148.5444  137.1523  160.6459 O   0  0  0  0  0  0  0  0  0  0  0  0
  148.3483  136.9888  158.3656 N   0  0  0  0  0  0  0  0  0  0  0  0
  149.5379  137.5680  157.9050 C   0  0  0  0  0  0  0  0  0  0  0  0
  150.5713  137.8265  158.7825 C   0  0  0  0  0  0  0  0  0  0  0  0
  151.7800  138.3742  158.5310 N   0  5  0  0  0  0  0  0  0  0  0  0
  152.0662  138.7384  157.2482 C   0  0  0  0  0  0  0  0  0  0  0  0
  153.1470  139.2420  156.9438 O   0  0  0  0  0  0  0  0  0  0  0  0
  151.0472  138.5195  156.2019 C   0  0  0  0  0  0  0  0  0  0  0  0
  151.3674  138.9281  154.7741 C   0  0  0  0  0  0  0  0  0  0  0  0
  149.8550  137.9633  156.5326 C   0  0  0  0  0  0  0  0  0  0  0  0
  144.6864  135.1353  160.5616 C   0  0  2  0  0  0  0  0  0  0  0  0
  143.3803  135.9184  160.5066 C   0  0  0  0  0  0  0  0  0  0  0  0
  145.0086  134.2503  161.7764 C   0  0  2  0  0  0  0  0  0  0  0  0
  144.4249  134.7938  162.9551 O   0  0  0  0  0  0  0  0  0  0  0  0
  143.0659  134.4263  163.1212 C   0  0  0  0  0  0  0  0  0  0  0  0
  148.0385  131.5243  160.6926 H   0  0  0  0  0  0  0  0  0  0  0  0
  146.7063  131.7612  161.8134 H   0  0  0  0  0  0  0  0  0  0  0  0
  148.3245  132.3346  162.2187 H   0  0  0  0  0  0  0  0  0  0  0  0
  148.2303  133.9980  160.3586 H   0  0  0  0  0  0  0  0  0  0  0  0
  146.7331  133.3409  159.8214 H   0  0  0  0  0  0  0  0  0  0  0  0
  146.7564  134.5280  163.7490 H   0  0  0  0  0  0  0  0  0  0  0  0
  148.2417  134.2835  162.9081 H   0  0  0  0  0  0  0  0  0  0  0  0
  148.1508  136.4641  164.1051 H   0  0  0  0  0  0  0  0  0  0  0  0
  146.7633  136.9644  163.1524 H   0  0  0  0  0  0  0  0  0  0  0  0
  148.3385  136.7500  162.3860 H   0  0  0  0  0  0  0  0  0  0  0  0
  145.8359  136.6907  161.5636 H   0  0  0  0  0  0  0  0  0  0  0  0
  146.3064  135.9747  158.7797 H   0  0  0  0  0  0  0  0  0  0  0  0
  147.7296  136.6594  157.6392 H   0  0  0  0  0  0  0  0  0  0  0  0
  150.4019  137.5519  159.8462 H   0  0  0  0  0  0  0  0  0  0  0  0
  150.5362  138.7115  154.1026 H   0  0  0  0  0  0  0  0  0  0  0  0
  152.2430  138.3895  154.4106 H   0  0  0  0  0  0  0  0  0  0  0  0
  151.5731  139.9977  154.7209 H   0  0  0  0  0  0  0  0  0  0  0  0
  149.1372  137.8199  155.7418 H   0  0  0  0  0  0  0  0  0  0  0  0
  144.7950  134.5343  159.6568 H   0  0  0  0  0  0  0  0  0  0  0  0
  143.2761  136.5872  161.3612 H   0  0  0  0  0  0  0  0  0  0  0  0
  142.5199  135.2496  160.5035 H   0  0  0  0  0  0  0  0  0  0  0  0
  143.3284  136.5301  159.6059 H   0  0  0  0  0  0  0  0  0  0  0  0
  144.7386  133.2075  161.6023 H   0  0  0  0  0  0  0  0  0  0  0  0
  142.6896  134.8346  164.0588 H   0  0  0  0  0  0  0  0  0  0  0  0
  142.9413  133.3440  163.1510 H   0  0  0  0  0  0  0  0  0  0  0  0
  142.4528  134.8241  162.3117 H   0  0  0  0  0  0  0  0  0  0  0  0
  1  2  1  0  0  0  0
  1 24  1  0  0  0  0
  1 25  1  0  0  0  0
  1 26  1  0  0  0  0
  2  3  1  0  0  0  0
  2 27  1  0  0  0  0
  2 28  1  0  0  0  0
  3 21  1  0  0  0  0
  3  4  1  0  0  0  0
  3  6  1  0  0  0  0
  4  5  1  0  0  0  0
  4 29  1  0  0  0  0
  4 30  1  0  0  0  0
  5 31  1  0  0  0  0
  5 32  1  0  0  0  0
  5 33  1  0  0  0  0
  6  7  1  0  0  0  0
  6 19  1  0  0  0  0
  6 34  1  0  0  0  0
  7  8  1  0  0  0  0
  7 35  1  0  0  0  0
  8  9  2  0  0  0  0
  8 10  1  0  0  0  0
 10 11  1  0  0  0  0
 10 36  1  0  0  0  0
 11 18  1  0  0  0  0
 11 12  2  0  0  0  0
 12 13  1  0  0  0  0
 12 37  1  0  0  0  0
 13 14  1  0  0  0  0
 14 15  2  0  0  0  0
 14 16  1  0  0  0  0
 16 17  1  0  0  0  0
 16 18  2  0  0  0  0
 17 38  1  0  0  0  0
 17 39  1  0  0  0  0
 17 40  1  0  0  0  0
 18 41  1  0  0  0  0
 19 20  1  0  0  0  0
 19 21  1  0  0  0  0
 19 42  1  0  0  0  0
 20 43  1  0  0  0  0
 20 44  1  0  0  0  0
 20 45  1  0  0  0  0
 21 22  1  0  0  0  0
 21 46  1  0  0  0  0
 22 23  1  0  0  0  0
 23 47  1  0  0  0  0
 23 48  1  0  0  0  0
 23 49  1  0  0  0  0
M  CHG  1  13  -1
M  END
> <s_m_source_file>
AV-unprocessed.smi

> <i_m_source_file_index>
2424

> <i_lp_mmshare_version>
43012

> <i_f3d_flags>
0

> <s_epik_input>
W0NIM11PW0NAQEhdMVtDQEhdKFtDSDNdKVtDQEBIXShDMShbQ0gyXVtDSDNdKVtDSDJdW0NIM10pW05IXUMoPU8pW05IXWMyW2NIXVtuSF1jKD1PKWMoW0NIM10pW2NIXTI=

> <s_epik_cmdline>
J2VwaWtfcHl0aG9uJywgJy1waCcsICc3LjAnLCAnLXRuJywgJzgnLCAnLW1hJywgJzIwMCcsICctbWV0YWxfYmluZGluZycsICctaW1hZScsICc8aW5maWxlLm1hZT4nLCAnLW9tYWUnLCAnPG91dGZpbGUubWFlPic=

> <r_lp_tautomer_probability>
1

> <r_epik_Ionization_Penalty>
7.6122

> <r_epik_Ionization_Penalty_Charging>
1.53843

> <r_epik_Ionization_Penalty_Neutral>
6.07377

> <r_epik_State_Penalty>
6.07371

> <r_epik_Charging_Adjusted_Penalty>
7.61214

> <i_epik_Tot_Q>
-1

> <i_epik_Tot_abs_Q>
1

> <r_epik_Metal_State_Penalty>
2.02136

> <b_epik_Metal_Only>
1

> <s_lp_Force_Field>
OPLS_2005

> <r_lp_Energy>
41.9258

> <b_lp_Chiralities_Consistent>
1

> <s_lp_Variant>
AV-unprocessed.smi:2424-15

> <Gold.Version>
5.8.1

> <Gold.Id.Protein>
6NUR|6NUR_protein|mol2

> <Gold.PLP.Fitness>
36.7067

> <Gold.PLP.PLP>
-33.1151

> <Gold.PLP.part.hbond>
-2.9340

> <Gold.PLP.part.metal>
0.0000

> <Gold.PLP.part.buried>
-4.2462

> <Gold.PLP.part.nonpolar>
-25.4434

> <Gold.PLP.part.repulsive>
0.2308

> <Gold.PLP.ligand.clash>
0.0000

> <Gold.PLP.ligand.torsion>
1.4032

> <Gold.PLP.Chemscore.Hbond>
1.8728

> <Gold.PLP.Chemscore.CHOScore>
0.0000

> <Gold.PLP.Chemscore.Metal>
0.0000

> <Gold.Chemscore.Hbonds>
donor molecule, donor type, donor heavy atom, donor atom, acceptor molecule, acceptor atom, score
      P1  H  6931  6943       L1     9  0.80
      P1  H  6934  6947       L1     9  0.09
      P1  H  7997  8008       L1    15  1.00

> <Gold.PLP.Chemscore.Internal.Correction>
0.7795

> <Gold.Rescore>
     Score         DG    S(hbond)    S(metal)    S(lipo)     H(rot)  DE(clash)    DE(int)     intcor
     14.50     -17.97       1.89        0.00      85.95       1.52       0.02       3.44       ----

> <Gold.Chemscore.Fitness>
14.5037

> <Gold.Chemscore.DG>
-17.9698

> <Gold.Chemscore.ZeroCoef>
-5.4800

> <Gold.Chemscore.Hbond>
1.8940

> <Gold.Chemscore.Metal>
0.0000

> <Gold.Chemscore.Lipo>
85.9479

> <Gold.Chemscore.Internal_Hbond>
0.0000

> <Gold.Chemscore.DEClash>
0.0222

> <Gold.Chemscore.DEInternal>
3.4439

> <Gold.Chemscore.Rot>
1.5204

> <Gold.Chemscore.Internal.Correction>
   9.000000E+99

> <Gold.Chemscore.Hbonds>
donor molecule, donor type, donor heavy atom, donor atom, acceptor molecule, acceptor atom, score
      P1  H  6931  6943       L1     9  0.80
      P1  H  6934  6947       L1     9  0.01
      P1  H  7997  8008       L1    15  0.95

> <Gold.Chemscore.Hbond.Weighted>
-6.3261

> <Gold.Chemscore.Metal.Weighted>
-0.0000

> <Gold.Chemscore.Lipo.Weighted>
-10.0559

> <Gold.Chemscore.Internal_Hbond.Weighted>
0.0000

> <Gold.Chemscore.DEClash.Weighted>
0.0222

> <Gold.Chemscore.DEInternal.Weighted>
3.4439

> <Gold.Chemscore.Rot.Weighted>
3.8922

> <Gold.Chemscore.Internal.Correction.Weighted>
   9.000000E+99

> <Gold.Protein.RotatedTorsions>
[ 6907 6896 6895 6894 ] final -170.93 input  -60.11 | X-H torsion
[ 7974 7965 7964 7962 ] final  105.46 input  175.53 | X-H torsion
[ 8008 7997 7996 7995 ] final  -47.09 input   59.86 | X-H torsion
[ 10167 10162 10161 10158 ] final   76.10 input  -65.29 | X-H torsion
[ 10718 10713 10712 10709 ] final  -66.02 input   66.30 | X-H torsion
[ 10763 10752 10751 10750 ] final  -75.16 input  -60.55 | X-H torsion
[ 11005 11000 10999 10996 ] final -101.37 input  -57.11 | X-H torsion

> <Gold.Protein.ActiveResidues>
 VAL166  LYS551  ARG553  GLY616  TRP617  ASP618  TYR619  PRO620  LYS621  CYS622 
 ASP623  PHE694  ASN695  SER759  ASP760  ASP761  ALA762  ILE779  LEU786  VAL792 
 PHE793  MET794  SER795  GLU796  ALA797  LYS798  CYS799  TRP800  GLU811  SER814 

> <Gold.Protein.RotatedAtoms>
  151.5156  133.3476  159.2892 H   0  0  0  0  0  0  0  0  0  0  0  0  # atno 6907 bound_to 6896
  150.8684  134.8055  159.7147 H   0  0  0  0  0  0  0  0  0  0  0  0  # atno 6908 bound_to 6896
  152.4681  134.5036  159.9784 H   0  0  0  0  0  0  0  0  0  0  0  0  # atno 6909 bound_to 6896
  145.3193  139.2517  143.3720 H   0  0  0  0  0  0  0  0  0  0  0  0  # atno 7974 bound_to 7965
  154.4013  140.1355  156.4118 H   0  0  0  0  0  0  0  0  0  0  0  0  # atno 8008 bound_to 7997
  155.7726  140.3483  155.5235 H   0  0  0  0  0  0  0  0  0  0  0  0  # atno 8009 bound_to 7997
  155.8752  140.0978  157.1514 H   0  0  0  0  0  0  0  0  0  0  0  0  # atno 8010 bound_to 7997
  139.9958  144.5723  150.7779 H   0  0  0  0  0  0  0  0  0  0  0  0  # atno 10167 bound_to 10162
  156.0636  130.4256  150.1649 H   0  0  0  0  0  0  0  0  0  0  0  0  # atno 10718 bound_to 10713
  154.4829  135.5840  153.6402 H   0  0  0  0  0  0  0  0  0  0  0  0  # atno 10763 bound_to 10752
  152.9850  135.6094  154.3224 H   0  0  0  0  0  0  0  0  0  0  0  0  # atno 10764 bound_to 10752
  154.3116  135.2845  155.2542 H   0  0  0  0  0  0  0  0  0  0  0  0  # atno 10765 bound_to 10752
  141.1234  133.8472  157.1222 H   0  0  0  0  0  0  0  0  0  0  0  0  # atno 11005 bound_to 11000
  146.3088  140.3747  142.8678 LP  0  0  0  0  0  0  0  0  0  0  0  0  # atno 17320 bound_to 7965
  144.8952  140.7574  143.5901 LP  0  0  0  0  0  0  0  0  0  0  0  0  # atno 17321 bound_to 7965
  140.7437  143.2850  151.3488 LP  0  0  0  0  0  0  0  0  0  0  0  0  # atno 17342 bound_to 10162
  139.6307  144.0727  152.2473 LP  0  0  0  0  0  0  0  0  0  0  0  0  # atno 17343 bound_to 10162
  156.9713  130.9835  151.3458 LP  0  0  0  0  0  0  0  0  0  0  0  0  # atno 17370 bound_to 10713
  157.5662  130.8279  149.8330 LP  0  0  0  0  0  0  0  0  0  0  0  0  # atno 17371 bound_to 10713
  140.0210  134.9946  157.0591 LP  0  0  0  0  0  0  0  0  0  0  0  0  # atno 17394 bound_to 11000
  140.4440  134.1651  155.7176 LP  0  0  0  0  0  0  0  0  0  0  0  0  # atno 17395 bound_to 11000

$$$$
