AV-unprocessed.smi:912|AV-procd|sdf|4144|dock1
  -GOLD-   22720 2 53D 1   1.00000     0.00000
 Structure written by MMmdl.
 27 27  0  0  0  0  0  0  0  0  2 V2000
  150.2222  136.0386  157.0739 C   0  0  0  0  0  0  0  0  0  0  0  0
  149.9645  137.4525  156.8055 N   0  0  0  0  0  0  0  0  0  0  0  0
  151.0644  138.2637  156.2488 C   0  0  1  0  0  0  0  0  0  0  0  0
  152.1519  138.2861  157.3557 C   0  0  0  0  0  0  0  0  0  0  0  0
  151.6231  137.6713  154.9256 C   0  0  0  0  0  0  0  0  0  0  0  0
  150.7416  137.3504  153.9718 N   0  0  0  0  0  0  0  0  0  0  0  0
  152.8309  137.5084  154.7602 O   0  0  0  0  0  0  0  0  0  0  0  0
  150.6081  139.7068  155.9458 C   0  0  0  0  0  0  0  0  0  0  0  0
  151.1432  140.8285  156.6333 C   0  0  0  0  0  0  0  0  0  0  0  0
  150.6885  142.1259  156.3214 C   0  0  0  0  0  0  0  0  0  0  0  0
  149.7435  142.2996  155.3744 N   0  3  0  0  0  0  0  0  0  0  0  0
  149.1959  141.2701  154.6961 C   0  0  0  0  0  0  0  0  0  0  0  0
  149.6118  139.9511  154.9661 C   0  0  0  0  0  0  0  0  0  0  0  0
  149.3645  135.6163  157.5972 H   0  0  0  0  0  0  0  0  0  0  0  0
  151.0958  135.8941  157.7090 H   0  0  0  0  0  0  0  0  0  0  0  0
  150.3527  135.4586  156.1606 H   0  0  0  0  0  0  0  0  0  0  0  0
  149.7201  137.8612  157.6964 H   0  0  0  0  0  0  0  0  0  0  0  0
  153.0359  138.8511  157.0602 H   0  0  0  0  0  0  0  0  0  0  0  0
  152.5016  137.2868  157.6159 H   0  0  0  0  0  0  0  0  0  0  0  0
  151.7725  138.7437  158.2704 H   0  0  0  0  0  0  0  0  0  0  0  0
  151.0664  136.9826  153.0894 H   0  0  0  0  0  0  0  0  0  0  0  0
  149.7552  137.4974  154.1308 H   0  0  0  0  0  0  0  0  0  0  0  0
  151.8955  140.7181  157.3999 H   0  0  0  0  0  0  0  0  0  0  0  0
  151.0499  143.0240  156.8006 H   0  0  0  0  0  0  0  0  0  0  0  0
  148.4442  141.5295  153.9650 H   0  0  0  0  0  0  0  0  0  0  0  0
  149.1576  139.1349  154.4240 H   0  0  0  0  0  0  0  0  0  0  0  0
  149.4280  143.2473  155.1652 H   0  0  0  0  0  0  0  0  0  0  0  0
  1  2  1  0  0  0  0
  1 14  1  0  0  0  0
  1 15  1  0  0  0  0
  1 16  1  0  0  0  0
  2  3  1  0  0  0  0
  2 17  1  0  0  0  0
  3  4  1  0  0  0  0
  3  5  1  0  0  0  0
  3  8  1  0  0  0  0
  4 18  1  0  0  0  0
  4 19  1  0  0  0  0
  4 20  1  0  0  0  0
  5  6  1  0  0  0  0
  5  7  2  0  0  0  0
  6 21  1  0  0  0  0
  6 22  1  0  0  0  0
  8 13  1  0  0  0  0
  8  9  2  0  0  0  0
  9 10  1  0  0  0  0
  9 23  1  0  0  0  0
 10 11  2  0  0  0  0
 10 24  1  0  0  0  0
 11 12  1  0  0  0  0
 11 27  1  0  0  0  0
 12 13  2  0  0  0  0
 12 25  1  0  0  0  0
 13 26  1  0  0  0  0
M  CHG  1  11   1
M  END
> <s_m_source_file>
AV-unprocessed.smi

> <i_m_source_file_index>
912

> <i_lp_mmshare_version>
43012

> <i_f3d_flags>
0

> <s_epik_input>
W0NIM11bTkhdW0NAQF0oW0NIM10pKEMoPU8pW05IMl0pYzFbY0hdW2NIXW5bY0hdW2NIXTE=

> <s_epik_cmdline>
J2VwaWtfcHl0aG9uJywgJy1waCcsICc3LjAnLCAnLXRuJywgJzgnLCAnLW1hJywgJzIwMCcsICctbWV0YWxfYmluZGluZycsICctaW1hZScsICc8aW5maWxlLm1hZT4nLCAnLW9tYWUnLCAnPG91dGZpbGUubWFlPic=

> <r_epik_Ionization_Penalty>
0.562542

> <r_epik_Ionization_Penalty_Charging>
0.554844

> <r_epik_Ionization_Penalty_Neutral>
0.00769834

> <r_epik_State_Penalty>
1.39075

> <r_epik_Charging_Adjusted_Penalty>
1.94559

> <i_epik_Tot_Q>
1

> <i_epik_Tot_abs_Q>
1

> <r_epik_Metal_State_Penalty>
1.55563

> <b_epik_Metal_Only>
0

> <s_lp_Force_Field>
OPLS_2005

> <r_lp_Energy>
17.994

> <b_lp_Chiralities_Consistent>
1

> <s_lp_Variant>
AV-unprocessed.smi:912-5

> <Gold.Version>
5.8.1

> <Gold.Id.Protein>
6NUR|6NUR_protein|mol2

> <Gold.PLP.Fitness>
29.1849

> <Gold.PLP.PLP>
-19.7585

> <Gold.PLP.part.hbond>
-4.0000

> <Gold.PLP.part.metal>
0.0000

> <Gold.PLP.part.buried>
-3.1298

> <Gold.PLP.part.nonpolar>
-14.4825

> <Gold.PLP.part.repulsive>
0.3435

> <Gold.PLP.ligand.clash>
0.0000

> <Gold.PLP.ligand.torsion>
0.4287

> <Gold.PLP.Chemscore.Hbond>
3.4160

> <Gold.PLP.Chemscore.CHOScore>
0.0000

> <Gold.PLP.Chemscore.Metal>
0.0000

> <Gold.Chemscore.Hbonds>
donor molecule, donor type, donor heavy atom, donor atom, acceptor molecule, acceptor atom, score
      L1  H     6    21       P1  7949  1.00
      L1  H    11    27       P1  8028  2.00
      P1  H 10752 10765       L1     7  0.40

> <Gold.PLP.Chemscore.Internal.Correction>
0.0357

> <Gold.Rescore>
     Score         DG    S(hbond)    S(metal)    S(lipo)     H(rot)  DE(clash)    DE(int)     intcor
     14.20     -15.32       2.96        0.00      39.46       1.82       0.53       0.58       ----

> <Gold.Chemscore.Fitness>
14.2013

> <Gold.Chemscore.DG>
-15.3157

> <Gold.Chemscore.ZeroCoef>
-5.4800

> <Gold.Chemscore.Hbond>
2.9596

> <Gold.Chemscore.Metal>
0.0000

> <Gold.Chemscore.Lipo>
39.4563

> <Gold.Chemscore.Internal_Hbond>
0.0000

> <Gold.Chemscore.DEClash>
0.5333

> <Gold.Chemscore.DEInternal>
0.5811

> <Gold.Chemscore.Rot>
1.8226

> <Gold.Chemscore.Internal.Correction>
   9.000000E+99

> <Gold.Chemscore.Hbonds>
donor molecule, donor type, donor heavy atom, donor atom, acceptor molecule, acceptor atom, score
      L1  H     6    21       P1  7949  0.35
      L1  H    11    27       P1  8028  0.96
      P1  H 10752 10765       L1     7  0.18

> <Gold.Chemscore.Hbond.Weighted>
-9.8852

> <Gold.Chemscore.Metal.Weighted>
-0.0000

> <Gold.Chemscore.Lipo.Weighted>
-4.6164

> <Gold.Chemscore.Internal_Hbond.Weighted>
0.0000

> <Gold.Chemscore.DEClash.Weighted>
0.5333

> <Gold.Chemscore.DEInternal.Weighted>
0.5811

> <Gold.Chemscore.Rot.Weighted>
4.6659

> <Gold.Chemscore.Internal.Correction.Weighted>
   9.000000E+99

> <Gold.Protein.RotatedTorsions>
[ 6907 6896 6895 6894 ] final  104.44 input  -60.11 | X-H torsion
[ 7974 7965 7964 7962 ] final   21.18 input  175.53 | X-H torsion
[ 8008 7997 7996 7995 ] final   25.96 input   59.86 | X-H torsion
[ 10167 10162 10161 10158 ] final   63.85 input  -65.29 | X-H torsion
[ 10718 10713 10712 10709 ] final -115.07 input   66.30 | X-H torsion
[ 10763 10752 10751 10750 ] final  162.67 input  -60.55 | X-H torsion
[ 11005 11000 10999 10996 ] final   67.22 input  -57.11 | X-H torsion

> <Gold.Protein.ActiveResidues>
 VAL166  LYS551  ARG553  GLY616  TRP617  ASP618  TYR619  PRO620  LYS621  CYS622 
 ASP623  PHE694  ASN695  SER759  ASP760  ASP761  ALA762  ILE779  LEU786  VAL792 
 PHE793  MET794  SER795  GLU796  ALA797  LYS798  CYS799  TRP800  GLU811  SER814 

> <Gold.Protein.RotatedAtoms>
  152.5264  133.9677  159.7746 H   0  0  0  0  0  0  0  0  0  0  0  0  # atno 6907 bound_to 6896
  150.9955  133.6099  159.2709 H   0  0  0  0  0  0  0  0  0  0  0  0  # atno 6908 bound_to 6896
  151.3227  135.0829  159.9364 H   0  0  0  0  0  0  0  0  0  0  0  0  # atno 6909 bound_to 6896
  146.2081  139.8063  142.8710 H   0  0  0  0  0  0  0  0  0  0  0  0  # atno 7974 bound_to 7965
  155.0199  140.3146  155.4797 H   0  0  0  0  0  0  0  0  0  0  0  0  # atno 8008 bound_to 7997
  156.2894  140.2199  156.5258 H   0  0  0  0  0  0  0  0  0  0  0  0  # atno 8009 bound_to 7997
  154.7461  140.0470  157.0841 H   0  0  0  0  0  0  0  0  0  0  0  0  # atno 8010 bound_to 7997
  140.1285  144.4665  150.6878 H   0  0  0  0  0  0  0  0  0  0  0  0  # atno 10167 bound_to 10162
  156.0871  130.6061  150.8858 H   0  0  0  0  0  0  0  0  0  0  0  0  # atno 10718 bound_to 10713
  154.2820  135.2763  155.2693 H   0  0  0  0  0  0  0  0  0  0  0  0  # atno 10763 bound_to 10752
  154.5210  135.5756  153.6684 H   0  0  0  0  0  0  0  0  0  0  0  0  # atno 10764 bound_to 10752
  152.9927  135.6204  154.2980 H   0  0  0  0  0  0  0  0  0  0  0  0  # atno 10765 bound_to 10752
  139.9784  134.6784  156.0309 H   0  0  0  0  0  0  0  0  0  0  0  0  # atno 11005 bound_to 11000
  145.3243  141.0251  143.3483 LP  0  0  0  0  0  0  0  0  0  0  0  0  # atno 17320 bound_to 7965
  144.8844  139.4859  143.6707 LP  0  0  0  0  0  0  0  0  0  0  0  0  # atno 17321 bound_to 7965
  140.6830  143.2336  151.5333 LP  0  0  0  0  0  0  0  0  0  0  0  0  # atno 17342 bound_to 10162
  139.5531  144.2343  152.1566 LP  0  0  0  0  0  0  0  0  0  0  0  0  # atno 17343 bound_to 10162
  157.6009  131.0941  150.8961 LP  0  0  0  0  0  0  0  0  0  0  0  0  # atno 17370 bound_to 10713
  156.9119  130.5283  149.5280 LP  0  0  0  0  0  0  0  0  0  0  0  0  # atno 17371 bound_to 10713
  141.1459  133.6556  156.3866 LP  0  0  0  0  0  0  0  0  0  0  0  0  # atno 17394 bound_to 11000
  140.5147  134.6362  157.5297 LP  0  0  0  0  0  0  0  0  0  0  0  0  # atno 17395 bound_to 11000

$$$$
