AV-unprocessed.smi:2987|AV-procd|sdf|11385|dock5
  -GOLD-   2272016313D 1   1.00000     0.00000
 Structure written by MMmdl.
 25 26  0  0  0  0  0  0  0  0  1 V2000
  149.8872  139.0647  157.5650 C   0  0  0  0  0  0  0  0  0  0  0  0
  150.6225  140.3254  157.8925 C   0  0  0  0  0  0  0  0  0  0  0  0
  151.4501  140.4186  158.9336 N   0  0  0  0  0  0  0  0  0  0  0  0
  151.8890  141.7266  158.8547 C   0  0  0  0  0  0  0  0  0  0  0  0
  152.7853  142.4464  159.6769 C   0  0  0  0  0  0  0  0  0  0  0  0
  153.0839  143.7962  159.3967 C   0  0  0  0  0  0  0  0  0  0  0  0
  152.4916  144.4446  158.2936 C   0  0  0  0  0  0  0  0  0  0  0  0
  151.5962  143.7458  157.4612 C   0  0  0  0  0  0  0  0  0  0  0  0
  151.3026  142.3987  157.7447 C   0  0  0  0  0  0  0  0  0  0  0  0
  150.4853  141.4470  157.1440 N   0  0  0  0  0  0  0  0  0  0  0  0
  149.6584  141.6427  155.9646 C   0  0  0  0  0  0  0  0  0  0  0  0
  149.9731  140.6043  154.8793 C   0  0  0  0  0  0  0  0  0  0  0  0
  149.5222  141.0719  153.6271 O   0  0  0  0  0  0  0  0  0  0  0  0
  150.0502  138.3145  158.3395 H   0  0  0  0  0  0  0  0  0  0  0  0
  150.2388  138.6606  156.6154 H   0  0  0  0  0  0  0  0  0  0  0  0
  148.8164  139.2565  157.4933 H   0  0  0  0  0  0  0  0  0  0  0  0
  153.2431  141.9594  160.5250 H   0  0  0  0  0  0  0  0  0  0  0  0
  153.7710  144.3366  160.0314 H   0  0  0  0  0  0  0  0  0  0  0  0
  152.7252  145.4786  158.0866 H   0  0  0  0  0  0  0  0  0  0  0  0
  151.1407  144.2393  156.6157 H   0  0  0  0  0  0  0  0  0  0  0  0
  148.6113  141.5726  156.2624 H   0  0  0  0  0  0  0  0  0  0  0  0
  149.8026  142.6547  155.5855 H   0  0  0  0  0  0  0  0  0  0  0  0
  151.0454  140.4142  154.8228 H   0  0  0  0  0  0  0  0  0  0  0  0
  149.4842  139.6551  155.1008 H   0  0  0  0  0  0  0  0  0  0  0  0
  149.3801  140.3276  153.0621 H   0  0  0  0  0  0  0  0  0  0  0  0
  1  2  1  0  0  0  0
  1 14  1  0  0  0  0
  1 15  1  0  0  0  0
  1 16  1  0  0  0  0
  2 10  1  0  0  0  0
  2  3  2  0  0  0  0
  3  4  1  0  0  0  0
  4  9  2  0  0  0  0
  4  5  1  0  0  0  0
  5  6  2  0  0  0  0
  5 17  1  0  0  0  0
  6  7  1  0  0  0  0
  6 18  1  0  0  0  0
  7  8  2  0  0  0  0
  7 19  1  0  0  0  0
  8  9  1  0  0  0  0
  8 20  1  0  0  0  0
  9 10  1  0  0  0  0
 10 11  1  0  0  0  0
 11 12  1  0  0  0  0
 11 21  1  0  0  0  0
 11 22  1  0  0  0  0
 12 13  1  0  0  0  0
 12 23  1  0  0  0  0
 12 24  1  0  0  0  0
 13 25  1  0  0  0  0
M  END
> <s_m_source_file>
AV-unprocessed.smi

> <i_m_source_file_index>
2987

> <i_lp_mmshare_version>
43012

> <i_f3d_flags>
0

> <s_epik_input>
W09IXVtDSDJdW0NIMl1uKGMobjEpW0NIM10pYyhjMTIpW2NIXVtjSF1bY0hdW2NIXTI=

> <s_epik_cmdline>
J2VwaWtfcHl0aG9uJywgJy1waCcsICc3LjAnLCAnLXRuJywgJzgnLCAnLW1hJywgJzIwMCcsICctbWV0YWxfYmluZGluZycsICctaW1hZScsICc8aW5maWxlLm1hZT4nLCAnLW9tYWUnLCAnPG91dGZpbGUubWFlPic=

> <r_epik_Ionization_Penalty>
0.129663

> <r_epik_Ionization_Penalty_Charging>
0

> <r_epik_Ionization_Penalty_Neutral>
0.129663

> <r_epik_State_Penalty>
0.119073

> <r_epik_Charging_Adjusted_Penalty>
0.119073

> <i_epik_Tot_Q>
0

> <i_epik_Tot_abs_Q>
0

> <r_epik_Metal_State_Penalty>
0.000131867

> <b_epik_Metal_Only>
0

> <s_lp_Force_Field>
OPLS_2005

> <r_lp_Energy>
7.88102

> <b_lp_Chiralities_Consistent>
1

> <s_lp_Variant>
AV-unprocessed.smi:2987-1

> <Gold.Version>
5.8.1

> <Gold.Id.Protein>
6NUR|6NUR_protein|mol2

> <Gold.PLP.Fitness>
37.0471

> <Gold.PLP.PLP>
-32.3129

> <Gold.PLP.part.hbond>
-3.0000

> <Gold.PLP.part.metal>
0.0000

> <Gold.PLP.part.buried>
-1.4506

> <Gold.PLP.part.nonpolar>
-26.5446

> <Gold.PLP.part.repulsive>
0.0000

> <Gold.PLP.ligand.clash>
0.0000

> <Gold.PLP.ligand.torsion>
0.1169

> <Gold.PLP.Chemscore.Hbond>
1.6560

> <Gold.PLP.Chemscore.CHOScore>
0.0000

> <Gold.PLP.Chemscore.Metal>
0.0000

> <Gold.Chemscore.Hbonds>
donor molecule, donor type, donor heavy atom, donor atom, acceptor molecule, acceptor atom, score
      L1  H    13    25       P1  7957  0.66
      P1  H  8011  8017       L1    13  0.99

> <Gold.PLP.Chemscore.Internal.Correction>
0.0001

> <Gold.Rescore>
     Score         DG    S(hbond)    S(metal)    S(lipo)     H(rot)  DE(clash)    DE(int)     intcor
     13.74     -14.00       0.95        0.00      83.02       1.70       0.13       0.12       ----

> <Gold.Chemscore.Fitness>
13.7427

> <Gold.Chemscore.DG>
-13.9976

> <Gold.Chemscore.ZeroCoef>
-5.4800

> <Gold.Chemscore.Hbond>
0.9469

> <Gold.Chemscore.Metal>
0.0000

> <Gold.Chemscore.Lipo>
83.0153

> <Gold.Chemscore.Internal_Hbond>
0.0000

> <Gold.Chemscore.DEClash>
0.1334

> <Gold.Chemscore.DEInternal>
0.1216

> <Gold.Chemscore.Rot>
1.7023

> <Gold.Chemscore.Internal.Correction>
   9.000000E+99

> <Gold.Chemscore.Hbonds>
donor molecule, donor type, donor heavy atom, donor atom, acceptor molecule, acceptor atom, score
      L1  H    13    25       P1  7957  0.66
      P1  H  8011  8017       L1    13  0.24

> <Gold.Chemscore.Hbond.Weighted>
-3.1627

> <Gold.Chemscore.Metal.Weighted>
-0.0000

> <Gold.Chemscore.Lipo.Weighted>
-9.7128

> <Gold.Chemscore.Internal_Hbond.Weighted>
0.0000

> <Gold.Chemscore.DEClash.Weighted>
0.1334

> <Gold.Chemscore.DEInternal.Weighted>
0.1216

> <Gold.Chemscore.Rot.Weighted>
4.3579

> <Gold.Chemscore.Internal.Correction.Weighted>
   9.000000E+99

> <Gold.Protein.RotatedTorsions>
[ 6907 6896 6895 6894 ] final    8.28 input  -60.11 | X-H torsion
[ 7974 7965 7964 7962 ] final   76.52 input  175.53 | X-H torsion
[ 8008 7997 7996 7995 ] final  169.94 input   59.86 | X-H torsion
[ 10167 10162 10161 10158 ] final  119.19 input  -65.29 | X-H torsion
[ 10718 10713 10712 10709 ] final   74.30 input   66.30 | X-H torsion
[ 10763 10752 10751 10750 ] final  -89.22 input  -60.55 | X-H torsion
[ 11005 11000 10999 10996 ] final  130.91 input  -57.11 | X-H torsion

> <Gold.Protein.ActiveResidues>
 VAL166  LYS551  ARG553  GLY616  TRP617  ASP618  TYR619  PRO620  LYS621  CYS622 
 ASP623  PHE694  ASN695  SER759  ASP760  ASP761  ALA762  ILE779  LEU786  VAL792 
 PHE793  MET794  SER795  GLU796  ALA797  LYS798  CYS799  TRP800  GLU811  SER814 

> <Gold.Protein.RotatedAtoms>
  151.7036  135.0925  160.0254 H   0  0  0  0  0  0  0  0  0  0  0  0  # atno 6907 bound_to 6896
  152.3705  133.6409  159.6092 H   0  0  0  0  0  0  0  0  0  0  0  0  # atno 6908 bound_to 6896
  150.7670  133.9194  159.3435 H   0  0  0  0  0  0  0  0  0  0  0  0  # atno 6909 bound_to 6896
  145.7018  139.2585  143.1701 H   0  0  0  0  0  0  0  0  0  0  0  0  # atno 7974 bound_to 7965
  156.1411  140.1551  156.8919 H   0  0  0  0  0  0  0  0  0  0  0  0  # atno 8008 bound_to 7997
  154.4988  140.0831  156.7792 H   0  0  0  0  0  0  0  0  0  0  0  0  # atno 8009 bound_to 7997
  155.4077  140.3417  155.4263 H   0  0  0  0  0  0  0  0  0  0  0  0  # atno 8010 bound_to 7997
  139.6062  144.7070  151.2947 H   0  0  0  0  0  0  0  0  0  0  0  0  # atno 10167 bound_to 10162
  157.6586  130.9671  150.1191 H   0  0  0  0  0  0  0  0  0  0  0  0  # atno 10718 bound_to 10713
  154.6529  135.5349  153.7924 H   0  0  0  0  0  0  0  0  0  0  0  0  # atno 10763 bound_to 10752
  153.0396  135.6487  154.0989 H   0  0  0  0  0  0  0  0  0  0  0  0  # atno 10764 bound_to 10752
  154.0905  135.2940  155.3252 H   0  0  0  0  0  0  0  0  0  0  0  0  # atno 10765 bound_to 10752
  139.9699  134.9580  156.9362 H   0  0  0  0  0  0  0  0  0  0  0  0  # atno 11005 bound_to 11000
  146.0791  140.7784  142.9650 LP  0  0  0  0  0  0  0  0  0  0  0  0  # atno 17320 bound_to 7965
  144.6966  140.3461  143.7190 LP  0  0  0  0  0  0  0  0  0  0  0  0  # atno 17321 bound_to 7965
  140.7287  143.6929  150.7907 LP  0  0  0  0  0  0  0  0  0  0  0  0  # atno 17342 bound_to 10162
  140.0515  143.5245  152.2671 LP  0  0  0  0  0  0  0  0  0  0  0  0  # atno 17343 bound_to 10162
  156.2067  130.3664  149.8721 LP  0  0  0  0  0  0  0  0  0  0  0  0  # atno 17370 bound_to 10713
  156.6610  130.8782  151.3547 LP  0  0  0  0  0  0  0  0  0  0  0  0  # atno 17371 bound_to 10713
  140.5315  134.0808  155.7317 LP  0  0  0  0  0  0  0  0  0  0  0  0  # atno 17394 bound_to 11000
  141.1379  133.9190  157.2393 LP  0  0  0  0  0  0  0  0  0  0  0  0  # atno 17395 bound_to 11000

$$$$
