#       Name:                AV-unprocessed.smi:1033
#       Creating user name   scv26
#       Creation time:       Fri Mar 27 02:51:19 2020


#       File generated by GOLD software.
#

@<TRIPOS>MOLECULE
AV-unprocessed.smi:1033
    62    64     1
SMALL
NO_CHARGES


@<TRIPOS>ATOM
      1 ****        -7.1053   1.5490  -1.9156 C.3            1 S1                 0.0000
      2 ****        -5.8077   1.8917  -1.2049 C.ar           1 S1                 0.0000
      3 ****        -5.8617   2.4735   0.0818 C.ar           1 S1                 0.0000
      4 ****        -4.6782   2.8080   0.7754 C.ar           1 S1                 0.0000
      5 ****        -4.4978   3.3772   2.0244 N.2            1 S1                 0.0000
      6 ****        -3.1720   3.4383   2.1031 C.2            1 S1                 0.0000
      7 ****        -2.4698   2.9669   1.0543 N.pl3          1 S1                 0.0000
      8 ****        -1.0254   2.9288   0.9099 C.3            1 S1                 0.0000
      9 ****        -0.4558   1.5034   1.0452 C.3            1 S1                 0.0000
     10 ****        -0.7809   0.9883   2.3219 O.3            1 S1                 0.0000
     11 ****         1.0767   1.4855   0.8822 C.3            1 S1                 0.0000
     12 ****         1.6399   0.1106   0.9019 N.4            1 S1                 1.0000
     13 ****         3.0657   0.0913   1.3124 C.3            1 S1                 0.0000
     14 ****         3.5977  -1.3489   1.4174 C.3            1 S1                 0.0000
     15 ****         3.4054  -2.0853   0.1420 N.4            1 S1                 1.0000
     16 ****         3.9761  -3.4575   0.1580 C.3            1 S1                 0.0000
     17 ****         5.5066  -3.4620  -0.0251 C.3            1 S1                 0.0000
     18 ****         6.1038  -4.8670   0.1266 C.3            1 S1                 0.0000
     19 ****         5.8181  -2.9873  -1.3194 O.3            1 S1                 0.0000
     20 ****         1.9797  -2.0685  -0.2687 C.3            1 S1                 0.0000
     21 ****         1.4446  -0.6288  -0.3717 C.3            1 S1                 0.0000
     22 ****        -3.4293   2.5416   0.1418 C.ar           1 S1                 0.0000
     23 ****        -3.3623   1.9648  -1.1386 C.ar           1 S1                 0.0000
     24 ****        -4.5545   1.6370  -1.8177 C.ar           1 S1                 0.0000
     25 ****        -4.4731   1.0154  -3.2008 C.3            1 S1                 0.0000
     26 ****        -7.9722   1.7772  -1.2950 H              1 S1                 0.0000
     27 ****        -7.1396   0.4870  -2.1591 H              1 S1                 0.0000
     28 ****        -7.1953   2.1199  -2.8400 H              1 S1                 0.0000
     29 ****        -6.8161   2.6699   0.5479 H              1 S1                 0.0000
     30 ****        -2.6826   3.8459   2.9758 H              1 S1                 0.0000
     31 ****        -0.7737   3.3439  -0.0670 H              1 S1                 0.0000
     32 ****        -0.5809   3.5915   1.6543 H              1 S1                 0.0000
     33 ****        -0.9257   0.8696   0.2942 H              1 S1                 0.0000
     34 ****        -1.7194   1.0296   2.4326 H              1 S1                 0.0000
     35 ****         1.3695   1.9814  -0.0446 H              1 S1                 0.0000
     36 ****         1.5136   2.0739   1.6910 H              1 S1                 0.0000
     37 ****         3.6594   0.6592   0.5940 H              1 S1                 0.0000
     38 ****         3.1780   0.5856   2.2783 H              1 S1                 0.0000
     39 ****         4.6532  -1.3174   1.6847 H              1 S1                 0.0000
     40 ****         3.0851  -1.8766   2.2236 H              1 S1                 0.0000
     41 ****         3.6991  -3.9512   1.0910 H              1 S1                 0.0000
     42 ****         3.5317  -4.0523  -0.6420 H              1 S1                 0.0000
     43 ****         5.9845  -2.8071   0.7025 H              1 S1                 0.0000
     44 ****         5.9078  -5.2706   1.1204 H              1 S1                 0.0000
     45 ****         7.1855  -4.8515  -0.0125 H              1 S1                 0.0000
     46 ****         5.6844  -5.5616  -0.6021 H              1 S1                 0.0000
     47 ****         5.5328  -3.6269  -1.9549 H              1 S1                 0.0000
     48 ****         1.8690  -2.5620  -1.2352 H              1 S1                 0.0000
     49 ****         1.3877  -2.6392   0.4489 H              1 S1                 0.0000
     50 ****         0.3881  -0.6629  -0.6347 H              1 S1                 0.0000
     51 ****         1.9536  -0.1008  -1.1798 H              1 S1                 0.0000
     52 ****        -2.4020   1.7782  -1.5952 H              1 S1                 0.0000
     53 ****        -3.4393   0.9162  -3.5333 H              1 S1                 0.0000
     54 ****        -5.0005   1.6325  -3.9286 H              1 S1                 0.0000
     55 ****        -4.9217   0.0217  -3.1994 H              1 S1                 0.0000
     56 ****         3.9124  -1.5815  -0.5727 H              1 S1                 0.0000
     57 ****         1.1314  -0.3875   1.6193 H              1 S1                 0.0000
     58 ****        -5.1841   3.6663   2.6918 LP             1 S1                 0.0000
     59 ****        -0.3334   1.5347   3.0299 LP             1 S1                 0.0000
     60 ****        -0.4747   0.0388   2.3904 LP             1 S1                 0.0000
     61 ****         6.8057  -2.8515  -1.3990 LP             1 S1                 0.0000
     62 ****         5.3482  -2.1196  -1.4814 LP             1 S1                 0.0000
@<TRIPOS>BOND
    1    1    2 1     
    2    1   26 1     
    3    1   27 1     
    4    1   28 1     
    5    2   24 ar    
    6    2    3 ar    
    7    3    4 ar    
    8    3   29 1     
    9    4   22 ar    
   10    4    5 1     
   11    5    6 2     
   12    6    7 1     
   13    6   30 1     
   14    7    8 1     
   15    7   22 1     
   16    8    9 1     
   17    8   31 1     
   18    8   32 1     
   19    9   10 1     
   20    9   11 1     
   21    9   33 1     
   22   10   34 1     
   23   11   12 1     
   24   11   35 1     
   25   11   36 1     
   26   12   21 1     
   27   12   13 1     
   28   12   57 1     
   29   13   14 1     
   30   13   37 1     
   31   13   38 1     
   32   14   15 1     
   33   14   39 1     
   34   14   40 1     
   35   15   16 1     
   36   15   20 1     
   37   15   56 1     
   38   16   17 1     
   39   16   41 1     
   40   16   42 1     
   41   17   18 1     
   42   17   19 1     
   43   17   43 1     
   44   18   44 1     
   45   18   45 1     
   46   18   46 1     
   47   19   47 1     
   48   20   21 1     
   49   20   48 1     
   50   20   49 1     
   51   21   50 1     
   52   21   51 1     
   53   22   23 ar    
   54   23   24 ar    
   55   23   52 1     
   56   24   25 1     
   57   25   53 1     
   58   25   54 1     
   59   25   55 1     
   60    5   58 1     
   61   10   59 1     
   62   10   60 1     
   63   19   61 1     
   64   19   62 1     
@<TRIPOS>SUBSTRUCTURE
      1 S1             1
@<TRIPOS>SET
LONE_PAIRS      STATIC     ATOMS    <user>   **** ""
5 58 59 60 61 62
DONOR_HYDROGENS      STATIC     ATOMS    <user>   **** ""
4 34 57 56 47
ATOM$BLUE        STATIC     ATOMS    COLORGROUP SYSTEM
5 58 59 60 61 62
ATOM$RED        STATIC     ATOMS    COLORGROUP SYSTEM
4 34 57 56 47
