#       Name:                AV-unprocessed.smi:3330
#       Creating user name   scv26
#       Creation time:       Fri Mar 27 19:17:29 2020


#       File generated by GOLD software.
#

@<TRIPOS>MOLECULE
AV-unprocessed.smi:3330
    44    45     1
SMALL
NO_CHARGES


@<TRIPOS>ATOM
      1 ****        -1.8112  -1.3504   2.6668 C.3            1 S1                 0.0000
      2 ****        -1.3567  -0.6739   1.3590 C.3            1 S1                 0.0000
      3 ****         0.0999  -0.7311   1.2791 N.3            1 S1                 0.0000
      4 ****         0.7351   0.3228   2.0564 C.3            1 S1                 0.0000
      5 ****         2.2224   0.4195   1.6755 C.3            1 S1                 0.0000
      6 ****         2.4119   1.0636   0.3697 N.am           1 S1                 0.0000
      7 ****         2.5838   0.4051  -0.7845 C.2            1 S1                 0.0000
      8 ****         2.6050  -0.8131  -0.9576 O.2            1 S1                 0.0000
      9 ****         2.7427   1.4188  -1.8966 C.3            1 S1                 0.0000
     10 ****         2.5989   2.6353  -1.1274 N.am           1 S1                 0.0000
     11 ****         2.4107   2.3957   0.1768 C.2            1 S1                 0.0000
     12 ****         2.2606   3.2590   1.0402 O.2            1 S1                 0.0000
     13 ****        -1.9426  -1.3484   0.0882 C.3            1 S1                 0.0000
     14 ****        -3.4813  -1.3068   0.0395 C.3            1 S1                 0.0000
     15 ****        -1.3998  -0.7632  -1.1348 N.pl3          1 S1                 0.0000
     16 ****        -0.7214  -1.3999  -2.1534 C.2            1 S1                 0.0000
     17 ****        -0.4097  -0.4566  -3.0899 C.2            1 S1                 0.0000
     18 ****        -0.9488   0.7448  -2.5518 C.2            1 S1                 0.0000
     19 ****        -1.5412   0.5593  -1.3840 N.2            1 S1                 0.0000
     20 ****        -2.8912  -1.2878   2.7946 H              1 S1                 0.0000
     21 ****        -1.3691  -0.8759   3.5426 H              1 S1                 0.0000
     22 ****        -1.5339  -2.4049   2.6855 H              1 S1                 0.0000
     23 ****        -1.6768   0.3691   1.3664 H              1 S1                 0.0000
     24 ****         0.3647  -0.6089   0.3118 H              1 S1                 0.0000
     25 ****         0.2453   1.2823   1.8846 H              1 S1                 0.0000
     26 ****         0.6384   0.0958   3.1180 H              1 S1                 0.0000
     27 ****         2.7458   1.0037   2.4341 H              1 S1                 0.0000
     28 ****         2.6900  -0.5666   1.6979 H              1 S1                 0.0000
     29 ****         3.7254   1.3520  -2.3640 H              1 S1                 0.0000
     30 ****         1.9603   1.3239  -2.6494 H              1 S1                 0.0000
     31 ****         2.6386   3.5561  -1.5399 H              1 S1                 0.0000
     32 ****        -1.6453  -2.3986   0.0937 H              1 S1                 0.0000
     33 ****        -3.9259  -1.8928   0.8431 H              1 S1                 0.0000
     34 ****        -3.8536  -1.7205  -0.8982 H              1 S1                 0.0000
     35 ****        -3.8556  -0.2860   0.1228 H              1 S1                 0.0000
     36 ****        -0.5159  -2.4600  -2.1258 H              1 S1                 0.0000
     37 ****         0.1240  -0.6024  -4.0173 H              1 S1                 0.0000
     38 ****        -0.9245   1.7398  -2.9707 H              1 S1                 0.0000
     39 ****         0.3981  -1.6121   1.6464 LP             1 S1                 0.0000
     40 ****         2.4849  -1.4307  -0.1804 LP             1 S1                 0.0000
     41 ****         2.7424  -1.1853  -1.8755 LP             1 S1                 0.0000
     42 ****         2.1225   2.9933   1.9943 LP             1 S1                 0.0000
     43 ****         2.2767   4.2266   0.7879 LP             1 S1                 0.0000
     44 ****        -1.9931   1.2441  -0.8123 LP             1 S1                 0.0000
@<TRIPOS>BOND
    1    1    2 1     
    2    1   20 1     
    3    1   21 1     
    4    1   22 1     
    5    2    3 1     
    6    2   13 1     
    7    2   23 1     
    8    3    4 1     
    9    3   24 1     
   10    4    5 1     
   11    4   25 1     
   12    4   26 1     
   13    5    6 1     
   14    5   27 1     
   15    5   28 1     
   16    6   11 am    
   17    6    7 am    
   18    7    8 2     
   19    7    9 1     
   20    9   10 1     
   21    9   29 1     
   22    9   30 1     
   23   10   11 am    
   24   10   31 1     
   25   11   12 2     
   26   13   14 1     
   27   13   15 1     
   28   13   32 1     
   29   14   33 1     
   30   14   34 1     
   31   14   35 1     
   32   15   19 1     
   33   15   16 1     
   34   16   17 2     
   35   16   36 1     
   36   17   18 1     
   37   17   37 1     
   38   18   19 2     
   39   18   38 1     
   40    3   39 1     
   41    8   40 1     
   42    8   41 1     
   43   12   42 1     
   44   12   43 1     
   45   19   44 1     
@<TRIPOS>SUBSTRUCTURE
      1 S1             1
@<TRIPOS>SET
LONE_PAIRS      STATIC     ATOMS    <user>   **** ""
6 39 40 41 42 43 44
DONOR_HYDROGENS      STATIC     ATOMS    <user>   **** ""
2 24 31
ATOM$BLUE        STATIC     ATOMS    COLORGROUP SYSTEM
6 39 40 41 42 43 44
ATOM$RED        STATIC     ATOMS    COLORGROUP SYSTEM
2 24 31
