AV-unprocessed.smi:136|AV-procd|sdf|1172|dock4
  -GOLD-   2262018313D 1   1.00000     0.00000
 Structure written by MMmdl.
 54 58  0  0  0  0  0  0  0  0  1 V2000
  151.0696  137.0904  159.9411 O   0  0  0  0  0  0  0  0  0  0  0  0
  150.3324  137.4076  159.0057 C   0  0  0  0  0  0  0  0  0  0  0  0
  149.4701  136.3337  158.3079 C   0  0  0  0  0  0  0  0  0  0  0  0
  148.8097  135.4027  159.2488 N   0  0  0  0  0  0  0  0  0  0  0  0
  148.8645  134.0125  158.9809 C   0  0  0  0  0  0  0  0  0  0  0  0
  149.4521  133.5753  157.9905 O   0  0  0  0  0  0  0  0  0  0  0  0
  148.1810  133.1584  159.9454 C   0  0  0  0  0  0  0  0  0  0  0  0
  148.1988  131.8245  159.7826 F   0  0  0  0  0  0  0  0  0  0  0  0
  147.5315  133.6855  161.0036 C   0  0  0  0  0  0  0  0  0  0  0  0
  147.4654  135.0474  161.2402 N   0  0  0  0  0  0  0  0  0  0  0  0
  146.7317  135.6244  162.4339 C   0  0  1  0  0  0  0  0  0  0  0  0
  145.5320  136.4783  161.9767 C   0  0  0  0  0  0  0  0  0  0  0  0
  144.3756  135.8832  162.7561 C   0  0  0  0  0  0  0  0  0  0  0  0
  144.8286  134.4437  162.9461 C   0  0  0  0  0  0  0  0  0  0  0  0
  146.2152  134.5895  163.2215 O   0  0  0  0  0  0  0  0  0  0  0  0
  148.1202  135.9386  160.3623 C   0  0  0  0  0  0  0  0  0  0  0  0
  148.0828  137.1550  160.5613 O   0  0  0  0  0  0  0  0  0  0  0  0
  150.2552  138.6803  158.5569 N   0  0  0  0  0  0  0  0  0  0  0  0
  150.8908  139.7187  159.1555 N   0  0  0  0  0  0  0  0  0  0  0  0
  150.5389  140.8193  158.6019 C   0  0  0  0  0  0  0  0  0  0  0  0
  151.0385  142.1538  159.0003 C   0  0  0  0  0  0  0  0  0  0  0  0
  150.2980  143.3054  158.6491 C   0  0  0  0  0  0  0  0  0  0  0  0
  150.7731  144.5764  159.0272 C   0  0  0  0  0  0  0  0  0  0  0  0
  151.9777  144.6964  159.7491 C   0  0  0  0  0  0  0  0  0  0  0  0
  152.5545  146.2563  160.2083 Cl  0  0  0  0  0  0  0  0  0  0  0  0
  152.7121  143.5447  160.0960 C   0  0  0  0  0  0  0  0  0  0  0  0
  152.2473  142.2681  159.7232 C   0  0  0  0  0  0  0  0  0  0  0  0
  149.5633  140.6473  157.4868 C   0  0  0  0  0  0  0  0  0  0  0  0
  149.4082  139.1248  157.4427 C   0  0  1  0  0  0  0  0  0  0  0  0
  149.8077  138.5338  156.1228 C   0  0  0  0  0  0  0  0  0  0  0  0
  150.7723  137.6394  155.7493 C   0  0  0  0  0  0  0  0  0  0  0  0
  150.6377  137.4665  154.3440 C   0  0  0  0  0  0  0  0  0  0  0  0
  149.5962  138.2642  153.9645 C   0  0  0  0  0  0  0  0  0  0  0  0
  149.0757  138.9184  155.0375 O   0  0  0  0  0  0  0  0  0  0  0  0
  148.7327  136.8347  157.6786 H   0  0  0  0  0  0  0  0  0  0  0  0
  150.0932  135.7839  157.6006 H   0  0  0  0  0  0  0  0  0  0  0  0
  147.0509  132.9966  161.6812 H   0  0  0  0  0  0  0  0  0  0  0  0
  147.4845  136.1755  163.0002 H   0  0  0  0  0  0  0  0  0  0  0  0
  145.6978  137.5332  162.1967 H   0  0  0  0  0  0  0  0  0  0  0  0
  145.3688  136.3613  160.9041 H   0  0  0  0  0  0  0  0  0  0  0  0
  144.2822  136.3756  163.7249 H   0  0  0  0  0  0  0  0  0  0  0  0
  143.4211  135.9660  162.2355 H   0  0  0  0  0  0  0  0  0  0  0  0
  144.3078  133.9400  163.7602 H   0  0  0  0  0  0  0  0  0  0  0  0
  144.6832  133.8664  162.0322 H   0  0  0  0  0  0  0  0  0  0  0  0
  149.3717  143.2344  158.0973 H   0  0  0  0  0  0  0  0  0  0  0  0
  150.2111  145.4598  158.7622 H   0  0  0  0  0  0  0  0  0  0  0  0
  153.6351  143.6393  160.6493 H   0  0  0  0  0  0  0  0  0  0  0  0
  152.8293  141.4015  159.9994 H   0  0  0  0  0  0  0  0  0  0  0  0
  148.6160  141.1392  157.7106 H   0  0  0  0  0  0  0  0  0  0  0  0
  149.9572  141.0519  156.5533 H   0  0  0  0  0  0  0  0  0  0  0  0
  148.3728  138.8586  157.6621 H   0  0  0  0  0  0  0  0  0  0  0  0
  151.4885  137.1696  156.4071 H   0  0  0  0  0  0  0  0  0  0  0  0
  151.2269  136.8376  153.6931 H   0  0  0  0  0  0  0  0  0  0  0  0
  149.1164  138.4738  153.0198 H   0  0  0  0  0  0  0  0  0  0  0  0
  1  2  2  0  0  0  0
  2  3  1  0  0  0  0
  2 18  1  0  0  0  0
  3  4  1  0  0  0  0
  3 35  1  0  0  0  0
  3 36  1  0  0  0  0
  4 16  1  0  0  0  0
  4  5  1  0  0  0  0
  5  6  2  0  0  0  0
  5  7  1  0  0  0  0
  7  8  1  0  0  0  0
  7  9  2  0  0  0  0
  9 10  1  0  0  0  0
  9 37  1  0  0  0  0
 10 11  1  0  0  0  0
 10 16  1  0  0  0  0
 11 15  1  0  0  0  0
 11 12  1  0  0  0  0
 11 38  1  0  0  0  0
 12 13  1  0  0  0  0
 12 39  1  0  0  0  0
 12 40  1  0  0  0  0
 13 14  1  0  0  0  0
 13 41  1  0  0  0  0
 13 42  1  0  0  0  0
 14 15  1  0  0  0  0
 14 43  1  0  0  0  0
 14 44  1  0  0  0  0
 16 17  2  0  0  0  0
 18 29  1  0  0  0  0
 18 19  1  0  0  0  0
 19 20  2  0  0  0  0
 20 21  1  0  0  0  0
 20 28  1  0  0  0  0
 21 27  1  0  0  0  0
 21 22  2  0  0  0  0
 22 23  1  0  0  0  0
 22 45  1  0  0  0  0
 23 24  2  0  0  0  0
 23 46  1  0  0  0  0
 24 25  1  0  0  0  0
 24 26  1  0  0  0  0
 26 27  2  0  0  0  0
 26 47  1  0  0  0  0
 27 48  1  0  0  0  0
 28 29  1  0  0  0  0
 28 49  1  0  0  0  0
 28 50  1  0  0  0  0
 29 30  1  0  0  0  0
 29 51  1  0  0  0  0
 30 34  1  0  0  0  0
 30 31  2  0  0  0  0
 31 32  1  0  0  0  0
 31 52  1  0  0  0  0
 32 33  2  0  0  0  0
 32 53  1  0  0  0  0
 33 34  1  0  0  0  0
 33 54  1  0  0  0  0
M  END
> <s_m_source_file>
AV-unprocessed.smi

> <i_m_source_file_index>
136

> <i_lp_mmshare_version>
43012

> <i_f3d_flags>
0

> <s_epik_input>
bzFbY0hdW2NIXVtjSF1jMVtDQEBIXTJbQ0gyXUMoYzNbY0hdW2NIXWMoQ2wpW2NIXVtjSF0zKT1OTjJDKD1PKVtDSDJdbjRjKD1PKWMoRilbY0hdbihjND1PKVtDQEBIXTVbQ0gyXVtDSDJdW0NIMl1PNQ==

> <s_epik_cmdline>
J2VwaWtfcHl0aG9uJywgJy1waCcsICc3LjAnLCAnLXRuJywgJzgnLCAnLW1hJywgJzIwMCcsICctbWV0YWxfYmluZGluZycsICctaW1hZScsICc8aW5maWxlLm1hZT4nLCAnLW9tYWUnLCAnPG91dGZpbGUubWFlPic=

> <r_lp_tautomer_probability>
1

> <r_epik_Ionization_Penalty>
2.55467e-08

> <r_epik_Ionization_Penalty_Charging>
4.85705e-09

> <r_epik_Ionization_Penalty_Neutral>
2.06897e-08

> <r_epik_State_Penalty>
-0

> <r_epik_Charging_Adjusted_Penalty>
4.85705e-09

> <i_epik_Tot_Q>
0

> <i_epik_Tot_abs_Q>
0

> <r_epik_Metal_State_Penalty>
-0

> <b_epik_Metal_Only>
0

> <s_epik_Chemistry_Notes>
This compound has an imine and may undergo hydrolysis. This compound contains an acetal/aminal-like group ( X-CH(R)-Y where X, Y are N, S, or O) that may be acid/base labile, releasing an aldehyde.

> <s_lp_Force_Field>
OPLS_2005

> <r_lp_Energy>
41.711

> <b_lp_Chiralities_Consistent>
1

> <s_lp_Variant>
AV-unprocessed.smi:136-2

> <Gold.Version>
5.8.1

> <Gold.Id.Protein>
6NUR|6NUR_protein|mol2

> <Gold.PLP.Fitness>
54.2361

> <Gold.PLP.PLP>
-42.9327

> <Gold.PLP.part.hbond>
-5.8816

> <Gold.PLP.part.metal>
0.0000

> <Gold.PLP.part.buried>
-0.0647

> <Gold.PLP.part.nonpolar>
-38.7714

> <Gold.PLP.part.repulsive>
0.1009

> <Gold.PLP.ligand.clash>
0.1202

> <Gold.PLP.ligand.torsion>
0.5998

> <Gold.PLP.Chemscore.Hbond>
2.6550

> <Gold.PLP.Chemscore.CHOScore>
1.5289

> <Gold.PLP.Chemscore.Metal>
0.0000

> <Gold.Chemscore.Hbonds>
donor molecule, donor type, donor heavy atom, donor atom, acceptor molecule, acceptor atom, score
      P1  H  6896  6909       L1     1  1.00
      P1  H  6931  6943       L1    17  0.80
      P1  H  6934  6947       L1    17  0.61
      L1  C    33    54       P1  7948  0.50
      L1  C    33    54       P1  7957  1.00

> <Gold.PLP.Chemscore.Internal.Correction>
0.0714

> <Gold.Rescore>
     Score         DG    S(hbond)    S(metal)    S(lipo)     H(rot)  DE(clash)    DE(int)     intcor
     18.42     -23.07       2.15        0.00     128.40       1.81       2.48       2.17       ----

> <Gold.Chemscore.Fitness>
18.4233

> <Gold.Chemscore.DG>
-23.0740

> <Gold.Chemscore.ZeroCoef>
-5.4800

> <Gold.Chemscore.Hbond>
2.1536

> <Gold.Chemscore.Metal>
0.0000

> <Gold.Chemscore.Lipo>
128.4040

> <Gold.Chemscore.Internal_Hbond>
0.0000

> <Gold.Chemscore.DEClash>
2.4829

> <Gold.Chemscore.DEInternal>
2.1679

> <Gold.Chemscore.Rot>
1.8056

> <Gold.Chemscore.Internal.Correction>
   9.000000E+99

> <Gold.Chemscore.Hbonds>
donor molecule, donor type, donor heavy atom, donor atom, acceptor molecule, acceptor atom, score
      P1  H  6896  6909       L1     1  0.78
      P1  H  6931  6943       L1    17  0.78
      P1  H  6934  6947       L1    17  0.61

> <Gold.Chemscore.Hbond.Weighted>
-7.1931

> <Gold.Chemscore.Metal.Weighted>
-0.0000

> <Gold.Chemscore.Lipo.Weighted>
-15.0233

> <Gold.Chemscore.Internal_Hbond.Weighted>
0.0000

> <Gold.Chemscore.DEClash.Weighted>
2.4829

> <Gold.Chemscore.DEInternal.Weighted>
2.1679

> <Gold.Chemscore.Rot.Weighted>
4.6223

> <Gold.Chemscore.Internal.Correction.Weighted>
   9.000000E+99

> <Gold.Protein.RotatedTorsions>
[ 6907 6896 6895 6894 ] final  109.24 input  -60.11 | X-H torsion
[ 7974 7965 7964 7962 ] final   -0.49 input  175.53 | X-H torsion
[ 8008 7997 7996 7995 ] final   55.47 input   59.86 | X-H torsion
[ 10167 10162 10161 10158 ] final  151.53 input  -65.29 | X-H torsion
[ 10718 10713 10712 10709 ] final  -60.54 input   66.30 | X-H torsion
[ 10763 10752 10751 10750 ] final  116.34 input  -60.55 | X-H torsion
[ 11005 11000 10999 10996 ] final -178.35 input  -57.11 | X-H torsion

> <Gold.Protein.ActiveResidues>
 VAL166  LYS551  ARG553  GLY616  TRP617  ASP618  TYR619  PRO620  LYS621  CYS622 
 ASP623  PHE694  ASN695  SER759  ASP760  ASP761  ALA762  ILE779  LEU786  VAL792 
 PHE793  MET794  SER795  GLU796  ALA797  LYS798  CYS799  TRP800  GLU811  SER814 

> <Gold.Protein.RotatedAtoms>
  152.5076  133.8972  159.7422 H   0  0  0  0  0  0  0  0  0  0  0  0  # atno 6907 bound_to 6896
  150.9397  133.6662  159.2800 H   0  0  0  0  0  0  0  0  0  0  0  0  # atno 6908 bound_to 6896
  151.3978  135.0971  159.9599 H   0  0  0  0  0  0  0  0  0  0  0  0  # atno 6909 bound_to 6896
  146.2427  140.1278  142.8338 H   0  0  0  0  0  0  0  0  0  0  0  0  # atno 7974 bound_to 7965
  155.5016  140.3474  155.4372 H   0  0  0  0  0  0  0  0  0  0  0  0  # atno 8008 bound_to 7997
  156.0909  140.1410  156.9620 H   0  0  0  0  0  0  0  0  0  0  0  0  # atno 8009 bound_to 7997
  154.4634  140.0926  156.6933 H   0  0  0  0  0  0  0  0  0  0  0  0  # atno 8010 bound_to 7997
  139.4840  144.5433  151.7527 H   0  0  0  0  0  0  0  0  0  0  0  0  # atno 10167 bound_to 10162
  156.0983  130.4190  150.0868 H   0  0  0  0  0  0  0  0  0  0  0  0  # atno 10718 bound_to 10713
  153.5357  135.3569  155.2696 H   0  0  0  0  0  0  0  0  0  0  0  0  # atno 10763 bound_to 10752
  154.8722  135.4079  154.3101 H   0  0  0  0  0  0  0  0  0  0  0  0  # atno 10764 bound_to 10752
  153.3798  135.7067  153.6642 H   0  0  0  0  0  0  0  0  0  0  0  0  # atno 10765 bound_to 10752
  140.4307  134.6521  157.4710 H   0  0  0  0  0  0  0  0  0  0  0  0  # atno 11005 bound_to 11000
  145.0352  140.8902  143.5085 LP  0  0  0  0  0  0  0  0  0  0  0  0  # atno 17320 bound_to 7965
  145.1349  139.2609  143.5520 LP  0  0  0  0  0  0  0  0  0  0  0  0  # atno 17321 bound_to 7965
  140.4976  144.1217  150.5963 LP  0  0  0  0  0  0  0  0  0  0  0  0  # atno 17342 bound_to 10162
  140.4099  143.2662  151.9845 LP  0  0  0  0  0  0  0  0  0  0  0  0  # atno 17343 bound_to 10162
  156.8862  130.9573  151.3594 LP  0  0  0  0  0  0  0  0  0  0  0  0  # atno 17370 bound_to 10713
  157.6149  130.8611  149.9011 LP  0  0  0  0  0  0  0  0  0  0  0  0  # atno 17371 bound_to 10713
  140.0136  134.6653  155.9343 LP  0  0  0  0  0  0  0  0  0  0  0  0  # atno 17394 bound_to 11000
  141.1747  133.6539  156.4782 LP  0  0  0  0  0  0  0  0  0  0  0  0  # atno 17395 bound_to 11000

$$$$
