AV-unprocessed.smi:1485|AV-procd|sdf|6003|dock4
  -GOLD-   22720 6 93D 1   1.00000     0.00000
 Structure written by MMmdl.
 44 45  0  0  0  0  0  0  0  0  1 V2000
  156.2812  137.6535  165.4665 C   0  0  0  0  0  0  0  0  0  0  0  0
  155.4349  136.8658  164.6475 O   0  0  0  0  0  0  0  0  0  0  0  0
  154.0858  137.2986  164.6869 C   0  0  0  0  0  0  0  0  0  0  0  0
  153.2273  136.3249  163.8659 C   0  0  0  0  0  0  0  0  0  0  0  0
  153.4415  136.5034  162.4263 N   0  0  0  0  0  0  0  0  0  0  0  0
  153.4687  137.8271  162.0207 N   0  0  0  0  0  0  0  0  0  0  0  0
  153.6604  138.1219  160.7754 C   0  0  0  0  0  0  0  0  0  0  0  0
  153.6980  139.5324  160.2993 C   0  0  0  0  0  0  0  0  0  0  0  0
  153.9226  139.8160  159.1214 O   0  0  0  0  0  0  0  0  0  0  0  0
  153.4676  140.4632  161.2430 N   0  0  0  0  0  0  0  0  0  0  0  0
  153.4445  141.9058  161.0243 C   0  0  2  0  0  0  0  0  0  0  0  0
  152.7415  142.5929  162.2089 C   0  0  0  0  0  0  0  0  0  0  0  0
  152.6348  144.1100  161.9927 C   0  0  0  0  0  0  0  0  0  0  0  0
  151.9248  144.4353  160.6693 C   0  0  0  0  0  0  0  0  0  0  0  0
  152.6267  143.7632  159.4738 C   0  0  2  0  0  0  0  0  0  0  0  0
  151.9182  144.0869  158.1509 C   0  0  0  0  0  0  0  0  0  0  0  0
  152.7343  142.2420  159.6966 C   0  0  0  0  0  0  0  0  0  0  0  0
  153.8490  137.0763  159.7839 C   0  0  0  0  0  0  0  0  0  0  0  0
  153.8252  135.7898  160.1957 C   0  0  0  0  0  0  0  0  0  0  0  0
  153.6163  135.4293  161.5989 C   0  0  0  0  0  0  0  0  0  0  0  0
  153.6036  134.2660  162.0003 O   0  0  0  0  0  0  0  0  0  0  0  0
  157.3026  137.2779  165.4068 H   0  0  0  0  0  0  0  0  0  0  0  0
  155.9686  137.6137  166.5109 H   0  0  0  0  0  0  0  0  0  0  0  0
  156.2863  138.6948  165.1416 H   0  0  0  0  0  0  0  0  0  0  0  0
  153.7349  137.3284  165.7198 H   0  0  0  0  0  0  0  0  0  0  0  0
  154.0074  138.3091  164.2824 H   0  0  0  0  0  0  0  0  0  0  0  0
  153.4419  135.2960  164.1603 H   0  0  0  0  0  0  0  0  0  0  0  0
  152.1737  136.4805  164.1058 H   0  0  0  0  0  0  0  0  0  0  0  0
  153.2924  140.1436  162.1849 H   0  0  0  0  0  0  0  0  0  0  0  0
  154.4714  142.2741  160.9795 H   0  0  0  0  0  0  0  0  0  0  0  0
  151.7414  142.1766  162.3384 H   0  0  0  0  0  0  0  0  0  0  0  0
  153.2829  142.3914  163.1340 H   0  0  0  0  0  0  0  0  0  0  0  0
  152.0980  144.5668  162.8245 H   0  0  0  0  0  0  0  0  0  0  0  0
  153.6328  144.5503  161.9898 H   0  0  0  0  0  0  0  0  0  0  0  0
  150.8868  144.1037  160.7227 H   0  0  0  0  0  0  0  0  0  0  0  0
  151.8962  145.5161  160.5270 H   0  0  0  0  0  0  0  0  0  0  0  0
  153.6392  144.1646  159.4100 H   0  0  0  0  0  0  0  0  0  0  0  0
  150.8942  143.7121  158.1476 H   0  0  0  0  0  0  0  0  0  0  0  0
  152.4405  143.6366  157.3064 H   0  0  0  0  0  0  0  0  0  0  0  0
  151.8803  145.1627  157.9782 H   0  0  0  0  0  0  0  0  0  0  0  0
  153.2725  141.7885  158.8633 H   0  0  0  0  0  0  0  0  0  0  0  0
  151.7360  141.8014  159.6936 H   0  0  0  0  0  0  0  0  0  0  0  0
  154.0051  137.3134  158.7416 H   0  0  0  0  0  0  0  0  0  0  0  0
  153.9642  135.0024  159.4694 H   0  0  0  0  0  0  0  0  0  0  0  0
  1  2  1  0  0  0  0
  1 22  1  0  0  0  0
  1 23  1  0  0  0  0
  1 24  1  0  0  0  0
  2  3  1  0  0  0  0
  3  4  1  0  0  0  0
  3 25  1  0  0  0  0
  3 26  1  0  0  0  0
  4  5  1  0  0  0  0
  4 27  1  0  0  0  0
  4 28  1  0  0  0  0
  5 20  1  0  0  0  0
  5  6  1  0  0  0  0
  6  7  2  0  0  0  0
  7  8  1  0  0  0  0
  7 18  1  0  0  0  0
  8  9  2  0  0  0  0
  8 10  1  0  0  0  0
 10 11  1  0  0  0  0
 10 29  1  0  0  0  0
 11 17  1  0  0  0  0
 11 12  1  0  0  0  0
 11 30  1  0  0  0  0
 12 13  1  0  0  0  0
 12 31  1  0  0  0  0
 12 32  1  0  0  0  0
 13 14  1  0  0  0  0
 13 33  1  0  0  0  0
 13 34  1  0  0  0  0
 14 15  1  0  0  0  0
 14 35  1  0  0  0  0
 14 36  1  0  0  0  0
 15 16  1  0  0  0  0
 15 17  1  0  0  0  0
 15 37  1  0  0  0  0
 16 38  1  0  0  0  0
 16 39  1  0  0  0  0
 16 40  1  0  0  0  0
 17 41  1  0  0  0  0
 17 42  1  0  0  0  0
 18 19  2  0  0  0  0
 18 43  1  0  0  0  0
 19 20  1  0  0  0  0
 19 44  1  0  0  0  0
 20 21  2  0  0  0  0
M  END
> <s_m_source_file>
AV-unprocessed.smi

> <i_m_source_file_index>
1485

> <i_lp_mmshare_version>
43012

> <i_f3d_flags>
0

> <s_epik_input>
W0NIM11PW0NIMl1bQ0gyXW4xbmMoW2NIXVtjSF1jMT1PKUMoPU8pW05IXVtDQEBIXTJbQ0gyXVtDSDJdW0NIMl1bQ0BASF0oW0NIM10pW0NIMl0y

> <s_epik_cmdline>
J2VwaWtfcHl0aG9uJywgJy1waCcsICc3LjAnLCAnLXRuJywgJzgnLCAnLW1hJywgJzIwMCcsICctbWV0YWxfYmluZGluZycsICctaW1hZScsICc8aW5maWxlLm1hZT4nLCAnLW9tYWUnLCAnPG91dGZpbGUubWFlPic=

> <r_lp_tautomer_probability>
1

> <r_epik_Ionization_Penalty>
6.4688e-07

> <r_epik_Ionization_Penalty_Charging>
6.63567e-09

> <r_epik_Ionization_Penalty_Neutral>
6.40245e-07

> <r_epik_State_Penalty>
-0

> <r_epik_Charging_Adjusted_Penalty>
6.63567e-09

> <i_epik_Tot_Q>
0

> <i_epik_Tot_abs_Q>
0

> <r_epik_Metal_State_Penalty>
-0

> <b_epik_Metal_Only>
0

> <s_lp_Force_Field>
OPLS_2005

> <r_lp_Energy>
28.6474

> <b_lp_Chiralities_Consistent>
1

> <s_lp_Variant>
AV-unprocessed.smi:1485-3

> <Gold.Version>
5.8.1

> <Gold.Id.Protein>
6NUR|6NUR_protein|mol2

> <Gold.PLP.Fitness>
49.8627

> <Gold.PLP.PLP>
-47.8330

> <Gold.PLP.part.hbond>
-1.0000

> <Gold.PLP.part.metal>
0.0000

> <Gold.PLP.part.buried>
-5.8556

> <Gold.PLP.part.nonpolar>
-40.3318

> <Gold.PLP.part.repulsive>
0.0975

> <Gold.PLP.ligand.clash>
0.0000

> <Gold.PLP.ligand.torsion>
0.4976

> <Gold.PLP.Chemscore.Hbond>
1.0000

> <Gold.PLP.Chemscore.CHOScore>
0.0000

> <Gold.PLP.Chemscore.Metal>
0.0000

> <Gold.Chemscore.Hbonds>
donor molecule, donor type, donor heavy atom, donor atom, acceptor molecule, acceptor atom, score
      P1  H  7997  8008       L1     9  0.71

> <Gold.PLP.Chemscore.Internal.Correction>
0.0248

> <Gold.Rescore>
     Score         DG    S(hbond)    S(metal)    S(lipo)     H(rot)  DE(clash)    DE(int)     intcor
     17.07     -18.72       0.98        0.00     118.94       1.55       0.20       1.45       ----

> <Gold.Chemscore.Fitness>
17.0736

> <Gold.Chemscore.DG>
-18.7239

> <Gold.Chemscore.ZeroCoef>
-5.4800

> <Gold.Chemscore.Hbond>
0.9850

> <Gold.Chemscore.Metal>
0.0000

> <Gold.Chemscore.Lipo>
118.9430

> <Gold.Chemscore.Internal_Hbond>
0.0000

> <Gold.Chemscore.DEClash>
0.1973

> <Gold.Chemscore.DEInternal>
1.4530

> <Gold.Chemscore.Rot>
1.5478

> <Gold.Chemscore.Internal.Correction>
   9.000000E+99

> <Gold.Chemscore.Hbonds>
donor molecule, donor type, donor heavy atom, donor atom, acceptor molecule, acceptor atom, score
      P1  H  7997  8008       L1     9  0.68

> <Gold.Chemscore.Hbond.Weighted>
-3.2899

> <Gold.Chemscore.Metal.Weighted>
-0.0000

> <Gold.Chemscore.Lipo.Weighted>
-13.9163

> <Gold.Chemscore.Internal_Hbond.Weighted>
0.0000

> <Gold.Chemscore.DEClash.Weighted>
0.1973

> <Gold.Chemscore.DEInternal.Weighted>
1.4530

> <Gold.Chemscore.Rot.Weighted>
3.9623

> <Gold.Chemscore.Internal.Correction.Weighted>
   9.000000E+99

> <Gold.Protein.RotatedTorsions>
[ 6907 6896 6895 6894 ] final -136.33 input  -60.11 | X-H torsion
[ 7974 7965 7964 7962 ] final  -97.76 input  175.53 | X-H torsion
[ 8008 7997 7996 7995 ] final -119.86 input   59.86 | X-H torsion
[ 10167 10162 10161 10158 ] final  -93.95 input  -65.29 | X-H torsion
[ 10718 10713 10712 10709 ] final  108.31 input   66.30 | X-H torsion
[ 10763 10752 10751 10750 ] final -128.83 input  -60.55 | X-H torsion
[ 11005 11000 10999 10996 ] final  -50.71 input  -57.11 | X-H torsion

> <Gold.Protein.ActiveResidues>
 VAL166  LYS551  ARG553  GLY616  TRP617  ASP618  TYR619  PRO620  LYS621  CYS622 
 ASP623  PHE694  ASN695  SER759  ASP760  ASP761  ALA762  ILE779  LEU786  VAL792 
 PHE793  MET794  SER795  GLU796  ALA797  LYS798  CYS799  TRP800  GLU811  SER814 

> <Gold.Protein.RotatedAtoms>
  151.0087  133.5986  159.2685 H   0  0  0  0  0  0  0  0  0  0  0  0  # atno 6907 bound_to 6896
  151.3145  135.0802  159.9294 H   0  0  0  0  0  0  0  0  0  0  0  0  # atno 6908 bound_to 6896
  152.5294  133.9746  159.7832 H   0  0  0  0  0  0  0  0  0  0  0  0  # atno 6909 bound_to 6896
  145.3295  140.9438  143.2670 H   0  0  0  0  0  0  0  0  0  0  0  0  # atno 7974 bound_to 7965
  155.1225  140.0399  157.2754 H   0  0  0  0  0  0  0  0  0  0  0  0  # atno 8008 bound_to 7997
  154.6603  140.2589  155.7091 H   0  0  0  0  0  0  0  0  0  0  0  0  # atno 8009 bound_to 7997
  156.2616  140.2818  156.1072 H   0  0  0  0  0  0  0  0  0  0  0  0  # atno 8010 bound_to 7997
  140.3194  143.3058  152.0063 H   0  0  0  0  0  0  0  0  0  0  0  0  # atno 10167 bound_to 10162
  157.6592  131.0891  150.6286 H   0  0  0  0  0  0  0  0  0  0  0  0  # atno 10718 bound_to 10713
  154.8757  135.3915  154.3820 H   0  0  0  0  0  0  0  0  0  0  0  0  # atno 10763 bound_to 10752
  153.4566  135.7029  153.6081 H   0  0  0  0  0  0  0  0  0  0  0  0  # atno 10764 bound_to 10752
  153.4597  135.3815  155.2300 H   0  0  0  0  0  0  0  0  0  0  0  0  # atno 10765 bound_to 10752
  141.0831  133.6649  156.3770 H   0  0  0  0  0  0  0  0  0  0  0  0  # atno 11005 bound_to 11000
  144.8876  139.4819  143.6693 LP  0  0  0  0  0  0  0  0  0  0  0  0  # atno 17320 bound_to 7965
  146.3051  139.7554  142.9062 LP  0  0  0  0  0  0  0  0  0  0  0  0  # atno 17321 bound_to 7965
  139.4877  144.6323  151.7045 LP  0  0  0  0  0  0  0  0  0  0  0  0  # atno 17342 bound_to 10162
  140.5497  144.0445  150.6122 LP  0  0  0  0  0  0  0  0  0  0  0  0  # atno 17343 bound_to 10162
  156.6590  130.4507  149.5694 LP  0  0  0  0  0  0  0  0  0  0  0  0  # atno 17370 bound_to 10713
  156.2081  130.6662  151.1240 LP  0  0  0  0  0  0  0  0  0  0  0  0  # atno 17371 bound_to 10713
  140.5424  134.6107  157.5384 LP  0  0  0  0  0  0  0  0  0  0  0  0  # atno 17394 bound_to 11000
  139.9646  134.7394  156.0164 LP  0  0  0  0  0  0  0  0  0  0  0  0  # atno 17395 bound_to 11000

$$$$
