AV-unprocessed.smi:2525|AV-procd|sdf|9927|dock2
  -GOLD-   2272013563D 1   1.00000     0.00000
 Structure written by MMmdl.
 44 45  0  0  0  0  0  0  0  0  1 V2000
  153.4584  142.9780  163.0613 C   0  0  0  0  0  0  0  0  0  0  0  0
  152.4941  142.3468  162.0470 C   0  0  0  0  0  0  0  0  0  0  0  0
  152.9493  142.3953  160.5714 C   0  0  0  0  0  0  0  0  0  0  0  0
  154.2699  141.5715  160.4492 C   0  0  0  0  0  0  0  0  0  0  0  0
  154.1802  140.0834  160.8295 C   0  0  0  0  0  0  0  0  0  0  0  0
  151.8196  142.0522  159.5561 C   0  0  2  0  0  0  0  0  0  0  0  0
  151.8569  140.6971  159.0203 N   0  0  0  0  0  0  0  0  0  0  0  0
  151.3669  140.3394  157.8244 C   0  0  0  0  0  0  0  0  0  0  0  0
  150.9301  141.1428  157.0008 O   0  0  0  0  0  0  0  0  0  0  0  0
  151.3388  138.8408  157.5245 C   0  0  0  0  0  0  0  0  0  0  0  0
  151.8979  138.5706  156.2112 N   0  0  0  0  0  0  0  0  0  0  0  0
  151.2722  138.0348  155.1040 C   0  0  0  0  0  0  0  0  0  0  0  0
  152.2690  137.9777  154.1724 C   0  0  0  0  0  0  0  0  0  0  0  0
  153.4410  138.4730  154.7411 N   0  0  0  0  0  0  0  0  0  0  0  0
  153.2053  138.8278  155.9649 N   0  0  0  0  0  0  0  0  0  0  0  0
  152.4123  143.0932  158.6002 C   0  0  1  0  0  0  0  0  0  0  0  0
  151.5048  143.8231  157.6183 C   0  0  0  0  0  0  0  0  0  0  0  0
  152.9262  143.7896  159.8758 C   0  0  1  0  0  0  0  0  0  0  0  0
  151.9547  144.6549  160.4569 O   0  0  0  0  0  0  0  0  0  0  0  0
  151.8686  145.9134  159.8105 C   0  0  0  0  0  0  0  0  0  0  0  0
  152.9856  143.0508  164.0408 H   0  0  0  0  0  0  0  0  0  0  0  0
  153.7538  143.9840  162.7631 H   0  0  0  0  0  0  0  0  0  0  0  0
  154.3573  142.3765  163.1878 H   0  0  0  0  0  0  0  0  0  0  0  0
  152.2873  141.3190  162.3475 H   0  0  0  0  0  0  0  0  0  0  0  0
  151.5356  142.8565  162.1491 H   0  0  0  0  0  0  0  0  0  0  0  0
  154.6691  141.6442  159.4370 H   0  0  0  0  0  0  0  0  0  0  0  0
  155.0566  141.9900  161.0756 H   0  0  0  0  0  0  0  0  0  0  0  0
  155.0964  139.5644  160.5470 H   0  0  0  0  0  0  0  0  0  0  0  0
  153.3512  139.5724  160.3440 H   0  0  0  0  0  0  0  0  0  0  0  0
  154.0651  139.9557  161.9057 H   0  0  0  0  0  0  0  0  0  0  0  0
  150.8275  142.3507  159.9043 H   0  0  0  0  0  0  0  0  0  0  0  0
  152.2032  139.9715  159.6312 H   0  0  0  0  0  0  0  0  0  0  0  0
  151.9185  138.2966  158.2713 H   0  0  0  0  0  0  0  0  0  0  0  0
  150.3143  138.4685  157.5741 H   0  0  0  0  0  0  0  0  0  0  0  0
  150.2304  137.7510  155.0822 H   0  0  0  0  0  0  0  0  0  0  0  0
  152.2421  137.6232  153.1525 H   0  0  0  0  0  0  0  0  0  0  0  0
  153.2666  142.6685  158.0682 H   0  0  0  0  0  0  0  0  0  0  0  0
  150.6344  144.2502  158.1169 H   0  0  0  0  0  0  0  0  0  0  0  0
  151.1393  143.1463  156.8461 H   0  0  0  0  0  0  0  0  0  0  0  0
  152.0343  144.6351  157.1200 H   0  0  0  0  0  0  0  0  0  0  0  0
  153.9015  144.2634  159.7691 H   0  0  0  0  0  0  0  0  0  0  0  0
  151.0786  146.5066  160.2705 H   0  0  0  0  0  0  0  0  0  0  0  0
  151.6368  145.8070  158.7508 H   0  0  0  0  0  0  0  0  0  0  0  0
  152.8037  146.4663  159.9090 H   0  0  0  0  0  0  0  0  0  0  0  0
  1  2  1  0  0  0  0
  1 21  1  0  0  0  0
  1 22  1  0  0  0  0
  1 23  1  0  0  0  0
  2  3  1  0  0  0  0
  2 24  1  0  0  0  0
  2 25  1  0  0  0  0
  3 18  1  0  0  0  0
  3  4  1  0  0  0  0
  3  6  1  0  0  0  0
  4  5  1  0  0  0  0
  4 26  1  0  0  0  0
  4 27  1  0  0  0  0
  5 28  1  0  0  0  0
  5 29  1  0  0  0  0
  5 30  1  0  0  0  0
  6  7  1  0  0  0  0
  6 16  1  0  0  0  0
  6 31  1  0  0  0  0
  7  8  1  0  0  0  0
  7 32  1  0  0  0  0
  8  9  2  0  0  0  0
  8 10  1  0  0  0  0
 10 11  1  0  0  0  0
 10 33  1  0  0  0  0
 10 34  1  0  0  0  0
 11 15  1  0  0  0  0
 11 12  1  0  0  0  0
 12 13  2  0  0  0  0
 12 35  1  0  0  0  0
 13 14  1  0  0  0  0
 13 36  1  0  0  0  0
 14 15  2  0  0  0  0
 16 17  1  0  0  0  0
 16 18  1  0  0  0  0
 16 37  1  0  0  0  0
 17 38  1  0  0  0  0
 17 39  1  0  0  0  0
 17 40  1  0  0  0  0
 18 19  1  0  0  0  0
 18 41  1  0  0  0  0
 19 20  1  0  0  0  0
 20 42  1  0  0  0  0
 20 43  1  0  0  0  0
 20 44  1  0  0  0  0
M  END
> <s_m_source_file>
AV-unprocessed.smi

> <i_m_source_file_index>
2525

> <i_lp_mmshare_version>
43012

> <i_f3d_flags>
0

> <s_epik_input>
W0NIM11PW0NAQEhdMVtDQEhdKFtDSDNdKVtDQEBIXShDMShbQ0gyXVtDSDNdKVtDSDJdW0NIM10pW05IXUMoPU8pW0NIMl1uMltjSF1bY0hdbm4y

> <s_epik_cmdline>
J2VwaWtfcHl0aG9uJywgJy1waCcsICc3LjAnLCAnLXRuJywgJzgnLCAnLW1hJywgJzIwMCcsICctbWV0YWxfYmluZGluZycsICctaW1hZScsICc8aW5maWxlLm1hZT4nLCAnLW9tYWUnLCAnPG91dGZpbGUubWFlPic=

> <r_lp_tautomer_probability>
1

> <r_epik_Ionization_Penalty>
1.18045e-06

> <r_epik_Ionization_Penalty_Charging>
0

> <r_epik_Ionization_Penalty_Neutral>
1.18045e-06

> <r_epik_State_Penalty>
-0

> <r_epik_Charging_Adjusted_Penalty>
0

> <i_epik_Tot_Q>
0

> <i_epik_Tot_abs_Q>
0

> <r_epik_Metal_State_Penalty>
-0

> <b_epik_Metal_Only>
0

> <s_lp_Force_Field>
OPLS_2005

> <r_lp_Energy>
28.7766

> <b_lp_Chiralities_Consistent>
1

> <s_lp_Variant>
AV-unprocessed.smi:2525-2

> <Gold.Version>
5.8.1

> <Gold.Id.Protein>
6NUR|6NUR_protein|mol2

> <Gold.PLP.Fitness>
50.9032

> <Gold.PLP.PLP>
-45.3587

> <Gold.PLP.part.hbond>
-1.3210

> <Gold.PLP.part.metal>
0.0000

> <Gold.PLP.part.buried>
-6.5661

> <Gold.PLP.part.nonpolar>
-37.6624

> <Gold.PLP.part.repulsive>
0.3176

> <Gold.PLP.ligand.clash>
0.0000

> <Gold.PLP.ligand.torsion>
0.5788

> <Gold.PLP.Chemscore.Hbond>
1.0000

> <Gold.PLP.Chemscore.CHOScore>
0.9975

> <Gold.PLP.Chemscore.Metal>
0.0000

> <Gold.Chemscore.Hbonds>
donor molecule, donor type, donor heavy atom, donor atom, acceptor molecule, acceptor atom, score
      P1  H  7997  8009       L1    15  1.00
      L1  C    13    36       P1  7949  0.93

> <Gold.PLP.Chemscore.Internal.Correction>
0.7098

> <Gold.Rescore>
     Score         DG    S(hbond)    S(metal)    S(lipo)     H(rot)  DE(clash)    DE(int)     intcor
     14.97     -18.53       0.88        0.00     129.67       1.98       0.08       3.49       ----

> <Gold.Chemscore.Fitness>
14.9673

> <Gold.Chemscore.DG>
-18.5302

> <Gold.Chemscore.ZeroCoef>
-5.4800

> <Gold.Chemscore.Hbond>
0.8839

> <Gold.Chemscore.Metal>
0.0000

> <Gold.Chemscore.Lipo>
129.6668

> <Gold.Chemscore.Internal_Hbond>
0.0000

> <Gold.Chemscore.DEClash>
0.0772

> <Gold.Chemscore.DEInternal>
3.4856

> <Gold.Chemscore.Rot>
1.9817

> <Gold.Chemscore.Internal.Correction>
   9.000000E+99

> <Gold.Chemscore.Hbonds>
donor molecule, donor type, donor heavy atom, donor atom, acceptor molecule, acceptor atom, score
      P1  H  7997  8009       L1    15  0.44

> <Gold.Chemscore.Hbond.Weighted>
-2.9522

> <Gold.Chemscore.Metal.Weighted>
-0.0000

> <Gold.Chemscore.Lipo.Weighted>
-15.1710

> <Gold.Chemscore.Internal_Hbond.Weighted>
0.0000

> <Gold.Chemscore.DEClash.Weighted>
0.0772

> <Gold.Chemscore.DEInternal.Weighted>
3.4856

> <Gold.Chemscore.Rot.Weighted>
5.0731

> <Gold.Chemscore.Internal.Correction.Weighted>
   9.000000E+99

> <Gold.Protein.RotatedTorsions>
[ 6907 6896 6895 6894 ] final  122.07 input  -60.11 | X-H torsion
[ 7974 7965 7964 7962 ] final  -46.10 input  175.53 | X-H torsion
[ 8008 7997 7996 7995 ] final -157.65 input   59.86 | X-H torsion
[ 10167 10162 10161 10158 ] final  -70.27 input  -65.29 | X-H torsion
[ 10718 10713 10712 10709 ] final  -31.24 input   66.30 | X-H torsion
[ 10763 10752 10751 10750 ] final  -40.28 input  -60.55 | X-H torsion
[ 11005 11000 10999 10996 ] final -106.15 input  -57.11 | X-H torsion

> <Gold.Protein.ActiveResidues>
 VAL166  LYS551  ARG553  GLY616  TRP617  ASP618  TYR619  PRO620  LYS621  CYS622 
 ASP623  PHE694  ASN695  SER759  ASP760  ASP761  ALA762  ILE779  LEU786  VAL792 
 PHE793  MET794  SER795  GLU796  ALA797  LYS798  CYS799  TRP800  GLU811  SER814 

> <Gold.Protein.RotatedAtoms>
  152.4272  133.7215  159.6535 H   0  0  0  0  0  0  0  0  0  0  0  0  # atno 6907 bound_to 6896
  150.8149  133.8344  159.3171 H   0  0  0  0  0  0  0  0  0  0  0  0  # atno 6908 bound_to 6896
  151.6043  135.1047  160.0119 H   0  0  0  0  0  0  0  0  0  0  0  0  # atno 6909 bound_to 6896
  145.9753  140.7340  142.9390 H   0  0  0  0  0  0  0  0  0  0  0  0  # atno 7974 bound_to 7965
  155.7356  140.0807  157.2269 H   0  0  0  0  0  0  0  0  0  0  0  0  # atno 8008 bound_to 7997
  154.4028  140.1587  156.2613 H   0  0  0  0  0  0  0  0  0  0  0  0  # atno 8009 bound_to 7997
  155.9068  140.3406  155.6071 H   0  0  0  0  0  0  0  0  0  0  0  0  # atno 8010 bound_to 7997
  140.5365  143.2317  151.7167 H   0  0  0  0  0  0  0  0  0  0  0  0  # atno 10167 bound_to 10162
  156.3897  130.4371  149.7404 H   0  0  0  0  0  0  0  0  0  0  0  0  # atno 10718 bound_to 10713
  153.9433  135.6759  153.4744 H   0  0  0  0  0  0  0  0  0  0  0  0  # atno 10763 bound_to 10752
  153.0921  135.4869  154.8706 H   0  0  0  0  0  0  0  0  0  0  0  0  # atno 10764 bound_to 10752
  154.7365  135.3150  154.8760 H   0  0  0  0  0  0  0  0  0  0  0  0  # atno 10765 bound_to 10752
  141.1019  133.8869  157.1821 H   0  0  0  0  0  0  0  0  0  0  0  0  # atno 11005 bound_to 11000
  144.6847  140.2817  143.7291 LP  0  0  0  0  0  0  0  0  0  0  0  0  # atno 17320 bound_to 7965
  145.7847  139.1904  143.2137 LP  0  0  0  0  0  0  0  0  0  0  0  0  # atno 17321 bound_to 7965
  139.4973  144.4034  152.0157 LP  0  0  0  0  0  0  0  0  0  0  0  0  # atno 17342 bound_to 10162
  140.3140  144.3505  150.6026 LP  0  0  0  0  0  0  0  0  0  0  0  0  # atno 17343 bound_to 10162
  156.4462  130.7885  151.2906 LP  0  0  0  0  0  0  0  0  0  0  0  0  # atno 17370 bound_to 10713
  157.7498  131.0109  150.3326 LP  0  0  0  0  0  0  0  0  0  0  0  0  # atno 17371 bound_to 10713
  139.9873  135.0077  156.9893 LP  0  0  0  0  0  0  0  0  0  0  0  0  # atno 17394 bound_to 11000
  140.5001  134.1106  155.7249 LP  0  0  0  0  0  0  0  0  0  0  0  0  # atno 17395 bound_to 11000

$$$$
