#       Name:                AV-unprocessed.smi:1701
#       Creating user name   scv26
#       Creation time:       Fri Mar 27 08:00:20 2020


#       File generated by GOLD software.
#

@<TRIPOS>MOLECULE
AV-unprocessed.smi:1701
    57    59     1
SMALL
NO_CHARGES


@<TRIPOS>ATOM
      1 ****        -6.2903  -0.6653   3.0585 C.3            1 S1                 0.0000
      2 ****        -6.3050  -1.1052   1.5863 C.3            1 S1                 0.0000
      3 ****        -5.5193  -0.2331   0.7127 N.pl3          1 S1                 0.0000
      4 ****        -6.1871   0.8597   0.0011 C.3            1 S1                 0.0000
      5 ****        -6.2332   2.1669   0.8056 C.3            1 S1                 0.0000
      6 ****        -4.1053  -0.3210   0.7051 C.ar           1 S1                 0.0000
      7 ****        -3.3781  -1.3132   1.4101 C.ar           1 S1                 0.0000
      8 ****        -1.9693  -1.3353   1.3526 C.ar           1 S1                 0.0000
      9 ****        -1.2853  -0.3562   0.5922 C.ar           1 S1                 0.0000
     10 ****         0.1274  -0.2994   0.4507 N.am           1 S1                 0.0000
     11 ****         1.0740  -0.8189   1.2572 C.2            1 S1                 0.0000
     12 ****         0.8477  -1.4014   2.3150 O.2            1 S1                 0.0000
     13 ****         2.3335  -0.6233   0.8285 N.am           1 S1                 0.0000
     14 ****         3.5798  -1.0544   1.4622 C.3            1 S1                 0.0000
     15 ****         3.9333  -2.5337   1.2101 C.3            1 S1                 0.0000
     16 ****         5.4611  -2.5608   1.0025 C.3            1 S1                 0.0000
     17 ****         5.9129  -1.1789   1.2533 N.4            1 S1                 1.0000
     18 ****         7.1869  -0.7599   0.6289 C.3            1 S1                 0.0000
     19 ****         7.5203   0.6794   1.0716 C.3            1 S1                 0.0000
     20 ****         6.3512   1.6488   0.8004 C.3            1 S1                 0.0000
     21 ****         5.0342   1.1125   1.3944 C.3            1 S1                 0.0000
     22 ****         4.7838  -0.3145   0.8799 C.3            1 S1                 0.0000
     23 ****        -2.0518   0.5992  -0.1033 C.ar           1 S1                 0.0000
     24 ****        -3.3991   0.5828  -0.0188 N.pl3          1 S1                 1.0000
     25 ****        -6.8665  -1.3605   3.6692 H              1 S1                 0.0000
     26 ****        -6.7305   0.3222   3.1889 H              1 S1                 0.0000
     27 ****        -5.2784  -0.6353   3.4623 H              1 S1                 0.0000
     28 ****        -5.9635  -2.1357   1.4913 H              1 S1                 0.0000
     29 ****        -7.3371  -1.1152   1.2347 H              1 S1                 0.0000
     30 ****        -5.7084   1.0294  -0.9637 H              1 S1                 0.0000
     31 ****        -7.2066   0.5539  -0.2361 H              1 S1                 0.0000
     32 ****        -6.6957   2.9603   0.2183 H              1 S1                 0.0000
     33 ****        -5.2342   2.5032   1.0840 H              1 S1                 0.0000
     34 ****        -6.8181   2.0571   1.7177 H              1 S1                 0.0000
     35 ****        -3.8741  -2.0691   1.9992 H              1 S1                 0.0000
     36 ****        -1.4445  -2.1141   1.8841 H              1 S1                 0.0000
     37 ****         0.4626   0.2375  -0.3355 H              1 S1                 0.0000
     38 ****         2.4362  -0.0902  -0.0236 H              1 S1                 0.0000
     39 ****         3.5449  -0.8677   2.5376 H              1 S1                 0.0000
     40 ****         3.6278  -3.1584   2.0503 H              1 S1                 0.0000
     41 ****         3.4333  -2.9168   0.3191 H              1 S1                 0.0000
     42 ****         5.9614  -3.2595   1.6737 H              1 S1                 0.0000
     43 ****         5.6936  -2.8508  -0.0235 H              1 S1                 0.0000
     44 ****         7.9835  -1.4412   0.9292 H              1 S1                 0.0000
     45 ****         7.1054  -0.8166  -0.4578 H              1 S1                 0.0000
     46 ****         7.7493   0.6840   2.1381 H              1 S1                 0.0000
     47 ****         8.4199   1.0277   0.5635 H              1 S1                 0.0000
     48 ****         6.5757   2.6332   1.2123 H              1 S1                 0.0000
     49 ****         6.2354   1.7838  -0.2759 H              1 S1                 0.0000
     50 ****         5.0904   1.1166   2.4839 H              1 S1                 0.0000
     51 ****         4.2051   1.7655   1.1202 H              1 S1                 0.0000
     52 ****         4.7044  -0.2996  -0.2099 H              1 S1                 0.0000
     53 ****        -1.6316   1.3803  -0.7202 H              1 S1                 0.0000
     54 ****         6.0242  -1.0891   2.2532 H              1 S1                 0.0000
     55 ****        -3.9186   1.2952  -0.5316 H              1 S1                 0.0000
     56 ****        -0.0941  -1.5164   2.6309 LP             1 S1                 0.0000
     57 ****         1.6053  -1.7604   2.8601 LP             1 S1                 0.0000
@<TRIPOS>BOND
    1    1    2 1     
    2    1   25 1     
    3    1   26 1     
    4    1   27 1     
    5    2    3 1     
    6    2   28 1     
    7    2   29 1     
    8    3    4 1     
    9    3    6 1     
   10    4    5 1     
   11    4   30 1     
   12    4   31 1     
   13    5   32 1     
   14    5   33 1     
   15    5   34 1     
   16    6   24 ar    
   17    6    7 ar    
   18    7    8 ar    
   19    7   35 1     
   20    8    9 ar    
   21    8   36 1     
   22    9   10 1     
   23    9   23 ar    
   24   10   11 am    
   25   10   37 1     
   26   11   12 2     
   27   11   13 am    
   28   13   14 1     
   29   13   38 1     
   30   14   22 1     
   31   14   15 1     
   32   14   39 1     
   33   15   16 1     
   34   15   40 1     
   35   15   41 1     
   36   16   17 1     
   37   16   42 1     
   38   16   43 1     
   39   17   22 1     
   40   17   18 1     
   41   17   54 1     
   42   18   19 1     
   43   18   44 1     
   44   18   45 1     
   45   19   20 1     
   46   19   46 1     
   47   19   47 1     
   48   20   21 1     
   49   20   48 1     
   50   20   49 1     
   51   21   22 1     
   52   21   50 1     
   53   21   51 1     
   54   22   52 1     
   55   23   24 ar    
   56   23   53 1     
   57   24   55 1     
   58   12   56 1     
   59   12   57 1     
@<TRIPOS>SUBSTRUCTURE
      1 S1             1
@<TRIPOS>SET
LONE_PAIRS      STATIC     ATOMS    <user>   **** ""
2 56 57
DONOR_HYDROGENS      STATIC     ATOMS    <user>   **** ""
4 37 38 54 55
ATOM$BLUE        STATIC     ATOMS    COLORGROUP SYSTEM
2 56 57
ATOM$RED        STATIC     ATOMS    COLORGROUP SYSTEM
4 37 38 54 55
