AV-unprocessed.smi:1912|AV-procd|sdf|7748|dock10
  -GOLD-   22720 9483D 1   1.00000     0.00000
 Structure written by MMmdl.
 43 45  0  0  0  0  0  0  0  0  1 V2000
  153.9809  138.6817  154.3804 C   0  0  0  0  0  0  0  0  0  0  0  0
  152.8608  137.8309  154.1837 O   0  0  0  0  0  0  0  0  0  0  0  0
  151.6246  138.2768  154.6001 C   0  0  0  0  0  0  0  0  0  0  0  0
  150.5387  137.3972  154.4365 C   0  0  0  0  0  0  0  0  0  0  0  0
  149.2438  137.7650  154.8444 C   0  0  0  0  0  0  0  0  0  0  0  0
  149.0030  139.0349  155.4243 C   0  0  0  0  0  0  0  0  0  0  0  0
  147.7594  139.4465  155.8600 O   0  0  0  0  0  0  0  0  0  0  0  0
  146.6845  138.5203  155.8164 C   0  0  0  0  0  0  0  0  0  0  0  0
  150.0873  139.9334  155.5771 C   0  0  0  0  0  0  0  0  0  0  0  0
  149.8544  141.3061  156.2028 C   0  0  2  0  0  0  0  0  0  0  0  0
  148.9802  142.1215  155.4442 O   0  0  0  0  0  0  0  0  0  0  0  0
  151.1887  142.0425  156.4331 C   0  0  0  0  0  0  0  0  0  0  0  0
  151.5718  142.0856  157.8371 N   0  0  0  0  0  0  0  0  0  0  0  0
  151.9043  141.0442  158.6388 C   0  0  0  0  0  0  0  0  0  0  0  0
  151.9222  139.6348  158.1360 C   0  0  0  0  0  0  0  0  0  0  0  0
  152.2170  141.3553  159.8968 N   0  0  0  0  0  0  0  0  0  0  0  0
  152.0775  142.7300  159.9122 C   0  0  0  0  0  0  0  0  0  0  0  0
  152.2696  143.6606  160.9582 C   0  0  0  0  0  0  0  0  0  0  0  0
  152.0651  145.0383  160.7346 C   0  0  0  0  0  0  0  0  0  0  0  0
  151.6651  145.5038  159.4653 C   0  0  0  0  0  0  0  0  0  0  0  0
  151.4673  144.5934  158.4094 C   0  0  0  0  0  0  0  0  0  0  0  0
  151.6745  143.2196  158.6370 C   0  0  0  0  0  0  0  0  0  0  0  0
  151.3873  139.5480  155.1766 C   0  0  0  0  0  0  0  0  0  0  0  0
  154.8781  138.1872  154.0082 H   0  0  0  0  0  0  0  0  0  0  0  0
  154.1385  138.8957  155.4384 H   0  0  0  0  0  0  0  0  0  0  0  0
  153.8704  139.6193  153.8340 H   0  0  0  0  0  0  0  0  0  0  0  0
  150.7012  136.4235  153.9980 H   0  0  0  0  0  0  0  0  0  0  0  0
  148.4498  137.0481  154.7027 H   0  0  0  0  0  0  0  0  0  0  0  0
  145.7842  138.9982  156.2027 H   0  0  0  0  0  0  0  0  0  0  0  0
  146.8852  137.6460  156.4371 H   0  0  0  0  0  0  0  0  0  0  0  0
  146.4752  138.2002  154.7949 H   0  0  0  0  0  0  0  0  0  0  0  0
  149.3537  141.1649  157.1604 H   0  0  0  0  0  0  0  0  0  0  0  0
  148.9669  142.9843  155.8293 H   0  0  0  0  0  0  0  0  0  0  0  0
  151.9886  141.5581  155.8726 H   0  0  0  0  0  0  0  0  0  0  0  0
  151.1308  143.0627  156.0511 H   0  0  0  0  0  0  0  0  0  0  0  0
  152.1921  138.9461  158.9375 H   0  0  0  0  0  0  0  0  0  0  0  0
  152.6527  139.5287  157.3340 H   0  0  0  0  0  0  0  0  0  0  0  0
  150.9399  139.3515  157.7589 H   0  0  0  0  0  0  0  0  0  0  0  0
  152.5752  143.3139  161.9343 H   0  0  0  0  0  0  0  0  0  0  0  0
  152.2155  145.7410  161.5410 H   0  0  0  0  0  0  0  0  0  0  0  0
  151.5099  146.5603  159.3024 H   0  0  0  0  0  0  0  0  0  0  0  0
  151.1576  144.9464  157.4370 H   0  0  0  0  0  0  0  0  0  0  0  0
  152.1996  140.2430  155.3234 H   0  0  0  0  0  0  0  0  0  0  0  0
  1  2  1  0  0  0  0
  1 24  1  0  0  0  0
  1 25  1  0  0  0  0
  1 26  1  0  0  0  0
  2  3  1  0  0  0  0
  3 23  1  0  0  0  0
  3  4  2  0  0  0  0
  4  5  1  0  0  0  0
  4 27  1  0  0  0  0
  5  6  2  0  0  0  0
  5 28  1  0  0  0  0
  6  7  1  0  0  0  0
  6  9  1  0  0  0  0
  7  8  1  0  0  0  0
  8 29  1  0  0  0  0
  8 30  1  0  0  0  0
  8 31  1  0  0  0  0
  9 10  1  0  0  0  0
  9 23  2  0  0  0  0
 10 11  1  0  0  0  0
 10 12  1  0  0  0  0
 10 32  1  0  0  0  0
 11 33  1  0  0  0  0
 12 13  1  0  0  0  0
 12 34  1  0  0  0  0
 12 35  1  0  0  0  0
 13 22  1  0  0  0  0
 13 14  1  0  0  0  0
 14 15  1  0  0  0  0
 14 16  2  0  0  0  0
 15 36  1  0  0  0  0
 15 37  1  0  0  0  0
 15 38  1  0  0  0  0
 16 17  1  0  0  0  0
 17 22  2  0  0  0  0
 17 18  1  0  0  0  0
 18 19  2  0  0  0  0
 18 39  1  0  0  0  0
 19 20  1  0  0  0  0
 19 40  1  0  0  0  0
 20 21  2  0  0  0  0
 20 41  1  0  0  0  0
 21 22  1  0  0  0  0
 21 42  1  0  0  0  0
 23 43  1  0  0  0  0
M  END
> <s_m_source_file>
AV-unprocessed.smi

> <i_m_source_file_index>
1912

> <i_lp_mmshare_version>
43012

> <i_f3d_flags>
0

> <s_epik_input>
W0NIM11PYzFbY0hdW2NIXWMoT1tDSDNdKWMoW2NIXTEpW0NASF0oW09IXSlbQ0gyXW4oYyhuMilbQ0gzXSljKGMyMylbY0hdW2NIXVtjSF1bY0hdMw==

> <s_epik_cmdline>
J2VwaWtfcHl0aG9uJywgJy1waCcsICc3LjAnLCAnLXRuJywgJzgnLCAnLW1hJywgJzIwMCcsICctbWV0YWxfYmluZGluZycsICctaW1hZScsICc8aW5maWxlLm1hZT4nLCAnLW9tYWUnLCAnPG91dGZpbGUubWFlPic=

> <r_lp_tautomer_probability>
1

> <r_epik_Ionization_Penalty>
0.129663

> <r_epik_Ionization_Penalty_Charging>
0

> <r_epik_Ionization_Penalty_Neutral>
0.129663

> <r_epik_State_Penalty>
0.119073

> <r_epik_Charging_Adjusted_Penalty>
0.119073

> <i_epik_Tot_Q>
0

> <i_epik_Tot_abs_Q>
0

> <r_epik_Metal_State_Penalty>
0.000131867

> <b_epik_Metal_Only>
0

> <s_lp_Force_Field>
OPLS_2005

> <r_lp_Energy>
18.8247

> <b_lp_Chiralities_Consistent>
1

> <s_lp_Variant>
AV-unprocessed.smi:1912-1

> <Gold.Version>
5.8.1

> <Gold.Id.Protein>
6NUR|6NUR_protein|mol2

> <Gold.PLP.Fitness>
47.7530

> <Gold.PLP.PLP>
-44.9012

> <Gold.PLP.part.hbond>
-2.0000

> <Gold.PLP.part.metal>
0.0000

> <Gold.PLP.part.buried>
-4.9099

> <Gold.PLP.part.nonpolar>
-38.5017

> <Gold.PLP.part.repulsive>
0.0893

> <Gold.PLP.ligand.clash>
0.0000

> <Gold.PLP.ligand.torsion>
0.7940

> <Gold.PLP.Chemscore.Hbond>
1.4602

> <Gold.PLP.Chemscore.CHOScore>
0.0000

> <Gold.PLP.Chemscore.Metal>
0.0000

> <Gold.Chemscore.Hbonds>
donor molecule, donor type, donor heavy atom, donor atom, acceptor molecule, acceptor atom, score
      L1  H    11    33       P1  8028  0.99
      P1  H 10752 10765       L1     2  0.34

> <Gold.PLP.Chemscore.Internal.Correction>
0.0592

> <Gold.Rescore>
     Score         DG    S(hbond)    S(metal)    S(lipo)     H(rot)  DE(clash)    DE(int)     intcor
     17.94     -19.70       1.28        0.00     132.30       2.17       0.88       0.88       ----

> <Gold.Chemscore.Fitness>
17.9362

> <Gold.Chemscore.DG>
-19.6965

> <Gold.Chemscore.ZeroCoef>
-5.4800

> <Gold.Chemscore.Hbond>
1.2845

> <Gold.Chemscore.Metal>
0.0000

> <Gold.Chemscore.Lipo>
132.2980

> <Gold.Chemscore.Internal_Hbond>
0.0000

> <Gold.Chemscore.DEClash>
0.8774

> <Gold.Chemscore.DEInternal>
0.8830

> <Gold.Chemscore.Rot>
2.1690

> <Gold.Chemscore.Internal.Correction>
   9.000000E+99

> <Gold.Chemscore.Hbonds>
donor molecule, donor type, donor heavy atom, donor atom, acceptor molecule, acceptor atom, score
      L1  H    11    33       P1  8028  0.94
      P1  H 10752 10765       L1     2  0.33

> <Gold.Chemscore.Hbond.Weighted>
-4.2902

> <Gold.Chemscore.Metal.Weighted>
-0.0000

> <Gold.Chemscore.Lipo.Weighted>
-15.4789

> <Gold.Chemscore.Internal_Hbond.Weighted>
0.0000

> <Gold.Chemscore.DEClash.Weighted>
0.8774

> <Gold.Chemscore.DEInternal.Weighted>
0.8830

> <Gold.Chemscore.Rot.Weighted>
5.5526

> <Gold.Chemscore.Internal.Correction.Weighted>
   9.000000E+99

> <Gold.Protein.RotatedTorsions>
[ 6907 6896 6895 6894 ] final  178.73 input  -60.11 | X-H torsion
[ 7974 7965 7964 7962 ] final  149.28 input  175.53 | X-H torsion
[ 8008 7997 7996 7995 ] final   70.00 input   59.86 | X-H torsion
[ 10167 10162 10161 10158 ] final   73.51 input  -65.29 | X-H torsion
[ 10718 10713 10712 10709 ] final  139.08 input   66.30 | X-H torsion
[ 10763 10752 10751 10750 ] final  132.18 input  -60.55 | X-H torsion
[ 11005 11000 10999 10996 ] final  136.34 input  -57.11 | X-H torsion

> <Gold.Protein.ActiveResidues>
 VAL166  LYS551  ARG553  GLY616  TRP617  ASP618  TYR619  PRO620  LYS621  CYS622 
 ASP623  PHE694  ASN695  SER759  ASP760  ASP761  ALA762  ILE779  LEU786  VAL792 
 PHE793  MET794  SER795  GLU796  ALA797  LYS798  CYS799  TRP800  GLU811  SER814 

> <Gold.Protein.RotatedAtoms>
  151.6831  133.3312  159.3223 H   0  0  0  0  0  0  0  0  0  0  0  0  # atno 6907 bound_to 6896
  150.7814  134.6764  159.6429 H   0  0  0  0  0  0  0  0  0  0  0  0  # atno 6908 bound_to 6896
  152.3872  134.6502  160.0173 H   0  0  0  0  0  0  0  0  0  0  0  0  # atno 6909 bound_to 6896
  144.8450  139.6260  143.5999 H   0  0  0  0  0  0  0  0  0  0  0  0  # atno 7974 bound_to 7965
  155.7322  140.3491  155.5064 H   0  0  0  0  0  0  0  0  0  0  0  0  # atno 8008 bound_to 7997
  155.9172  140.1061  157.1256 H   0  0  0  0  0  0  0  0  0  0  0  0  # atno 8009 bound_to 7997
  154.4064  140.1256  156.4620 H   0  0  0  0  0  0  0  0  0  0  0  0  # atno 8010 bound_to 7997
  140.0237  144.5521  150.7562 H   0  0  0  0  0  0  0  0  0  0  0  0  # atno 10167 bound_to 10162
  157.4183  131.1036  151.0381 H   0  0  0  0  0  0  0  0  0  0  0  0  # atno 10718 bound_to 10713
  153.7865  135.3161  155.3373 H   0  0  0  0  0  0  0  0  0  0  0  0  # atno 10763 bound_to 10752
  154.8142  135.4647  154.0600 H   0  0  0  0  0  0  0  0  0  0  0  0  # atno 10764 bound_to 10752
  153.1905  135.6907  153.8445 H   0  0  0  0  0  0  0  0  0  0  0  0  # atno 10765 bound_to 10752
  140.0040  134.9467  157.0134 H   0  0  0  0  0  0  0  0  0  0  0  0  # atno 11005 bound_to 11000
  146.2736  139.6696  142.9279 LP  0  0  0  0  0  0  0  0  0  0  0  0  # atno 17320 bound_to 7965
  145.4616  141.0433  143.2748 LP  0  0  0  0  0  0  0  0  0  0  0  0  # atno 17321 bound_to 7965
  140.7332  143.2714  151.3877 LP  0  0  0  0  0  0  0  0  0  0  0  0  # atno 17342 bound_to 10162
  139.6123  144.1074  152.2311 LP  0  0  0  0  0  0  0  0  0  0  0  0  # atno 17343 bound_to 10162
  157.1320  130.6106  149.5532 LP  0  0  0  0  0  0  0  0  0  0  0  0  # atno 17370 bound_to 10713
  155.9872  130.4910  150.7115 LP  0  0  0  0  0  0  0  0  0  0  0  0  # atno 17371 bound_to 10713
  140.4676  134.1420  155.7199 LP  0  0  0  0  0  0  0  0  0  0  0  0  # atno 17394 bound_to 11000
  141.1663  133.8697  157.1705 LP  0  0  0  0  0  0  0  0  0  0  0  0  # atno 17395 bound_to 11000

$$$$
