#       Name:                AV-unprocessed.smi:2097
#       Creating user name   scv26
#       Creation time:       Fri Mar 27 11:29:14 2020


#       File generated by GOLD software.
#

@<TRIPOS>MOLECULE
AV-unprocessed.smi:2097
    49    50     1
SMALL
NO_CHARGES


@<TRIPOS>ATOM
      1 ****         1.1739  -4.4064  -2.9024 C.3            1 S1                 0.0000
      2 ****         1.6200  -3.6301  -1.6548 C.3            1 S1                 0.0000
      3 ****         3.0455  -3.6144  -1.6485 O.3            1 S1                 0.0000
      4 ****         3.6484  -3.1931  -0.4289 C.3            1 S1                 0.0000
      5 ****         5.1733  -3.2887  -0.5565 C.3            1 S1                 0.0000
      6 ****         5.7341  -2.9073   0.5906 F              1 S1                 0.0000
      7 ****         5.5373  -4.5446  -0.8138 F              1 S1                 0.0000
      8 ****         5.6051  -2.4883  -1.5306 F              1 S1                 0.0000
      9 ****         1.0697  -2.1946  -1.6669 C.2            1 S1                 0.0000
     10 ****         1.3311  -1.4531  -2.6133 O.2            1 S1                 0.0000
     11 ****         0.3498  -1.8366  -0.5871 N.am           1 S1                 0.0000
     12 ****        -0.2712  -0.5908  -0.2973 C.ar           1 S1                 0.0000
     13 ****        -0.5613   0.4064  -1.2594 C.ar           1 S1                 0.0000
     14 ****        -1.1878   1.5957  -0.8396 C.ar           1 S1                 0.0000
     15 ****        -1.5123   1.7506   0.5234 C.ar           1 S1                 0.0000
     16 ****        -2.1238   2.9394   0.9458 N.3            1 S1                 0.0000
     17 ****        -1.2940   3.7272   1.8489 C.3            1 S1                 0.0000
     18 ****        -1.9807   5.0681   2.1601 C.3            1 S1                 0.0000
     19 ****        -3.2811   4.8269   2.6904 O.3            1 S1                 0.0000
     20 ****        -4.1106   4.1195   1.7728 C.3            1 S1                 0.0000
     21 ****        -3.4782   2.7539   1.4520 C.3            1 S1                 0.0000
     22 ****        -1.2524   0.7950   1.4467 N.ar           1 S1                 0.0000
     23 ****        -0.6520  -0.3424   1.0378 C.ar           1 S1                 0.0000
     24 ****         0.0865  -4.4505  -2.9741 H              1 S1                 0.0000
     25 ****         1.5429  -5.4317  -2.8702 H              1 S1                 0.0000
     26 ****         1.5529  -3.9495  -3.8175 H              1 S1                 0.0000
     27 ****         1.2595  -4.1624  -0.7723 H              1 S1                 0.0000
     28 ****         3.3703  -2.1667  -0.1872 H              1 S1                 0.0000
     29 ****         3.3055  -3.8256   0.3912 H              1 S1                 0.0000
     30 ****         0.2812  -2.5309   0.1429 H              1 S1                 0.0000
     31 ****        -0.3292   0.2852  -2.3057 H              1 S1                 0.0000
     32 ****        -1.4150   2.3740  -1.5535 H              1 S1                 0.0000
     33 ****        -1.1275   3.1742   2.7744 H              1 S1                 0.0000
     34 ****        -0.3173   3.9019   1.3957 H              1 S1                 0.0000
     35 ****        -1.3969   5.6287   2.8903 H              1 S1                 0.0000
     36 ****        -2.0508   5.6866   1.2638 H              1 S1                 0.0000
     37 ****        -5.0964   3.9829   2.2173 H              1 S1                 0.0000
     38 ****        -4.2484   4.7077   0.8641 H              1 S1                 0.0000
     39 ****        -4.0809   2.2261   0.7119 H              1 S1                 0.0000
     40 ****        -3.4556   2.1369   2.3514 H              1 S1                 0.0000
     41 ****        -0.4636  -1.0773   1.8070 H              1 S1                 0.0000
     42 ****         3.3500  -2.9957  -2.3726 LP             1 S1                 0.0000
     43 ****         3.3647  -4.5413  -1.8459 LP             1 S1                 0.0000
     44 ****         1.8977  -1.7855  -3.3672 LP             1 S1                 0.0000
     45 ****         0.9769  -0.5181  -2.6285 LP             1 S1                 0.0000
     46 ****        -2.2194   3.4837   0.1125 LP             1 S1                 0.0000
     47 ****        -3.7106   5.7045   2.9031 LP             1 S1                 0.0000
     48 ****        -3.1930   4.2873   3.5277 LP             1 S1                 0.0000
     49 ****        -1.4989   0.9285   2.4066 LP             1 S1                 0.0000
@<TRIPOS>BOND
    1    1    2 1     
    2    1   24 1     
    3    1   25 1     
    4    1   26 1     
    5    2    3 1     
    6    2    9 1     
    7    2   27 1     
    8    3    4 1     
    9    4    5 1     
   10    4   28 1     
   11    4   29 1     
   12    5    6 1     
   13    5    7 1     
   14    5    8 1     
   15    9   10 2     
   16    9   11 am    
   17   11   12 1     
   18   11   30 1     
   19   12   23 ar    
   20   12   13 ar    
   21   13   14 ar    
   22   13   31 1     
   23   14   15 ar    
   24   14   32 1     
   25   15   16 1     
   26   15   22 ar    
   27   16   21 1     
   28   16   17 1     
   29   17   18 1     
   30   17   33 1     
   31   17   34 1     
   32   18   19 1     
   33   18   35 1     
   34   18   36 1     
   35   19   20 1     
   36   20   21 1     
   37   20   37 1     
   38   20   38 1     
   39   21   39 1     
   40   21   40 1     
   41   22   23 ar    
   42   23   41 1     
   43    3   42 1     
   44    3   43 1     
   45   10   44 1     
   46   10   45 1     
   47   16   46 1     
   48   19   47 1     
   49   19   48 1     
   50   22   49 1     
@<TRIPOS>SUBSTRUCTURE
      1 S1             1
@<TRIPOS>SET
LONE_PAIRS      STATIC     ATOMS    <user>   **** ""
8 42 43 44 45 46 47 48 49
DONOR_HYDROGENS      STATIC     ATOMS    <user>   **** ""
1 30
ATOM$BLUE        STATIC     ATOMS    COLORGROUP SYSTEM
8 42 43 44 45 46 47 48 49
ATOM$RED        STATIC     ATOMS    COLORGROUP SYSTEM
1 30
