AV-unprocessed.smi:51|AV-procd|sdf|502|dock5
  -GOLD-   2262016373D 1   1.00000     0.00000
 Structure written by MMmdl.
 25 26  0  0  0  0  0  0  0  0  2 V2000
  152.8148  139.2715  155.6592 O   0  0  0  0  0  0  0  0  0  0  0  0
  151.7107  139.8221  155.8604 C   0  0  0  0  0  0  0  0  0  0  0  0
  151.0062  140.3747  154.9858 O   0  5  0  0  0  0  0  0  0  0  0  0
  151.1802  139.8022  157.2997 C   0  0  1  0  0  0  0  0  0  0  0  0
  150.9463  138.3764  157.8367 C   0  0  0  0  0  0  0  0  0  0  0  0
  152.1509  138.1241  158.7414 C   0  0  2  0  0  0  0  0  0  0  0  0
  151.8773  137.1821  159.7573 O   0  0  0  0  0  0  0  0  0  0  0  0
  152.4399  139.5161  159.2985 C   0  0  0  0  0  0  0  0  0  0  0  0
  152.1619  140.4204  158.1926 N   0  0  0  0  0  0  0  0  0  0  0  0
  151.9311  141.7557  158.5525 C   0  0  0  0  0  0  0  0  0  0  0  0
  152.8011  142.3935  159.4612 C   0  0  0  0  0  0  0  0  0  0  0  0
  152.5037  143.7329  159.7820 C   0  0  0  0  0  0  0  0  0  0  0  0
  151.4373  144.3715  159.2538 N   0  0  0  0  0  0  0  0  0  0  0  0
  150.6784  143.6713  158.4072 C   0  0  0  0  0  0  0  0  0  0  0  0
  150.8615  142.4035  158.0310 N   0  0  0  0  0  0  0  0  0  0  0  0
  150.2341  140.3452  157.3145 H   0  0  0  0  0  0  0  0  0  0  0  0
  150.0265  138.3663  158.4234 H   0  0  0  0  0  0  0  0  0  0  0  0
  150.8426  137.6192  157.0578 H   0  0  0  0  0  0  0  0  0  0  0  0
  152.9964  137.7808  158.1431 H   0  0  0  0  0  0  0  0  0  0  0  0
  152.2870  137.4778  160.5555 H   0  0  0  0  0  0  0  0  0  0  0  0
  151.7879  139.7378  160.1458 H   0  0  0  0  0  0  0  0  0  0  0  0
  153.4735  139.6093  159.6334 H   0  0  0  0  0  0  0  0  0  0  0  0
  153.6555  141.8849  159.8834 H   0  0  0  0  0  0  0  0  0  0  0  0
  153.1234  144.2934  160.4659 H   0  0  0  0  0  0  0  0  0  0  0  0
  149.8252  144.1820  157.9858 H   0  0  0  0  0  0  0  0  0  0  0  0
  1  2  2  0  0  0  0
  2  3  1  0  0  0  0
  2  4  1  0  0  0  0
  4  9  1  0  0  0  0
  4  5  1  0  0  0  0
  4 16  1  0  0  0  0
  5  6  1  0  0  0  0
  5 17  1  0  0  0  0
  5 18  1  0  0  0  0
  6  7  1  0  0  0  0
  6  8  1  0  0  0  0
  6 19  1  0  0  0  0
  7 20  1  0  0  0  0
  8  9  1  0  0  0  0
  8 21  1  0  0  0  0
  8 22  1  0  0  0  0
  9 10  1  0  0  0  0
 10 15  1  0  0  0  0
 10 11  2  0  0  0  0
 11 12  1  0  0  0  0
 11 23  1  0  0  0  0
 12 13  2  0  0  0  0
 12 24  1  0  0  0  0
 13 14  1  0  0  0  0
 14 15  2  0  0  0  0
 14 25  1  0  0  0  0
M  CHG  1   3  -1
M  END
> <s_m_source_file>
AV-unprocessed.smi

> <i_m_source_file_index>
51

> <i_lp_mmshare_version>
43012

> <i_f3d_flags>
0

> <s_epik_input>
Tz1DKFtPSF0pW0NAQEhdMVtDSDJdW0NAQEhdKFtPSF0pW0NIMl1OMWMyW2NIXVtjSF1uW2NIXW4y

> <s_epik_cmdline>
J2VwaWtfcHl0aG9uJywgJy1waCcsICc3LjAnLCAnLXRuJywgJzgnLCAnLW1hJywgJzIwMCcsICctbWV0YWxfYmluZGluZycsICctaW1hZScsICc8aW5maWxlLm1hZT4nLCAnLW9tYWUnLCAnPG91dGZpbGUubWFlPic=

> <r_lp_tautomer_probability>
1

> <r_epik_Ionization_Penalty>
0.225251

> <r_epik_Ionization_Penalty_Charging>
0.000248217

> <r_epik_Ionization_Penalty_Neutral>
0.225002

> <r_epik_State_Penalty>
0.21284

> <r_epik_Charging_Adjusted_Penalty>
0.213088

> <i_epik_Tot_Q>
-1

> <i_epik_Tot_abs_Q>
1

> <r_epik_Metal_State_Penalty>
0.154111

> <b_epik_Metal_Only>
0

> <s_lp_Force_Field>
OPLS_2005

> <r_lp_Energy>
17.6831

> <b_lp_Chiralities_Consistent>
1

> <s_lp_Variant>
AV-unprocessed.smi:51-4

> <Gold.Version>
5.8.1

> <Gold.Id.Protein>
6NUR|6NUR_protein|mol2

> <Gold.PLP.Fitness>
40.7252

> <Gold.PLP.PLP>
-25.6172

> <Gold.PLP.part.hbond>
-3.0000

> <Gold.PLP.part.metal>
0.0000

> <Gold.PLP.part.buried>
-5.4016

> <Gold.PLP.part.nonpolar>
-17.6591

> <Gold.PLP.part.repulsive>
0.2128

> <Gold.PLP.ligand.clash>
0.0000

> <Gold.PLP.ligand.torsion>
0.1660

> <Gold.PLP.Chemscore.Hbond>
3.9913

> <Gold.PLP.Chemscore.CHOScore>
1.1193

> <Gold.PLP.Chemscore.Metal>
0.0000

> <Gold.Chemscore.Hbonds>
donor molecule, donor type, donor heavy atom, donor atom, acceptor molecule, acceptor atom, score
      P1  H  6896  6909       L1     7  0.94
      P1  H  7989  7998       L1     3  1.00
      P1  H  7997  8008       L1     1  2.00
      L1  C    14    25       P1  8028  0.84
      L1  C    14    25       P1  8029  0.27

> <Gold.PLP.Chemscore.Internal.Correction>
0.1082

> <Gold.Rescore>
     Score         DG    S(hbond)    S(metal)    S(lipo)     H(rot)  DE(clash)    DE(int)     intcor
     14.28     -14.36       2.94        0.00      40.82       2.23       0.00       0.08       ----

> <Gold.Chemscore.Fitness>
14.2807

> <Gold.Chemscore.DG>
-14.3642

> <Gold.Chemscore.ZeroCoef>
-5.4800

> <Gold.Chemscore.Hbond>
2.9379

> <Gold.Chemscore.Metal>
0.0000

> <Gold.Chemscore.Lipo>
40.8242

> <Gold.Chemscore.Internal_Hbond>
0.0000

> <Gold.Chemscore.DEClash>
0.0000

> <Gold.Chemscore.DEInternal>
0.0836

> <Gold.Chemscore.Rot>
2.2285

> <Gold.Chemscore.Internal.Correction>
   9.000000E+99

> <Gold.Chemscore.Hbonds>
donor molecule, donor type, donor heavy atom, donor atom, acceptor molecule, acceptor atom, score
      P1  H  6896  6909       L1     7  0.54
      P1  H  7989  7998       L1     3  0.97
      P1  H  7997  8008       L1     1  0.97

> <Gold.Chemscore.Hbond.Weighted>
-9.8127

> <Gold.Chemscore.Metal.Weighted>
-0.0000

> <Gold.Chemscore.Lipo.Weighted>
-4.7764

> <Gold.Chemscore.Internal_Hbond.Weighted>
0.0000

> <Gold.Chemscore.DEClash.Weighted>
0.0000

> <Gold.Chemscore.DEInternal.Weighted>
0.0836

> <Gold.Chemscore.Rot.Weighted>
5.7050

> <Gold.Chemscore.Internal.Correction.Weighted>
   9.000000E+99

> <Gold.Protein.RotatedTorsions>
[ 6907 6896 6895 6894 ] final  116.22 input  -60.11 | X-H torsion
[ 7974 7965 7964 7962 ] final -170.90 input  175.53 | X-H torsion
[ 8008 7997 7996 7995 ] final  -31.96 input   59.86 | X-H torsion
[ 10167 10162 10161 10158 ] final  164.93 input  -65.29 | X-H torsion
[ 10718 10713 10712 10709 ] final  151.19 input   66.30 | X-H torsion
[ 10763 10752 10751 10750 ] final -104.01 input  -60.55 | X-H torsion
[ 11005 11000 10999 10996 ] final  101.73 input  -57.11 | X-H torsion

> <Gold.Protein.ActiveResidues>
 VAL166  LYS551  ARG553  GLY616  TRP617  ASP618  TYR619  PRO620  LYS621  CYS622 
 ASP623  PHE694  ASN695  SER759  ASP760  ASP761  ALA762  ILE779  LEU786  VAL792 
 PHE793  MET794  SER795  GLU796  ALA797  LYS798  CYS799  TRP800  GLU811  SER814 

> <Gold.Protein.RotatedAtoms>
  152.4692  133.7991  159.6942 H   0  0  0  0  0  0  0  0  0  0  0  0  # atno 6907 bound_to 6896
  150.8672  133.7548  159.2979 H   0  0  0  0  0  0  0  0  0  0  0  0  # atno 6908 bound_to 6896
  151.5094  135.1068  159.9902 H   0  0  0  0  0  0  0  0  0  0  0  0  # atno 6909 bound_to 6896
  144.7164  140.2002  143.6339 H   0  0  0  0  0  0  0  0  0  0  0  0  # atno 7974 bound_to 7965
  154.4196  140.1750  156.1650 H   0  0  0  0  0  0  0  0  0  0  0  0  # atno 8008 bound_to 7997
  155.9807  140.3378  155.6636 H   0  0  0  0  0  0  0  0  0  0  0  0  # atno 8009 bound_to 7997
  155.6503  140.0689  157.2579 H   0  0  0  0  0  0  0  0  0  0  0  0  # atno 8010 bound_to 7997
  139.4897  144.4185  151.9215 H   0  0  0  0  0  0  0  0  0  0  0  0  # atno 10167 bound_to 10162
  157.2739  131.0822  151.1580 H   0  0  0  0  0  0  0  0  0  0  0  0  # atno 10718 bound_to 10713
  154.7848  135.4802  153.9922 H   0  0  0  0  0  0  0  0  0  0  0  0  # atno 10763 bound_to 10752
  153.1544  135.6797  153.8841 H   0  0  0  0  0  0  0  0  0  0  0  0  # atno 10764 bound_to 10752
  153.8475  135.3171  155.3408 H   0  0  0  0  0  0  0  0  0  0  0  0  # atno 10765 bound_to 10752
  139.8774  134.9195  156.4950 H   0  0  0  0  0  0  0  0  0  0  0  0  # atno 11005 bound_to 11000
  145.8687  139.2260  143.1674 LP  0  0  0  0  0  0  0  0  0  0  0  0  # atno 17320 bound_to 7965
  146.0105  140.8439  142.9973 LP  0  0  0  0  0  0  0  0  0  0  0  0  # atno 17321 bound_to 7965
  140.3628  144.2951  150.5931 LP  0  0  0  0  0  0  0  0  0  0  0  0  # atno 17342 bound_to 10162
  140.5387  143.2228  151.8120 LP  0  0  0  0  0  0  0  0  0  0  0  0  # atno 17343 bound_to 10162
  157.3041  130.6857  149.6180 LP  0  0  0  0  0  0  0  0  0  0  0  0  # atno 17370 bound_to 10713
  155.9663  130.4383  150.5212 LP  0  0  0  0  0  0  0  0  0  0  0  0  # atno 17371 bound_to 10713
  140.8630  133.8045  155.9285 LP  0  0  0  0  0  0  0  0  0  0  0  0  # atno 17394 bound_to 11000
  140.9030  134.2355  157.5031 LP  0  0  0  0  0  0  0  0  0  0  0  0  # atno 17395 bound_to 11000

$$$$
