AV-unprocessed.smi:2928|AV-procd|sdf|11236|dock9
  -GOLD-   2272016133D 1   1.00000     0.00000
 Structure written by MMmdl.
 56 59  0  0  0  0  0  0  0  0  3 V2000
  147.7662  141.9988  154.1662 C   0  0  0  0  0  0  0  0  0  0  0  0
  148.5515  141.9512  155.4226 N   0  3  2  0  0  0  0  0  0  0  0  0
  149.9737  141.5658  155.2548 C   0  0  1  0  0  0  0  0  0  0  0  0
  150.7565  141.9773  156.5237 C   0  0  0  0  0  0  0  0  0  0  0  0
  150.1457  141.4401  157.8340 C   0  0  0  0  0  0  0  0  0  0  0  0
  148.6068  141.5469  157.8539 C   0  0  0  0  0  0  0  0  0  0  0  0
  147.9344  141.1607  156.5153 C   0  0  2  0  0  0  0  0  0  0  0  0
  147.9520  139.6451  156.1926 C   0  0  0  0  0  0  0  0  0  0  0  0
  149.3340  139.0914  155.7765 C   0  0  1  0  0  0  0  0  0  0  0  0
  149.1519  137.8089  155.0993 N   0  0  0  0  0  0  0  0  0  0  0  0
  149.6306  136.6325  155.5302 C   0  0  0  0  0  0  0  0  0  0  0  0
  150.3019  136.5034  156.5538 O   0  0  0  0  0  0  0  0  0  0  0  0
  149.3019  135.6336  154.6943 N   0  0  0  0  0  0  0  0  0  0  0  0
  149.6482  134.2575  154.8071 C   0  0  0  0  0  0  0  0  0  0  0  0
  150.6071  133.8216  155.7574 C   0  0  0  0  0  0  0  0  0  0  0  0
  150.8789  132.4482  155.9024 C   0  0  0  0  0  0  0  0  0  0  0  0
  150.1754  131.5280  155.1068 C   0  0  0  0  0  0  0  0  0  0  0  0
  149.2608  131.9728  154.2206 N   0  3  0  0  0  0  0  0  0  0  0  0
  148.9657  133.2822  154.0233 C   0  0  0  0  0  0  0  0  0  0  0  0
  147.9946  133.6012  153.0470 N   0  0  0  0  0  0  0  0  0  0  0  0
  146.8361  134.4153  153.3964 C   0  0  0  0  0  0  0  0  0  0  0  0
  145.8638  134.2388  152.2333 C   0  0  0  0  0  0  0  0  0  0  0  0
  146.1008  132.7883  151.8240 C   0  0  0  0  0  0  0  0  0  0  0  0
  147.5947  132.5743  152.0896 C   0  0  0  0  0  0  0  0  0  0  0  0
  150.1104  140.0728  154.8635 C   0  0  0  0  0  0  0  0  0  0  0  0
  147.6719  141.0190  153.6989 H   0  0  0  0  0  0  0  0  0  0  0  0
  148.2386  142.6702  153.4487 H   0  0  0  0  0  0  0  0  0  0  0  0
  146.7626  142.3780  154.3597 H   0  0  0  0  0  0  0  0  0  0  0  0
  150.3846  142.1562  154.4345 H   0  0  0  0  0  0  0  0  0  0  0  0
  151.8002  141.6715  156.4447 H   0  0  0  0  0  0  0  0  0  0  0  0
  150.7694  143.0667  156.5772 H   0  0  0  0  0  0  0  0  0  0  0  0
  150.4580  140.4134  158.0044 H   0  0  0  0  0  0  0  0  0  0  0  0
  150.5583  141.9924  158.6788 H   0  0  0  0  0  0  0  0  0  0  0  0
  148.2008  140.9502  158.6714 H   0  0  0  0  0  0  0  0  0  0  0  0
  148.3418  142.5805  158.0808 H   0  0  0  0  0  0  0  0  0  0  0  0
  146.8893  141.4631  156.5966 H   0  0  0  0  0  0  0  0  0  0  0  0
  147.5690  139.0794  157.0429 H   0  0  0  0  0  0  0  0  0  0  0  0
  147.2403  139.4649  155.3858 H   0  0  0  0  0  0  0  0  0  0  0  0
  149.9125  138.9001  156.6770 H   0  0  0  0  0  0  0  0  0  0  0  0
  148.6114  137.8181  154.2465 H   0  0  0  0  0  0  0  0  0  0  0  0
  148.8375  135.8991  153.8380 H   0  0  0  0  0  0  0  0  0  0  0  0
  151.1241  134.5219  156.3961 H   0  0  0  0  0  0  0  0  0  0  0  0
  151.6073  132.1064  156.6233 H   0  0  0  0  0  0  0  0  0  0  0  0
  150.3118  130.4571  155.1538 H   0  0  0  0  0  0  0  0  0  0  0  0
  146.3757  134.0520  154.3164 H   0  0  0  0  0  0  0  0  0  0  0  0
  147.1123  135.4608  153.5373 H   0  0  0  0  0  0  0  0  0  0  0  0
  144.8287  134.4427  152.5090 H   0  0  0  0  0  0  0  0  0  0  0  0
  146.1357  134.9059  151.4142 H   0  0  0  0  0  0  0  0  0  0  0  0
  145.5154  132.1276  152.4647 H   0  0  0  0  0  0  0  0  0  0  0  0
  145.8216  132.5863  150.7896 H   0  0  0  0  0  0  0  0  0  0  0  0
  148.1604  132.7138  151.1682 H   0  0  0  0  0  0  0  0  0  0  0  0
  147.7903  131.5669  152.4603 H   0  0  0  0  0  0  0  0  0  0  0  0
  149.7535  139.9582  153.8391 H   0  0  0  0  0  0  0  0  0  0  0  0
  151.1644  139.7946  154.8310 H   0  0  0  0  0  0  0  0  0  0  0  0
  148.5654  142.9062  155.7521 H   0  0  0  0  0  0  0  0  0  0  0  0
  148.7665  131.2801  153.6582 H   0  0  0  0  0  0  0  0  0  0  0  0
  1  2  1  0  0  0  0
  1 26  1  0  0  0  0
  1 27  1  0  0  0  0
  1 28  1  0  0  0  0
  2  7  1  0  0  0  0
  2  3  1  0  0  0  0
  2 55  1  0  0  0  0
  3 25  1  0  0  0  0
  3  4  1  0  0  0  0
  3 29  1  0  0  0  0
  4  5  1  0  0  0  0
  4 30  1  0  0  0  0
  4 31  1  0  0  0  0
  5  6  1  0  0  0  0
  5 32  1  0  0  0  0
  5 33  1  0  0  0  0
  6  7  1  0  0  0  0
  6 34  1  0  0  0  0
  6 35  1  0  0  0  0
  7  8  1  0  0  0  0
  7 36  1  0  0  0  0
  8  9  1  0  0  0  0
  8 37  1  0  0  0  0
  8 38  1  0  0  0  0
  9 10  1  0  0  0  0
  9 25  1  0  0  0  0
  9 39  1  0  0  0  0
 10 11  1  0  0  0  0
 10 40  1  0  0  0  0
 11 12  2  0  0  0  0
 11 13  1  0  0  0  0
 13 14  1  0  0  0  0
 13 41  1  0  0  0  0
 14 19  1  0  0  0  0
 14 15  2  0  0  0  0
 15 16  1  0  0  0  0
 15 42  1  0  0  0  0
 16 17  2  0  0  0  0
 16 43  1  0  0  0  0
 17 18  1  0  0  0  0
 17 44  1  0  0  0  0
 18 19  2  0  0  0  0
 18 56  1  0  0  0  0
 19 20  1  0  0  0  0
 20 24  1  0  0  0  0
 20 21  1  0  0  0  0
 21 22  1  0  0  0  0
 21 45  1  0  0  0  0
 21 46  1  0  0  0  0
 22 23  1  0  0  0  0
 22 47  1  0  0  0  0
 22 48  1  0  0  0  0
 23 24  1  0  0  0  0
 23 49  1  0  0  0  0
 23 50  1  0  0  0  0
 24 51  1  0  0  0  0
 24 52  1  0  0  0  0
 25 53  1  0  0  0  0
 25 54  1  0  0  0  0
M  CHG  1   2   1
M  CHG  1  18   1
M  END
> <s_m_source_file>
AV-unprocessed.smi

> <i_m_source_file_index>
2928

> <i_lp_mmshare_version>
43012

> <i_f3d_flags>
0

> <s_epik_input>
W0NIMl0xW0NIMl1bQ0gyXVtDQEhdKE4oW0NIM10pW0NIXTEyKVtDSDJdW0NASF0oW0NIMl0yKVtOSF1DKD1PKVtOSF1jM1tjSF1bY0hdW2NIXW5jM040W0NIMl1bQ0gyXVtDSDJdW0NIMl00

> <s_epik_cmdline>
J2VwaWtfcHl0aG9uJywgJy1waCcsICc3LjAnLCAnLXRuJywgJzgnLCAnLW1hJywgJzIwMCcsICctbWV0YWxfYmluZGluZycsICctaW1hZScsICc8aW5maWxlLm1hZT4nLCAnLW9tYWUnLCAnPG91dGZpbGUubWFlPic=

> <r_lp_tautomer_probability>
0.999994

> <r_epik_Ionization_Penalty>
1.2404

> <r_epik_Ionization_Penalty_Charging>
1.24038

> <r_epik_Ionization_Penalty_Neutral>
1.86539e-05

> <r_epik_State_Penalty>
1.30821

> <r_epik_Charging_Adjusted_Penalty>
2.54859

> <i_epik_Tot_Q>
2

> <i_epik_Tot_abs_Q>
2

> <r_epik_Metal_State_Penalty>
1.3782

> <b_epik_Metal_Only>
0

> <s_lp_Force_Field>
OPLS_2005

> <r_lp_Energy>
72.136

> <b_lp_Chiralities_Consistent>
1

> <s_lp_Variant>
AV-unprocessed.smi:2928-6

> <Gold.Version>
5.8.1

> <Gold.Id.Protein>
6NUR|6NUR_protein|mol2

> <Gold.PLP.Fitness>
43.6254

> <Gold.PLP.PLP>
-35.1055

> <Gold.PLP.part.hbond>
-2.0000

> <Gold.PLP.part.metal>
0.0000

> <Gold.PLP.part.buried>
-2.7240

> <Gold.PLP.part.nonpolar>
-30.2996

> <Gold.PLP.part.repulsive>
1.1025

> <Gold.PLP.ligand.clash>
0.0000

> <Gold.PLP.ligand.torsion>
0.2479

> <Gold.PLP.Chemscore.Hbond>
2.8800

> <Gold.PLP.Chemscore.CHOScore>
0.0000

> <Gold.PLP.Chemscore.Metal>
0.0000

> <Gold.Chemscore.Hbonds>
donor molecule, donor type, donor heavy atom, donor atom, acceptor molecule, acceptor atom, score
      L1  H     2    55       P1  8028  2.00
      L1  H    13    41       P1  7948  0.94

> <Gold.PLP.Chemscore.Internal.Correction>
0.3758

> <Gold.Rescore>
     Score         DG    S(hbond)    S(metal)    S(lipo)     H(rot)  DE(clash)    DE(int)     intcor
     16.28     -18.17       1.82        0.00      82.62       1.19       0.21       1.68       ----

> <Gold.Chemscore.Fitness>
16.2787

> <Gold.Chemscore.DG>
-18.1678

> <Gold.Chemscore.ZeroCoef>
-5.4800

> <Gold.Chemscore.Hbond>
1.8152

> <Gold.Chemscore.Metal>
0.0000

> <Gold.Chemscore.Lipo>
82.6154

> <Gold.Chemscore.Internal_Hbond>
0.0000

> <Gold.Chemscore.DEClash>
0.2079

> <Gold.Chemscore.DEInternal>
1.6813

> <Gold.Chemscore.Rot>
1.1879

> <Gold.Chemscore.Internal.Correction>
   9.000000E+99

> <Gold.Chemscore.Hbonds>
donor molecule, donor type, donor heavy atom, donor atom, acceptor molecule, acceptor atom, score
      L1  H     2    55       P1  8028  0.98
      L1  H    13    41       P1  7948  0.87

> <Gold.Chemscore.Hbond.Weighted>
-6.0629

> <Gold.Chemscore.Metal.Weighted>
-0.0000

> <Gold.Chemscore.Lipo.Weighted>
-9.6660

> <Gold.Chemscore.Internal_Hbond.Weighted>
0.0000

> <Gold.Chemscore.DEClash.Weighted>
0.2079

> <Gold.Chemscore.DEInternal.Weighted>
1.6813

> <Gold.Chemscore.Rot.Weighted>
3.0410

> <Gold.Chemscore.Internal.Correction.Weighted>
   9.000000E+99

> <Gold.Protein.RotatedTorsions>
[ 6907 6896 6895 6894 ] final  125.62 input  -60.11 | X-H torsion
[ 7974 7965 7964 7962 ] final   54.25 input  175.53 | X-H torsion
[ 8008 7997 7996 7995 ] final   59.62 input   59.86 | X-H torsion
[ 10167 10162 10161 10158 ] final   62.06 input  -65.29 | X-H torsion
[ 10718 10713 10712 10709 ] final -171.62 input   66.30 | X-H torsion
[ 10763 10752 10751 10750 ] final  -72.16 input  -60.55 | X-H torsion
[ 11005 11000 10999 10996 ] final  105.65 input  -57.11 | X-H torsion

> <Gold.Protein.ActiveResidues>
 VAL166  LYS551  ARG553  GLY616  TRP617  ASP618  TYR619  PRO620  LYS621  CYS622 
 ASP623  PHE694  ASN695  SER759  ASP760  ASP761  ALA762  ILE779  LEU786  VAL792 
 PHE793  MET794  SER795  GLU796  ALA797  LYS798  CYS799  TRP800  GLU811  SER814 

> <Gold.Protein.RotatedAtoms>
  152.3976  133.6770  159.6289 H   0  0  0  0  0  0  0  0  0  0  0  0  # atno 6907 bound_to 6896
  150.7873  133.8847  159.3304 H   0  0  0  0  0  0  0  0  0  0  0  0  # atno 6908 bound_to 6896
  151.6620  135.0989  160.0232 H   0  0  0  0  0  0  0  0  0  0  0  0  # atno 6909 bound_to 6896
  145.9628  139.4075  143.0237 H   0  0  0  0  0  0  0  0  0  0  0  0  # atno 7974 bound_to 7965
  155.5691  140.3489  155.4511 H   0  0  0  0  0  0  0  0  0  0  0  0  # atno 8008 bound_to 7997
  156.0457  140.1306  157.0132 H   0  0  0  0  0  0  0  0  0  0  0  0  # atno 8009 bound_to 7997
  154.4411  140.1015  156.6288 H   0  0  0  0  0  0  0  0  0  0  0  0  # atno 8010 bound_to 7997
  140.1480  144.4490  150.6774 H   0  0  0  0  0  0  0  0  0  0  0  0  # atno 10167 bound_to 10162
  156.7436  130.9351  151.3111 H   0  0  0  0  0  0  0  0  0  0  0  0  # atno 10718 bound_to 10713
  154.4418  135.5939  153.6134 H   0  0  0  0  0  0  0  0  0  0  0  0  # atno 10763 bound_to 10752
  152.9806  135.6000  154.3713 H   0  0  0  0  0  0  0  0  0  0  0  0  # atno 10764 bound_to 10752
  154.3564  135.2841  155.2323 H   0  0  0  0  0  0  0  0  0  0  0  0  # atno 10765 bound_to 10752
  139.8804  134.9343  156.5546 H   0  0  0  0  0  0  0  0  0  0  0  0  # atno 11005 bound_to 11000
  145.8015  140.9768  143.0996 LP  0  0  0  0  0  0  0  0  0  0  0  0  # atno 17320 bound_to 7965
  144.6819  139.9808  143.7483 LP  0  0  0  0  0  0  0  0  0  0  0  0  # atno 17321 bound_to 7965
  140.6720  143.2289  151.5602 LP  0  0  0  0  0  0  0  0  0  0  0  0  # atno 17342 bound_to 10162
  139.5439  144.2572  152.1405 LP  0  0  0  0  0  0  0  0  0  0  0  0  # atno 17343 bound_to 10162
  157.6808  130.9138  150.0262 LP  0  0  0  0  0  0  0  0  0  0  0  0  # atno 17370 bound_to 10713
  156.1448  130.3642  149.9527 LP  0  0  0  0  0  0  0  0  0  0  0  0  # atno 17371 bound_to 10713
  140.8214  133.8350  155.8899 LP  0  0  0  0  0  0  0  0  0  0  0  0  # atno 17394 bound_to 11000
  140.9414  134.1895  157.4794 LP  0  0  0  0  0  0  0  0  0  0  0  0  # atno 17395 bound_to 11000

$$$$
