AV-unprocessed.smi:287|AV-procd|sdf|2197|dock1
  -GOLD-   2262022 03D 1   1.00000     0.00000
 Structure written by MMmdl.
 55 58  0  0  0  0  0  0  0  0  1 V2000
  152.2747  144.1119  161.5684 C   0  0  0  0  0  0  0  0  0  0  0  0
  152.2095  143.1320  160.4475 C   0  0  0  0  0  0  0  0  0  0  0  0
  152.6539  141.8523  160.2856 C   0  0  0  0  0  0  0  0  0  0  0  0
  152.2917  141.4381  158.9691 C   0  0  0  0  0  0  0  0  0  0  0  0
  152.5901  140.0796  158.3485 C   0  0  1  0  0  0  0  0  0  0  0  0
  152.2885  140.1146  156.8409 C   0  0  0  0  0  0  0  0  0  0  0  0
  153.9533  139.7152  158.4471 O   0  0  0  0  0  0  0  0  0  0  0  0
  151.7934  138.9402  159.0234 C   0  0  0  0  0  0  0  0  0  0  0  0
  151.9409  137.6629  158.3375 N   0  0  0  0  0  0  0  0  0  0  0  0
  150.8788  136.8564  158.1320 C   0  0  0  0  0  0  0  0  0  0  0  0
  149.9084  136.9212  159.0746 N   0  0  0  0  0  0  0  0  0  0  0  0
  148.8123  136.1657  158.9648 C   0  0  0  0  0  0  0  0  0  0  0  0
  148.4941  135.2921  158.0080 N   0  0  0  0  0  0  0  0  0  0  0  0
  149.4684  135.2192  157.0553 C   0  0  0  0  0  0  0  0  0  0  0  0
  150.6839  135.9613  157.0380 C   0  0  0  0  0  0  0  0  0  0  0  0
  151.4142  135.6125  155.9068 N   0  0  0  0  0  0  0  0  0  0  0  0
  150.6726  134.7259  155.3002 C   0  0  0  0  0  0  0  0  0  0  0  0
  149.4788  134.4328  155.9235 N   0  0  0  0  0  0  0  0  0  0  0  0
  148.3966  133.4752  155.5149 C   0  0  2  0  0  0  0  0  0  0  0  0
  148.9786  132.2182  155.3613 O   0  0  0  0  0  0  0  0  0  0  0  0
  149.1952  131.8983  153.9830 C   0  0  1  0  0  0  0  0  0  0  0  0
  148.3672  130.6269  153.7001 C   0  0  0  0  0  0  0  0  0  0  0  0
  149.0945  129.4848  154.0997 O   0  0  0  0  0  0  0  0  0  0  0  0
  148.7626  133.1600  153.2036 C   0  0  1  0  0  0  0  0  0  0  0  0
  148.1470  132.8824  151.9607 O   0  0  0  0  0  0  0  0  0  0  0  0
  147.7940  133.8447  154.1522 C   0  0  2  0  0  0  0  0  0  0  0  0
  147.7329  135.2379  153.9053 O   0  0  0  0  0  0  0  0  0  0  0  0
  151.6347  142.5185  158.4302 C   0  0  0  0  0  0  0  0  0  0  0  0
  150.9882  142.7892  157.1116 C   0  0  0  0  0  0  0  0  0  0  0  0
  151.5822  143.5493  159.3195 O   0  0  0  0  0  0  0  0  0  0  0  0
  147.6844  133.4897  156.3406 H   0  0  0  0  0  0  0  0  0  0  0  0
  150.2519  131.7007  153.7976 H   0  0  0  0  0  0  0  0  0  0  0  0
  149.6346  133.7942  153.0356 H   0  0  0  0  0  0  0  0  0  0  0  0
  146.8004  133.3985  154.0890 H   0  0  0  0  0  0  0  0  0  0  0  0
  153.0253  143.8146  162.3008 H   0  0  0  0  0  0  0  0  0  0  0  0
  151.3130  144.1797  162.0772 H   0  0  0  0  0  0  0  0  0  0  0  0
  152.5360  145.1050  161.2022 H   0  0  0  0  0  0  0  0  0  0  0  0
  153.1867  141.2765  161.0281 H   0  0  0  0  0  0  0  0  0  0  0  0
  151.2414  140.3543  156.6516 H   0  0  0  0  0  0  0  0  0  0  0  0
  152.4926  139.1521  156.3698 H   0  0  0  0  0  0  0  0  0  0  0  0
  152.8939  140.8666  156.3328 H   0  0  0  0  0  0  0  0  0  0  0  0
  154.2266  139.8185  159.3457 H   0  0  0  0  0  0  0  0  0  0  0  0
  152.1755  138.8060  160.0363 H   0  0  0  0  0  0  0  0  0  0  0  0
  150.7391  139.2054  159.1139 H   0  0  0  0  0  0  0  0  0  0  0  0
  152.8855  137.4108  158.0839 H   0  0  0  0  0  0  0  0  0  0  0  0
  148.0865  136.2785  159.7565 H   0  0  0  0  0  0  0  0  0  0  0  0
  150.9846  134.2620  154.3763 H   0  0  0  0  0  0  0  0  0  0  0  0
  147.4006  130.6578  154.2039 H   0  0  0  0  0  0  0  0  0  0  0  0
  148.1754  130.5087  152.6338 H   0  0  0  0  0  0  0  0  0  0  0  0
  148.5318  128.7292  154.0252 H   0  0  0  0  0  0  0  0  0  0  0  0
  148.6565  132.2197  151.5193 H   0  0  0  0  0  0  0  0  0  0  0  0
  148.1050  135.4073  153.0528 H   0  0  0  0  0  0  0  0  0  0  0  0
  150.2143  142.0509  156.9017 H   0  0  0  0  0  0  0  0  0  0  0  0
  151.7225  142.7499  156.3070 H   0  0  0  0  0  0  0  0  0  0  0  0
  150.5239  143.7757  157.0937 H   0  0  0  0  0  0  0  0  0  0  0  0
  1  2  1  0  0  0  0
  1 35  1  0  0  0  0
  1 36  1  0  0  0  0
  1 37  1  0  0  0  0
  2 30  1  0  0  0  0
  2  3  2  0  0  0  0
  3  4  1  0  0  0  0
  3 38  1  0  0  0  0
  4  5  1  0  0  0  0
  4 28  2  0  0  0  0
  5  6  1  0  0  0  0
  5  7  1  0  0  0  0
  5  8  1  0  0  0  0
  6 39  1  0  0  0  0
  6 40  1  0  0  0  0
  6 41  1  0  0  0  0
  7 42  1  0  0  0  0
  8  9  1  0  0  0  0
  8 43  1  0  0  0  0
  8 44  1  0  0  0  0
  9 10  1  0  0  0  0
  9 45  1  0  0  0  0
 10 15  1  0  0  0  0
 10 11  2  0  0  0  0
 11 12  1  0  0  0  0
 12 13  2  0  0  0  0
 12 46  1  0  0  0  0
 13 14  1  0  0  0  0
 14 18  1  0  0  0  0
 14 15  2  0  0  0  0
 15 16  1  0  0  0  0
 16 17  2  0  0  0  0
 17 18  1  0  0  0  0
 17 47  1  0  0  0  0
 18 19  1  0  0  0  0
 19 31  1  0  0  0  0
 19 26  1  0  0  0  0
 19 20  1  0  0  0  0
 20 21  1  0  0  0  0
 21 32  1  0  0  0  0
 21 22  1  0  0  0  0
 21 24  1  0  0  0  0
 22 23  1  0  0  0  0
 22 48  1  0  0  0  0
 22 49  1  0  0  0  0
 23 50  1  0  0  0  0
 24 33  1  0  0  0  0
 24 25  1  0  0  0  0
 24 26  1  0  0  0  0
 25 51  1  0  0  0  0
 26 34  1  0  0  0  0
 26 27  1  0  0  0  0
 27 52  1  0  0  0  0
 28 29  1  0  0  0  0
 28 30  1  0  0  0  0
 29 53  1  0  0  0  0
 29 54  1  0  0  0  0
 29 55  1  0  0  0  0
M  END
> <s_m_source_file>
AV-unprocessed.smi

> <i_m_source_file_index>
287

> <i_lp_mmshare_version>
43012

> <i_f3d_flags>
0

> <s_epik_input>
W0NIM11jMVtjSF1jKGMobzEpW0NIM10pW0NAQF0oW0NIM10pKFtPSF0pW0NIMl1bTkhdYyhuW2NIXW4yKWMoYzIzKW5bY0hdbjNbQ0BASF00T1tDQEhdKFtDSDJdW09IXSlbQ0BASF0oW09IXSlbQ0BIXTRbT0hd

> <s_epik_cmdline>
J2VwaWtfcHl0aG9uJywgJy1waCcsICc3LjAnLCAnLXRuJywgJzgnLCAnLW1hJywgJzIwMCcsICctbWV0YWxfYmluZGluZycsICctaW1hZScsICc8aW5maWxlLm1hZT4nLCAnLW9tYWUnLCAnPG91dGZpbGUubWFlPic=

> <r_lp_tautomer_probability>
1

> <r_epik_Ionization_Penalty>
0.000992612

> <r_epik_Ionization_Penalty_Charging>
0

> <r_epik_Ionization_Penalty_Neutral>
0.000992612

> <r_epik_State_Penalty>
-0

> <r_epik_Charging_Adjusted_Penalty>
0

> <i_epik_Tot_Q>
0

> <i_epik_Tot_abs_Q>
0

> <r_epik_Metal_State_Penalty>
-0

> <b_epik_Metal_Only>
0

> <s_epik_Chemistry_Notes>
This compound contains an acetal/aminal-like group ( X-CH(R)-Y where X, Y are N, S, or O) that may be acid/base labile, releasing an aldehyde.

> <s_lp_Force_Field>
OPLS_2005

> <r_lp_Energy>
44.9714

> <b_lp_Chiralities_Consistent>
1

> <s_lp_Variant>
AV-unprocessed.smi:287-21

> <Gold.Version>
5.8.1

> <Gold.Id.Protein>
6NUR|6NUR_protein|mol2

> <Gold.PLP.Fitness>
52.2042

> <Gold.PLP.PLP>
-42.1595

> <Gold.PLP.part.hbond>
-4.0995

> <Gold.PLP.part.metal>
0.0000

> <Gold.PLP.part.buried>
-3.2177

> <Gold.PLP.part.nonpolar>
-33.6155

> <Gold.PLP.part.repulsive>
0.1395

> <Gold.PLP.ligand.clash>
0.4571

> <Gold.PLP.ligand.torsion>
0.8320

> <Gold.PLP.Chemscore.Hbond>
4.0000

> <Gold.PLP.Chemscore.CHOScore>
0.0000

> <Gold.PLP.Chemscore.Metal>
0.0000

> <Gold.Chemscore.Hbonds>
donor molecule, donor type, donor heavy atom, donor atom, acceptor molecule, acceptor atom, score
      L1  H    25    51       P1 10747  1.00
      L1  H    27    52       P1  7948  1.00
      P1  H  7997  8009       L1     7  1.00
      P1  H 10752 10764       L1    16  1.00

> <Gold.PLP.Chemscore.Internal.Correction>
0.1659

> <Gold.Rescore>
     Score         DG    S(hbond)    S(metal)    S(lipo)     H(rot)  DE(clash)    DE(int)     intcor
     13.66     -15.49       3.47        0.00     101.89       5.27       0.03       1.80       ----

> <Gold.Chemscore.Fitness>
13.6646

> <Gold.Chemscore.DG>
-15.4920

> <Gold.Chemscore.ZeroCoef>
-5.4800

> <Gold.Chemscore.Hbond>
3.4654

> <Gold.Chemscore.Metal>
0.0000

> <Gold.Chemscore.Lipo>
101.8943

> <Gold.Chemscore.Internal_Hbond>
0.0000

> <Gold.Chemscore.DEClash>
0.0310

> <Gold.Chemscore.DEInternal>
1.7964

> <Gold.Chemscore.Rot>
5.2672

> <Gold.Chemscore.Internal.Correction>
   9.000000E+99

> <Gold.Chemscore.Hbonds>
donor molecule, donor type, donor heavy atom, donor atom, acceptor molecule, acceptor atom, score
      L1  H    25    51       P1 10747  0.99
      L1  H    27    52       P1  7948  0.99
      P1  H  7997  8009       L1     7  0.90
      P1  H 10752 10764       L1    16  0.44

> <Gold.Chemscore.Hbond.Weighted>
-11.5743

> <Gold.Chemscore.Metal.Weighted>
-0.0000

> <Gold.Chemscore.Lipo.Weighted>
-11.9216

> <Gold.Chemscore.Internal_Hbond.Weighted>
0.0000

> <Gold.Chemscore.DEClash.Weighted>
0.0310

> <Gold.Chemscore.DEInternal.Weighted>
1.7964

> <Gold.Chemscore.Rot.Weighted>
13.4839

> <Gold.Chemscore.Internal.Correction.Weighted>
   9.000000E+99

> <Gold.Protein.RotatedTorsions>
[ 6907 6896 6895 6894 ] final  -59.51 input  -60.11 | X-H torsion
[ 7974 7965 7964 7962 ] final  164.31 input  175.53 | X-H torsion
[ 8008 7997 7996 7995 ] final  125.77 input   59.86 | X-H torsion
[ 10167 10162 10161 10158 ] final   44.07 input  -65.29 | X-H torsion
[ 10718 10713 10712 10709 ] final -167.98 input   66.30 | X-H torsion
[ 10763 10752 10751 10750 ] final  -27.70 input  -60.55 | X-H torsion
[ 11005 11000 10999 10996 ] final -155.52 input  -57.11 | X-H torsion

> <Gold.Protein.ActiveResidues>
 VAL166  LYS551  ARG553  GLY616  TRP617  ASP618  TYR619  PRO620  LYS621  CYS622 
 ASP623  PHE694  ASN695  SER759  ASP760  ASP761  ALA762  ILE779  LEU786  VAL792 
 PHE793  MET794  SER795  GLU796  ALA797  LYS798  CYS799  TRP800  GLU811  SER814 

> <Gold.Protein.RotatedAtoms>
  150.7925  134.6958  159.6522 H   0  0  0  0  0  0  0  0  0  0  0  0  # atno 6907 bound_to 6896
  152.4032  134.6248  160.0070 H   0  0  0  0  0  0  0  0  0  0  0  0  # atno 6908 bound_to 6896
  151.6513  133.3284  159.3188 H   0  0  0  0  0  0  0  0  0  0  0  0  # atno 6909 bound_to 6896
  144.7551  139.8308  143.6353 H   0  0  0  0  0  0  0  0  0  0  0  0  # atno 7974 bound_to 7965
  156.2844  140.2708  156.2003 H   0  0  0  0  0  0  0  0  0  0  0  0  # atno 8008 bound_to 7997
  155.0367  140.0386  157.2512 H   0  0  0  0  0  0  0  0  0  0  0  0  # atno 8009 bound_to 7997
  154.7308  140.2706  155.6463 H   0  0  0  0  0  0  0  0  0  0  0  0  # atno 8010 bound_to 7997
  140.3380  144.2506  150.6159 H   0  0  0  0  0  0  0  0  0  0  0  0  # atno 10167 bound_to 10162
  156.6902  130.9156  151.3068 H   0  0  0  0  0  0  0  0  0  0  0  0  # atno 10718 bound_to 10713
  153.7364  135.6935  153.4977 H   0  0  0  0  0  0  0  0  0  0  0  0  # atno 10763 bound_to 10752
  153.2099  135.4406  155.0366 H   0  0  0  0  0  0  0  0  0  0  0  0  # atno 10764 bound_to 10752
  154.8235  135.3434  154.6892 H   0  0  0  0  0  0  0  0  0  0  0  0  # atno 10765 bound_to 10752
  140.6856  134.4097  157.5223 H   0  0  0  0  0  0  0  0  0  0  0  0  # atno 11005 bound_to 11000
  146.1550  139.4645  143.0024 LP  0  0  0  0  0  0  0  0  0  0  0  0  # atno 17320 bound_to 7965
  145.6809  141.0191  143.1607 LP  0  0  0  0  0  0  0  0  0  0  0  0  # atno 17321 bound_to 7965
  140.5336  143.2238  151.8200 LP  0  0  0  0  0  0  0  0  0  0  0  0  # atno 17342 bound_to 10162
  139.4845  144.4690  151.9449 LP  0  0  0  0  0  0  0  0  0  0  0  0  # atno 17343 bound_to 10162
  157.7011  130.9334  150.0790 LP  0  0  0  0  0  0  0  0  0  0  0  0  # atno 17370 bound_to 10713
  156.1803  130.3650  149.9044 LP  0  0  0  0  0  0  0  0  0  0  0  0  # atno 17371 bound_to 10713
  139.8938  134.8721  156.2204 LP  0  0  0  0  0  0  0  0  0  0  0  0  # atno 17394 bound_to 11000
  141.0282  133.7003  156.1385 LP  0  0  0  0  0  0  0  0  0  0  0  0  # atno 17395 bound_to 11000

$$$$
