AV-unprocessed.smi:2012|AV-procd|sdf|8155|dock2
  -GOLD-   2272010393D 1   1.00000     0.00000
 Structure written by MMmdl.
 50 51  0  0  0  0  0  0  0  0  1 V2000
  140.9620  139.2973  153.4172 C   0  0  0  0  0  0  0  0  0  0  0  0
  141.6755  137.9721  153.6586 C   0  0  0  0  0  0  0  0  0  0  0  0
  141.1357  137.0954  154.3328 O   0  0  0  0  0  0  0  0  0  0  0  0
  142.8917  137.8418  153.1036 N   0  0  0  0  0  0  0  0  0  0  0  0
  143.7696  136.6773  153.2423 C   0  0  2  0  0  0  0  0  0  0  0  0
  145.2032  137.1245  152.9024 C   0  0  0  0  0  0  0  0  0  0  0  0
  146.1379  136.3234  152.9537 O   0  0  0  0  0  0  0  0  0  0  0  0
  145.3552  138.4080  152.5413 N   0  0  0  0  0  0  0  0  0  0  0  0
  146.6074  139.0056  152.0862 C   0  0  0  0  0  0  0  0  0  0  0  0
  147.3304  139.8543  153.1278 C   0  0  0  0  0  0  0  0  0  0  0  0
  146.8618  141.1513  153.4136 C   0  0  0  0  0  0  0  0  0  0  0  0
  147.5361  141.9107  154.3881 C   0  0  0  0  0  0  0  0  0  0  0  0
  148.6126  141.4594  155.0653 N   0  0  0  0  0  0  0  0  0  0  0  0
  149.0831  140.2171  154.7938 C   0  0  0  0  0  0  0  0  0  0  0  0
  150.2011  139.7487  155.5182 N   0  0  0  0  0  0  0  0  0  0  0  0
  150.8085  140.6341  156.5095 C   0  0  0  0  0  0  0  0  0  0  0  0
  151.7605  139.8401  157.4207 C   0  0  0  0  0  0  0  0  0  0  0  0
  152.7214  139.1477  156.6302 O   0  0  0  0  0  0  0  0  0  0  0  0
  152.1085  138.2120  155.7489 C   0  0  0  0  0  0  0  0  0  0  0  0
  151.1743  138.9508  154.7760 C   0  0  0  0  0  0  0  0  0  0  0  0
  148.4681  139.3894  153.8258 C   0  0  0  0  0  0  0  0  0  0  0  0
  143.3024  135.5677  152.2549 C   0  0  0  0  0  0  0  0  0  0  0  0
  141.9484  134.9622  152.6739 C   0  0  0  0  0  0  0  0  0  0  0  0
  144.3349  134.4321  152.0959 C   0  0  0  0  0  0  0  0  0  0  0  0
  141.4766  140.1041  153.9394 H   0  0  0  0  0  0  0  0  0  0  0  0
  139.9346  139.2563  153.7805 H   0  0  0  0  0  0  0  0  0  0  0  0
  140.9382  139.5322  152.3526 H   0  0  0  0  0  0  0  0  0  0  0  0
  143.2535  138.6187  152.5696 H   0  0  0  0  0  0  0  0  0  0  0  0
  143.7256  136.2961  154.2649 H   0  0  0  0  0  0  0  0  0  0  0  0
  144.5358  138.9977  152.5269 H   0  0  0  0  0  0  0  0  0  0  0  0
  147.2743  138.1989  151.7818 H   0  0  0  0  0  0  0  0  0  0  0  0
  146.4233  139.6070  151.1943 H   0  0  0  0  0  0  0  0  0  0  0  0
  145.9993  141.5551  152.9041 H   0  0  0  0  0  0  0  0  0  0  0  0
  147.1986  142.9068  154.6341 H   0  0  0  0  0  0  0  0  0  0  0  0
  151.3535  141.4282  155.9973 H   0  0  0  0  0  0  0  0  0  0  0  0
  150.0384  141.1068  157.1206 H   0  0  0  0  0  0  0  0  0  0  0  0
  152.2799  140.5160  158.1001 H   0  0  0  0  0  0  0  0  0  0  0  0
  151.2057  139.1320  158.0386 H   0  0  0  0  0  0  0  0  0  0  0  0
  152.8853  137.6847  155.1953 H   0  0  0  0  0  0  0  0  0  0  0  0
  151.5592  137.4611  156.3196 H   0  0  0  0  0  0  0  0  0  0  0  0
  150.6983  138.2210  154.1240 H   0  0  0  0  0  0  0  0  0  0  0  0
  151.7549  139.6147  154.1342 H   0  0  0  0  0  0  0  0  0  0  0  0
  148.8496  138.3983  153.6405 H   0  0  0  0  0  0  0  0  0  0  0  0
  143.1595  136.0151  151.2695 H   0  0  0  0  0  0  0  0  0  0  0  0
  142.0052  134.5206  153.6693 H   0  0  0  0  0  0  0  0  0  0  0  0
  141.6380  134.1786  151.9821 H   0  0  0  0  0  0  0  0  0  0  0  0
  141.1532  135.7077  152.6854 H   0  0  0  0  0  0  0  0  0  0  0  0
  144.5593  133.9665  153.0562 H   0  0  0  0  0  0  0  0  0  0  0  0
  145.2738  134.7852  151.6692 H   0  0  0  0  0  0  0  0  0  0  0  0
  143.9611  133.6533  151.4306 H   0  0  0  0  0  0  0  0  0  0  0  0
  1  2  1  0  0  0  0
  1 25  1  0  0  0  0
  1 26  1  0  0  0  0
  1 27  1  0  0  0  0
  2  3  2  0  0  0  0
  2  4  1  0  0  0  0
  4  5  1  0  0  0  0
  4 28  1  0  0  0  0
  5  6  1  0  0  0  0
  5 22  1  0  0  0  0
  5 29  1  0  0  0  0
  6  7  2  0  0  0  0
  6  8  1  0  0  0  0
  8  9  1  0  0  0  0
  8 30  1  0  0  0  0
  9 10  1  0  0  0  0
  9 31  1  0  0  0  0
  9 32  1  0  0  0  0
 10 21  1  0  0  0  0
 10 11  2  0  0  0  0
 11 12  1  0  0  0  0
 11 33  1  0  0  0  0
 12 13  2  0  0  0  0
 12 34  1  0  0  0  0
 13 14  1  0  0  0  0
 14 15  1  0  0  0  0
 14 21  2  0  0  0  0
 15 20  1  0  0  0  0
 15 16  1  0  0  0  0
 16 17  1  0  0  0  0
 16 35  1  0  0  0  0
 16 36  1  0  0  0  0
 17 18  1  0  0  0  0
 17 37  1  0  0  0  0
 17 38  1  0  0  0  0
 18 19  1  0  0  0  0
 19 20  1  0  0  0  0
 19 39  1  0  0  0  0
 19 40  1  0  0  0  0
 20 41  1  0  0  0  0
 20 42  1  0  0  0  0
 21 43  1  0  0  0  0
 22 23  1  0  0  0  0
 22 24  1  0  0  0  0
 22 44  1  0  0  0  0
 23 45  1  0  0  0  0
 23 46  1  0  0  0  0
 23 47  1  0  0  0  0
 24 48  1  0  0  0  0
 24 49  1  0  0  0  0
 24 50  1  0  0  0  0
M  END
> <s_m_source_file>
AV-unprocessed.smi

> <i_m_source_file_index>
2012

> <i_lp_mmshare_version>
43012

> <i_f3d_flags>
0

> <s_epik_input>
W0NIM11DKD1PKVtOSF1bQ0BASF0oW0NIXShbQ0gzXSlbQ0gzXSlDKD1PKVtOSF1bQ0gyXWMxW2NIXVtjSF1uYyhbY0hdMSlOMltDSDJdW0NIMl1PW0NIMl1bQ0gyXTI=

> <s_epik_cmdline>
J2VwaWtfcHl0aG9uJywgJy1waCcsICc3LjAnLCAnLXRuJywgJzgnLCAnLW1hJywgJzIwMCcsICctbWV0YWxfYmluZGluZycsICctaW1hZScsICc8aW5maWxlLm1hZT4nLCAnLW9tYWUnLCAnPG91dGZpbGUubWFlPic=

> <r_lp_tautomer_probability>
1

> <r_epik_Ionization_Penalty>
0.00518786

> <r_epik_Ionization_Penalty_Charging>
0

> <r_epik_Ionization_Penalty_Neutral>
0.00518786

> <r_epik_State_Penalty>
0.00378052

> <r_epik_Charging_Adjusted_Penalty>
0.00378052

> <i_epik_Tot_Q>
0

> <i_epik_Tot_abs_Q>
0

> <r_epik_Metal_State_Penalty>
-0

> <b_epik_Metal_Only>
0

> <s_lp_Force_Field>
OPLS_2005

> <r_lp_Energy>
14.5368

> <b_lp_Chiralities_Consistent>
1

> <s_lp_Variant>
AV-unprocessed.smi:2012-1

> <Gold.Version>
5.8.1

> <Gold.Id.Protein>
6NUR|6NUR_protein|mol2

> <Gold.PLP.Fitness>
48.8985

> <Gold.PLP.PLP>
-39.2634

> <Gold.PLP.part.hbond>
-3.4359

> <Gold.PLP.part.metal>
0.0000

> <Gold.PLP.part.buried>
-0.9285

> <Gold.PLP.part.nonpolar>
-35.1498

> <Gold.PLP.part.repulsive>
0.3295

> <Gold.PLP.ligand.clash>
0.0000

> <Gold.PLP.ligand.torsion>
1.0446

> <Gold.PLP.Chemscore.Hbond>
3.0000

> <Gold.PLP.Chemscore.CHOScore>
0.7368

> <Gold.PLP.Chemscore.Metal>
0.0000

> <Gold.Chemscore.Hbonds>
donor molecule, donor type, donor heavy atom, donor atom, acceptor molecule, acceptor atom, score
      L1  H     4    28       P1 10175  0.98
      L1  H     8    30       P1 10175  1.00
      P1  H  7997  8009       L1    18  1.00
      L1  C    12    34       P1  8028  0.62

> <Gold.PLP.Chemscore.Internal.Correction>
0.5137

> <Gold.Rescore>
     Score         DG    S(hbond)    S(metal)    S(lipo)     H(rot)  DE(clash)    DE(int)     intcor
     15.54     -19.38       2.92        0.00      83.17       2.18       0.12       3.72       ----

> <Gold.Chemscore.Fitness>
15.5400

> <Gold.Chemscore.DG>
-19.3838

> <Gold.Chemscore.ZeroCoef>
-5.4800

> <Gold.Chemscore.Hbond>
2.9214

> <Gold.Chemscore.Metal>
0.0000

> <Gold.Chemscore.Lipo>
83.1665

> <Gold.Chemscore.Internal_Hbond>
0.0000

> <Gold.Chemscore.DEClash>
0.1236

> <Gold.Chemscore.DEInternal>
3.7203

> <Gold.Chemscore.Rot>
2.1813

> <Gold.Chemscore.Internal.Correction>
   9.000000E+99

> <Gold.Chemscore.Hbonds>
donor molecule, donor type, donor heavy atom, donor atom, acceptor molecule, acceptor atom, score
      L1  H     4    28       P1 10175  0.93
      L1  H     8    30       P1 10175  0.99
      P1  H  7997  8009       L1    18  0.82

> <Gold.Chemscore.Hbond.Weighted>
-9.7575

> <Gold.Chemscore.Metal.Weighted>
-0.0000

> <Gold.Chemscore.Lipo.Weighted>
-9.7305

> <Gold.Chemscore.Internal_Hbond.Weighted>
0.0000

> <Gold.Chemscore.DEClash.Weighted>
0.1236

> <Gold.Chemscore.DEInternal.Weighted>
3.7203

> <Gold.Chemscore.Rot.Weighted>
5.5842

> <Gold.Chemscore.Internal.Correction.Weighted>
   9.000000E+99

> <Gold.Protein.RotatedTorsions>
[ 6907 6896 6895 6894 ] final    5.54 input  -60.11 | X-H torsion
[ 7974 7965 7964 7962 ] final   78.40 input  175.53 | X-H torsion
[ 8008 7997 7996 7995 ] final -172.54 input   59.86 | X-H torsion
[ 10167 10162 10161 10158 ] final  143.67 input  -65.29 | X-H torsion
[ 10718 10713 10712 10709 ] final   76.08 input   66.30 | X-H torsion
[ 10763 10752 10751 10750 ] final  162.65 input  -60.55 | X-H torsion
[ 11005 11000 10999 10996 ] final   62.42 input  -57.11 | X-H torsion

> <Gold.Protein.ActiveResidues>
 VAL166  LYS551  ARG553  GLY616  TRP617  ASP618  TYR619  PRO620  LYS621  CYS622 
 ASP623  PHE694  ASN695  SER759  ASP760  ASP761  ALA762  ILE779  LEU786  VAL792 
 PHE793  MET794  SER795  GLU796  ALA797  LYS798  CYS799  TRP800  GLU811  SER814 

> <Gold.Protein.RotatedAtoms>
  151.6592  135.0991  160.0175 H   0  0  0  0  0  0  0  0  0  0  0  0  # atno 6907 bound_to 6896
  152.3956  133.6738  159.6282 H   0  0  0  0  0  0  0  0  0  0  0  0  # atno 6908 bound_to 6896
  150.7864  133.8796  159.3323 H   0  0  0  0  0  0  0  0  0  0  0  0  # atno 6909 bound_to 6896
  145.6776  139.2514  143.1832 H   0  0  0  0  0  0  0  0  0  0  0  0  # atno 7974 bound_to 7965
  155.9459  140.1117  157.1017 H   0  0  0  0  0  0  0  0  0  0  0  0  # atno 8008 bound_to 7997
  154.4099  140.1210  156.5055 H   0  0  0  0  0  0  0  0  0  0  0  0  # atno 8009 bound_to 7997
  155.6903  140.3472  155.4893 H   0  0  0  0  0  0  0  0  0  0  0  0  # atno 8010 bound_to 7997
  139.4964  144.6025  151.6451 H   0  0  0  0  0  0  0  0  0  0  0  0  # atno 10167 bound_to 10162
  157.6659  130.9757  150.1445 H   0  0  0  0  0  0  0  0  0  0  0  0  # atno 10718 bound_to 10713
  154.2816  135.2763  155.2695 H   0  0  0  0  0  0  0  0  0  0  0  0  # atno 10763 bound_to 10752
  154.5213  135.5755  153.6687 H   0  0  0  0  0  0  0  0  0  0  0  0  # atno 10764 bound_to 10752
  152.9928  135.6205  154.2975 H   0  0  0  0  0  0  0  0  0  0  0  0  # atno 10765 bound_to 10752
  140.0093  134.6320  155.9805 H   0  0  0  0  0  0  0  0  0  0  0  0  # atno 11005 bound_to 11000
  146.0992  140.7564  142.9557 LP  0  0  0  0  0  0  0  0  0  0  0  0  # atno 17320 bound_to 7965
  144.7036  140.3760  143.7136 LP  0  0  0  0  0  0  0  0  0  0  0  0  # atno 17321 bound_to 7965
  140.5678  144.0160  150.6201 LP  0  0  0  0  0  0  0  0  0  0  0  0  # atno 17342 bound_to 10162
  140.3268  143.3102  152.0728 LP  0  0  0  0  0  0  0  0  0  0  0  0  # atno 17343 bound_to 10162
  156.2259  130.3678  149.8501 LP  0  0  0  0  0  0  0  0  0  0  0  0  # atno 17370 bound_to 10713
  156.6341  130.8678  151.3501 LP  0  0  0  0  0  0  0  0  0  0  0  0  # atno 17371 bound_to 10713
  141.1700  133.6537  156.4616 LP  0  0  0  0  0  0  0  0  0  0  0  0  # atno 17394 bound_to 11000
  140.4583  134.6865  157.5073 LP  0  0  0  0  0  0  0  0  0  0  0  0  # atno 17395 bound_to 11000

$$$$
