AV-unprocessed.smi:1436|AV-procd|sdf|5859|dock2
  -GOLD-   22720 5533D 1   1.00000     0.00000
 Structure written by MMmdl.
 43 44  0  0  0  0  0  0  0  0  1 V2000
  150.4766  145.3600  160.0863 C   0  0  0  0  0  0  0  0  0  0  0  0
  151.4496  144.2223  160.2015 C   0  0  0  0  0  0  0  0  0  0  0  0
  151.9646  143.9277  161.3829 N   0  0  0  0  0  0  0  0  0  0  0  0
  152.8366  142.8576  161.1639 O   0  0  0  0  0  0  0  0  0  0  0  0
  152.8148  142.5476  159.8431 C   0  0  0  0  0  0  0  0  0  0  0  0
  153.7088  141.4350  159.4118 C   0  0  0  0  0  0  0  0  0  0  0  0
  151.9532  143.3735  159.1732 C   0  0  0  0  0  0  0  0  0  0  0  0
  151.6266  143.4080  157.6999 C   0  0  0  0  0  0  0  0  0  0  0  0
  150.9744  142.0876  157.2890 C   0  0  0  0  0  0  0  0  0  0  0  0
  151.4716  141.0181  157.6399 O   0  0  0  0  0  0  0  0  0  0  0  0
  149.8473  142.1811  156.5657 N   0  0  0  0  0  0  0  0  0  0  0  0
  148.9866  141.0684  156.1761 C   0  0  2  0  0  0  0  0  0  0  0  0
  149.1354  140.7787  154.6749 C   0  0  0  0  0  0  0  0  0  0  0  0
  147.5145  141.2765  156.6152 C   0  0  0  0  0  0  0  0  0  0  0  0
  146.8095  142.4425  156.0694 N   0  0  0  0  0  0  0  0  0  0  0  0
  146.4831  142.2294  154.6624 C   0  0  0  0  0  0  0  0  0  0  0  0
  145.7385  143.4279  154.0503 C   0  0  0  0  0  0  0  0  0  0  0  0
  144.5550  143.6824  154.7986 O   0  0  0  0  0  0  0  0  0  0  0  0
  144.8246  143.9481  156.1704 C   0  0  0  0  0  0  0  0  0  0  0  0
  145.5791  142.7610  156.7925 C   0  0  0  0  0  0  0  0  0  0  0  0
  151.0018  146.3097  159.9834 H   0  0  0  0  0  0  0  0  0  0  0  0
  149.8340  145.4263  160.9647 H   0  0  0  0  0  0  0  0  0  0  0  0
  149.8313  145.2431  159.2157 H   0  0  0  0  0  0  0  0  0  0  0  0
  154.7463  141.6602  159.6591 H   0  0  0  0  0  0  0  0  0  0  0  0
  153.6489  141.2725  158.3359 H   0  0  0  0  0  0  0  0  0  0  0  0
  153.4360  140.5047  159.9100 H   0  0  0  0  0  0  0  0  0  0  0  0
  150.9496  144.2262  157.4534 H   0  0  0  0  0  0  0  0  0  0  0  0
  152.5230  143.5686  157.0999 H   0  0  0  0  0  0  0  0  0  0  0  0
  149.5239  143.1060  156.3221 H   0  0  0  0  0  0  0  0  0  0  0  0
  149.3555  140.1868  156.7035 H   0  0  0  0  0  0  0  0  0  0  0  0
  148.5196  139.9292  154.3784 H   0  0  0  0  0  0  0  0  0  0  0  0
  150.1692  140.5404  154.4225 H   0  0  0  0  0  0  0  0  0  0  0  0
  148.8363  141.6347  154.0691 H   0  0  0  0  0  0  0  0  0  0  0  0
  146.9745  140.3823  156.3008 H   0  0  0  0  0  0  0  0  0  0  0  0
  147.4452  141.2804  157.7040 H   0  0  0  0  0  0  0  0  0  0  0  0
  147.3960  142.0483  154.0940 H   0  0  0  0  0  0  0  0  0  0  0  0
  145.8682  141.3341  154.5569 H   0  0  0  0  0  0  0  0  0  0  0  0
  146.3727  144.3157  154.0430 H   0  0  0  0  0  0  0  0  0  0  0  0
  145.4678  143.2180  153.0154 H   0  0  0  0  0  0  0  0  0  0  0  0
  145.4080  144.8654  156.2621 H   0  0  0  0  0  0  0  0  0  0  0  0
  143.8833  144.1135  156.6949 H   0  0  0  0  0  0  0  0  0  0  0  0
  144.9253  141.8880  156.8138 H   0  0  0  0  0  0  0  0  0  0  0  0
  145.8031  143.0163  157.8260 H   0  0  0  0  0  0  0  0  0  0  0  0
  1  2  1  0  0  0  0
  1 21  1  0  0  0  0
  1 22  1  0  0  0  0
  1 23  1  0  0  0  0
  2  7  1  0  0  0  0
  2  3  2  0  0  0  0
  3  4  1  0  0  0  0
  4  5  1  0  0  0  0
  5  6  1  0  0  0  0
  5  7  2  0  0  0  0
  6 24  1  0  0  0  0
  6 25  1  0  0  0  0
  6 26  1  0  0  0  0
  7  8  1  0  0  0  0
  8  9  1  0  0  0  0
  8 27  1  0  0  0  0
  8 28  1  0  0  0  0
  9 10  2  0  0  0  0
  9 11  1  0  0  0  0
 11 12  1  0  0  0  0
 11 29  1  0  0  0  0
 12 13  1  0  0  0  0
 12 14  1  0  0  0  0
 12 30  1  0  0  0  0
 13 31  1  0  0  0  0
 13 32  1  0  0  0  0
 13 33  1  0  0  0  0
 14 15  1  0  0  0  0
 14 34  1  0  0  0  0
 14 35  1  0  0  0  0
 15 20  1  0  0  0  0
 15 16  1  0  0  0  0
 16 17  1  0  0  0  0
 16 36  1  0  0  0  0
 16 37  1  0  0  0  0
 17 18  1  0  0  0  0
 17 38  1  0  0  0  0
 17 39  1  0  0  0  0
 18 19  1  0  0  0  0
 19 20  1  0  0  0  0
 19 40  1  0  0  0  0
 19 41  1  0  0  0  0
 20 42  1  0  0  0  0
 20 43  1  0  0  0  0
M  END
> <s_m_source_file>
AV-unprocessed.smi

> <i_m_source_file_index>
1436

> <i_lp_mmshare_version>
43012

> <i_f3d_flags>
0

> <s_epik_input>
W0NIM11jMW5vYyhbQ0gzXSljMVtDSDJdQyg9TylbTkhdW0NASF0oW0NIM10pW0NIMl1OMltDSDJdW0NIMl1PW0NIMl1bQ0gyXTI=

> <s_epik_cmdline>
J2VwaWtfcHl0aG9uJywgJy1waCcsICc3LjAnLCAnLXRuJywgJzgnLCAnLW1hJywgJzIwMCcsICctbWV0YWxfYmluZGluZycsICctaW1hZScsICc8aW5maWxlLm1hZT4nLCAnLW9tYWUnLCAnPG91dGZpbGUubWFlPic=

> <r_epik_Ionization_Penalty>
0.234179

> <r_epik_Ionization_Penalty_Charging>
0

> <r_epik_Ionization_Penalty_Neutral>
0.234179

> <r_epik_State_Penalty>
0.224936

> <r_epik_Charging_Adjusted_Penalty>
0.224936

> <i_epik_Tot_Q>
0

> <i_epik_Tot_abs_Q>
0

> <r_epik_Metal_State_Penalty>
0.224936

> <b_epik_Metal_Only>
0

> <s_lp_Force_Field>
OPLS_2005

> <r_lp_Energy>
20.5604

> <b_lp_Chiralities_Consistent>
1

> <s_lp_Variant>
AV-unprocessed.smi:1436-1

> <Gold.Version>
5.8.1

> <Gold.Id.Protein>
6NUR|6NUR_protein|mol2

> <Gold.PLP.Fitness>
41.2764

> <Gold.PLP.PLP>
-38.8811

> <Gold.PLP.part.hbond>
-1.0000

> <Gold.PLP.part.metal>
0.0000

> <Gold.PLP.part.buried>
-7.0633

> <Gold.PLP.part.nonpolar>
-31.4372

> <Gold.PLP.part.repulsive>
1.1891

> <Gold.PLP.ligand.clash>
0.0000

> <Gold.PLP.ligand.torsion>
0.3293

> <Gold.PLP.Chemscore.Hbond>
1.0000

> <Gold.PLP.Chemscore.CHOScore>
0.0000

> <Gold.PLP.Chemscore.Metal>
0.0000

> <Gold.Chemscore.Hbonds>
donor molecule, donor type, donor heavy atom, donor atom, acceptor molecule, acceptor atom, score
      L1  H    11    29       P1  8028  1.00

> <Gold.PLP.Chemscore.Internal.Correction>
0.0538

> <Gold.Rescore>
     Score         DG    S(hbond)    S(metal)    S(lipo)     H(rot)  DE(clash)    DE(int)     intcor
     12.96     -15.97       1.00        0.00      98.66       1.71       0.32       2.69       ----

> <Gold.Chemscore.Fitness>
12.9626

> <Gold.Chemscore.DG>
-15.9688

> <Gold.Chemscore.ZeroCoef>
-5.4800

> <Gold.Chemscore.Hbond>
0.9983

> <Gold.Chemscore.Metal>
0.0000

> <Gold.Chemscore.Lipo>
98.6635

> <Gold.Chemscore.Internal_Hbond>
0.0000

> <Gold.Chemscore.DEClash>
0.3211

> <Gold.Chemscore.DEInternal>
2.6851

> <Gold.Chemscore.Rot>
1.7145

> <Gold.Chemscore.Internal.Correction>
   9.000000E+99

> <Gold.Chemscore.Hbonds>
donor molecule, donor type, donor heavy atom, donor atom, acceptor molecule, acceptor atom, score
      L1  H    11    29       P1  8028  1.00

> <Gold.Chemscore.Hbond.Weighted>
-3.3342

> <Gold.Chemscore.Metal.Weighted>
-0.0000

> <Gold.Chemscore.Lipo.Weighted>
-11.5436

> <Gold.Chemscore.Internal_Hbond.Weighted>
0.0000

> <Gold.Chemscore.DEClash.Weighted>
0.3211

> <Gold.Chemscore.DEInternal.Weighted>
2.6851

> <Gold.Chemscore.Rot.Weighted>
4.3891

> <Gold.Chemscore.Internal.Correction.Weighted>
   9.000000E+99

> <Gold.Protein.RotatedTorsions>
[ 6907 6896 6895 6894 ] final  158.94 input  -60.11 | X-H torsion
[ 7974 7965 7964 7962 ] final  -14.52 input  175.53 | X-H torsion
[ 8008 7997 7996 7995 ] final   45.44 input   59.86 | X-H torsion
[ 10167 10162 10161 10158 ] final   43.30 input  -65.29 | X-H torsion
[ 10718 10713 10712 10709 ] final  -89.92 input   66.30 | X-H torsion
[ 10763 10752 10751 10750 ] final  169.61 input  -60.55 | X-H torsion
[ 11005 11000 10999 10996 ] final   24.81 input  -57.11 | X-H torsion

> <Gold.Protein.ActiveResidues>
 VAL166  LYS551  ARG553  GLY616  TRP617  ASP618  TYR619  PRO620  LYS621  CYS622 
 ASP623  PHE694  ASN695  SER759  ASP760  ASP761  ALA762  ILE779  LEU786  VAL792 
 PHE793  MET794  SER795  GLU796  ALA797  LYS798  CYS799  TRP800  GLU811  SER814 

> <Gold.Protein.RotatedAtoms>
  151.9930  133.3797  159.4151 H   0  0  0  0  0  0  0  0  0  0  0  0  # atno 6907 bound_to 6896
  150.6919  134.3916  159.5088 H   0  0  0  0  0  0  0  0  0  0  0  0  # atno 6908 bound_to 6896
  152.1652  134.8879  160.0589 H   0  0  0  0  0  0  0  0  0  0  0  0  # atno 6909 bound_to 6896
  146.2071  140.3360  142.8403 H   0  0  0  0  0  0  0  0  0  0  0  0  # atno 7974 bound_to 7965
  155.3359  140.3405  155.4239 H   0  0  0  0  0  0  0  0  0  0  0  0  # atno 8008 bound_to 7997
  156.1838  140.1673  156.8260 H   0  0  0  0  0  0  0  0  0  0  0  0  # atno 8009 bound_to 7997
  154.5363  140.0734  156.8416 H   0  0  0  0  0  0  0  0  0  0  0  0  # atno 8010 bound_to 7997
  140.3458  144.2413  150.6150 H   0  0  0  0  0  0  0  0  0  0  0  0  # atno 10167 bound_to 10162
  155.9986  130.4890  150.5245 H   0  0  0  0  0  0  0  0  0  0  0  0  # atno 10718 bound_to 10713
  154.3857  135.2753  155.2185 H   0  0  0  0  0  0  0  0  0  0  0  0  # atno 10763 bound_to 10752
  154.4272  135.5986  153.6050 H   0  0  0  0  0  0  0  0  0  0  0  0  # atno 10764 bound_to 10752
  152.9833  135.5987  154.4105 H   0  0  0  0  0  0  0  0  0  0  0  0  # atno 10765 bound_to 10752
  140.3547  134.2191  155.7677 H   0  0  0  0  0  0  0  0  0  0  0  0  # atno 11005 bound_to 11000
  144.8818  140.7411  143.5981 LP  0  0  0  0  0  0  0  0  0  0  0  0  # atno 17320 bound_to 7965
  145.3281  139.1768  143.4552 LP  0  0  0  0  0  0  0  0  0  0  0  0  # atno 17321 bound_to 7965
  140.5266  143.2253  151.8305 LP  0  0  0  0  0  0  0  0  0  0  0  0  # atno 17342 bound_to 10162
  139.4833  144.4772  151.9352 LP  0  0  0  0  0  0  0  0  0  0  0  0  # atno 17343 bound_to 10162
  157.3202  131.0680  151.1937 LP  0  0  0  0  0  0  0  0  0  0  0  0  # atno 17370 bound_to 10713
  157.2853  130.6770  149.6086 LP  0  0  0  0  0  0  0  0  0  0  0  0  # atno 17371 bound_to 10713
  141.2002  133.7993  157.0501 LP  0  0  0  0  0  0  0  0  0  0  0  0  # atno 17394 bound_to 11000
  140.0675  134.9721  157.1411 LP  0  0  0  0  0  0  0  0  0  0  0  0  # atno 17395 bound_to 11000

$$$$
