AV-unprocessed.smi:1904|AV-procd|sdf|7724|dock3
  -GOLD-   22720 9463D 1   1.00000     0.00000
 Structure written by MMmdl.
 50 51  0  0  0  0  0  0  0  0  2 V2000
  143.5204  146.2958  154.6979 C   0  0  0  0  0  0  0  0  0  0  0  0
  144.1897  146.9793  155.8560 C   0  0  0  0  0  0  0  0  0  0  0  0
  144.7117  148.1815  155.6808 N   0  0  0  0  0  0  0  0  0  0  0  0
  145.2345  148.5082  156.8796 N   0  0  0  0  0  0  0  0  0  0  0  0
  145.8946  149.7888  157.0415 C   0  0  0  0  0  0  0  0  0  0  0  0
  145.0509  147.5058  157.8122 C   0  0  0  0  0  0  0  0  0  0  0  0
  145.5547  147.6216  159.2149 C   0  0  0  0  0  0  0  0  0  0  0  0
  144.3699  146.4958  157.1860 C   0  0  0  0  0  0  0  0  0  0  0  0
  143.9200  145.1723  157.7513 C   0  0  0  0  0  0  0  0  0  0  0  0
  144.9141  144.7153  158.8182 C   0  0  0  0  0  0  0  0  0  0  0  0
  144.5613  144.6311  159.9946 O   0  0  0  0  0  0  0  0  0  0  0  0
  146.1608  144.4473  158.4004 N   0  0  0  0  0  0  0  0  0  0  0  0
  147.2677  144.0695  159.2697 C   0  0  0  0  0  0  0  0  0  0  0  0
  148.1381  142.9798  158.6144 C   0  0  0  0  0  0  0  0  0  0  0  0
  149.5427  143.4136  158.4057 N   0  3  2  0  0  0  0  0  0  0  0  0
  150.4590  142.2581  158.2240 C   0  0  0  0  0  0  0  0  0  0  0  0
  151.8835  142.7218  157.8701 C   0  0  0  0  0  0  0  0  0  0  0  0
  152.4529  143.7021  158.9113 C   0  0  2  0  0  0  0  0  0  0  0  0
  152.8591  143.0092  160.2240 C   0  0  0  0  0  0  0  0  0  0  0  0
  151.4532  144.8518  159.1303 C   0  0  0  0  0  0  0  0  0  0  0  0
  150.0378  144.3418  159.4571 C   0  0  0  0  0  0  0  0  0  0  0  0
  142.6542  145.7220  155.0269 H   0  0  0  0  0  0  0  0  0  0  0  0
  144.2065  145.6073  154.2047 H   0  0  0  0  0  0  0  0  0  0  0  0
  143.1748  147.0129  153.9524 H   0  0  0  0  0  0  0  0  0  0  0  0
  145.5160  150.2887  157.9333 H   0  0  0  0  0  0  0  0  0  0  0  0
  145.7112  150.4286  156.1771 H   0  0  0  0  0  0  0  0  0  0  0  0
  146.9688  149.6352  157.1469 H   0  0  0  0  0  0  0  0  0  0  0  0
  145.5026  146.6655  159.7349 H   0  0  0  0  0  0  0  0  0  0  0  0
  144.9648  148.3443  159.7787 H   0  0  0  0  0  0  0  0  0  0  0  0
  146.5948  147.9479  159.2296 H   0  0  0  0  0  0  0  0  0  0  0  0
  142.9301  145.2416  158.2027 H   0  0  0  0  0  0  0  0  0  0  0  0
  143.8381  144.4142  156.9713 H   0  0  0  0  0  0  0  0  0  0  0  0
  146.3611  144.5388  157.4146 H   0  0  0  0  0  0  0  0  0  0  0  0
  147.8694  144.9457  159.5172 H   0  0  0  0  0  0  0  0  0  0  0  0
  146.8343  143.7150  160.2041 H   0  0  0  0  0  0  0  0  0  0  0  0
  148.1184  142.0619  159.2044 H   0  0  0  0  0  0  0  0  0  0  0  0
  147.7009  142.7309  157.6461 H   0  0  0  0  0  0  0  0  0  0  0  0
  150.4673  141.6507  159.1302 H   0  0  0  0  0  0  0  0  0  0  0  0
  150.0882  141.6181  157.4224 H   0  0  0  0  0  0  0  0  0  0  0  0
  152.5423  141.8593  157.7624 H   0  0  0  0  0  0  0  0  0  0  0  0
  151.8632  143.2092  156.8944 H   0  0  0  0  0  0  0  0  0  0  0  0
  153.3650  144.1325  158.4954 H   0  0  0  0  0  0  0  0  0  0  0  0
  152.0108  142.5448  160.7254 H   0  0  0  0  0  0  0  0  0  0  0  0
  153.3025  143.7224  160.9197 H   0  0  0  0  0  0  0  0  0  0  0  0
  153.6001  142.2303  160.0410 H   0  0  0  0  0  0  0  0  0  0  0  0
  151.8057  145.5122  159.9232 H   0  0  0  0  0  0  0  0  0  0  0  0
  151.4086  145.4623  158.2272 H   0  0  0  0  0  0  0  0  0  0  0  0
  149.3756  145.2021  159.5461 H   0  0  0  0  0  0  0  0  0  0  0  0
  150.0263  143.8396  160.4253 H   0  0  0  0  0  0  0  0  0  0  0  0
  149.5569  143.9219  157.5329 H   0  0  0  0  0  0  0  0  0  0  0  0
  1  2  1  0  0  0  0
  1 22  1  0  0  0  0
  1 23  1  0  0  0  0
  1 24  1  0  0  0  0
  2  8  1  0  0  0  0
  2  3  2  0  0  0  0
  3  4  1  0  0  0  0
  4  5  1  0  0  0  0
  4  6  1  0  0  0  0
  5 25  1  0  0  0  0
  5 26  1  0  0  0  0
  5 27  1  0  0  0  0
  6  7  1  0  0  0  0
  6  8  2  0  0  0  0
  7 28  1  0  0  0  0
  7 29  1  0  0  0  0
  7 30  1  0  0  0  0
  8  9  1  0  0  0  0
  9 10  1  0  0  0  0
  9 31  1  0  0  0  0
  9 32  1  0  0  0  0
 10 11  2  0  0  0  0
 10 12  1  0  0  0  0
 12 13  1  0  0  0  0
 12 33  1  0  0  0  0
 13 14  1  0  0  0  0
 13 34  1  0  0  0  0
 13 35  1  0  0  0  0
 14 15  1  0  0  0  0
 14 36  1  0  0  0  0
 14 37  1  0  0  0  0
 15 21  1  0  0  0  0
 15 16  1  0  0  0  0
 15 50  1  0  0  0  0
 16 17  1  0  0  0  0
 16 38  1  0  0  0  0
 16 39  1  0  0  0  0
 17 18  1  0  0  0  0
 17 40  1  0  0  0  0
 17 41  1  0  0  0  0
 18 19  1  0  0  0  0
 18 20  1  0  0  0  0
 18 42  1  0  0  0  0
 19 43  1  0  0  0  0
 19 44  1  0  0  0  0
 19 45  1  0  0  0  0
 20 21  1  0  0  0  0
 20 46  1  0  0  0  0
 20 47  1  0  0  0  0
 21 48  1  0  0  0  0
 21 49  1  0  0  0  0
M  CHG  1  15   1
M  END
> <s_m_source_file>
AV-unprocessed.smi

> <i_m_source_file_index>
1904

> <i_lp_mmshare_version>
43012

> <i_f3d_flags>
0

> <s_epik_input>
W0NIM11jMW5uKFtDSDNdKWMoW0NIM10pYzFbQ0gyXUMoPU8pW05IXVtDSDJdW0NIMl1OMltDSDJdW0NIMl1bQ0hdKFtDSDNdKVtDSDJdW0NIMl0y

> <s_epik_cmdline>
J2VwaWtfcHl0aG9uJywgJy1waCcsICc3LjAnLCAnLXRuJywgJzgnLCAnLW1hJywgJzIwMCcsICctbWV0YWxfYmluZGluZycsICctaW1hZScsICc8aW5maWxlLm1hZT4nLCAnLW9tYWUnLCAnPG91dGZpbGUubWFlPic=

> <r_lp_tautomer_probability>
1

> <r_epik_Ionization_Penalty>
0.00374255

> <r_epik_Ionization_Penalty_Charging>
0.00158211

> <r_epik_Ionization_Penalty_Neutral>
0.00216044

> <r_epik_State_Penalty>
-0

> <r_epik_Charging_Adjusted_Penalty>
0.00158211

> <i_epik_Tot_Q>
1

> <i_epik_Tot_abs_Q>
1

> <r_epik_Metal_State_Penalty>
-0

> <b_epik_Metal_Only>
0

> <s_lp_Force_Field>
OPLS_2005

> <r_lp_Energy>
12.0105

> <b_lp_Chiralities_Consistent>
1

> <s_lp_Variant>
AV-unprocessed.smi:1904-2

> <Gold.Version>
5.8.1

> <Gold.Id.Protein>
6NUR|6NUR_protein|mol2

> <Gold.PLP.Fitness>
48.5221

> <Gold.PLP.PLP>
-44.4526

> <Gold.PLP.part.hbond>
-3.7055

> <Gold.PLP.part.metal>
0.0000

> <Gold.PLP.part.buried>
-5.1464

> <Gold.PLP.part.nonpolar>
-36.8471

> <Gold.PLP.part.repulsive>
0.2578

> <Gold.PLP.ligand.clash>
0.0000

> <Gold.PLP.ligand.torsion>
1.1662

> <Gold.PLP.Chemscore.Hbond>
2.1254

> <Gold.PLP.Chemscore.CHOScore>
0.0000

> <Gold.PLP.Chemscore.Metal>
0.0000

> <Gold.Chemscore.Hbonds>
donor molecule, donor type, donor heavy atom, donor atom, acceptor molecule, acceptor atom, score
      L1  H    12    33       P1  8029  0.08
      L1  H    15    50       P1  8028  1.56

> <Gold.PLP.Chemscore.Internal.Correction>
0.0257

> <Gold.Rescore>
     Score         DG    S(hbond)    S(metal)    S(lipo)     H(rot)  DE(clash)    DE(int)     intcor
     14.56     -16.98       0.53        0.00     118.64       1.61       0.22       2.21       ----

> <Gold.Chemscore.Fitness>
14.5566

> <Gold.Chemscore.DG>
-16.9844

> <Gold.Chemscore.ZeroCoef>
-5.4800

> <Gold.Chemscore.Hbond>
0.5257

> <Gold.Chemscore.Metal>
0.0000

> <Gold.Chemscore.Lipo>
118.6422

> <Gold.Chemscore.Internal_Hbond>
0.0000

> <Gold.Chemscore.DEClash>
0.2204

> <Gold.Chemscore.DEInternal>
2.2075

> <Gold.Chemscore.Rot>
1.6142

> <Gold.Chemscore.Internal.Correction>
   9.000000E+99

> <Gold.Chemscore.Hbonds>
donor molecule, donor type, donor heavy atom, donor atom, acceptor molecule, acceptor atom, score
      L1  H    15    50       P1  8028  0.27

> <Gold.Chemscore.Hbond.Weighted>
-1.7557

> <Gold.Chemscore.Metal.Weighted>
-0.0000

> <Gold.Chemscore.Lipo.Weighted>
-13.8811

> <Gold.Chemscore.Internal_Hbond.Weighted>
0.0000

> <Gold.Chemscore.DEClash.Weighted>
0.2204

> <Gold.Chemscore.DEInternal.Weighted>
2.2075

> <Gold.Chemscore.Rot.Weighted>
4.1324

> <Gold.Chemscore.Internal.Correction.Weighted>
   9.000000E+99

> <Gold.Protein.RotatedTorsions>
[ 6907 6896 6895 6894 ] final   60.00 input  -60.11 | X-H torsion
[ 7974 7965 7964 7962 ] final   -6.31 input  175.53 | X-H torsion
[ 8008 7997 7996 7995 ] final -133.39 input   59.86 | X-H torsion
[ 10167 10162 10161 10158 ] final  116.71 input  -65.29 | X-H torsion
[ 10718 10713 10712 10709 ] final  -58.40 input   66.30 | X-H torsion
[ 10763 10752 10751 10750 ] final   64.17 input  -60.55 | X-H torsion
[ 11005 11000 10999 10996 ] final   28.39 input  -57.11 | X-H torsion

> <Gold.Protein.ActiveResidues>
 VAL166  LYS551  ARG553  GLY616  TRP617  ASP618  TYR619  PRO620  LYS621  CYS622 
 ASP623  PHE694  ASN695  SER759  ASP760  ASP761  ALA762  ILE779  LEU786  VAL792 
 PHE793  MET794  SER795  GLU796  ALA797  LYS798  CYS799  TRP800  GLU811  SER814 

> <Gold.Protein.RotatedAtoms>
  152.3965  134.6357  160.0086 H   0  0  0  0  0  0  0  0  0  0  0  0  # atno 6907 bound_to 6896
  151.6575  133.3312  159.3174 H   0  0  0  0  0  0  0  0  0  0  0  0  # atno 6908 bound_to 6896
  150.7872  134.6909  159.6541 H   0  0  0  0  0  0  0  0  0  0  0  0  # atno 6909 bound_to 6896
  146.2334  140.2151  142.8336 H   0  0  0  0  0  0  0  0  0  0  0  0  # atno 7974 bound_to 7965
  155.3446  140.0474  157.3045 H   0  0  0  0  0  0  0  0  0  0  0  0  # atno 8008 bound_to 7997
  154.5259  140.2241  155.8856 H   0  0  0  0  0  0  0  0  0  0  0  0  # atno 8009 bound_to 7997
  156.1739  140.3089  155.9029 H   0  0  0  0  0  0  0  0  0  0  0  0  # atno 8010 bound_to 7997
  139.6228  144.7104  151.2596 H   0  0  0  0  0  0  0  0  0  0  0  0  # atno 10167 bound_to 10162
  156.1138  130.4172  150.0573 H   0  0  0  0  0  0  0  0  0  0  0  0  # atno 10718 bound_to 10713
  153.0045  135.5402  154.6468 H   0  0  0  0  0  0  0  0  0  0  0  0  # atno 10763 bound_to 10752
  154.5710  135.2841  155.0829 H   0  0  0  0  0  0  0  0  0  0  0  0  # atno 10764 bound_to 10752
  154.1995  135.6486  153.5135 H   0  0  0  0  0  0  0  0  0  0  0  0  # atno 10765 bound_to 10752
  140.3161  134.2595  155.7725 H   0  0  0  0  0  0  0  0  0  0  0  0  # atno 11005 bound_to 11000
  144.9676  140.8337  143.5475 LP  0  0  0  0  0  0  0  0  0  0  0  0  # atno 17320 bound_to 7965
  145.2129  139.2196  143.5133 LP  0  0  0  0  0  0  0  0  0  0  0  0  # atno 17321 bound_to 7965
  140.7393  143.6623  150.8154 LP  0  0  0  0  0  0  0  0  0  0  0  0  # atno 17342 bound_to 10162
  140.0236  143.5516  152.2790 LP  0  0  0  0  0  0  0  0  0  0  0  0  # atno 17343 bound_to 10162
  156.8529  130.9465  151.3624 LP  0  0  0  0  0  0  0  0  0  0  0  0  # atno 17370 bound_to 10713
  157.6320  130.8737  149.9291 LP  0  0  0  0  0  0  0  0  0  0  0  0  # atno 17371 bound_to 10713
  141.2097  133.7740  156.9978 LP  0  0  0  0  0  0  0  0  0  0  0  0  # atno 17394 bound_to 11000
  140.0982  134.9551  157.1882 LP  0  0  0  0  0  0  0  0  0  0  0  0  # atno 17395 bound_to 11000

$$$$
