#       Name:                AV-unprocessed.smi:101
#       Creating user name   scv26
#       Creation time:       Thu Mar 26 17:44:04 2020


#       File generated by GOLD software.
#

@<TRIPOS>MOLECULE
AV-unprocessed.smi:101
    56    58     1
SMALL
NO_CHARGES


@<TRIPOS>ATOM
      1 ****        -3.2240   1.5653   4.1988 C.3            1 S1                 0.0000
      2 ****        -3.5410   1.2975   2.7365 C.2            1 S1                 0.0000
      3 ****        -2.5966   0.8898   1.8496 C.2            1 S1                 0.0000
      4 ****        -2.8559   0.6365   0.5063 N.am           1 S1                 0.0000
      5 ****        -1.7827   0.1998  -0.4772 C.3            1 S1                 0.0000
      6 ****        -0.5347   0.2246   0.1534 O.3            1 S1                 0.0000
      7 ****        -0.1799  -1.0950   0.5456 C.3            1 S1                 0.0000
      8 ****         1.3029  -1.2107   0.9424 C.3            1 S1                 0.0000
      9 ****         2.1531  -0.7289  -0.0864 O.3            1 S1                 0.0000
     10 ****         3.4872  -0.7043   0.0912 C.2            1 S1                 0.0000
     11 ****         4.0455  -1.0828   1.1230 O.2            1 S1                 0.0000
     12 ****         4.2180  -0.1688  -1.0935 C.ar           1 S1                 0.0000
     13 ****         5.6260  -0.0446  -1.0418 C.ar           1 S1                 0.0000
     14 ****         6.3426   0.4595  -2.1445 C.ar           1 S1                 0.0000
     15 ****         5.6600   0.8441  -3.3131 C.ar           1 S1                 0.0000
     16 ****         4.2595   0.7240  -3.3777 C.ar           1 S1                 0.0000
     17 ****         3.5409   0.2211  -2.2756 C.ar           1 S1                 0.0000
     18 ****        -0.7078  -1.9658  -0.5991 C.3            1 S1                 0.0000
     19 ****         0.1950  -2.0008  -1.6924 O.3            1 S1                 0.0000
     20 ****        -2.0218  -1.2590  -0.9414 C.3            1 S1                 0.0000
     21 ****        -2.3609  -1.3659  -2.3119 O.3            1 S1                 0.0000
     22 ****        -4.1613   0.8414   0.0116 C.2            1 S1                 0.0000
     23 ****        -4.4604   0.6683  -1.1692 O.2            1 S1                 0.0000
     24 ****        -5.1308   1.2565   0.9218 N.am           1 S1                 0.0000
     25 ****        -4.9182   1.5015   2.2796 C.2            1 S1                 0.0000
     26 ****        -5.8580   1.8631   2.9860 O.2            1 S1                 0.0000
     27 ****        -6.0665   1.3963   0.5692 H              1 S1                 0.0000
     28 ****        -2.1784   1.3618   4.4317 H              1 S1                 0.0000
     29 ****        -3.8378   0.9357   4.8440 H              1 S1                 0.0000
     30 ****        -3.4244   2.6083   4.4461 H              1 S1                 0.0000
     31 ****        -1.5945   0.7662   2.2299 H              1 S1                 0.0000
     32 ****        -1.7980   0.9435  -1.2765 H              1 S1                 0.0000
     33 ****        -0.7673  -1.3409   1.4316 H              1 S1                 0.0000
     34 ****         1.4796  -0.6303   1.8490 H              1 S1                 0.0000
     35 ****         1.5480  -2.2489   1.1704 H              1 S1                 0.0000
     36 ****         6.1719  -0.3331  -0.1549 H              1 S1                 0.0000
     37 ****         7.4175   0.5511  -2.0930 H              1 S1                 0.0000
     38 ****         6.2101   1.2303  -4.1585 H              1 S1                 0.0000
     39 ****         3.7339   1.0183  -4.2741 H              1 S1                 0.0000
     40 ****         2.4666   0.1420  -2.3593 H              1 S1                 0.0000
     41 ****        -0.8797  -2.9923  -0.2739 H              1 S1                 0.0000
     42 ****         1.0066  -2.3881  -1.4024 H              1 S1                 0.0000
     43 ****        -2.8227  -1.6986  -0.3447 H              1 S1                 0.0000
     44 ****        -3.1631  -0.8878  -2.4583 H              1 S1                 0.0000
     45 ****        -0.5802   0.8123   0.9613 LP             1 S1                 0.0000
     46 ****         0.1524   0.5810  -0.4797 LP             1 S1                 0.0000
     47 ****         3.5021  -1.4321   1.8863 LP             1 S1                 0.0000
     48 ****         5.0419  -1.0405   1.1968 LP             1 S1                 0.0000
     49 ****         0.3638  -1.0710  -2.0194 LP             1 S1                 0.0000
     50 ****        -0.1940  -2.5491  -2.4327 LP             1 S1                 0.0000
     51 ****        -2.4916  -2.3274  -2.5536 LP             1 S1                 0.0000
     52 ****        -1.6292  -0.9779  -2.8723 LP             1 S1                 0.0000
     53 ****        -3.7647   0.3700  -1.8226 LP             1 S1                 0.0000
     54 ****        -5.3992   0.8259  -1.4754 LP             1 S1                 0.0000
     55 ****        -5.7119   2.0433   3.9588 LP             1 S1                 0.0000
     56 ****        -6.7681   1.9768   2.5876 LP             1 S1                 0.0000
@<TRIPOS>BOND
    1    1    2 1     
    2    1   28 1     
    3    1   29 1     
    4    1   30 1     
    5    2   25 1     
    6    2    3 2     
    7    3    4 1     
    8    3   31 1     
    9    4    5 1     
   10    4   22 1     
   11    5   20 1     
   12    5    6 1     
   13    5   32 1     
   14    6    7 1     
   15    7    8 1     
   16    7   18 1     
   17    7   33 1     
   18    8    9 1     
   19    8   34 1     
   20    8   35 1     
   21    9   10 1     
   22   10   11 2     
   23   10   12 1     
   24   12   17 ar    
   25   12   13 ar    
   26   13   14 ar    
   27   13   36 1     
   28   14   15 ar    
   29   14   37 1     
   30   15   16 ar    
   31   15   38 1     
   32   16   17 ar    
   33   16   39 1     
   34   17   40 1     
   35   18   19 1     
   36   18   20 1     
   37   18   41 1     
   38   19   42 1     
   39   20   21 1     
   40   20   43 1     
   41   21   44 1     
   42   22   23 2     
   43   22   24 1     
   44   24   27 1     
   45   24   25 1     
   46   25   26 2     
   47    6   45 1     
   48    6   46 1     
   49   11   47 1     
   50   11   48 1     
   51   19   49 1     
   52   19   50 1     
   53   21   51 1     
   54   21   52 1     
   55   23   53 1     
   56   23   54 1     
   57   26   55 1     
   58   26   56 1     
@<TRIPOS>SUBSTRUCTURE
      1 S1             1
@<TRIPOS>SET
LONE_PAIRS      STATIC     ATOMS    <user>   **** ""
12 45 46 47 48 49 50 51 52 53 54 55 56
DONOR_HYDROGENS      STATIC     ATOMS    <user>   **** ""
3 42 44 27
ATOM$BLUE        STATIC     ATOMS    COLORGROUP SYSTEM
12 45 46 47 48 49 50 51 52 53 54 55 56
ATOM$RED        STATIC     ATOMS    COLORGROUP SYSTEM
3 42 44 27
