AV-unprocessed.smi:2531|AV-procd|sdf|9966|dock4
  -GOLD-   2272014 03D 1   1.00000     0.00000
 Structure written by MMmdl.
 45 47  0  0  0  0  0  0  0  0  2 V2000
  153.9281  140.9256  157.9757 O   0  0  0  0  0  0  0  0  0  0  0  0
  152.8968  140.5441  158.5312 C   0  0  0  0  0  0  0  0  0  0  0  0
  151.8054  141.5545  158.9416 C   0  0  0  0  0  0  0  0  0  0  0  0
  151.1523  142.2498  157.7254 C   0  0  0  0  0  0  0  0  0  0  0  0
  151.6228  143.7129  157.7303 C   0  0  0  0  0  0  0  0  0  0  0  0
  152.7318  143.7994  158.7786 C   0  0  0  0  0  0  0  0  0  0  0  0
  152.3880  142.7017  159.7838 C   0  0  0  0  0  0  0  0  0  0  0  0
  152.7160  139.2053  158.8901 N   0  0  0  0  0  0  0  0  0  0  0  0
  151.3798  138.6555  159.0666 C   0  0  0  0  0  0  0  0  0  0  0  0
  151.9897  137.3183  158.6336 C   0  0  0  0  0  0  0  0  0  0  0  0
  150.9406  136.4191  157.4040 S   0  0  0  0  0  0  0  0  0  0  0  0
  149.8429  137.3432  157.0761 O   0  0  0  0  0  0  0  0  0  0  0  0
  151.8204  136.0182  156.2939 O   0  0  0  0  0  0  0  0  0  0  0  0
  150.4605  135.1535  158.2988 N   0  5  0  0  0  0  0  0  0  0  0  0
  149.1583  135.1818  158.9483 C   0  0  0  0  0  0  0  0  0  0  0  0
  149.0967  136.2968  160.0207 C   0  0  0  0  0  0  0  0  0  0  0  0
  149.1836  135.8270  161.4705 C   0  0  0  0  0  0  0  0  0  0  0  0
  149.2873  134.4499  161.7726 C   0  0  0  0  0  0  0  0  0  0  0  0
  149.3735  134.0598  163.1222 C   0  0  0  0  0  0  0  0  0  0  0  0
  149.3393  135.0533  164.1191 C   0  0  0  0  0  0  0  0  0  0  0  0
  149.2192  136.3988  163.7193 C   0  0  0  0  0  0  0  0  0  0  0  0
  149.1353  136.7848  162.4282 N   0  0  0  0  0  0  0  0  0  0  0  0
  153.1592  138.1124  158.0355 C   0  0  0  0  0  0  0  0  0  0  0  0
  151.0345  141.0311  159.5085 H   0  0  0  0  0  0  0  0  0  0  0  0
  151.4118  141.7673  156.7818 H   0  0  0  0  0  0  0  0  0  0  0  0
  150.0652  142.2077  157.8009 H   0  0  0  0  0  0  0  0  0  0  0  0
  151.9632  144.0426  156.7482 H   0  0  0  0  0  0  0  0  0  0  0  0
  150.7941  144.3593  158.0222 H   0  0  0  0  0  0  0  0  0  0  0  0
  153.6957  143.5868  158.3146 H   0  0  0  0  0  0  0  0  0  0  0  0
  152.7967  144.7850  159.2403 H   0  0  0  0  0  0  0  0  0  0  0  0
  151.6303  143.0627  160.4804 H   0  0  0  0  0  0  0  0  0  0  0  0
  153.2565  142.4096  160.3762 H   0  0  0  0  0  0  0  0  0  0  0  0
  151.0221  138.6782  160.0961 H   0  0  0  0  0  0  0  0  0  0  0  0
  150.6486  139.0509  158.3582 H   0  0  0  0  0  0  0  0  0  0  0  0
  152.2591  136.6817  159.4777 H   0  0  0  0  0  0  0  0  0  0  0  0
  148.3389  135.3119  158.2405 H   0  0  0  0  0  0  0  0  0  0  0  0
  148.9615  134.2293  159.4410 H   0  0  0  0  0  0  0  0  0  0  0  0
  149.9144  136.9968  159.8455 H   0  0  0  0  0  0  0  0  0  0  0  0
  148.1832  136.8790  159.8922 H   0  0  0  0  0  0  0  0  0  0  0  0
  149.3198  133.7113  160.9851 H   0  0  0  0  0  0  0  0  0  0  0  0
  149.4663  133.0172  163.3875 H   0  0  0  0  0  0  0  0  0  0  0  0
  149.4049  134.7910  165.1644 H   0  0  0  0  0  0  0  0  0  0  0  0
  149.1869  137.1867  164.4571 H   0  0  0  0  0  0  0  0  0  0  0  0
  153.0663  138.3276  156.9708 H   0  0  0  0  0  0  0  0  0  0  0  0
  154.1432  137.7214  158.2950 H   0  0  0  0  0  0  0  0  0  0  0  0
  1  2  2  0  0  0  0
  2  3  1  0  0  0  0
  2  8  1  0  0  0  0
  3  7  1  0  0  0  0
  3  4  1  0  0  0  0
  3 24  1  0  0  0  0
  4  5  1  0  0  0  0
  4 25  1  0  0  0  0
  4 26  1  0  0  0  0
  5  6  1  0  0  0  0
  5 27  1  0  0  0  0
  5 28  1  0  0  0  0
  6  7  1  0  0  0  0
  6 29  1  0  0  0  0
  6 30  1  0  0  0  0
  7 31  1  0  0  0  0
  7 32  1  0  0  0  0
  8 23  1  0  0  0  0
  8  9  1  0  0  0  0
  9 10  1  0  0  0  0
  9 33  1  0  0  0  0
  9 34  1  0  0  0  0
 10 11  1  0  0  0  0
 10 23  1  0  0  0  0
 10 35  1  0  0  0  0
 11 12  2  0  0  0  0
 11 13  2  0  0  0  0
 11 14  1  0  0  0  0
 14 15  1  0  0  0  0
 15 16  1  0  0  0  0
 15 36  1  0  0  0  0
 15 37  1  0  0  0  0
 16 17  1  0  0  0  0
 16 38  1  0  0  0  0
 16 39  1  0  0  0  0
 17 22  1  0  0  0  0
 17 18  2  0  0  0  0
 18 19  1  0  0  0  0
 18 40  1  0  0  0  0
 19 20  2  0  0  0  0
 19 41  1  0  0  0  0
 20 21  1  0  0  0  0
 20 42  1  0  0  0  0
 21 22  2  0  0  0  0
 21 43  1  0  0  0  0
 23 44  1  0  0  0  0
 23 45  1  0  0  0  0
M  CHG  1  14  -1
M  END
> <s_m_source_file>
AV-unprocessed.smi

> <i_m_source_file_index>
2531

> <i_lp_mmshare_version>
43012

> <i_f3d_flags>
0

> <s_epik_input>
W0NIMl0xW0NIMl1bQ0gyXVtDSDJdW0NIXTFDKD1PKU4yW0NIMl1bQ0hdKFtDSDJdMilTKD1PKSg9TylbTkhdW0NIMl1bQ0gyXWMzW2NIXVtjSF1bY0hdW2NIXW4z

> <s_epik_cmdline>
J2VwaWtfcHl0aG9uJywgJy1waCcsICc3LjAnLCAnLXRuJywgJzgnLCAnLW1hJywgJzIwMCcsICctbWV0YWxfYmluZGluZycsICctaW1hZScsICc8aW5maWxlLm1hZT4nLCAnLW9tYWUnLCAnPG91dGZpbGUubWFlPic=

> <r_epik_Ionization_Penalty>
5.87379

> <r_epik_Ionization_Penalty_Charging>
5.8024

> <r_epik_Ionization_Penalty_Neutral>
0.0713848

> <r_epik_State_Penalty>
5.81862

> <r_epik_Charging_Adjusted_Penalty>
11.621

> <i_epik_Tot_Q>
-1

> <i_epik_Tot_abs_Q>
1

> <r_epik_Metal_State_Penalty>
1.80653

> <b_epik_Metal_Only>
1

> <s_lp_Force_Field>
OPLS_2005

> <r_lp_Energy>
33.3625

> <b_lp_Chiralities_Consistent>
1

> <s_lp_Variant>
AV-unprocessed.smi:2531-3

> <Gold.Version>
5.8.1

> <Gold.Id.Protein>
6NUR|6NUR_protein|mol2

> <Gold.PLP.Fitness>
57.2622

> <Gold.PLP.PLP>
-43.2072

> <Gold.PLP.part.hbond>
-5.0000

> <Gold.PLP.part.metal>
0.0000

> <Gold.PLP.part.buried>
-2.3688

> <Gold.PLP.part.nonpolar>
-36.5815

> <Gold.PLP.part.repulsive>
0.0000

> <Gold.PLP.ligand.clash>
0.0000

> <Gold.PLP.ligand.torsion>
1.9321

> <Gold.PLP.Chemscore.Hbond>
5.1291

> <Gold.PLP.Chemscore.CHOScore>
0.0000

> <Gold.PLP.Chemscore.Metal>
0.0000

> <Gold.Chemscore.Hbonds>
donor molecule, donor type, donor heavy atom, donor atom, acceptor molecule, acceptor atom, score
      P1  H  6931  6943       L1    22  0.92
      P1  H  7997  8009       L1     1  0.20
      P1  H 10752 10763       L1    13  1.00

> <Gold.PLP.Chemscore.Internal.Correction>
2.5317

> <Gold.Rescore>
     Score         DG    S(hbond)    S(metal)    S(lipo)     H(rot)  DE(clash)    DE(int)     intcor
     22.28     -25.09       3.25        0.00     110.15       1.61       0.21       2.60       ----

> <Gold.Chemscore.Fitness>
22.2782

> <Gold.Chemscore.DG>
-25.0938

> <Gold.Chemscore.ZeroCoef>
-5.4800

> <Gold.Chemscore.Hbond>
3.2487

> <Gold.Chemscore.Metal>
0.0000

> <Gold.Chemscore.Lipo>
110.1479

> <Gold.Chemscore.Internal_Hbond>
0.0000

> <Gold.Chemscore.DEClash>
0.2122

> <Gold.Chemscore.DEInternal>
2.6034

> <Gold.Chemscore.Rot>
1.6110

> <Gold.Chemscore.Internal.Correction>
   9.000000E+99

> <Gold.Chemscore.Hbonds>
donor molecule, donor type, donor heavy atom, donor atom, acceptor molecule, acceptor atom, score
      P1  H  6931  6943       L1    22  0.78
      P1  H  7997  8009       L1     1  0.19
      P1  H 10752 10763       L1    13  1.00

> <Gold.Chemscore.Hbond.Weighted>
-10.8508

> <Gold.Chemscore.Metal.Weighted>
-0.0000

> <Gold.Chemscore.Lipo.Weighted>
-12.8873

> <Gold.Chemscore.Internal_Hbond.Weighted>
0.0000

> <Gold.Chemscore.DEClash.Weighted>
0.2122

> <Gold.Chemscore.DEInternal.Weighted>
2.6034

> <Gold.Chemscore.Rot.Weighted>
4.1243

> <Gold.Chemscore.Internal.Correction.Weighted>
   9.000000E+99

> <Gold.Protein.RotatedTorsions>
[ 6907 6896 6895 6894 ] final  162.10 input  -60.11 | X-H torsion
[ 7974 7965 7964 7962 ] final   39.37 input  175.53 | X-H torsion
[ 8008 7997 7996 7995 ] final  131.53 input   59.86 | X-H torsion
[ 10167 10162 10161 10158 ] final  138.24 input  -65.29 | X-H torsion
[ 10718 10713 10712 10709 ] final -127.07 input   66.30 | X-H torsion
[ 10763 10752 10751 10750 ] final   92.37 input  -60.55 | X-H torsion
[ 11005 11000 10999 10996 ] final -175.06 input  -57.11 | X-H torsion

> <Gold.Protein.ActiveResidues>
 VAL166  LYS551  ARG553  GLY616  TRP617  ASP618  TYR619  PRO620  LYS621  CYS622 
 ASP623  PHE694  ASN695  SER759  ASP760  ASP761  ALA762  ILE779  LEU786  VAL792 
 PHE793  MET794  SER795  GLU796  ALA797  LYS798  CYS799  TRP800  GLU811  SER814 

> <Gold.Protein.RotatedAtoms>
  151.9456  133.3650  159.3980 H   0  0  0  0  0  0  0  0  0  0  0  0  # atno 6907 bound_to 6896
  150.6990  134.4394  159.5294 H   0  0  0  0  0  0  0  0  0  0  0  0  # atno 6908 bound_to 6896
  152.2058  134.8546  160.0553 H   0  0  0  0  0  0  0  0  0  0  0  0  # atno 6909 bound_to 6896
  146.0989  139.5659  142.9427 H   0  0  0  0  0  0  0  0  0  0  0  0  # atno 7974 bound_to 7965
  156.2971  140.2569  156.2941 H   0  0  0  0  0  0  0  0  0  0  0  0  # atno 8008 bound_to 7997
  154.9481  140.0395  157.2149 H   0  0  0  0  0  0  0  0  0  0  0  0  # atno 8009 bound_to 7997
  154.8062  140.2836  155.5890 H   0  0  0  0  0  0  0  0  0  0  0  0  # atno 8010 bound_to 7997
  139.5117  144.6364  151.5684 H   0  0  0  0  0  0  0  0  0  0  0  0  # atno 10167 bound_to 10162
  156.1823  130.6740  151.0320 H   0  0  0  0  0  0  0  0  0  0  0  0  # atno 10718 bound_to 10713
  153.2184  135.4364  155.0461 H   0  0  0  0  0  0  0  0  0  0  0  0  # atno 10763 bound_to 10752
  154.8237  135.3350  154.6964 H   0  0  0  0  0  0  0  0  0  0  0  0  # atno 10764 bound_to 10752
  153.7397  135.7005  153.5025 H   0  0  0  0  0  0  0  0  0  0  0  0  # atno 10765 bound_to 10752
  140.4675  134.6196  157.4868 H   0  0  0  0  0  0  0  0  0  0  0  0  # atno 11005 bound_to 11000
  145.5893  141.0372  143.2079 LP  0  0  0  0  0  0  0  0  0  0  0  0  # atno 17320 bound_to 7965
  144.7417  139.7430  143.7308 LP  0  0  0  0  0  0  0  0  0  0  0  0  # atno 17321 bound_to 7965
  140.6115  143.9427  150.6457 LP  0  0  0  0  0  0  0  0  0  0  0  0  # atno 17342 bound_to 10162
  140.2671  143.3482  152.1271 LP  0  0  0  0  0  0  0  0  0  0  0  0  # atno 17343 bound_to 10162
  157.6876  131.0820  150.7199 LP  0  0  0  0  0  0  0  0  0  0  0  0  # atno 17370 bound_to 10713
  156.7256  130.4694  149.5512 LP  0  0  0  0  0  0  0  0  0  0  0  0  # atno 17371 bound_to 10713
  139.9906  134.6991  155.9696 LP  0  0  0  0  0  0  0  0  0  0  0  0  # atno 17394 bound_to 11000
  141.1592  133.6540  156.4263 LP  0  0  0  0  0  0  0  0  0  0  0  0  # atno 17395 bound_to 11000

$$$$
