AV-unprocessed.smi:3252|AV-procd|sdf|12440|dock6
  -GOLD-   2272018333D 1   1.00000     0.00000
 Structure written by MMmdl.
 37 38  0  0  0  0  0  0  0  0  2 V2000
  143.4775  132.8307  148.0581 C   0  0  0  0  0  0  0  0  0  0  0  0
  143.9834  134.1141  148.7310 C   0  0  0  0  0  0  0  0  0  0  0  0
  143.7031  134.1368  150.1913 N   0  3  2  0  0  0  0  0  0  0  0  0
  144.1373  135.3883  150.8578 C   0  0  0  0  0  0  0  0  0  0  0  0
  145.6561  135.3879  151.1017 C   0  0  0  0  0  0  0  0  0  0  0  0
  146.0049  134.2424  151.8673 O   0  0  0  0  0  0  0  0  0  0  0  0
  145.7182  133.0208  151.1936 C   0  0  1  0  0  0  0  0  0  0  0  0
  146.1934  131.8454  152.0661 C   0  0  0  0  0  0  0  0  0  0  0  0
  147.6229  131.9008  152.3504 N   0  0  0  0  0  0  0  0  0  0  0  0
  148.1289  132.5807  153.4682 C   0  0  0  0  0  0  0  0  0  0  0  0
  149.4927  132.4207  153.7923 C   0  0  0  0  0  0  0  0  0  0  0  0
  150.0101  133.0992  154.9133 C   0  0  0  0  0  0  0  0  0  0  0  0
  149.1458  133.9137  155.6711 C   0  0  0  0  0  0  0  0  0  0  0  0
  149.6311  134.6356  156.8346 C   0  0  0  0  0  0  0  0  0  0  0  0
  150.0178  135.2105  157.7612 N   0  0  0  0  0  0  0  0  0  0  0  0
  147.7976  134.0101  155.2720 C   0  0  0  0  0  0  0  0  0  0  0  0
  147.2968  133.3606  154.1990 N   0  0  0  0  0  0  0  0  0  0  0  0
  144.1953  132.9516  150.9409 C   0  0  0  0  0  0  0  0  0  0  0  0
  143.6083  132.8883  146.9772 H   0  0  0  0  0  0  0  0  0  0  0  0
  142.4159  132.6757  148.2533 H   0  0  0  0  0  0  0  0  0  0  0  0
  144.0162  131.9478  148.4010 H   0  0  0  0  0  0  0  0  0  0  0  0
  145.0459  134.2544  148.5335 H   0  0  0  0  0  0  0  0  0  0  0  0
  143.4729  134.9546  148.2594 H   0  0  0  0  0  0  0  0  0  0  0  0
  143.8359  136.2616  150.2786 H   0  0  0  0  0  0  0  0  0  0  0  0
  143.6203  135.4635  151.8153 H   0  0  0  0  0  0  0  0  0  0  0  0
  146.2119  135.4021  150.1631 H   0  0  0  0  0  0  0  0  0  0  0  0
  145.9463  136.2811  151.6551 H   0  0  0  0  0  0  0  0  0  0  0  0
  146.2551  132.9902  150.2441 H   0  0  0  0  0  0  0  0  0  0  0  0
  145.6085  131.7782  152.9839 H   0  0  0  0  0  0  0  0  0  0  0  0
  146.0182  130.9117  151.5311 H   0  0  0  0  0  0  0  0  0  0  0  0
  148.2658  131.5596  151.6502 H   0  0  0  0  0  0  0  0  0  0  0  0
  150.1357  131.7908  153.1948 H   0  0  0  0  0  0  0  0  0  0  0  0
  151.0516  132.9930  155.1811 H   0  0  0  0  0  0  0  0  0  0  0  0
  147.0983  134.6226  155.8229 H   0  0  0  0  0  0  0  0  0  0  0  0
  143.6740  132.9221  151.8990 H   0  0  0  0  0  0  0  0  0  0  0  0
  143.9312  132.0279  150.4277 H   0  0  0  0  0  0  0  0  0  0  0  0
  142.6956  134.1241  150.2635 H   0  0  0  0  0  0  0  0  0  0  0  0
  1  2  1  0  0  0  0
  1 19  1  0  0  0  0
  1 20  1  0  0  0  0
  1 21  1  0  0  0  0
  2  3  1  0  0  0  0
  2 22  1  0  0  0  0
  2 23  1  0  0  0  0
  3 18  1  0  0  0  0
  3  4  1  0  0  0  0
  3 37  1  0  0  0  0
  4  5  1  0  0  0  0
  4 24  1  0  0  0  0
  4 25  1  0  0  0  0
  5  6  1  0  0  0  0
  5 26  1  0  0  0  0
  5 27  1  0  0  0  0
  6  7  1  0  0  0  0
  7  8  1  0  0  0  0
  7 18  1  0  0  0  0
  7 28  1  0  0  0  0
  8  9  1  0  0  0  0
  8 29  1  0  0  0  0
  8 30  1  0  0  0  0
  9 10  1  0  0  0  0
  9 31  1  0  0  0  0
 10 17  1  0  0  0  0
 10 11  2  0  0  0  0
 11 12  1  0  0  0  0
 11 32  1  0  0  0  0
 12 13  2  0  0  0  0
 12 33  1  0  0  0  0
 13 14  1  0  0  0  0
 13 16  1  0  0  0  0
 14 15  3  0  0  0  0
 16 17  2  0  0  0  0
 16 34  1  0  0  0  0
 18 35  1  0  0  0  0
 18 36  1  0  0  0  0
M  CHG  1   3   1
M  END
> <s_m_source_file>
AV-unprocessed.smi

> <i_m_source_file_index>
3252

> <i_lp_mmshare_version>
43012

> <i_f3d_flags>
0

> <s_epik_input>
W0NIM11bQ0gyXU4xW0NIMl1bQ0gyXU9bQ0BIXShbQ0gyXTEpW0NIMl1bTkhdYzJbY0hdW2NIXWMoQyNOKVtjSF1uMg==

> <s_epik_cmdline>
J2VwaWtfcHl0aG9uJywgJy1waCcsICc3LjAnLCAnLXRuJywgJzgnLCAnLW1hJywgJzIwMCcsICctbWV0YWxfYmluZGluZycsICctaW1hZScsICc8aW5maWxlLm1hZT4nLCAnLW9tYWUnLCAnPG91dGZpbGUubWFlPic=

> <r_epik_Ionization_Penalty>
0.178512

> <r_epik_Ionization_Penalty_Charging>
0.178504

> <r_epik_Ionization_Penalty_Neutral>
8.15545e-06

> <r_epik_State_Penalty>
0.167974

> <r_epik_Charging_Adjusted_Penalty>
0.346478

> <i_epik_Tot_Q>
1

> <i_epik_Tot_abs_Q>
1

> <r_epik_Metal_State_Penalty>
0.167974

> <b_epik_Metal_Only>
0

> <s_lp_Force_Field>
OPLS_2005

> <r_lp_Energy>
19.5584

> <b_lp_Chiralities_Consistent>
1

> <s_lp_Variant>
AV-unprocessed.smi:3252-2

> <Gold.Version>
5.8.1

> <Gold.Id.Protein>
6NUR|6NUR_protein|mol2

> <Gold.PLP.Fitness>
39.9964

> <Gold.PLP.PLP>
-28.9198

> <Gold.PLP.part.hbond>
-3.0000

> <Gold.PLP.part.metal>
0.0000

> <Gold.PLP.part.buried>
0.4991

> <Gold.PLP.part.nonpolar>
-26.7767

> <Gold.PLP.part.repulsive>
0.1987

> <Gold.PLP.ligand.clash>
0.0000

> <Gold.PLP.ligand.torsion>
0.2196

> <Gold.PLP.Chemscore.Hbond>
3.8320

> <Gold.PLP.Chemscore.CHOScore>
0.0000

> <Gold.PLP.Chemscore.Metal>
0.0000

> <Gold.Chemscore.Hbonds>
donor molecule, donor type, donor heavy atom, donor atom, acceptor molecule, acceptor atom, score
      L1  H     3    37       P1 10186  2.00
      L1  H     9    31       P1 10747  1.00
      P1  H  6896  6908       L1    15  0.83

> <Gold.PLP.Chemscore.Internal.Correction>
0.0198

> <Gold.Rescore>
     Score         DG    S(hbond)    S(metal)    S(lipo)     H(rot)  DE(clash)    DE(int)     intcor
     18.08     -20.90       2.95        0.00      79.61       1.47       2.51       0.31       ----

> <Gold.Chemscore.Fitness>
18.0791

> <Gold.Chemscore.DG>
-20.8961

> <Gold.Chemscore.ZeroCoef>
-5.4800

> <Gold.Chemscore.Hbond>
2.9521

> <Gold.Chemscore.Metal>
0.0000

> <Gold.Chemscore.Lipo>
79.6105

> <Gold.Chemscore.Internal_Hbond>
0.0000

> <Gold.Chemscore.DEClash>
2.5082

> <Gold.Chemscore.DEInternal>
0.3088

> <Gold.Chemscore.Rot>
1.4681

> <Gold.Chemscore.Internal.Correction>
   9.000000E+99

> <Gold.Chemscore.Hbonds>
donor molecule, donor type, donor heavy atom, donor atom, acceptor molecule, acceptor atom, score
      L1  H     3    37       P1 10186  0.88
      L1  H     9    31       P1 10747  1.00
      P1  H  6896  6908       L1    15  0.80

> <Gold.Chemscore.Hbond.Weighted>
-9.8600

> <Gold.Chemscore.Metal.Weighted>
-0.0000

> <Gold.Chemscore.Lipo.Weighted>
-9.3144

> <Gold.Chemscore.Internal_Hbond.Weighted>
0.0000

> <Gold.Chemscore.DEClash.Weighted>
2.5082

> <Gold.Chemscore.DEInternal.Weighted>
0.3088

> <Gold.Chemscore.Rot.Weighted>
3.7584

> <Gold.Chemscore.Internal.Correction.Weighted>
   9.000000E+99

> <Gold.Protein.RotatedTorsions>
[ 6907 6896 6895 6894 ] final  161.63 input  -60.11 | X-H torsion
[ 7974 7965 7964 7962 ] final   29.55 input  175.53 | X-H torsion
[ 8008 7997 7996 7995 ] final -164.92 input   59.86 | X-H torsion
[ 10167 10162 10161 10158 ] final  126.50 input  -65.29 | X-H torsion
[ 10718 10713 10712 10709 ] final  139.21 input   66.30 | X-H torsion
[ 10763 10752 10751 10750 ] final -155.40 input  -60.55 | X-H torsion
[ 11005 11000 10999 10996 ] final   54.89 input  -57.11 | X-H torsion

> <Gold.Protein.ActiveResidues>
 VAL166  LYS551  ARG553  GLY616  TRP617  ASP618  TYR619  PRO620  LYS621  CYS622 
 ASP623  PHE694  ASN695  SER759  ASP760  ASP761  ALA762  ILE779  LEU786  VAL792 
 PHE793  MET794  SER795  GLU796  ALA797  LYS798  CYS799  TRP800  GLU811  SER814 

> <Gold.Protein.RotatedAtoms>
  151.9528  133.3671  159.4005 H   0  0  0  0  0  0  0  0  0  0  0  0  # atno 6907 bound_to 6896
  150.6978  134.4323  159.5263 H   0  0  0  0  0  0  0  0  0  0  0  0  # atno 6908 bound_to 6896
  152.1998  134.8597  160.0560 H   0  0  0  0  0  0  0  0  0  0  0  0  # atno 6909 bound_to 6896
  146.1664  139.6906  142.8998 H   0  0  0  0  0  0  0  0  0  0  0  0  # atno 7974 bound_to 7965
  155.8425  140.0950  157.1725 H   0  0  0  0  0  0  0  0  0  0  0  0  # atno 8008 bound_to 7997
  154.3982  140.1398  156.3807 H   0  0  0  0  0  0  0  0  0  0  0  0  # atno 8009 bound_to 7997
  155.8049  140.3451  155.5426 H   0  0  0  0  0  0  0  0  0  0  0  0  # atno 8010 bound_to 7997
  139.5628  144.6892  151.3995 H   0  0  0  0  0  0  0  0  0  0  0  0  # atno 10167 bound_to 10162
  157.4169  131.1034  151.0395 H   0  0  0  0  0  0  0  0  0  0  0  0  # atno 10718 bound_to 10713
  154.7789  135.3168  154.8031 H   0  0  0  0  0  0  0  0  0  0  0  0  # atno 10763 bound_to 10752
  153.8748  135.6841  153.4776 H   0  0  0  0  0  0  0  0  0  0  0  0  # atno 10764 bound_to 10752
  153.1420  135.4735  154.9447 H   0  0  0  0  0  0  0  0  0  0  0  0  # atno 10765 bound_to 10752
  140.0651  134.5548  155.9109 H   0  0  0  0  0  0  0  0  0  0  0  0  # atno 11005 bound_to 11000
  145.4455  141.0425  143.2834 LP  0  0  0  0  0  0  0  0  0  0  0  0  # atno 17320 bound_to 7965
  144.8099  139.5981  143.7034 LP  0  0  0  0  0  0  0  0  0  0  0  0  # atno 17321 bound_to 7965
  140.6909  143.7864  150.7254 LP  0  0  0  0  0  0  0  0  0  0  0  0  # atno 17342 bound_to 10162
  140.1346  143.4495  152.2233 LP  0  0  0  0  0  0  0  0  0  0  0  0  # atno 17343 bound_to 10162
  157.1339  130.6114  149.5537 LP  0  0  0  0  0  0  0  0  0  0  0  0  # atno 17370 bound_to 10713
  155.9868  130.4904  150.7096 LP  0  0  0  0  0  0  0  0  0  0  0  0  # atno 17371 bound_to 10713
  141.1989  133.6604  156.5817 LP  0  0  0  0  0  0  0  0  0  0  0  0  # atno 17394 bound_to 11000
  140.3712  134.7604  157.4599 LP  0  0  0  0  0  0  0  0  0  0  0  0  # atno 17395 bound_to 11000

$$$$
