AV-unprocessed.smi:314|AV-procd|sdf|2314|dock5
  -GOLD-   2262022213D 1   1.00000     0.00000
 Structure written by MMmdl.
 48 49  0  0  0  0  0  0  0  0  1 V2000
  143.2248  132.3808  150.3789 C   0  0  0  0  0  0  0  0  0  0  0  0
  142.9429  133.3063  151.4231 O   0  0  0  0  0  0  0  0  0  0  0  0
  143.7993  134.3735  151.6011 C   0  0  0  0  0  0  0  0  0  0  0  0
  143.7145  135.1134  152.7974 C   0  0  0  0  0  0  0  0  0  0  0  0
  144.5893  136.1996  152.9900 C   0  0  0  0  0  0  0  0  0  0  0  0
  145.5289  136.5077  151.9780 C   0  0  0  0  0  0  0  0  0  0  0  0
  146.4475  137.5884  152.0500 N   0  0  0  0  0  0  0  0  0  0  0  0
  146.4841  138.5859  152.9493 C   0  0  0  0  0  0  0  0  0  0  0  0
  145.7165  138.7110  153.9036 O   0  0  0  0  0  0  0  0  0  0  0  0
  147.4931  139.4315  152.6957 N   0  0  0  0  0  0  0  0  0  0  0  0
  147.8281  140.5973  153.5054 C   0  0  0  0  0  0  0  0  0  0  0  0
  148.6179  140.1944  154.7670 C   0  0  0  0  0  0  0  0  0  0  0  0
  149.8514  139.3220  154.4785 C   0  0  0  0  0  0  0  0  0  0  0  0
  149.7306  138.3381  153.7469 O   0  0  0  0  0  0  0  0  0  0  0  0
  151.0385  139.6669  155.0325 N   0  0  0  0  0  0  0  0  0  0  0  0
  152.3033  138.9384  154.8944 C   0  0  0  0  0  0  0  0  0  0  0  0
  152.7146  138.3709  156.2693 C   0  0  2  0  0  0  0  0  0  0  0  0
  151.8374  137.2004  156.7490 C   0  0  0  0  0  0  0  0  0  0  0  0
  152.7560  139.4257  157.2360 O   0  0  0  0  0  0  0  0  0  0  0  0
  151.5665  140.2115  157.3474 C   0  0  1  0  0  0  0  0  0  0  0  0
  151.8231  141.3145  158.3801 C   0  0  0  0  0  0  0  0  0  0  0  0
  151.1969  140.7842  155.9652 C   0  0  0  0  0  0  0  0  0  0  0  0
  145.5199  135.7181  150.8099 C   0  0  0  0  0  0  0  0  0  0  0  0
  144.6866  134.6736  150.6204 N   0  0  0  0  0  0  0  0  0  0  0  0
  142.4662  131.5982  150.3757 H   0  0  0  0  0  0  0  0  0  0  0  0
  144.1940  131.9009  150.5224 H   0  0  0  0  0  0  0  0  0  0  0  0
  143.2054  132.8641  149.4011 H   0  0  0  0  0  0  0  0  0  0  0  0
  142.9884  134.8544  153.5538 H   0  0  0  0  0  0  0  0  0  0  0  0
  144.5144  136.7796  153.8968 H   0  0  0  0  0  0  0  0  0  0  0  0
  147.2020  137.5628  151.3799 H   0  0  0  0  0  0  0  0  0  0  0  0
  148.0762  139.2522  151.8914 H   0  0  0  0  0  0  0  0  0  0  0  0
  148.4226  141.2730  152.8895 H   0  0  0  0  0  0  0  0  0  0  0  0
  146.9166  141.1366  153.7709 H   0  0  0  0  0  0  0  0  0  0  0  0
  148.9497  141.0954  155.2845 H   0  0  0  0  0  0  0  0  0  0  0  0
  147.9565  139.6551  155.4462 H   0  0  0  0  0  0  0  0  0  0  0  0
  152.2773  138.1391  154.1554 H   0  0  0  0  0  0  0  0  0  0  0  0
  153.0679  139.6319  154.5415 H   0  0  0  0  0  0  0  0  0  0  0  0
  153.7339  137.9935  156.1846 H   0  0  0  0  0  0  0  0  0  0  0  0
  151.8939  136.3643  156.0516 H   0  0  0  0  0  0  0  0  0  0  0  0
  150.7872  137.4766  156.8383 H   0  0  0  0  0  0  0  0  0  0  0  0
  152.1708  136.8402  157.7223 H   0  0  0  0  0  0  0  0  0  0  0  0
  150.7510  139.5874  157.7140 H   0  0  0  0  0  0  0  0  0  0  0  0
  150.9389  141.9373  158.5173 H   0  0  0  0  0  0  0  0  0  0  0  0
  152.6446  141.9615  158.0713 H   0  0  0  0  0  0  0  0  0  0  0  0
  152.0815  140.8873  159.3493 H   0  0  0  0  0  0  0  0  0  0  0  0
  151.9839  141.4481  155.6041 H   0  0  0  0  0  0  0  0  0  0  0  0
  150.2988  141.3980  156.0451 H   0  0  0  0  0  0  0  0  0  0  0  0
  146.2080  135.9243  150.0030 H   0  0  0  0  0  0  0  0  0  0  0  0
  1  2  1  0  0  0  0
  1 25  1  0  0  0  0
  1 26  1  0  0  0  0
  1 27  1  0  0  0  0
  2  3  1  0  0  0  0
  3 24  1  0  0  0  0
  3  4  2  0  0  0  0
  4  5  1  0  0  0  0
  4 28  1  0  0  0  0
  5  6  2  0  0  0  0
  5 29  1  0  0  0  0
  6  7  1  0  0  0  0
  6 23  1  0  0  0  0
  7  8  1  0  0  0  0
  7 30  1  0  0  0  0
  8  9  2  0  0  0  0
  8 10  1  0  0  0  0
 10 11  1  0  0  0  0
 10 31  1  0  0  0  0
 11 12  1  0  0  0  0
 11 32  1  0  0  0  0
 11 33  1  0  0  0  0
 12 13  1  0  0  0  0
 12 34  1  0  0  0  0
 12 35  1  0  0  0  0
 13 14  2  0  0  0  0
 13 15  1  0  0  0  0
 15 22  1  0  0  0  0
 15 16  1  0  0  0  0
 16 17  1  0  0  0  0
 16 36  1  0  0  0  0
 16 37  1  0  0  0  0
 17 18  1  0  0  0  0
 17 19  1  0  0  0  0
 17 38  1  0  0  0  0
 18 39  1  0  0  0  0
 18 40  1  0  0  0  0
 18 41  1  0  0  0  0
 19 20  1  0  0  0  0
 20 21  1  0  0  0  0
 20 22  1  0  0  0  0
 20 42  1  0  0  0  0
 21 43  1  0  0  0  0
 21 44  1  0  0  0  0
 21 45  1  0  0  0  0
 22 46  1  0  0  0  0
 22 47  1  0  0  0  0
 23 24  2  0  0  0  0
 23 48  1  0  0  0  0
M  END
> <s_m_source_file>
AV-unprocessed.smi

> <i_m_source_file_index>
314

> <i_lp_mmshare_version>
43012

> <i_f3d_flags>
0

> <s_epik_input>
W0NIM11PYzFbY0hdW2NIXWMoW2NIXW4xKVtOSF1DKD1PKVtOSF1bQ0gyXVtDSDJdQyg9TylOMltDSDJdW0NAQEhdKFtDSDNdKU9bQ0BASF0oW0NIM10pW0NIMl0y

> <s_epik_cmdline>
J2VwaWtfcHl0aG9uJywgJy1waCcsICc3LjAnLCAnLXRuJywgJzgnLCAnLW1hJywgJzIwMCcsICctbWV0YWxfYmluZGluZycsICctaW1hZScsICc8aW5maWxlLm1hZT4nLCAnLW9tYWUnLCAnPG91dGZpbGUubWFlPic=

> <r_lp_tautomer_probability>
1

> <r_epik_Ionization_Penalty>
8.55977e-05

> <r_epik_Ionization_Penalty_Charging>
0

> <r_epik_Ionization_Penalty_Neutral>
8.55977e-05

> <r_epik_State_Penalty>
-0

> <r_epik_Charging_Adjusted_Penalty>
0

> <i_epik_Tot_Q>
0

> <i_epik_Tot_abs_Q>
0

> <r_epik_Metal_State_Penalty>
-0

> <b_epik_Metal_Only>
0

> <s_lp_Force_Field>
OPLS_2005

> <r_lp_Energy>
25.8744

> <b_lp_Chiralities_Consistent>
1

> <s_lp_Variant>
AV-unprocessed.smi:314-2

> <Gold.Version>
5.8.1

> <Gold.Id.Protein>
6NUR|6NUR_protein|mol2

> <Gold.PLP.Fitness>
44.9782

> <Gold.PLP.PLP>
-38.2037

> <Gold.PLP.part.hbond>
-3.0000

> <Gold.PLP.part.metal>
0.0000

> <Gold.PLP.part.buried>
-4.9445

> <Gold.PLP.part.nonpolar>
-33.7457

> <Gold.PLP.part.repulsive>
2.3711

> <Gold.PLP.ligand.clash>
0.0000

> <Gold.PLP.ligand.torsion>
0.4639

> <Gold.PLP.Chemscore.Hbond>
1.7615

> <Gold.PLP.Chemscore.CHOScore>
0.7975

> <Gold.PLP.Chemscore.Metal>
0.0000

> <Gold.Chemscore.Hbonds>
donor molecule, donor type, donor heavy atom, donor atom, acceptor molecule, acceptor atom, score
      L1  H     7    30       P1  7948  0.20
      L1  H    10    31       P1  7957  0.74
      P1  H  7997  8010       L1    19  0.60
      L1  C    23    48       P1  7921  0.77

> <Gold.PLP.Chemscore.Internal.Correction>
0.0254

> <Gold.Rescore>
     Score         DG    S(hbond)    S(metal)    S(lipo)     H(rot)  DE(clash)    DE(int)     intcor
     10.92     -14.26       1.26        0.00      78.55       1.81       0.19       3.16       ----

> <Gold.Chemscore.Fitness>
10.9152

> <Gold.Chemscore.DG>
-14.2641

> <Gold.Chemscore.ZeroCoef>
-5.4800

> <Gold.Chemscore.Hbond>
1.2631

> <Gold.Chemscore.Metal>
0.0000

> <Gold.Chemscore.Lipo>
78.5512

> <Gold.Chemscore.Internal_Hbond>
0.0000

> <Gold.Chemscore.DEClash>
0.1851

> <Gold.Chemscore.DEInternal>
3.1638

> <Gold.Chemscore.Rot>
1.8067

> <Gold.Chemscore.Internal.Correction>
   9.000000E+99

> <Gold.Chemscore.Hbonds>
donor molecule, donor type, donor heavy atom, donor atom, acceptor molecule, acceptor atom, score
      L1  H     7    30       P1  7948  0.21
      L1  H    10    31       P1  7957  0.74
      P1  H  7997  8010       L1    19  0.20

> <Gold.Chemscore.Hbond.Weighted>
-4.2188

> <Gold.Chemscore.Metal.Weighted>
-0.0000

> <Gold.Chemscore.Lipo.Weighted>
-9.1905

> <Gold.Chemscore.Internal_Hbond.Weighted>
0.0000

> <Gold.Chemscore.DEClash.Weighted>
0.1851

> <Gold.Chemscore.DEInternal.Weighted>
3.1638

> <Gold.Chemscore.Rot.Weighted>
4.6252

> <Gold.Chemscore.Internal.Correction.Weighted>
   9.000000E+99

> <Gold.Protein.RotatedTorsions>
[ 6907 6896 6895 6894 ] final -102.77 input  -60.11 | X-H torsion
[ 7974 7965 7964 7962 ] final -134.15 input  175.53 | X-H torsion
[ 8008 7997 7996 7995 ] final   21.89 input   59.86 | X-H torsion
[ 10167 10162 10161 10158 ] final   58.45 input  -65.29 | X-H torsion
[ 10718 10713 10712 10709 ] final    1.75 input   66.30 | X-H torsion
[ 10763 10752 10751 10750 ] final -132.54 input  -60.55 | X-H torsion
[ 11005 11000 10999 10996 ] final   -7.25 input  -57.11 | X-H torsion

> <Gold.Protein.ActiveResidues>
 VAL166  LYS551  ARG553  GLY616  TRP617  ASP618  TYR619  PRO620  LYS621  CYS622 
 ASP623  PHE694  ASN695  SER759  ASP760  ASP761  ALA762  ILE779  LEU786  VAL792 
 PHE793  MET794  SER795  GLU796  ALA797  LYS798  CYS799  TRP800  GLU811  SER814 

> <Gold.Protein.RotatedAtoms>
  150.7211  134.0530  159.3804 H   0  0  0  0  0  0  0  0  0  0  0  0  # atno 6907 bound_to 6896
  151.8508  135.0556  160.0468 H   0  0  0  0  0  0  0  0  0  0  0  0  # atno 6908 bound_to 6896
  152.2792  133.5418  159.5523 H   0  0  0  0  0  0  0  0  0  0  0  0  # atno 6909 bound_to 6896
  144.9129  140.6918  143.5014 H   0  0  0  0  0  0  0  0  0  0  0  0  # atno 7974 bound_to 7965
  154.9574  140.3073  155.5047 H   0  0  0  0  0  0  0  0  0  0  0  0  # atno 8008 bound_to 7997
  156.2981  140.2307  156.4594 H   0  0  0  0  0  0  0  0  0  0  0  0  # atno 8009 bound_to 7997
  154.7997  140.0435  157.1252 H   0  0  0  0  0  0  0  0  0  0  0  0  # atno 8010 bound_to 7997
  140.1871  144.4123  150.6588 H   0  0  0  0  0  0  0  0  0  0  0  0  # atno 10167 bound_to 10162
  156.8529  130.5560  149.5668 H   0  0  0  0  0  0  0  0  0  0  0  0  # atno 10718 bound_to 10713
  154.8742  135.3794  154.4426 H   0  0  0  0  0  0  0  0  0  0  0  0  # atno 10763 bound_to 10752
  153.5110  135.7029  153.5786 H   0  0  0  0  0  0  0  0  0  0  0  0  # atno 10764 bound_to 10752
  153.4075  135.3933  155.1995 H   0  0  0  0  0  0  0  0  0  0  0  0  # atno 10765 bound_to 10752
  140.7107  133.8911  155.8749 H   0  0  0  0  0  0  0  0  0  0  0  0  # atno 11005 bound_to 11000
  145.3424  139.1728  143.4478 LP  0  0  0  0  0  0  0  0  0  0  0  0  # atno 17320 bound_to 7965
  146.3167  140.3467  142.8652 LP  0  0  0  0  0  0  0  0  0  0  0  0  # atno 17321 bound_to 7965
  140.6481  143.2218  151.6140 LP  0  0  0  0  0  0  0  0  0  0  0  0  # atno 17342 bound_to 10162
  139.5271  144.3025  152.1061 LP  0  0  0  0  0  0  0  0  0  0  0  0  # atno 17343 bound_to 10162
  156.0818  130.5827  150.9577 LP  0  0  0  0  0  0  0  0  0  0  0  0  # atno 17370 bound_to 10713
  157.6293  131.0922  150.8472 LP  0  0  0  0  0  0  0  0  0  0  0  0  # atno 17371 bound_to 10713
  141.0086  134.1051  157.4244 LP  0  0  0  0  0  0  0  0  0  0  0  0  # atno 17394 bound_to 11000
  139.8872  135.0088  156.6547 LP  0  0  0  0  0  0  0  0  0  0  0  0  # atno 17395 bound_to 11000

$$$$
