AV-unprocessed.smi:6|AV-procd|sdf|39|dock1
  -GOLD-   2262015153D 1   1.00000     0.00000
 Structure written by MMmdl.
 37 38  0  0  0  0  0  0  0  0  1 V2000
  152.1606  144.1097  161.2043 C   0  0  0  0  0  0  0  0  0  0  0  0
  152.7604  143.8689  159.8105 C   0  0  0  0  0  0  0  0  0  0  0  0
  152.1219  144.7433  158.7205 C   0  0  0  0  0  0  0  0  0  0  0  0
  152.7568  142.3927  159.4341 C   0  0  0  0  0  0  0  0  0  0  0  0
  153.5522  141.5808  160.1397 N   0  0  0  0  0  0  0  0  0  0  0  0
  153.5475  140.2742  159.8001 C   0  0  0  0  0  0  0  0  0  0  0  0
  152.7423  139.7815  158.7534 C   0  0  0  0  0  0  0  0  0  0  0  0
  151.9390  140.7237  158.0786 C   0  0  0  0  0  0  0  0  0  0  0  0
  151.1147  140.2987  157.0278 N   0  0  0  0  0  0  0  0  0  0  0  0
  150.9444  141.1476  155.8553 C   0  0  0  0  0  0  0  0  0  0  0  0
  149.8631  140.6472  154.9108 C   0  0  0  0  0  0  0  0  0  0  0  0
  148.8017  141.4197  154.5658 C   0  0  0  0  0  0  0  0  0  0  0  0
  147.8102  141.0108  153.6881 N   0  0  0  0  0  0  0  0  0  0  0  0
  146.6859  141.8327  153.3330 C   0  0  0  0  0  0  0  0  0  0  0  0
  147.8823  139.7341  153.0931 C   0  0  0  0  0  0  0  0  0  0  0  0
  147.0370  139.3100  152.3044 O   0  0  0  0  0  0  0  0  0  0  0  0
  148.9789  138.9449  153.4373 N   0  0  0  0  0  0  0  0  0  0  0  0
  150.0011  139.3112  154.3184 C   0  0  0  0  0  0  0  0  0  0  0  0
  150.9211  138.5252  154.5382 O   0  0  0  0  0  0  0  0  0  0  0  0
  151.9541  142.0320  158.4272 N   0  0  0  0  0  0  0  0  0  0  0  0
  149.0406  138.0309  153.0126 H   0  0  0  0  0  0  0  0  0  0  0  0
  152.6863  143.5277  161.9619 H   0  0  0  0  0  0  0  0  0  0  0  0
  151.1074  143.8292  161.2395 H   0  0  0  0  0  0  0  0  0  0  0  0
  152.2329  145.1605  161.4858 H   0  0  0  0  0  0  0  0  0  0  0  0
  153.8047  144.1807  159.8741 H   0  0  0  0  0  0  0  0  0  0  0  0
  152.6280  144.6073  157.7642 H   0  0  0  0  0  0  0  0  0  0  0  0
  152.1843  145.8004  158.9795 H   0  0  0  0  0  0  0  0  0  0  0  0
  151.0689  144.4985  158.5787 H   0  0  0  0  0  0  0  0  0  0  0  0
  154.1904  139.6171  160.3667 H   0  0  0  0  0  0  0  0  0  0  0  0
  152.7444  138.7349  158.4867 H   0  0  0  0  0  0  0  0  0  0  0  0
  150.4069  139.6056  157.2227 H   0  0  0  0  0  0  0  0  0  0  0  0
  150.7048  142.1591  156.1855 H   0  0  0  0  0  0  0  0  0  0  0  0
  151.8837  141.2100  155.3041 H   0  0  0  0  0  0  0  0  0  0  0  0
  148.7269  142.4061  155.0016 H   0  0  0  0  0  0  0  0  0  0  0  0
  145.7784  141.2991  153.6229 H   0  0  0  0  0  0  0  0  0  0  0  0
  146.7329  142.0115  152.2568 H   0  0  0  0  0  0  0  0  0  0  0  0
  146.7614  142.7744  153.8780 H   0  0  0  0  0  0  0  0  0  0  0  0
  1  2  1  0  0  0  0
  1 22  1  0  0  0  0
  1 23  1  0  0  0  0
  1 24  1  0  0  0  0
  2  3  1  0  0  0  0
  2  4  1  0  0  0  0
  2 25  1  0  0  0  0
  3 26  1  0  0  0  0
  3 27  1  0  0  0  0
  3 28  1  0  0  0  0
  4 20  1  0  0  0  0
  4  5  2  0  0  0  0
  5  6  1  0  0  0  0
  6  7  2  0  0  0  0
  6 29  1  0  0  0  0
  7  8  1  0  0  0  0
  7 30  1  0  0  0  0
  8  9  1  0  0  0  0
  8 20  2  0  0  0  0
  9 10  1  0  0  0  0
  9 31  1  0  0  0  0
 10 11  1  0  0  0  0
 10 32  1  0  0  0  0
 10 33  1  0  0  0  0
 11 18  1  0  0  0  0
 11 12  2  0  0  0  0
 12 13  1  0  0  0  0
 12 34  1  0  0  0  0
 13 14  1  0  0  0  0
 13 15  1  0  0  0  0
 14 35  1  0  0  0  0
 14 36  1  0  0  0  0
 14 37  1  0  0  0  0
 15 16  2  0  0  0  0
 15 17  1  0  0  0  0
 17 21  1  0  0  0  0
 17 18  1  0  0  0  0
 18 19  2  0  0  0  0
M  END
> <s_m_source_file>
AV-unprocessed.smi

> <i_m_source_file_index>
6

> <i_lp_mmshare_version>
43012

> <i_f3d_flags>
0

> <s_epik_input>
W0NIM11bQ0hdKFtDSDNdKWMxbltjSF1bY0hdYyhuMSlbTkhdW0NIMl1jMltjSF1uKFtDSDNdKWMoPU8pW25IXWMyPU8=

> <s_epik_cmdline>
J2VwaWtfcHl0aG9uJywgJy1waCcsICc3LjAnLCAnLXRuJywgJzgnLCAnLW1hJywgJzIwMCcsICctbWV0YWxfYmluZGluZycsICctaW1hZScsICc8aW5maWxlLm1hZT4nLCAnLW9tYWUnLCAnPG91dGZpbGUubWFlPic=

> <r_lp_tautomer_probability>
0.999537

> <r_epik_Ionization_Penalty>
0.308056

> <r_epik_Ionization_Penalty_Charging>
0.000755917

> <r_epik_Ionization_Penalty_Neutral>
0.3073

> <r_epik_State_Penalty>
0.300752

> <r_epik_Charging_Adjusted_Penalty>
0.301508

> <i_epik_Tot_Q>
0

> <i_epik_Tot_abs_Q>
0

> <r_epik_Metal_State_Penalty>
0.395738

> <b_epik_Metal_Only>
0

> <s_lp_Force_Field>
OPLS_2005

> <r_lp_Energy>
3.35028

> <b_lp_Chiralities_Consistent>
1

> <s_lp_Variant>
AV-unprocessed.smi:6-1

> <Gold.Version>
5.8.1

> <Gold.Id.Protein>
6NUR|6NUR_protein|mol2

> <Gold.PLP.Fitness>
47.1592

> <Gold.PLP.PLP>
-43.1906

> <Gold.PLP.part.hbond>
-1.5500

> <Gold.PLP.part.metal>
0.0000

> <Gold.PLP.part.buried>
-4.7531

> <Gold.PLP.part.nonpolar>
-37.3737

> <Gold.PLP.part.repulsive>
0.8036

> <Gold.PLP.ligand.clash>
0.0000

> <Gold.PLP.ligand.torsion>
0.5638

> <Gold.PLP.Chemscore.Hbond>
0.6663

> <Gold.PLP.Chemscore.CHOScore>
1.0000

> <Gold.PLP.Chemscore.Metal>
0.0000

> <Gold.Chemscore.Hbonds>
donor molecule, donor type, donor heavy atom, donor atom, acceptor molecule, acceptor atom, score
      L1  H    17    21       P1  7948  0.81
      L1  C    12    34       P1  8028  1.00

> <Gold.PLP.Chemscore.Internal.Correction>
0.0974

> <Gold.Rescore>
     Score         DG    S(hbond)    S(metal)    S(lipo)     H(rot)  DE(clash)    DE(int)     intcor
     12.98     -14.02       0.93        0.00      82.62       1.65       0.29       0.76       ----

> <Gold.Chemscore.Fitness>
12.9752

> <Gold.Chemscore.DG>
-14.0177

> <Gold.Chemscore.ZeroCoef>
-5.4800

> <Gold.Chemscore.Hbond>
0.9277

> <Gold.Chemscore.Metal>
0.0000

> <Gold.Chemscore.Lipo>
82.6220

> <Gold.Chemscore.Internal_Hbond>
0.0000

> <Gold.Chemscore.DEClash>
0.2871

> <Gold.Chemscore.DEInternal>
0.7554

> <Gold.Chemscore.Rot>
1.6514

> <Gold.Chemscore.Internal.Correction>
   9.000000E+99

> <Gold.Chemscore.Hbonds>
donor molecule, donor type, donor heavy atom, donor atom, acceptor molecule, acceptor atom, score
      L1  H    17    21       P1  7948  0.78

> <Gold.Chemscore.Hbond.Weighted>
-3.0984

> <Gold.Chemscore.Metal.Weighted>
-0.0000

> <Gold.Chemscore.Lipo.Weighted>
-9.6668

> <Gold.Chemscore.Internal_Hbond.Weighted>
0.0000

> <Gold.Chemscore.DEClash.Weighted>
0.2871

> <Gold.Chemscore.DEInternal.Weighted>
0.7554

> <Gold.Chemscore.Rot.Weighted>
4.2275

> <Gold.Chemscore.Internal.Correction.Weighted>
   9.000000E+99

> <Gold.Protein.RotatedTorsions>
[ 6907 6896 6895 6894 ] final   68.45 input  -60.11 | X-H torsion
[ 7974 7965 7964 7962 ] final  -26.34 input  175.53 | X-H torsion
[ 8008 7997 7996 7995 ] final  152.77 input   59.86 | X-H torsion
[ 10167 10162 10161 10158 ] final -100.57 input  -65.29 | X-H torsion
[ 10718 10713 10712 10709 ] final  102.27 input   66.30 | X-H torsion
[ 10763 10752 10751 10750 ] final   20.34 input  -60.55 | X-H torsion
[ 11005 11000 10999 10996 ] final  103.28 input  -57.11 | X-H torsion

> <Gold.Protein.ActiveResidues>
 VAL166  LYS551  ARG553  GLY616  TRP617  ASP618  TYR619  PRO620  LYS621  CYS622 
 ASP623  PHE694  ASN695  SER759  ASP760  ASP761  ALA762  ILE779  LEU786  VAL792 
 PHE793  MET794  SER795  GLU796  ALA797  LYS798  CYS799  TRP800  GLU811  SER814 

> <Gold.Protein.RotatedAtoms>
  152.4621  134.5160  159.9768 H   0  0  0  0  0  0  0  0  0  0  0  0  # atno 6907 bound_to 6896
  151.5207  133.3461  159.2909 H   0  0  0  0  0  0  0  0  0  0  0  0  # atno 6908 bound_to 6896
  150.8588  134.7964  159.7129 H   0  0  0  0  0  0  0  0  0  0  0  0  # atno 6909 bound_to 6896
  146.1432  140.5006  142.8643 H   0  0  0  0  0  0  0  0  0  0  0  0  # atno 7974 bound_to 7965
  156.2613  140.2012  156.6386 H   0  0  0  0  0  0  0  0  0  0  0  0  # atno 8008 bound_to 7997
  154.6627  140.0559  157.0105 H   0  0  0  0  0  0  0  0  0  0  0  0  # atno 8009 bound_to 7997
  155.1252  140.3228  155.4490 H   0  0  0  0  0  0  0  0  0  0  0  0  # atno 8010 bound_to 7997
  140.2504  143.3476  152.0719 H   0  0  0  0  0  0  0  0  0  0  0  0  # atno 10167 bound_to 10162
  157.6807  131.0748  150.5378 H   0  0  0  0  0  0  0  0  0  0  0  0  # atno 10718 bound_to 10713
  153.1085  135.6691  153.9542 H   0  0  0  0  0  0  0  0  0  0  0  0  # atno 10763 bound_to 10752
  153.9093  135.3027  155.3450 H   0  0  0  0  0  0  0  0  0  0  0  0  # atno 10764 bound_to 10752
  154.7506  135.5036  153.9358 H   0  0  0  0  0  0  0  0  0  0  0  0  # atno 10765 bound_to 10752
  139.8783  134.9257  156.5186 H   0  0  0  0  0  0  0  0  0  0  0  0  # atno 11005 bound_to 11000
  144.7816  140.5852  143.6602 LP  0  0  0  0  0  0  0  0  0  0  0  0  # atno 17320 bound_to 7965
  145.4998  139.1484  143.3663 LP  0  0  0  0  0  0  0  0  0  0  0  0  # atno 17321 bound_to 7965
  139.5048  144.6782  151.6075 LP  0  0  0  0  0  0  0  0  0  0  0  0  # atno 17342 bound_to 10162
  140.6044  143.9550  150.6409 LP  0  0  0  0  0  0  0  0  0  0  0  0  # atno 17343 bound_to 10162
  156.5686  130.4274  149.6030 LP  0  0  0  0  0  0  0  0  0  0  0  0  # atno 17370 bound_to 10713
  156.2760  130.7044  151.1855 LP  0  0  0  0  0  0  0  0  0  0  0  0  # atno 17371 bound_to 10713
  140.8467  133.8163  155.9128 LP  0  0  0  0  0  0  0  0  0  0  0  0  # atno 17394 bound_to 11000
  140.9184  134.2172  157.4942 LP  0  0  0  0  0  0  0  0  0  0  0  0  # atno 17395 bound_to 11000

$$$$
