AV-unprocessed.smi:2712|AV-procd|sdf|10475|dock10
  -GOLD-   2272014513D 1   1.00000     0.00000
 Structure written by MMmdl.
 52 53  0  0  0  0  0  0  0  0  1 V2000
  153.1021  143.9713  163.1205 C   0  0  0  0  0  0  0  0  0  0  0  0
  152.7651  143.6930  161.6856 C   0  0  0  0  0  0  0  0  0  0  0  0
  152.2955  144.7175  160.7725 C   0  0  0  0  0  0  0  0  0  0  0  0
  152.0113  144.3855  159.4950 C   0  0  0  0  0  0  0  0  0  0  0  0
  152.1634  143.0172  159.0046 C   0  0  0  0  0  0  0  0  0  0  0  0
  151.9110  142.6827  157.8472 O   0  0  0  0  0  0  0  0  0  0  0  0
  152.6089  142.1402  159.9529 N   0  0  0  0  0  0  0  0  0  0  0  0
  152.7992  140.7147  159.6473 C   0  0  0  0  0  0  0  0  0  0  0  0
  154.1848  140.1799  160.0400 C   0  0  0  0  0  0  0  0  0  0  0  0
  155.0219  139.8876  159.1844 O   0  0  0  0  0  0  0  0  0  0  0  0
  154.4083  140.0507  161.3571 N   0  0  0  0  0  0  0  0  0  0  0  0
  155.6432  139.5596  161.9659 C   0  0  1  0  0  0  0  0  0  0  0  0
  155.6193  139.8850  163.4709 C   0  0  0  0  0  0  0  0  0  0  0  0
  156.6496  139.1124  164.3081 C   0  0  0  0  0  0  0  0  0  0  0  0
  156.1189  137.7618  164.8266 C   0  0  0  0  0  0  0  0  0  0  0  0
  155.9886  136.6204  163.7790 C   0  0  1  0  0  0  0  0  0  0  0  0
  155.4993  135.2592  164.4003 C   0  0  0  0  0  0  0  0  0  0  0  0
  155.3123  134.1686  163.3230 C   0  0  0  0  0  0  0  0  0  0  0  0
  154.1574  135.4380  165.1479 C   0  0  0  0  0  0  0  0  0  0  0  0
  156.5107  134.7430  165.4519 C   0  0  0  0  0  0  0  0  0  0  0  0
  155.1509  137.0656  162.5458 C   0  0  0  0  0  0  0  0  0  0  0  0
  155.8770  138.0693  161.6325 C   0  0  0  0  0  0  0  0  0  0  0  0
  152.9045  142.4793  161.2632 N   0  0  0  0  0  0  0  0  0  0  0  0
  153.0145  145.0337  163.3481 H   0  0  0  0  0  0  0  0  0  0  0  0
  154.1238  143.6649  163.3470 H   0  0  0  0  0  0  0  0  0  0  0  0
  152.4306  143.4297  163.7876 H   0  0  0  0  0  0  0  0  0  0  0  0
  152.1759  145.7332  161.1197 H   0  0  0  0  0  0  0  0  0  0  0  0
  151.6600  145.1491  158.8166 H   0  0  0  0  0  0  0  0  0  0  0  0
  152.0354  140.1121  160.1418 H   0  0  0  0  0  0  0  0  0  0  0  0
  152.6549  140.5458  158.5783 H   0  0  0  0  0  0  0  0  0  0  0  0
  153.6663  140.3150  161.9889 H   0  0  0  0  0  0  0  0  0  0  0  0
  156.4741  140.1172  161.5295 H   0  0  0  0  0  0  0  0  0  0  0  0
  155.8004  140.9545  163.5867 H   0  0  0  0  0  0  0  0  0  0  0  0
  154.6234  139.7167  163.8840 H   0  0  0  0  0  0  0  0  0  0  0  0
  157.5878  138.9879  163.7663 H   0  0  0  0  0  0  0  0  0  0  0  0
  156.8932  139.7226  165.1786 H   0  0  0  0  0  0  0  0  0  0  0  0
  156.8136  137.4544  165.6066 H   0  0  0  0  0  0  0  0  0  0  0  0
  155.1653  137.9254  165.3277 H   0  0  0  0  0  0  0  0  0  0  0  0
  157.0009  136.4296  163.4196 H   0  0  0  0  0  0  0  0  0  0  0  0
  154.9635  133.2357  163.7672 H   0  0  0  0  0  0  0  0  0  0  0  0
  156.2441  133.9435  162.8044 H   0  0  0  0  0  0  0  0  0  0  0  0
  154.5774  134.4580  162.5723 H   0  0  0  0  0  0  0  0  0  0  0  0
  153.3287  135.6340  164.4677 H   0  0  0  0  0  0  0  0  0  0  0  0
  154.2065  136.2580  165.8652 H   0  0  0  0  0  0  0  0  0  0  0  0
  153.8866  134.5385  165.7023 H   0  0  0  0  0  0  0  0  0  0  0  0
  156.1167  133.8797  165.9895 H   0  0  0  0  0  0  0  0  0  0  0  0
  156.7393  135.5078  166.1951 H   0  0  0  0  0  0  0  0  0  0  0  0
  157.4508  134.4151  165.0116 H   0  0  0  0  0  0  0  0  0  0  0  0
  154.9279  136.2062  161.9192 H   0  0  0  0  0  0  0  0  0  0  0  0
  154.1795  137.4566  162.8499 H   0  0  0  0  0  0  0  0  0  0  0  0
  155.5800  137.8836  160.5994 H   0  0  0  0  0  0  0  0  0  0  0  0
  156.9470  137.8606  161.6446 H   0  0  0  0  0  0  0  0  0  0  0  0
  1  2  1  0  0  0  0
  1 24  1  0  0  0  0
  1 25  1  0  0  0  0
  1 26  1  0  0  0  0
  2 23  2  0  0  0  0
  2  3  1  0  0  0  0
  3  4  2  0  0  0  0
  3 27  1  0  0  0  0
  4  5  1  0  0  0  0
  4 28  1  0  0  0  0
  5  6  2  0  0  0  0
  5  7  1  0  0  0  0
  7  8  1  0  0  0  0
  7 23  1  0  0  0  0
  8  9  1  0  0  0  0
  8 29  1  0  0  0  0
  8 30  1  0  0  0  0
  9 10  2  0  0  0  0
  9 11  1  0  0  0  0
 11 12  1  0  0  0  0
 11 31  1  0  0  0  0
 12 22  1  0  0  0  0
 12 13  1  0  0  0  0
 12 32  1  0  0  0  0
 13 14  1  0  0  0  0
 13 33  1  0  0  0  0
 13 34  1  0  0  0  0
 14 15  1  0  0  0  0
 14 35  1  0  0  0  0
 14 36  1  0  0  0  0
 15 16  1  0  0  0  0
 15 37  1  0  0  0  0
 15 38  1  0  0  0  0
 16 17  1  0  0  0  0
 16 21  1  0  0  0  0
 16 39  1  0  0  0  0
 17 18  1  0  0  0  0
 17 19  1  0  0  0  0
 17 20  1  0  0  0  0
 18 40  1  0  0  0  0
 18 41  1  0  0  0  0
 18 42  1  0  0  0  0
 19 43  1  0  0  0  0
 19 44  1  0  0  0  0
 19 45  1  0  0  0  0
 20 46  1  0  0  0  0
 20 47  1  0  0  0  0
 20 48  1  0  0  0  0
 21 22  1  0  0  0  0
 21 49  1  0  0  0  0
 21 50  1  0  0  0  0
 22 51  1  0  0  0  0
 22 52  1  0  0  0  0
M  END
> <s_m_source_file>
AV-unprocessed.smi

> <i_m_source_file_index>
2712

> <i_lp_mmshare_version>
43012

> <i_f3d_flags>
0

> <s_epik_input>
W0NIM11jMVtjSF1bY0hdYyg9TyluKG4xKVtDSDJdQyg9TylbTkhdW0NAQEhdMltDSDJdW0NIMl1bQ0gyXVtDQEBIXShDKFtDSDNdKShbQ0gzXSlbQ0gzXSlbQ0gyXVtDSDJdMg==

> <s_epik_cmdline>
J2VwaWtfcHl0aG9uJywgJy1waCcsICc3LjAnLCAnLXRuJywgJzgnLCAnLW1hJywgJzIwMCcsICctbWV0YWxfYmluZGluZycsICctaW1hZScsICc8aW5maWxlLm1hZT4nLCAnLW9tYWUnLCAnPG91dGZpbGUubWFlPic=

> <r_lp_tautomer_probability>
1

> <r_epik_Ionization_Penalty>
8.71758e-07

> <r_epik_Ionization_Penalty_Charging>
8.50442e-07

> <r_epik_Ionization_Penalty_Neutral>
2.13165e-08

> <r_epik_State_Penalty>
-0

> <r_epik_Charging_Adjusted_Penalty>
8.50442e-07

> <i_epik_Tot_Q>
0

> <i_epik_Tot_abs_Q>
0

> <r_epik_Metal_State_Penalty>
-0

> <b_epik_Metal_Only>
0

> <s_lp_Force_Field>
OPLS_2005

> <r_lp_Energy>
40.0092

> <b_lp_Chiralities_Consistent>
1

> <s_lp_Variant>
AV-unprocessed.smi:2712-2

> <Gold.Version>
5.8.1

> <Gold.Id.Protein>
6NUR|6NUR_protein|mol2

> <Gold.PLP.Fitness>
41.6700

> <Gold.PLP.PLP>
-39.3488

> <Gold.PLP.part.hbond>
-1.0000

> <Gold.PLP.part.metal>
0.0000

> <Gold.PLP.part.buried>
-1.2214

> <Gold.PLP.part.nonpolar>
-36.2050

> <Gold.PLP.part.repulsive>
0.0844

> <Gold.PLP.ligand.clash>
0.0000

> <Gold.PLP.ligand.torsion>
0.3821

> <Gold.PLP.Chemscore.Hbond>
1.0000

> <Gold.PLP.Chemscore.CHOScore>
0.0000

> <Gold.PLP.Chemscore.Metal>
0.0000

> <Gold.Chemscore.Hbonds>
donor molecule, donor type, donor heavy atom, donor atom, acceptor molecule, acceptor atom, score
      P1  H  7997  8009       L1    10  1.00

> <Gold.PLP.Chemscore.Internal.Correction>
0.0853

> <Gold.Rescore>
     Score         DG    S(hbond)    S(metal)    S(lipo)     H(rot)  DE(clash)    DE(int)     intcor
     16.46     -18.20       1.00        0.00     113.39       1.52       0.03       1.72       ----

> <Gold.Chemscore.Fitness>
16.4574

> <Gold.Chemscore.DG>
-18.2046

> <Gold.Chemscore.ZeroCoef>
-5.4800

> <Gold.Chemscore.Hbond>
0.9999

> <Gold.Chemscore.Metal>
0.0000

> <Gold.Chemscore.Lipo>
113.3895

> <Gold.Chemscore.Internal_Hbond>
0.0000

> <Gold.Chemscore.DEClash>
0.0270

> <Gold.Chemscore.DEInternal>
1.7203

> <Gold.Chemscore.Rot>
1.5162

> <Gold.Chemscore.Internal.Correction>
   9.000000E+99

> <Gold.Chemscore.Hbonds>
donor molecule, donor type, donor heavy atom, donor atom, acceptor molecule, acceptor atom, score
      P1  H  7997  8009       L1    10  0.94

> <Gold.Chemscore.Hbond.Weighted>
-3.3395

> <Gold.Chemscore.Metal.Weighted>
-0.0000

> <Gold.Chemscore.Lipo.Weighted>
-13.2666

> <Gold.Chemscore.Internal_Hbond.Weighted>
0.0000

> <Gold.Chemscore.DEClash.Weighted>
0.0270

> <Gold.Chemscore.DEInternal.Weighted>
1.7203

> <Gold.Chemscore.Rot.Weighted>
3.8814

> <Gold.Chemscore.Internal.Correction.Weighted>
   9.000000E+99

> <Gold.Protein.RotatedTorsions>
[ 6907 6896 6895 6894 ] final  -99.33 input  -60.11 | X-H torsion
[ 7974 7965 7964 7962 ] final -113.88 input  175.53 | X-H torsion
[ 8008 7997 7996 7995 ] final  125.03 input   59.86 | X-H torsion
[ 10167 10162 10161 10158 ] final   38.06 input  -65.29 | X-H torsion
[ 10718 10713 10712 10709 ] final   49.33 input   66.30 | X-H torsion
[ 10763 10752 10751 10750 ] final -132.08 input  -60.55 | X-H torsion
[ 11005 11000 10999 10996 ] final   74.94 input  -57.11 | X-H torsion

> <Gold.Protein.ActiveResidues>
 VAL166  LYS551  ARG553  GLY616  TRP617  ASP618  TYR619  PRO620  LYS621  CYS622 
 ASP623  PHE694  ASN695  SER759  ASP760  ASP761  ALA762  ILE779  LEU786  VAL792 
 PHE793  MET794  SER795  GLU796  ALA797  LYS798  CYS799  TRP800  GLU811  SER814 

> <Gold.Protein.RotatedAtoms>
  150.7076  134.1057  159.3981 H   0  0  0  0  0  0  0  0  0  0  0  0  # atno 6907 bound_to 6896
  151.9044  135.0363  160.0518 H   0  0  0  0  0  0  0  0  0  0  0  0  # atno 6908 bound_to 6896
  152.2388  133.5083  159.5294 H   0  0  0  0  0  0  0  0  0  0  0  0  # atno 6909 bound_to 6896
  145.1268  140.8701  143.3781 H   0  0  0  0  0  0  0  0  0  0  0  0  # atno 7974 bound_to 7965
  156.2821  140.2726  156.1883 H   0  0  0  0  0  0  0  0  0  0  0  0  # atno 8008 bound_to 7997
  155.0484  140.0386  157.2553 H   0  0  0  0  0  0  0  0  0  0  0  0  # atno 8009 bound_to 7997
  154.7215  140.2689  155.6542 H   0  0  0  0  0  0  0  0  0  0  0  0  # atno 8010 bound_to 7997
  140.3973  144.1771  150.6132 H   0  0  0  0  0  0  0  0  0  0  0  0  # atno 10167 bound_to 10162
  157.4776  130.8294  149.8057 H   0  0  0  0  0  0  0  0  0  0  0  0  # atno 10718 bound_to 10713
  154.8746  135.3809  154.4352 H   0  0  0  0  0  0  0  0  0  0  0  0  # atno 10763 bound_to 10752
  153.5042  135.7030  153.5820 H   0  0  0  0  0  0  0  0  0  0  0  0  # atno 10764 bound_to 10752
  153.4139  135.3918  155.2034 H   0  0  0  0  0  0  0  0  0  0  0  0  # atno 10765 bound_to 10752
  139.9367  134.7476  156.1210 H   0  0  0  0  0  0  0  0  0  0  0  0  # atno 11005 bound_to 11000
  145.0679  139.3054  143.5847 LP  0  0  0  0  0  0  0  0  0  0  0  0  # atno 17320 bound_to 7965
  146.3517  140.0144  142.8664 LP  0  0  0  0  0  0  0  0  0  0  0  0  # atno 17321 bound_to 7965
  140.4777  143.2390  151.9000 LP  0  0  0  0  0  0  0  0  0  0  0  0  # atno 17342 bound_to 10162
  139.4786  144.5303  151.8676 LP  0  0  0  0  0  0  0  0  0  0  0  0  # atno 17343 bound_to 10162
  156.0105  130.3835  150.2282 LP  0  0  0  0  0  0  0  0  0  0  0  0  # atno 17370 bound_to 10713
  157.0467  131.0051  151.3266 LP  0  0  0  0  0  0  0  0  0  0  0  0  # atno 17371 bound_to 10713
  141.0983  133.6687  156.2697 LP  0  0  0  0  0  0  0  0  0  0  0  0  # atno 17394 bound_to 11000
  140.6058  134.5509  157.5525 LP  0  0  0  0  0  0  0  0  0  0  0  0  # atno 17395 bound_to 11000

$$$$
