#       Name:                AV-unprocessed.smi:36
#       Creating user name   scv26
#       Creation time:       Thu Mar 26 16:07:30 2020


#       File generated by GOLD software.
#

@<TRIPOS>MOLECULE
AV-unprocessed.smi:36
    73    76     1
SMALL
NO_CHARGES


@<TRIPOS>ATOM
      1 ****        -7.1174   3.1302  -2.2576 C.3            1 S1                 0.0000
      2 ****        -6.2072   1.8908  -2.2516 C.3            1 S1                 0.0000
      3 ****        -6.5471   0.9967  -1.0470 C.3            1 S1                 0.0000
      4 ****        -6.3951   1.0964  -3.5547 C.3            1 S1                 0.0000
      5 ****        -4.3837   2.4425  -2.1149 Si             1 S1                 0.0000
      6 ****        -3.8727   3.5055  -3.6040 C.3            1 S1                 0.0000
      7 ****        -4.0873   3.4142  -0.5081 C.3            1 S1                 0.0000
      8 ****        -3.4247   1.0469  -2.1127 O.3            1 S1                 0.0000
      9 ****        -2.0546   1.0210  -1.7673 C.3            1 S1                 0.0000
     10 ****        -1.8985   0.5976  -0.3002 C.3            1 S1                 0.0000
     11 ****        -0.5184   0.6482   0.0484 O.3            1 S1                 0.0000
     12 ****        -0.2825  -0.3522   0.9788 C.3            1 S1                 0.0000
     13 ****         1.1733  -0.6751   0.9787 N.pl3          1 S1                 0.0000
     14 ****         2.0247  -0.6155  -0.0632 C.2            1 S1                 0.0000
     15 ****         3.2796  -0.9650   0.2077 N.2            1 S1                 0.0000
     16 ****         3.2209  -1.2840   1.5606 C.2            1 S1                 0.0000
     17 ****         4.2799  -1.7535   2.4798 C.2            1 S1                 0.0000
     18 ****         5.4758  -1.9000   1.9955 N.2            1 S1                 0.0000
     19 ****         6.5099  -2.3392   2.8116 C.2            1 S1                 0.0000
     20 ****         6.4774  -2.6423   4.0075 O.2            1 S1                 0.0000
     21 ****         7.8171  -2.4483   2.0972 C.ar           1 S1                 0.0000
     22 ****         8.6758  -1.3314   2.0184 C.ar           1 S1                 0.0000
     23 ****         9.9036  -1.4318   1.3351 C.ar           1 S1                 0.0000
     24 ****        10.2748  -2.6469   0.7273 C.ar           1 S1                 0.0000
     25 ****         9.4186  -3.7625   0.8030 C.ar           1 S1                 0.0000
     26 ****         8.1905  -3.6639   1.4860 C.ar           1 S1                 0.0000
     27 ****         3.7445  -1.9559   3.7586 N.pl3          1 S1                 0.0000
     28 ****         2.4075  -1.7502   4.1333 C.2            1 S1                 0.0000
     29 ****         1.4625  -1.3343   3.3327 N.2            1 S1                 0.0000
     30 ****         1.9430  -1.1172   2.0491 C.2            1 S1                 0.0000
     31 ****        -1.1026  -1.5410   0.5025 C.3            1 S1                 0.0000
     32 ****        -2.3535  -0.8514  -0.0186 C.3            1 S1                 0.0000
     33 ****        -3.3660  -0.8642   0.9687 O.3            1 S1                 0.0000
     34 ****        -8.1685   2.8495  -2.3338 H              1 S1                 0.0000
     35 ****        -6.8904   3.7858  -3.0987 H              1 S1                 0.0000
     36 ****        -6.9995   3.7139  -1.3443 H              1 S1                 0.0000
     37 ****        -6.4354   1.5362  -0.1062 H              1 S1                 0.0000
     38 ****        -5.8938   0.1243  -1.0039 H              1 S1                 0.0000
     39 ****        -7.5751   0.6364  -1.0978 H              1 S1                 0.0000
     40 ****        -7.4215   0.7431  -3.6591 H              1 S1                 0.0000
     41 ****        -5.7419   0.2236  -3.5831 H              1 S1                 0.0000
     42 ****        -6.1678   1.7060  -4.4294 H              1 S1                 0.0000
     43 ****        -4.4704   4.4143  -3.6717 H              1 S1                 0.0000
     44 ****        -3.9935   2.9657  -4.5429 H              1 S1                 0.0000
     45 ****        -2.8281   3.8090  -3.5374 H              1 S1                 0.0000
     46 ****        -4.6736   4.3324  -0.4830 H              1 S1                 0.0000
     47 ****        -3.0406   3.6971  -0.3984 H              1 S1                 0.0000
     48 ****        -4.3605   2.8314   0.3711 H              1 S1                 0.0000
     49 ****        -1.5321   0.3272  -2.4263 H              1 S1                 0.0000
     50 ****        -1.6145   2.0061  -1.9273 H              1 S1                 0.0000
     51 ****        -2.4241   1.2976   0.3502 H              1 S1                 0.0000
     52 ****        -0.5269  -0.0175   1.9882 H              1 S1                 0.0000
     53 ****         1.7142  -0.3082  -1.0512 H              1 S1                 0.0000
     54 ****         8.3963  -0.3950   2.4795 H              1 S1                 0.0000
     55 ****        10.5598  -0.5759   1.2762 H              1 S1                 0.0000
     56 ****        11.2155  -2.7227   0.2022 H              1 S1                 0.0000
     57 ****         9.7030  -4.6936   0.3356 H              1 S1                 0.0000
     58 ****         7.5371  -4.5230   1.5368 H              1 S1                 0.0000
     59 ****         2.2022  -1.9703   5.1818 H              1 S1                 0.0000
     60 ****        -0.5784  -2.0358  -0.3167 H              1 S1                 0.0000
     61 ****        -1.2723  -2.2597   1.3054 H              1 S1                 0.0000
     62 ****        -2.7294  -1.3532  -0.9112 H              1 S1                 0.0000
     63 ****        -3.0373  -0.4297   1.7408 H              1 S1                 0.0000
     64 ****         4.3791  -2.2787   4.4747 H              1 S1                 0.0000
     65 ****        -0.2994   1.5401   0.4441 LP             1 S1                 0.0000
     66 ****         0.0441   0.4970  -0.7645 LP             1 S1                 0.0000
     67 ****         4.0677  -0.9917  -0.4073 LP             1 S1                 0.0000
     68 ****         5.6525  -1.6961   1.0326 LP             1 S1                 0.0000
     69 ****         5.6175  -2.5847   4.5147 LP             1 S1                 0.0000
     70 ****         7.3110  -2.9455   4.4693 LP             1 S1                 0.0000
     71 ****         0.5125  -1.1905   3.6100 LP             1 S1                 0.0000
     72 ****        -3.6088  -1.8085   1.1906 LP             1 S1                 0.0000
     73 ****        -4.1743  -0.3832   0.6292 LP             1 S1                 0.0000
@<TRIPOS>BOND
    1    1    2 1     
    2    1   34 1     
    3    1   35 1     
    4    1   36 1     
    5    2    3 1     
    6    2    4 1     
    7    2    5 1     
    8    3   37 1     
    9    3   38 1     
   10    3   39 1     
   11    4   40 1     
   12    4   41 1     
   13    4   42 1     
   14    5    6 1     
   15    5    7 1     
   16    5    8 1     
   17    6   43 1     
   18    6   44 1     
   19    6   45 1     
   20    7   46 1     
   21    7   47 1     
   22    7   48 1     
   23    8    9 1     
   24    9   10 1     
   25    9   49 1     
   26    9   50 1     
   27   10   32 1     
   28   10   11 1     
   29   10   51 1     
   30   11   12 1     
   31   12   13 1     
   32   12   31 1     
   33   12   52 1     
   34   13   30 1     
   35   13   14 1     
   36   14   15 2     
   37   14   53 1     
   38   15   16 1     
   39   16   30 2     
   40   16   17 1     
   41   17   18 2     
   42   17   27 1     
   43   18   19 1     
   44   19   20 2     
   45   19   21 1     
   46   21   26 ar    
   47   21   22 ar    
   48   22   23 ar    
   49   22   54 1     
   50   23   24 ar    
   51   23   55 1     
   52   24   25 ar    
   53   24   56 1     
   54   25   26 ar    
   55   25   57 1     
   56   26   58 1     
   57   27   28 1     
   58   27   64 1     
   59   28   29 2     
   60   28   59 1     
   61   29   30 1     
   62   31   32 1     
   63   31   60 1     
   64   31   61 1     
   65   32   33 1     
   66   32   62 1     
   67   33   63 1     
   68   11   65 1     
   69   11   66 1     
   70   15   67 1     
   71   18   68 1     
   72   20   69 1     
   73   20   70 1     
   74   29   71 1     
   75   33   72 1     
   76   33   73 1     
@<TRIPOS>SUBSTRUCTURE
      1 S1             1
@<TRIPOS>SET
LONE_PAIRS      STATIC     ATOMS    <user>   **** ""
9 65 66 67 68 69 70 71 72 73
DONOR_HYDROGENS      STATIC     ATOMS    <user>   **** ""
2 64 63
ATOM$BLUE        STATIC     ATOMS    COLORGROUP SYSTEM
9 65 66 67 68 69 70 71 72 73
ATOM$RED        STATIC     ATOMS    COLORGROUP SYSTEM
2 64 63
