AV-unprocessed.smi:2735|AV-procd|sdf|10541|dock1
  -GOLD-   2272014583D 1   1.00000     0.00000
 Structure written by MMmdl.
 42 42  0  0  0  0  0  0  0  0  2 V2000
  145.9390  142.7386  157.9351 C   0  0  0  0  0  0  0  0  0  0  0  0
  146.2634  142.7757  156.4710 C   0  0  0  0  0  0  0  0  0  0  0  0
  145.6508  143.5549  155.4521 C   0  0  0  0  0  0  0  0  0  0  0  0
  146.3273  143.2152  154.3146 C   0  0  0  0  0  0  0  0  0  0  0  0
  146.1534  143.7157  152.9179 C   0  0  0  0  0  0  0  0  0  0  0  0
  147.2732  142.2661  154.6697 N   0  0  0  0  0  0  0  0  0  0  0  0
  148.2809  141.6192  153.8282 C   0  0  2  0  0  0  0  0  0  0  0  0
  147.7579  140.3422  153.1382 C   0  0  0  0  0  0  0  0  0  0  0  0
  149.5503  141.3411  154.6465 C   0  0  0  0  0  0  0  0  0  0  0  0
  150.1686  140.2862  154.5004 O   0  0  0  0  0  0  0  0  0  0  0  0
  149.9208  142.2999  155.5099 N   0  0  0  0  0  0  0  0  0  0  0  0
  151.0466  142.2229  156.4395 C   0  0  1  0  0  0  0  0  0  0  0  0
  150.8632  143.2874  157.5478 C   0  0  0  0  0  0  0  0  0  0  0  0
  152.1630  143.7212  158.2639 C   0  0  0  0  0  0  0  0  0  0  0  0
  152.6250  142.7009  159.3179 C   0  0  0  0  0  0  0  0  0  0  0  0
  151.9894  145.1077  158.9021 C   0  0  0  0  0  0  0  0  0  0  0  0
  151.0629  140.8364  157.1037 C   0  0  0  0  0  0  0  0  0  0  0  0
  152.0996  140.1524  156.9603 O   0  0  0  0  0  0  0  0  0  0  0  0
  150.0488  140.4845  157.7484 O   0  5  0  0  0  0  0  0  0  0  0  0
  147.2361  142.0147  156.0001 N   0  0  0  0  0  0  0  0  0  0  0  0
  151.9928  142.3777  155.9189 H   0  0  0  0  0  0  0  0  0  0  0  0
  145.1342  143.4328  158.1775 H   0  0  0  0  0  0  0  0  0  0  0  0
  146.8060  143.0128  158.5366 H   0  0  0  0  0  0  0  0  0  0  0  0
  145.6212  141.7419  158.2411 H   0  0  0  0  0  0  0  0  0  0  0  0
  144.8424  144.2651  155.5434 H   0  0  0  0  0  0  0  0  0  0  0  0
  145.3352  144.4336  152.8619 H   0  0  0  0  0  0  0  0  0  0  0  0
  145.9263  142.8969  152.2354 H   0  0  0  0  0  0  0  0  0  0  0  0
  147.0568  144.2139  152.5674 H   0  0  0  0  0  0  0  0  0  0  0  0
  148.5361  142.3202  153.0323 H   0  0  0  0  0  0  0  0  0  0  0  0
  148.5070  139.9303  152.4613 H   0  0  0  0  0  0  0  0  0  0  0  0
  146.8679  140.5570  152.5461 H   0  0  0  0  0  0  0  0  0  0  0  0
  147.4998  139.5610  153.8544 H   0  0  0  0  0  0  0  0  0  0  0  0
  149.3471  143.1280  155.5705 H   0  0  0  0  0  0  0  0  0  0  0  0
  150.3911  144.1738  157.1197 H   0  0  0  0  0  0  0  0  0  0  0  0
  150.1626  142.9123  158.2959 H   0  0  0  0  0  0  0  0  0  0  0  0
  152.9557  143.8129  157.5207 H   0  0  0  0  0  0  0  0  0  0  0  0
  151.8506  142.5231  160.0647 H   0  0  0  0  0  0  0  0  0  0  0  0
  153.5152  143.0529  159.8397 H   0  0  0  0  0  0  0  0  0  0  0  0
  152.8800  141.7431  158.8649 H   0  0  0  0  0  0  0  0  0  0  0  0
  151.2110  145.0974  159.6658 H   0  0  0  0  0  0  0  0  0  0  0  0
  151.7138  145.8533  158.1558 H   0  0  0  0  0  0  0  0  0  0  0  0
  152.9137  145.4433  159.3730 H   0  0  0  0  0  0  0  0  0  0  0  0
  1  2  1  0  0  0  0
  1 22  1  0  0  0  0
  1 23  1  0  0  0  0
  1 24  1  0  0  0  0
  2 20  2  0  0  0  0
  2  3  1  0  0  0  0
  3  4  2  0  0  0  0
  3 25  1  0  0  0  0
  4  5  1  0  0  0  0
  4  6  1  0  0  0  0
  5 26  1  0  0  0  0
  5 27  1  0  0  0  0
  5 28  1  0  0  0  0
  6  7  1  0  0  0  0
  6 20  1  0  0  0  0
  7  8  1  0  0  0  0
  7  9  1  0  0  0  0
  7 29  1  0  0  0  0
  8 30  1  0  0  0  0
  8 31  1  0  0  0  0
  8 32  1  0  0  0  0
  9 10  2  0  0  0  0
  9 11  1  0  0  0  0
 11 12  1  0  0  0  0
 11 33  1  0  0  0  0
 12 21  1  0  0  0  0
 12 13  1  0  0  0  0
 12 17  1  0  0  0  0
 13 14  1  0  0  0  0
 13 34  1  0  0  0  0
 13 35  1  0  0  0  0
 14 15  1  0  0  0  0
 14 16  1  0  0  0  0
 14 36  1  0  0  0  0
 15 37  1  0  0  0  0
 15 38  1  0  0  0  0
 15 39  1  0  0  0  0
 16 40  1  0  0  0  0
 16 41  1  0  0  0  0
 16 42  1  0  0  0  0
 17 18  2  0  0  0  0
 17 19  1  0  0  0  0
M  CHG  1  19  -1
M  END
> <s_m_source_file>
AV-unprocessed.smi

> <i_m_source_file_index>
2735

> <i_lp_mmshare_version>
43012

> <i_f3d_flags>
0

> <s_epik_input>
W0NIM11jMVtjSF1jKFtDSDNdKW4objEpW0NASF0oW0NIM10pQyg9TylbTkhdW0NASF0oQyg9TylbT0hdKVtDSDJdW0NIXShbQ0gzXSlbQ0gzXQ==

> <s_epik_cmdline>
J2VwaWtfcHl0aG9uJywgJy1waCcsICc3LjAnLCAnLXRuJywgJzgnLCAnLW1hJywgJzIwMCcsICctbWV0YWxfYmluZGluZycsICctaW1hZScsICc8aW5maWxlLm1hZT4nLCAnLW9tYWUnLCAnPG91dGZpbGUubWFlPic=

> <r_lp_tautomer_probability>
1

> <r_epik_Ionization_Penalty>
0.0012303

> <r_epik_Ionization_Penalty_Charging>
0.000186407

> <r_epik_Ionization_Penalty_Neutral>
0.0010439

> <r_epik_State_Penalty>
-0

> <r_epik_Charging_Adjusted_Penalty>
0.000186407

> <i_epik_Tot_Q>
-1

> <i_epik_Tot_abs_Q>
1

> <r_epik_Metal_State_Penalty>
-0

> <b_epik_Metal_Only>
0

> <s_lp_Force_Field>
OPLS_2005

> <r_lp_Energy>
6.85708

> <b_lp_Chiralities_Consistent>
1

> <s_lp_Variant>
AV-unprocessed.smi:2735-1

> <Gold.Version>
5.8.1

> <Gold.Id.Protein>
6NUR|6NUR_protein|mol2

> <Gold.PLP.Fitness>
51.4221

> <Gold.PLP.PLP>
-43.0919

> <Gold.PLP.part.hbond>
-3.0000

> <Gold.PLP.part.metal>
0.0000

> <Gold.PLP.part.buried>
-3.2782

> <Gold.PLP.part.nonpolar>
-36.7538

> <Gold.PLP.part.repulsive>
0.3733

> <Gold.PLP.ligand.clash>
0.0000

> <Gold.PLP.ligand.torsion>
1.8562

> <Gold.PLP.Chemscore.Hbond>
3.9600

> <Gold.PLP.Chemscore.CHOScore>
0.0000

> <Gold.PLP.Chemscore.Metal>
0.0000

> <Gold.Chemscore.Hbonds>
donor molecule, donor type, donor heavy atom, donor atom, acceptor molecule, acceptor atom, score
      L1  H    11    33       P1  8028  1.00
      P1  H  7989  7998       L1    10  1.00
      P1  H  7997  8009       L1    18  0.65

> <Gold.PLP.Chemscore.Internal.Correction>
0.1627

> <Gold.Rescore>
     Score         DG    S(hbond)    S(metal)    S(lipo)     H(rot)  DE(clash)    DE(int)     intcor
     13.95     -18.08       2.45        0.00      86.85       2.24       1.42       2.72       ----

> <Gold.Chemscore.Fitness>
13.9460

> <Gold.Chemscore.DG>
-18.0848

> <Gold.Chemscore.ZeroCoef>
-5.4800

> <Gold.Chemscore.Hbond>
2.4477

> <Gold.Chemscore.Metal>
0.0000

> <Gold.Chemscore.Lipo>
86.8464

> <Gold.Chemscore.Internal_Hbond>
0.0000

> <Gold.Chemscore.DEClash>
1.4178

> <Gold.Chemscore.DEInternal>
2.7210

> <Gold.Chemscore.Rot>
2.2388

> <Gold.Chemscore.Internal.Correction>
   9.000000E+99

> <Gold.Chemscore.Hbonds>
donor molecule, donor type, donor heavy atom, donor atom, acceptor molecule, acceptor atom, score
      L1  H    11    33       P1  8028  1.00
      P1  H  7989  7998       L1    10  0.24
      P1  H  7997  8009       L1    18  0.32

> <Gold.Chemscore.Hbond.Weighted>
-8.1752

> <Gold.Chemscore.Metal.Weighted>
-0.0000

> <Gold.Chemscore.Lipo.Weighted>
-10.1610

> <Gold.Chemscore.Internal_Hbond.Weighted>
0.0000

> <Gold.Chemscore.DEClash.Weighted>
1.4178

> <Gold.Chemscore.DEInternal.Weighted>
2.7210

> <Gold.Chemscore.Rot.Weighted>
5.7314

> <Gold.Chemscore.Internal.Correction.Weighted>
   9.000000E+99

> <Gold.Protein.RotatedTorsions>
[ 6907 6896 6895 6894 ] final  115.84 input  -60.11 | X-H torsion
[ 7974 7965 7964 7962 ] final  125.32 input  175.53 | X-H torsion
[ 8008 7997 7996 7995 ] final -165.84 input   59.86 | X-H torsion
[ 10167 10162 10161 10158 ] final   68.92 input  -65.29 | X-H torsion
[ 10718 10713 10712 10709 ] final   40.32 input   66.30 | X-H torsion
[ 10763 10752 10751 10750 ] final    8.74 input  -60.55 | X-H torsion
[ 11005 11000 10999 10996 ] final    8.91 input  -57.11 | X-H torsion

> <Gold.Protein.ActiveResidues>
 VAL166  LYS551  ARG553  GLY616  TRP617  ASP618  TYR619  PRO620  LYS621  CYS622 
 ASP623  PHE694  ASN695  SER759  ASP760  ASP761  ALA762  ILE779  LEU786  VAL792 
 PHE793  MET794  SER795  GLU796  ALA797  LYS798  CYS799  TRP800  GLU811  SER814 

> <Gold.Protein.RotatedAtoms>
  152.4716  133.8042  159.6968 H   0  0  0  0  0  0  0  0  0  0  0  0  # atno 6907 bound_to 6896
  150.8708  133.7498  159.2968 H   0  0  0  0  0  0  0  0  0  0  0  0  # atno 6908 bound_to 6896
  151.5034  135.1066  159.9887 H   0  0  0  0  0  0  0  0  0  0  0  0  # atno 6909 bound_to 6896
  145.0744  139.3705  143.4941 H   0  0  0  0  0  0  0  0  0  0  0  0  # atno 7974 bound_to 7965
  155.8555  140.0970  157.1647 H   0  0  0  0  0  0  0  0  0  0  0  0  # atno 8008 bound_to 7997
  154.3987  140.1375  156.3958 H   0  0  0  0  0  0  0  0  0  0  0  0  # atno 8009 bound_to 7997
  155.7915  140.3455  155.5354 H   0  0  0  0  0  0  0  0  0  0  0  0  # atno 8010 bound_to 7997
  140.0734  144.5133  150.7211 H   0  0  0  0  0  0  0  0  0  0  0  0  # atno 10167 bound_to 10162
  157.3808  130.7752  149.7191 H   0  0  0  0  0  0  0  0  0  0  0  0  # atno 10718 bound_to 10713
  153.2217  135.6882  153.7992 H   0  0  0  0  0  0  0  0  0  0  0  0  # atno 10763 bound_to 10752
  153.7189  135.3270  155.3263 H   0  0  0  0  0  0  0  0  0  0  0  0  # atno 10764 bound_to 10752
  154.8272  135.4608  154.1067 H   0  0  0  0  0  0  0  0  0  0  0  0  # atno 10765 bound_to 10752
  140.5317  134.0460  155.7875 H   0  0  0  0  0  0  0  0  0  0  0  0  # atno 11005 bound_to 11000
  146.3529  140.0504  142.8636 LP  0  0  0  0  0  0  0  0  0  0  0  0  # atno 17320 bound_to 7965
  145.1254  140.9487  143.4576 LP  0  0  0  0  0  0  0  0  0  0  0  0  # atno 17321 bound_to 7965
  140.7114  143.2508  151.4569 LP  0  0  0  0  0  0  0  0  0  0  0  0  # atno 17342 bound_to 10162
  139.5822  144.1684  152.1983 LP  0  0  0  0  0  0  0  0  0  0  0  0  # atno 17343 bound_to 10162
  155.9775  130.4062  150.3706 LP  0  0  0  0  0  0  0  0  0  0  0  0  # atno 17370 bound_to 10713
  157.1810  131.0392  151.2748 LP  0  0  0  0  0  0  0  0  0  0  0  0  # atno 17371 bound_to 10713
  141.1278  133.9354  157.2600 LP  0  0  0  0  0  0  0  0  0  0  0  0  # atno 17394 bound_to 11000
  139.9551  135.0167  156.9104 LP  0  0  0  0  0  0  0  0  0  0  0  0  # atno 17395 bound_to 11000

$$$$
