AV-unprocessed.smi:1256|AV-procd|sdf|5283|dock2
  -GOLD-   22720 4403D 1   1.00000     0.00000
 Structure written by MMmdl.
 41 42  0  0  0  0  0  0  0  0  1 V2000
  150.5136  142.0582  156.1521 C   0  0  0  0  0  0  0  0  0  0  0  0
  150.2395  140.8019  155.3792 C   0  0  0  0  0  0  0  0  0  0  0  0
  149.0098  140.3817  154.7939 C   0  0  0  0  0  0  0  0  0  0  0  0
  149.3409  139.1816  154.2266 C   0  0  0  0  0  0  0  0  0  0  0  0
  148.5542  138.3187  153.5302 N   0  0  0  0  0  0  0  0  0  0  0  0
  147.2123  138.2718  153.4626 C   0  0  0  0  0  0  0  0  0  0  0  0
  146.4400  139.0336  154.0453 O   0  0  0  0  0  0  0  0  0  0  0  0
  146.8033  137.2757  152.6637 N   0  0  0  0  0  0  0  0  0  0  0  0
  145.4110  136.9572  152.3703 C   0  0  0  0  0  0  0  0  0  0  0  0
  145.2770  136.1898  151.0432 C   0  0  0  0  0  0  0  0  0  0  0  0
  145.3153  134.6819  151.2277 C   0  0  0  0  0  0  0  0  0  0  0  0
  146.4131  134.0499  151.6866 C   0  0  0  0  0  0  0  0  0  0  0  0
  146.5264  132.5444  151.8495 C   0  0  0  0  0  0  0  0  0  0  0  0
  145.4141  131.7897  151.1027 C   0  0  0  0  0  0  0  0  0  0  0  0
  144.0519  132.4620  151.3129 C   0  0  0  0  0  0  0  0  0  0  0  0
  144.0589  133.9199  150.8185 C   0  0  0  0  0  0  0  0  0  0  0  0
  150.6730  138.9278  154.4676 N   0  0  0  0  0  0  0  0  0  0  0  0
  151.4811  137.7906  154.0722 C   0  0  0  0  0  0  0  0  0  0  0  0
  151.2245  139.9326  155.1820 N   0  0  0  0  0  0  0  0  0  0  0  0
  149.6162  142.6714  156.2382 H   0  0  0  0  0  0  0  0  0  0  0  0
  151.2806  142.6598  155.6640 H   0  0  0  0  0  0  0  0  0  0  0  0
  150.8579  141.8313  157.1615 H   0  0  0  0  0  0  0  0  0  0  0  0
  148.0578  140.8905  154.8026 H   0  0  0  0  0  0  0  0  0  0  0  0
  149.0506  137.6274  152.9878 H   0  0  0  0  0  0  0  0  0  0  0  0
  147.5043  136.6972  152.2241 H   0  0  0  0  0  0  0  0  0  0  0  0
  145.0264  136.3487  153.1892 H   0  0  0  0  0  0  0  0  0  0  0  0
  144.8181  137.8727  152.3596 H   0  0  0  0  0  0  0  0  0  0  0  0
  144.3469  136.4542  150.5385 H   0  0  0  0  0  0  0  0  0  0  0  0
  146.0839  136.4886  150.3724 H   0  0  0  0  0  0  0  0  0  0  0  0
  147.2831  134.6233  151.9726 H   0  0  0  0  0  0  0  0  0  0  0  0
  147.5020  132.2167  151.4896 H   0  0  0  0  0  0  0  0  0  0  0  0
  146.4876  132.3163  152.9151 H   0  0  0  0  0  0  0  0  0  0  0  0
  145.6410  131.7667  150.0360 H   0  0  0  0  0  0  0  0  0  0  0  0
  145.3810  130.7514  151.4339 H   0  0  0  0  0  0  0  0  0  0  0  0
  143.2692  131.9008  150.8022 H   0  0  0  0  0  0  0  0  0  0  0  0
  143.8040  132.4401  152.3749 H   0  0  0  0  0  0  0  0  0  0  0  0
  143.1707  134.4272  151.1934 H   0  0  0  0  0  0  0  0  0  0  0  0
  143.9952  133.9432  149.7300 H   0  0  0  0  0  0  0  0  0  0  0  0
  151.3580  137.6053  153.0051 H   0  0  0  0  0  0  0  0  0  0  0  0
  151.1652  136.9072  154.6274 H   0  0  0  0  0  0  0  0  0  0  0  0
  152.5357  137.9796  154.2763 H   0  0  0  0  0  0  0  0  0  0  0  0
  1  2  1  0  0  0  0
  1 20  1  0  0  0  0
  1 21  1  0  0  0  0
  1 22  1  0  0  0  0
  2 19  2  0  0  0  0
  2  3  1  0  0  0  0
  3  4  2  0  0  0  0
  3 23  1  0  0  0  0
  4  5  1  0  0  0  0
  4 17  1  0  0  0  0
  5  6  1  0  0  0  0
  5 24  1  0  0  0  0
  6  7  2  0  0  0  0
  6  8  1  0  0  0  0
  8  9  1  0  0  0  0
  8 25  1  0  0  0  0
  9 10  1  0  0  0  0
  9 26  1  0  0  0  0
  9 27  1  0  0  0  0
 10 11  1  0  0  0  0
 10 28  1  0  0  0  0
 10 29  1  0  0  0  0
 11 16  1  0  0  0  0
 11 12  2  0  0  0  0
 12 13  1  0  0  0  0
 12 30  1  0  0  0  0
 13 14  1  0  0  0  0
 13 31  1  0  0  0  0
 13 32  1  0  0  0  0
 14 15  1  0  0  0  0
 14 33  1  0  0  0  0
 14 34  1  0  0  0  0
 15 16  1  0  0  0  0
 15 35  1  0  0  0  0
 15 36  1  0  0  0  0
 16 37  1  0  0  0  0
 16 38  1  0  0  0  0
 17 18  1  0  0  0  0
 17 19  1  0  0  0  0
 18 39  1  0  0  0  0
 18 40  1  0  0  0  0
 18 41  1  0  0  0  0
M  END
> <s_m_source_file>
AV-unprocessed.smi

> <i_m_source_file_index>
1256

> <i_lp_mmshare_version>
43012

> <i_f3d_flags>
0

> <s_epik_input>
W0NIM11jMVtjSF1jKG4objEpW0NIM10pW05IXUMoPU8pW05IXVtDSDJdW0NIMl1DMj1bQ0hdW0NIMl1bQ0gyXVtDSDJdW0NIMl0y

> <s_epik_cmdline>
J2VwaWtfcHl0aG9uJywgJy1waCcsICc3LjAnLCAnLXRuJywgJzgnLCAnLW1hJywgJzIwMCcsICctbWV0YWxfYmluZGluZycsICctaW1hZScsICc8aW5maWxlLm1hZT4nLCAnLW9tYWUnLCAnPG91dGZpbGUubWFlPic=

> <r_lp_tautomer_probability>
1

> <r_epik_Ionization_Penalty>
9.50632e-05

> <r_epik_Ionization_Penalty_Charging>
0

> <r_epik_Ionization_Penalty_Neutral>
9.50632e-05

> <r_epik_State_Penalty>
-0

> <r_epik_Charging_Adjusted_Penalty>
0

> <i_epik_Tot_Q>
0

> <i_epik_Tot_abs_Q>
0

> <r_epik_Metal_State_Penalty>
-0

> <b_epik_Metal_Only>
0

> <s_lp_Force_Field>
OPLS_2005

> <r_lp_Energy>
8.63058

> <b_lp_Chiralities_Consistent>
1

> <s_lp_Variant>
AV-unprocessed.smi:1256-1

> <Gold.Version>
5.8.1

> <Gold.Id.Protein>
6NUR|6NUR_protein|mol2

> <Gold.PLP.Fitness>
42.6724

> <Gold.PLP.PLP>
-36.9790

> <Gold.PLP.part.hbond>
-3.6527

> <Gold.PLP.part.metal>
0.0000

> <Gold.PLP.part.buried>
-1.7098

> <Gold.PLP.part.nonpolar>
-32.5945

> <Gold.PLP.part.repulsive>
0.2551

> <Gold.PLP.ligand.clash>
0.0000

> <Gold.PLP.ligand.torsion>
0.4394

> <Gold.PLP.Chemscore.Hbond>
2.1850

> <Gold.PLP.Chemscore.CHOScore>
0.0000

> <Gold.PLP.Chemscore.Metal>
0.0000

> <Gold.Chemscore.Hbonds>
donor molecule, donor type, donor heavy atom, donor atom, acceptor molecule, acceptor atom, score
      L1  H     5    24       P1  7948  0.98
      L1  H     8    25       P1  7948  1.00
      P1  H  7989  7998       L1    19  0.22

> <Gold.PLP.Chemscore.Internal.Correction>
0.0172

> <Gold.Rescore>
     Score         DG    S(hbond)    S(metal)    S(lipo)     H(rot)  DE(clash)    DE(int)     intcor
     15.94     -17.52       1.90        0.00      79.23       1.40       0.08       1.51       ----

> <Gold.Chemscore.Fitness>
15.9386

> <Gold.Chemscore.DG>
-17.5194

> <Gold.Chemscore.ZeroCoef>
-5.4800

> <Gold.Chemscore.Hbond>
1.8990

> <Gold.Chemscore.Metal>
0.0000

> <Gold.Chemscore.Lipo>
79.2320

> <Gold.Chemscore.Internal_Hbond>
0.0000

> <Gold.Chemscore.DEClash>
0.0756

> <Gold.Chemscore.DEInternal>
1.5052

> <Gold.Chemscore.Rot>
1.3958

> <Gold.Chemscore.Internal.Correction>
   9.000000E+99

> <Gold.Chemscore.Hbonds>
donor molecule, donor type, donor heavy atom, donor atom, acceptor molecule, acceptor atom, score
      L1  H     5    24       P1  7948  0.93
      L1  H     8    25       P1  7948  0.94

> <Gold.Chemscore.Hbond.Weighted>
-6.3425

> <Gold.Chemscore.Metal.Weighted>
-0.0000

> <Gold.Chemscore.Lipo.Weighted>
-9.2701

> <Gold.Chemscore.Internal_Hbond.Weighted>
0.0000

> <Gold.Chemscore.DEClash.Weighted>
0.0756

> <Gold.Chemscore.DEInternal.Weighted>
1.5052

> <Gold.Chemscore.Rot.Weighted>
3.5733

> <Gold.Chemscore.Internal.Correction.Weighted>
   9.000000E+99

> <Gold.Protein.RotatedTorsions>
[ 6907 6896 6895 6894 ] final -141.12 input  -60.11 | X-H torsion
[ 7974 7965 7964 7962 ] final  -58.85 input  175.53 | X-H torsion
[ 8008 7997 7996 7995 ] final  -51.02 input   59.86 | X-H torsion
[ 10167 10162 10161 10158 ] final  -66.85 input  -65.29 | X-H torsion
[ 10718 10713 10712 10709 ] final   51.79 input   66.30 | X-H torsion
[ 10763 10752 10751 10750 ] final -102.01 input  -60.55 | X-H torsion
[ 11005 11000 10999 10996 ] final   78.23 input  -57.11 | X-H torsion

> <Gold.Protein.ActiveResidues>
 VAL166  LYS551  ARG553  GLY616  TRP617  ASP618  TYR619  PRO620  LYS621  CYS622 
 ASP623  PHE694  ASN695  SER759  ASP760  ASP761  ALA762  ILE779  LEU786  VAL792 
 PHE793  MET794  SER795  GLU796  ALA797  LYS798  CYS799  TRP800  GLU811  SER814 

> <Gold.Protein.RotatedAtoms>
  151.0697  133.5476  159.2627 H   0  0  0  0  0  0  0  0  0  0  0  0  # atno 6907 bound_to 6896
  151.2421  135.0592  159.9039 H   0  0  0  0  0  0  0  0  0  0  0  0  # atno 6908 bound_to 6896
  152.5410  134.0470  159.8147 H   0  0  0  0  0  0  0  0  0  0  0  0  # atno 6909 bound_to 6896
  145.8344  140.8458  143.0067 H   0  0  0  0  0  0  0  0  0  0  0  0  # atno 7974 bound_to 7965
  154.4074  140.1258  156.4761 H   0  0  0  0  0  0  0  0  0  0  0  0  # atno 8008 bound_to 7997
  155.7131  140.3493  155.4963 H   0  0  0  0  0  0  0  0  0  0  0  0  # atno 8009 bound_to 7997
  155.9282  140.1065  157.1143 H   0  0  0  0  0  0  0  0  0  0  0  0  # atno 8010 bound_to 7997
  140.5627  143.2313  151.6697 H   0  0  0  0  0  0  0  0  0  0  0  0  # atno 10167 bound_to 10162
  157.5014  130.8440  149.8321 H   0  0  0  0  0  0  0  0  0  0  0  0  # atno 10718 bound_to 10713
  154.7702  135.4876  153.9633 H   0  0  0  0  0  0  0  0  0  0  0  0  # atno 10763 bound_to 10752
  153.1358  135.6762  153.9113 H   0  0  0  0  0  0  0  0  0  0  0  0  # atno 10764 bound_to 10752
  153.8803  135.3133  155.3423 H   0  0  0  0  0  0  0  0  0  0  0  0  # atno 10765 bound_to 10752
  139.9221  134.7747  156.1623 H   0  0  0  0  0  0  0  0  0  0  0  0  # atno 11005 bound_to 11000
  144.6737  140.0719  143.7472 LP  0  0  0  0  0  0  0  0  0  0  0  0  # atno 17320 bound_to 7965
  145.9535  139.2750  143.1198 LP  0  0  0  0  0  0  0  0  0  0  0  0  # atno 17321 bound_to 7965
  139.5077  144.3635  152.0539 LP  0  0  0  0  0  0  0  0  0  0  0  0  # atno 17342 bound_to 10162
  140.2763  144.3909  150.6134 LP  0  0  0  0  0  0  0  0  0  0  0  0  # atno 17343 bound_to 10162
  156.0231  130.3788  150.1901 LP  0  0  0  0  0  0  0  0  0  0  0  0  # atno 17370 bound_to 10713
  157.0091  130.9945  151.3371 LP  0  0  0  0  0  0  0  0  0  0  0  0  # atno 17371 bound_to 10713
  141.0750  133.6779  156.2218 LP  0  0  0  0  0  0  0  0  0  0  0  0  # atno 17394 bound_to 11000
  140.6443  134.5133  157.5572 LP  0  0  0  0  0  0  0  0  0  0  0  0  # atno 17395 bound_to 11000

$$$$
