#       Name:                AV-unprocessed.smi:2033
#       Creating user name   scv26
#       Creation time:       Fri Mar 27 10:53:46 2020


#       File generated by GOLD software.
#

@<TRIPOS>MOLECULE
AV-unprocessed.smi:2033
    39    40     1
SMALL
NO_CHARGES


@<TRIPOS>ATOM
      1 ****        -6.5428   2.5140   0.4036 C.3            1 S1                 0.0000
      2 ****        -5.1659   2.3288  -0.1350 C.2            1 S1                 0.0000
      3 ****        -4.9136   2.1832  -1.4381 N.2            1 S1                 0.0000
      4 ****        -3.5590   2.0248  -1.6936 N.2            1 S1                 0.0000
      5 ****        -2.8086   2.0432  -0.5827 C.2            1 S1                 0.0000
      6 ****        -1.4725   1.9093  -0.6125 N.pl3          1 S1                -1.0000
      7 ****        -0.9088   0.7070  -0.3553 C.2            1 S1                 0.0000
      8 ****        -1.5076  -0.3407  -0.1006 O.2            1 S1                 0.0000
      9 ****         0.4327   0.7192  -0.3930 N.am           1 S1                 0.0000
     10 ****         1.3167  -0.4253  -0.1536 C.3            1 S1                 0.0000
     11 ****         2.6696  -0.1226  -0.8381 C.3            1 S1                 0.0000
     12 ****         3.4966  -1.3794  -1.1609 C.3            1 S1                 0.0000
     13 ****         3.9776  -2.1731   0.0635 C.3            1 S1                 0.0000
     14 ****         2.8340  -2.7439   0.9194 C.3            1 S1                 0.0000
     15 ****         2.2227  -1.7276   1.7656 N.am           1 S1                 0.0000
     16 ****         1.5503  -0.6394   1.3606 C.2            1 S1                 0.0000
     17 ****         1.1347   0.1744   2.1854 O.2            1 S1                 0.0000
     18 ****        -3.7439   2.2823   0.8932 S.3            1 S1                 0.0000
     19 ****        -7.0534   1.5525   0.4581 H              1 S1                 0.0000
     20 ****        -7.1150   3.1807  -0.2423 H              1 S1                 0.0000
     21 ****        -6.5034   2.9473   1.4031 H              1 S1                 0.0000
     22 ****         0.8787   1.6012  -0.5966 H              1 S1                 0.0000
     23 ****         0.8663  -1.3169  -0.5934 H              1 S1                 0.0000
     24 ****         2.4822   0.3863  -1.7849 H              1 S1                 0.0000
     25 ****         3.2607   0.5773  -0.2446 H              1 S1                 0.0000
     26 ****         2.9173  -2.0349  -1.8124 H              1 S1                 0.0000
     27 ****         4.3687  -1.0797  -1.7428 H              1 S1                 0.0000
     28 ****         4.5897  -3.0031  -0.2911 H              1 S1                 0.0000
     29 ****         4.6368  -1.5575   0.6771 H              1 S1                 0.0000
     30 ****         2.0801  -3.2313   0.2997 H              1 S1                 0.0000
     31 ****         3.2317  -3.5140   1.5808 H              1 S1                 0.0000
     32 ****         2.3464  -1.8430   2.7609 H              1 S1                 0.0000
     33 ****        -5.6186   2.1878  -2.1472 LP             1 S1                 0.0000
     34 ****        -3.1811   1.9088  -2.6122 LP             1 S1                 0.0000
     35 ****        -0.8950   2.6977  -0.8246 LP             1 S1                 0.0000
     36 ****        -2.5070  -0.3506  -0.0703 LP             1 S1                 0.0000
     37 ****        -0.9936  -1.1802   0.0756 LP             1 S1                 0.0000
     38 ****         0.6386   0.9871   1.8798 LP             1 S1                 0.0000
     39 ****         1.2933   0.0229   3.1611 LP             1 S1                 0.0000
@<TRIPOS>BOND
    1    1    2 1     
    2    1   19 1     
    3    1   20 1     
    4    1   21 1     
    5    2   18 1     
    6    2    3 2     
    7    3    4 1     
    8    4    5 2     
    9    5    6 1     
   10    5   18 1     
   11    6    7 1     
   12    7    8 2     
   13    7    9 am    
   14    9   10 1     
   15    9   22 1     
   16   10   16 1     
   17   10   11 1     
   18   10   23 1     
   19   11   12 1     
   20   11   24 1     
   21   11   25 1     
   22   12   13 1     
   23   12   26 1     
   24   12   27 1     
   25   13   14 1     
   26   13   28 1     
   27   13   29 1     
   28   14   15 1     
   29   14   30 1     
   30   14   31 1     
   31   15   16 am    
   32   15   32 1     
   33   16   17 2     
   34    3   33 1     
   35    4   34 1     
   36    6   35 1     
   37    8   36 1     
   38    8   37 1     
   39   17   38 1     
   40   17   39 1     
@<TRIPOS>SUBSTRUCTURE
      1 S1             1
@<TRIPOS>SET
LONE_PAIRS      STATIC     ATOMS    <user>   **** ""
7 33 34 35 36 37 38 39
DONOR_HYDROGENS      STATIC     ATOMS    <user>   **** ""
2 22 32
ATOM$BLUE        STATIC     ATOMS    COLORGROUP SYSTEM
7 33 34 35 36 37 38 39
ATOM$RED        STATIC     ATOMS    COLORGROUP SYSTEM
2 22 32
