AV-unprocessed.smi:1107|AV-procd|sdf|4786|dock3
  -GOLD-   22720 3333D 1   1.00000     0.00000
 Structure written by MMmdl.
 48 49  0  0  0  0  0  0  0  0  3 V2000
  153.7153  138.4877  159.2066 C   0  0  0  0  0  0  0  0  0  0  0  0
  152.9194  138.3682  157.9250 C   0  0  0  0  0  0  0  0  0  0  0  0
  152.5590  139.4300  157.3117 N   0  0  0  0  0  0  0  0  0  0  0  0
  151.8056  139.3253  156.1299 C   0  0  0  0  0  0  0  0  0  0  0  0
  151.4005  140.6387  155.4850 C   0  0  0  0  0  0  0  0  0  0  0  0
  151.4594  138.1086  155.6201 C   0  0  0  0  0  0  0  0  0  0  0  0
  150.6134  137.9335  154.3598 C   0  0  0  0  0  0  0  0  0  0  0  0
  149.1760  138.4287  154.5045 C   0  0  0  0  0  0  0  0  0  0  0  0
  148.5205  138.1549  155.5088 O   0  0  0  0  0  0  0  0  0  0  0  0
  148.6914  139.1161  153.4594 N   0  0  0  0  0  0  0  0  0  0  0  0
  147.2974  139.4968  153.2508 C   0  0  1  0  0  0  0  0  0  0  0  0
  147.1667  141.0259  153.2653 C   0  0  0  0  0  0  0  0  0  0  0  0
  146.7702  138.8832  151.9335 C   0  0  0  0  0  0  0  0  0  0  0  0
  146.4140  137.4413  152.0360 N   0  3  0  0  0  0  0  0  0  0  0  0
  145.7282  136.9517  150.8115 C   0  0  0  0  0  0  0  0  0  0  0  0
  145.4758  135.4359  150.8717 C   0  0  0  0  0  0  0  0  0  0  0  0
  144.6969  135.0505  152.1352 C   0  0  0  0  0  0  0  0  0  0  0  0
  145.4133  135.5913  153.3782 C   0  0  0  0  0  0  0  0  0  0  0  0
  145.6466  137.1063  153.2655 C   0  0  0  0  0  0  0  0  0  0  0  0
  151.8899  136.9095  156.3613 C   0  0  0  0  0  0  0  0  0  0  0  0
  151.5754  135.7883  155.9637 O   0  0  0  0  0  0  0  0  0  0  0  0
  152.6162  137.0947  157.4985 N   0  5  0  0  0  0  0  0  0  0  0  0
  154.0933  139.5023  159.3403 H   0  0  0  0  0  0  0  0  0  0  0  0
  154.5675  137.8073  159.1925 H   0  0  0  0  0  0  0  0  0  0  0  0
  153.0874  138.2392  160.0627 H   0  0  0  0  0  0  0  0  0  0  0  0
  150.3180  140.6946  155.3733 H   0  0  0  0  0  0  0  0  0  0  0  0
  151.8585  140.7382  154.5008 H   0  0  0  0  0  0  0  0  0  0  0  0
  151.7174  141.4894  156.0894 H   0  0  0  0  0  0  0  0  0  0  0  0
  151.0796  138.4636  153.5293 H   0  0  0  0  0  0  0  0  0  0  0  0
  150.6058  136.8872  154.0508 H   0  0  0  0  0  0  0  0  0  0  0  0
  149.3284  139.3028  152.6974 H   0  0  0  0  0  0  0  0  0  0  0  0
  146.6838  139.1174  154.0688 H   0  0  0  0  0  0  0  0  0  0  0  0
  146.1291  141.3312  153.1274 H   0  0  0  0  0  0  0  0  0  0  0  0
  147.7575  141.4844  152.4714 H   0  0  0  0  0  0  0  0  0  0  0  0
  147.5081  141.4394  154.2149 H   0  0  0  0  0  0  0  0  0  0  0  0
  145.9141  139.4507  151.5654 H   0  0  0  0  0  0  0  0  0  0  0  0
  147.5515  138.9848  151.1786 H   0  0  0  0  0  0  0  0  0  0  0  0
  144.7838  137.4840  150.6866 H   0  0  0  0  0  0  0  0  0  0  0  0
  146.3377  137.1754  149.9350 H   0  0  0  0  0  0  0  0  0  0  0  0
  144.9298  135.1130  149.9849 H   0  0  0  0  0  0  0  0  0  0  0  0
  146.4273  134.9069  150.8533 H   0  0  0  0  0  0  0  0  0  0  0  0
  143.6863  135.4578  152.0850 H   0  0  0  0  0  0  0  0  0  0  0  0
  144.5969  133.9664  152.1993 H   0  0  0  0  0  0  0  0  0  0  0  0
  144.8300  135.3681  154.2718 H   0  0  0  0  0  0  0  0  0  0  0  0
  146.3702  135.0838  153.5001 H   0  0  0  0  0  0  0  0  0  0  0  0
  146.1844  137.4387  154.1525 H   0  0  0  0  0  0  0  0  0  0  0  0
  144.6927  137.6355  153.2567 H   0  0  0  0  0  0  0  0  0  0  0  0
  147.2865  136.9343  152.0911 H   0  0  0  0  0  0  0  0  0  0  0  0
  1  2  1  0  0  0  0
  1 23  1  0  0  0  0
  1 24  1  0  0  0  0
  1 25  1  0  0  0  0
  2 22  1  0  0  0  0
  2  3  2  0  0  0  0
  3  4  1  0  0  0  0
  4  5  1  0  0  0  0
  4  6  2  0  0  0  0
  5 26  1  0  0  0  0
  5 27  1  0  0  0  0
  5 28  1  0  0  0  0
  6  7  1  0  0  0  0
  6 20  1  0  0  0  0
  7  8  1  0  0  0  0
  7 29  1  0  0  0  0
  7 30  1  0  0  0  0
  8  9  2  0  0  0  0
  8 10  1  0  0  0  0
 10 11  1  0  0  0  0
 10 31  1  0  0  0  0
 11 12  1  0  0  0  0
 11 13  1  0  0  0  0
 11 32  1  0  0  0  0
 12 33  1  0  0  0  0
 12 34  1  0  0  0  0
 12 35  1  0  0  0  0
 13 14  1  0  0  0  0
 13 36  1  0  0  0  0
 13 37  1  0  0  0  0
 14 19  1  0  0  0  0
 14 15  1  0  0  0  0
 14 48  1  0  0  0  0
 15 16  1  0  0  0  0
 15 38  1  0  0  0  0
 15 39  1  0  0  0  0
 16 17  1  0  0  0  0
 16 40  1  0  0  0  0
 16 41  1  0  0  0  0
 17 18  1  0  0  0  0
 17 42  1  0  0  0  0
 17 43  1  0  0  0  0
 18 19  1  0  0  0  0
 18 44  1  0  0  0  0
 18 45  1  0  0  0  0
 19 46  1  0  0  0  0
 19 47  1  0  0  0  0
 20 21  2  0  0  0  0
 20 22  1  0  0  0  0
M  CHG  1  14   1
M  CHG  1  22  -1
M  END
> <s_m_source_file>
AV-unprocessed.smi

> <i_m_source_file_index>
1107

> <i_lp_mmshare_version>
43012

> <i_f3d_flags>
0

> <s_epik_input>
W0NIM11jMW5jKFtDSDNdKWMoYyg9TylbbkhdMSlbQ0gyXUMoPU8pW05IXVtDQEhdKFtDSDNdKVtDSDJdTjJbQ0gyXVtDSDJdW0NIMl1bQ0gyXVtDSDJdMg==

> <s_epik_cmdline>
J2VwaWtfcHl0aG9uJywgJy1waCcsICc3LjAnLCAnLXRuJywgJzgnLCAnLW1hJywgJzIwMCcsICctbWV0YWxfYmluZGluZycsICctaW1hZScsICc8aW5maWxlLm1hZT4nLCAnLW9tYWUnLCAnPG91dGZpbGUubWFlPic=

> <r_lp_tautomer_probability>
0.839158

> <r_epik_Ionization_Penalty>
6.34615

> <r_epik_Ionization_Penalty_Charging>
0.00266072

> <r_epik_Ionization_Penalty_Neutral>
6.34348

> <r_epik_State_Penalty>
4.30851

> <r_epik_Charging_Adjusted_Penalty>
4.31117

> <i_epik_Tot_Q>
0

> <i_epik_Tot_abs_Q>
2

> <r_epik_Metal_State_Penalty>
0.75957

> <b_epik_Metal_Only>
1

> <s_lp_Force_Field>
OPLS_2005

> <r_lp_Energy>
17.1347

> <b_lp_Chiralities_Consistent>
1

> <s_lp_Variant>
AV-unprocessed.smi:1107-6

> <Gold.Version>
5.8.1

> <Gold.Id.Protein>
6NUR|6NUR_protein|mol2

> <Gold.PLP.Fitness>
45.2092

> <Gold.PLP.PLP>
-31.9925

> <Gold.PLP.part.hbond>
-3.8305

> <Gold.PLP.part.metal>
0.0000

> <Gold.PLP.part.buried>
0.9690

> <Gold.PLP.part.nonpolar>
-29.0798

> <Gold.PLP.part.repulsive>
0.2199

> <Gold.PLP.ligand.clash>
0.0000

> <Gold.PLP.ligand.torsion>
0.5340

> <Gold.PLP.Chemscore.Hbond>
4.7379

> <Gold.PLP.Chemscore.CHOScore>
0.0000

> <Gold.PLP.Chemscore.Metal>
0.0000

> <Gold.Chemscore.Hbonds>
donor molecule, donor type, donor heavy atom, donor atom, acceptor molecule, acceptor atom, score
      L1  H    10    31       P1  7957  0.98
      L1  H    14    48       P1  7948  2.00
      P1  H  7997  8008       L1     3  0.96
      P1  H 10752 10765       L1    21  0.80

> <Gold.PLP.Chemscore.Internal.Correction>
0.0712

> <Gold.Rescore>
     Score         DG    S(hbond)    S(metal)    S(lipo)     H(rot)  DE(clash)    DE(int)     intcor
     18.88     -19.94       2.98        0.00      80.70       1.92       0.44       0.62       ----

> <Gold.Chemscore.Fitness>
18.8776

> <Gold.Chemscore.DG>
-19.9382

> <Gold.Chemscore.ZeroCoef>
-5.4800

> <Gold.Chemscore.Hbond>
2.9762

> <Gold.Chemscore.Metal>
0.0000

> <Gold.Chemscore.Lipo>
80.6966

> <Gold.Chemscore.Internal_Hbond>
0.0000

> <Gold.Chemscore.DEClash>
0.4416

> <Gold.Chemscore.DEInternal>
0.6191

> <Gold.Chemscore.Rot>
1.9233

> <Gold.Chemscore.Internal.Correction>
   9.000000E+99

> <Gold.Chemscore.Hbonds>
donor molecule, donor type, donor heavy atom, donor atom, acceptor molecule, acceptor atom, score
      L1  H    10    31       P1  7957  0.93
      L1  H    14    48       P1  7948  1.00
      P1  H  7997  8008       L1     3  0.08
      P1  H 10752 10765       L1    21  0.12

> <Gold.Chemscore.Hbond.Weighted>
-9.9405

> <Gold.Chemscore.Metal.Weighted>
-0.0000

> <Gold.Chemscore.Lipo.Weighted>
-9.4415

> <Gold.Chemscore.Internal_Hbond.Weighted>
0.0000

> <Gold.Chemscore.DEClash.Weighted>
0.4416

> <Gold.Chemscore.DEInternal.Weighted>
0.6191

> <Gold.Chemscore.Rot.Weighted>
4.9237

> <Gold.Chemscore.Internal.Correction.Weighted>
   9.000000E+99

> <Gold.Protein.RotatedTorsions>
[ 6907 6896 6895 6894 ] final  134.90 input  -60.11 | X-H torsion
[ 7974 7965 7964 7962 ] final   68.47 input  175.53 | X-H torsion
[ 8008 7997 7996 7995 ] final  -58.38 input   59.86 | X-H torsion
[ 10167 10162 10161 10158 ] final -118.14 input  -65.29 | X-H torsion
[ 10718 10713 10712 10709 ] final  -53.25 input   66.30 | X-H torsion
[ 10763 10752 10751 10750 ] final -148.27 input  -60.55 | X-H torsion
[ 11005 11000 10999 10996 ] final  -31.31 input  -57.11 | X-H torsion

> <Gold.Protein.ActiveResidues>
 VAL166  LYS551  ARG553  GLY616  TRP617  ASP618  TYR619  PRO620  LYS621  CYS622 
 ASP623  PHE694  ASN695  SER759  ASP760  ASP761  ALA762  ILE779  LEU786  VAL792 
 PHE793  MET794  SER795  GLU796  ALA797  LYS798  CYS799  TRP800  GLU811  SER814 

> <Gold.Protein.RotatedAtoms>
  152.3063  133.5706  159.5651 H   0  0  0  0  0  0  0  0  0  0  0  0  # atno 6907 bound_to 6896
  150.7301  134.0218  159.3713 H   0  0  0  0  0  0  0  0  0  0  0  0  # atno 6908 bound_to 6896
  151.8114  135.0680  160.0464 H   0  0  0  0  0  0  0  0  0  0  0  0  # atno 6909 bound_to 6896
  145.8022  139.2988  143.1148 H   0  0  0  0  0  0  0  0  0  0  0  0  # atno 7974 bound_to 7965
  154.4307  140.1085  156.5948 H   0  0  0  0  0  0  0  0  0  0  0  0  # atno 8008 bound_to 7997
  155.5973  140.3493  155.4565 H   0  0  0  0  0  0  0  0  0  0  0  0  # atno 8009 bound_to 7997
  156.0200  140.1237  157.0356 H   0  0  0  0  0  0  0  0  0  0  0  0  # atno 8010 bound_to 7997
  140.0607  143.4970  152.2033 H   0  0  0  0  0  0  0  0  0  0  0  0  # atno 10167 bound_to 10162
  156.1551  130.4150  149.9882 H   0  0  0  0  0  0  0  0  0  0  0  0  # atno 10718 bound_to 10713
  154.8242  135.3338  154.6948 H   0  0  0  0  0  0  0  0  0  0  0  0  # atno 10763 bound_to 10752
  153.7577  135.6935  153.4936 H   0  0  0  0  0  0  0  0  0  0  0  0  # atno 10764 bound_to 10752
  153.2132  135.4475  155.0354 H   0  0  0  0  0  0  0  0  0  0  0  0  # atno 10765 bound_to 10752
  140.9457  133.7251  156.1143 H   0  0  0  0  0  0  0  0  0  0  0  0  # atno 11005 bound_to 11000
  145.9865  140.8638  143.0088 LP  0  0  0  0  0  0  0  0  0  0  0  0  # atno 17320 bound_to 7965
  144.6767  140.2155  143.7372 LP  0  0  0  0  0  0  0  0  0  0  0  0  # atno 17321 bound_to 7965
  139.5895  144.7544  151.3435 LP  0  0  0  0  0  0  0  0  0  0  0  0  # atno 17342 bound_to 10162
  140.7173  143.7232  150.7680 LP  0  0  0  0  0  0  0  0  0  0  0  0  # atno 17343 bound_to 10162
  156.7728  130.9192  151.3644 LP  0  0  0  0  0  0  0  0  0  0  0  0  # atno 17370 bound_to 10713
  157.6688  130.9032  149.9993 LP  0  0  0  0  0  0  0  0  0  0  0  0  # atno 17371 bound_to 10713
  140.7672  134.3873  157.5514 LP  0  0  0  0  0  0  0  0  0  0  0  0  # atno 17394 bound_to 11000
  139.8833  134.8999  156.2777 LP  0  0  0  0  0  0  0  0  0  0  0  0  # atno 17395 bound_to 11000

$$$$
