AV-unprocessed.smi:618|AV-procd|sdf|3077|dock3
  -GOLD-   22720 0 03D 1   1.00000     0.00000
 Structure written by MMmdl.
 41 43  0  0  0  0  0  0  0  0  2 V2000
  148.0506  136.1908  156.3594 O   0  0  0  0  0  0  0  0  0  0  0  0
  148.4417  136.1808  155.1931 C   0  0  0  0  0  0  0  0  0  0  0  0
  148.4348  135.0833  154.4234 N   0  0  0  0  0  0  0  0  0  0  0  0
  147.9842  133.7598  154.8474 C   0  0  0  0  0  0  0  0  0  0  0  0
  146.7372  133.2711  154.0824 C   0  0  1  0  0  0  0  0  0  0  0  0
  145.5710  134.2775  154.0903 C   0  0  0  0  0  0  0  0  0  0  0  0
  144.4014  133.7591  153.3367 N   0  3  1  0  0  0  0  0  0  0  0  0
  143.3947  134.8112  153.0737 C   0  0  0  0  0  0  0  0  0  0  0  0
  143.6586  135.3272  151.6469 C   0  0  0  0  0  0  0  0  0  0  0  0
  144.7735  134.4384  151.0831 C   0  0  0  0  0  0  0  0  0  0  0  0
  144.7614  133.2205  152.0066 C   0  0  1  0  0  0  0  0  0  0  0  0
  146.0452  132.3657  152.0187 C   0  0  0  0  0  0  0  0  0  0  0  0
  147.0908  133.0111  152.7303 O   0  0  0  0  0  0  0  0  0  0  0  0
  148.9163  137.2414  154.5173 N   0  0  0  0  0  0  0  0  0  0  0  0
  149.0918  138.5817  154.9594 C   0  0  0  0  0  0  0  0  0  0  0  0
  148.7499  139.0572  156.2493 C   0  0  0  0  0  0  0  0  0  0  0  0
  148.9881  140.4098  156.5605 C   0  0  0  0  0  0  0  0  0  0  0  0
  149.5636  141.2364  155.5764 C   0  0  0  0  0  0  0  0  0  0  0  0
  149.9047  140.7952  154.3478 N   0  0  0  0  0  0  0  0  0  0  0  0
  149.6734  139.4976  154.0565 C   0  0  0  0  0  0  0  0  0  0  0  0
  148.7648  135.1687  153.4731 H   0  0  0  0  0  0  0  0  0  0  0  0
  148.7929  133.0328  154.7556 H   0  0  0  0  0  0  0  0  0  0  0  0
  147.7532  133.8198  155.9111 H   0  0  0  0  0  0  0  0  0  0  0  0
  146.4124  132.3386  154.5480 H   0  0  0  0  0  0  0  0  0  0  0  0
  145.2664  134.4958  155.1143 H   0  0  0  0  0  0  0  0  0  0  0  0
  145.8933  135.2217  153.6486 H   0  0  0  0  0  0  0  0  0  0  0  0
  142.4046  134.3565  153.1208 H   0  0  0  0  0  0  0  0  0  0  0  0
  143.4182  135.6091  153.8178 H   0  0  0  0  0  0  0  0  0  0  0  0
  142.7537  135.2442  151.0437 H   0  0  0  0  0  0  0  0  0  0  0  0
  143.9589  136.3756  151.6462 H   0  0  0  0  0  0  0  0  0  0  0  0
  144.6127  134.1738  150.0375 H   0  0  0  0  0  0  0  0  0  0  0  0
  145.7317  134.9557  151.1519 H   0  0  0  0  0  0  0  0  0  0  0  0
  143.9358  132.5815  151.6877 H   0  0  0  0  0  0  0  0  0  0  0  0
  145.8468  131.3947  152.4751 H   0  0  0  0  0  0  0  0  0  0  0  0
  146.3768  132.1665  150.9995 H   0  0  0  0  0  0  0  0  0  0  0  0
  149.1412  137.0797  153.5467 H   0  0  0  0  0  0  0  0  0  0  0  0
  148.3238  138.4205  157.0080 H   0  0  0  0  0  0  0  0  0  0  0  0
  148.7374  140.8040  157.5342 H   0  0  0  0  0  0  0  0  0  0  0  0
  149.7598  142.2781  155.7830 H   0  0  0  0  0  0  0  0  0  0  0  0
  149.9617  139.1806  153.0647 H   0  0  0  0  0  0  0  0  0  0  0  0
  143.9860  133.0217  153.8882 H   0  0  0  0  0  0  0  0  0  0  0  0
  1  2  2  0  0  0  0
  2  3  1  0  0  0  0
  2 14  1  0  0  0  0
  3  4  1  0  0  0  0
  3 21  1  0  0  0  0
  4  5  1  0  0  0  0
  4 22  1  0  0  0  0
  4 23  1  0  0  0  0
  5 13  1  0  0  0  0
  5  6  1  0  0  0  0
  5 24  1  0  0  0  0
  6  7  1  0  0  0  0
  6 25  1  0  0  0  0
  6 26  1  0  0  0  0
  7 11  1  0  0  0  0
  7  8  1  0  0  0  0
  7 41  1  0  0  0  0
  8  9  1  0  0  0  0
  8 27  1  0  0  0  0
  8 28  1  0  0  0  0
  9 10  1  0  0  0  0
  9 29  1  0  0  0  0
  9 30  1  0  0  0  0
 10 11  1  0  0  0  0
 10 31  1  0  0  0  0
 10 32  1  0  0  0  0
 11 12  1  0  0  0  0
 11 33  1  0  0  0  0
 12 13  1  0  0  0  0
 12 34  1  0  0  0  0
 12 35  1  0  0  0  0
 14 15  1  0  0  0  0
 14 36  1  0  0  0  0
 15 20  1  0  0  0  0
 15 16  2  0  0  0  0
 16 17  1  0  0  0  0
 16 37  1  0  0  0  0
 17 18  2  0  0  0  0
 17 38  1  0  0  0  0
 18 19  1  0  0  0  0
 18 39  1  0  0  0  0
 19 20  2  0  0  0  0
 20 40  1  0  0  0  0
M  CHG  1   7   1
M  END
> <s_m_source_file>
AV-unprocessed.smi

> <i_m_source_file_index>
618

> <i_lp_mmshare_version>
43012

> <i_f3d_flags>
0

> <s_epik_input>
W2NIXTFuW2NIXVtjSF1bY0hdYzFbTkhdQyg9TylbTkhdW0NIMl1bQ0BIXShbQ0gyXTIpT1tDSDJdW0NAQEhdKE4yMylbQ0gyXVtDSDJdW0NIMl0z

> <s_epik_cmdline>
J2VwaWtfcHl0aG9uJywgJy1waCcsICc3LjAnLCAnLXRuJywgJzgnLCAnLW1hJywgJzIwMCcsICctbWV0YWxfYmluZGluZycsICctaW1hZScsICc8aW5maWxlLm1hZT4nLCAnLW9tYWUnLCAnPG91dGZpbGUubWFlPic=

> <r_epik_Ionization_Penalty>
0.111044

> <r_epik_Ionization_Penalty_Charging>
0.10673

> <r_epik_Ionization_Penalty_Neutral>
0.00431361

> <r_epik_State_Penalty>
0.0978747

> <r_epik_Charging_Adjusted_Penalty>
0.204605

> <i_epik_Tot_Q>
1

> <i_epik_Tot_abs_Q>
1

> <r_epik_Metal_State_Penalty>
0.0947591

> <b_epik_Metal_Only>
0

> <s_lp_Force_Field>
OPLS_2005

> <r_lp_Energy>
41.8914

> <b_lp_Chiralities_Consistent>
1

> <s_lp_Variant>
AV-unprocessed.smi:618-4

> <Gold.Version>
5.8.1

> <Gold.Id.Protein>
6NUR|6NUR_protein|mol2

> <Gold.PLP.Fitness>
40.9399

> <Gold.PLP.PLP>
-21.5012

> <Gold.PLP.part.hbond>
-4.0000

> <Gold.PLP.part.metal>
0.0000

> <Gold.PLP.part.buried>
-3.3234

> <Gold.PLP.part.nonpolar>
-15.4764

> <Gold.PLP.part.repulsive>
0.2866

> <Gold.PLP.ligand.clash>
0.0000

> <Gold.PLP.ligand.torsion>
0.0460

> <Gold.PLP.Chemscore.Hbond>
4.5120

> <Gold.PLP.Chemscore.CHOScore>
1.9974

> <Gold.PLP.Chemscore.Metal>
0.0000

> <Gold.Chemscore.Hbonds>
donor molecule, donor type, donor heavy atom, donor atom, acceptor molecule, acceptor atom, score
      L1  H     3    21       P1  7948  1.00
      L1  H     7    41       P1 10957  2.00
      L1  H    14    36       P1  7948  1.00
      P1  H  7989  7998       L1    19  0.54
      L1  C    18    39       P1  8028  0.84
      L1  C    20    40       P1  7957  1.00

> <Gold.PLP.Chemscore.Internal.Correction>
0.0025

> <Gold.Rescore>
     Score         DG    S(hbond)    S(metal)    S(lipo)     H(rot)  DE(clash)    DE(int)     intcor
     19.79     -21.03       3.73        0.00      54.04       1.27       0.00       1.24       ----

> <Gold.Chemscore.Fitness>
19.7901

> <Gold.Chemscore.DG>
-21.0270

> <Gold.Chemscore.ZeroCoef>
-5.4800

> <Gold.Chemscore.Hbond>
3.7319

> <Gold.Chemscore.Metal>
0.0000

> <Gold.Chemscore.Lipo>
54.0361

> <Gold.Chemscore.Internal_Hbond>
0.0000

> <Gold.Chemscore.DEClash>
0.0000

> <Gold.Chemscore.DEInternal>
1.2369

> <Gold.Chemscore.Rot>
1.2656

> <Gold.Chemscore.Internal.Correction>
   9.000000E+99

> <Gold.Chemscore.Hbonds>
donor molecule, donor type, donor heavy atom, donor atom, acceptor molecule, acceptor atom, score
      L1  H     3    21       P1  7948  0.67
      L1  H     7    41       P1 10957  0.90
      L1  H    14    36       P1  7948  0.98
      P1  H  7989  7998       L1    19  0.08

> <Gold.Chemscore.Hbond.Weighted>
-12.4647

> <Gold.Chemscore.Metal.Weighted>
-0.0000

> <Gold.Chemscore.Lipo.Weighted>
-6.3222

> <Gold.Chemscore.Internal_Hbond.Weighted>
0.0000

> <Gold.Chemscore.DEClash.Weighted>
0.0000

> <Gold.Chemscore.DEInternal.Weighted>
1.2369

> <Gold.Chemscore.Rot.Weighted>
3.2399

> <Gold.Chemscore.Internal.Correction.Weighted>
   9.000000E+99

> <Gold.Protein.RotatedTorsions>
[ 6907 6896 6895 6894 ] final  168.57 input  -60.11 | X-H torsion
[ 7974 7965 7964 7962 ] final   29.04 input  175.53 | X-H torsion
[ 8008 7997 7996 7995 ] final   76.32 input   59.86 | X-H torsion
[ 10167 10162 10161 10158 ] final  -98.47 input  -65.29 | X-H torsion
[ 10718 10713 10712 10709 ] final   76.04 input   66.30 | X-H torsion
[ 10763 10752 10751 10750 ] final   77.03 input  -60.55 | X-H torsion
[ 11005 11000 10999 10996 ] final   53.67 input  -57.11 | X-H torsion

> <Gold.Protein.ActiveResidues>
 VAL166  LYS551  ARG553  GLY616  TRP617  ASP618  TYR619  PRO620  LYS621  CYS622 
 ASP623  PHE694  ASN695  SER759  ASP760  ASP761  ALA762  ILE779  LEU786  VAL792 
 PHE793  MET794  SER795  GLU796  ALA797  LYS798  CYS799  TRP800  GLU811  SER814 

> <Gold.Protein.RotatedAtoms>
  151.8455  133.3431  159.3656 H   0  0  0  0  0  0  0  0  0  0  0  0  # atno 6907 bound_to 6896
  150.7222  134.5350  159.5728 H   0  0  0  0  0  0  0  0  0  0  0  0  # atno 6908 bound_to 6896
  152.2833  134.7805  160.0443 H   0  0  0  0  0  0  0  0  0  0  0  0  # atno 6909 bound_to 6896
  146.1694  139.6974  142.8978 H   0  0  0  0  0  0  0  0  0  0  0  0  # atno 7974 bound_to 7965
  155.8256  140.3468  155.5540 H   0  0  0  0  0  0  0  0  0  0  0  0  # atno 8008 bound_to 7997
  155.8296  140.0925  157.1820 H   0  0  0  0  0  0  0  0  0  0  0  0  # atno 8009 bound_to 7997
  154.4004  140.1414  156.3586 H   0  0  0  0  0  0  0  0  0  0  0  0  # atno 8010 bound_to 7997
  140.2726  143.3334  152.0520 H   0  0  0  0  0  0  0  0  0  0  0  0  # atno 10167 bound_to 10162
  157.6658  130.9755  150.1440 H   0  0  0  0  0  0  0  0  0  0  0  0  # atno 10718 bound_to 10713
  153.0769  135.4929  154.8422 H   0  0  0  0  0  0  0  0  0  0  0  0  # atno 10763 bound_to 10752
  154.7099  135.3018  154.9216 H   0  0  0  0  0  0  0  0  0  0  0  0  # atno 10764 bound_to 10752
  153.9913  135.6778  153.4807 H   0  0  0  0  0  0  0  0  0  0  0  0  # atno 10765 bound_to 10752
  140.0748  134.5419  155.9007 H   0  0  0  0  0  0  0  0  0  0  0  0  # atno 11005 bound_to 11000
  145.4381  141.0420  143.2873 LP  0  0  0  0  0  0  0  0  0  0  0  0  # atno 17320 bound_to 7965
  144.8140  139.5910  143.7016 LP  0  0  0  0  0  0  0  0  0  0  0  0  # atno 17321 bound_to 7965
  139.4984  144.6646  151.6386 LP  0  0  0  0  0  0  0  0  0  0  0  0  # atno 17342 bound_to 10162
  140.5877  143.9834  150.6306 LP  0  0  0  0  0  0  0  0  0  0  0  0  # atno 17343 bound_to 10162
  156.2255  130.3677  149.8505 LP  0  0  0  0  0  0  0  0  0  0  0  0  # atno 17370 bound_to 10713
  156.6346  130.8680  151.3502 LP  0  0  0  0  0  0  0  0  0  0  0  0  # atno 17371 bound_to 10713
  141.2025  133.6626  156.6012 LP  0  0  0  0  0  0  0  0  0  0  0  0  # atno 17394 bound_to 11000
  140.3573  134.7717  157.4509 LP  0  0  0  0  0  0  0  0  0  0  0  0  # atno 17395 bound_to 11000

$$$$
