AV-unprocessed.smi:2471|AV-procd|sdf|9738|dock3
  -GOLD-   2272013373D 1   1.00000     0.00000
 Structure written by MMmdl.
 40 41  0  0  0  0  0  0  0  0  1 V2000
  146.5163  129.1872  152.8615 C   0  0  0  0  0  0  0  0  0  0  0  0
  146.3662  130.6306  152.4289 C   0  0  0  0  0  0  0  0  0  0  0  0
  145.3194  131.0251  151.5730 C   0  0  0  0  0  0  0  0  0  0  0  0
  145.2341  132.3819  151.2124 C   0  0  0  0  0  0  0  0  0  0  0  0
  146.1914  133.2818  151.7196 C   0  0  0  0  0  0  0  0  0  0  0  0
  147.2093  132.8046  152.5757 C   0  0  0  0  0  0  0  0  0  0  0  0
  148.1201  133.7920  153.0382 N   0  0  0  0  0  0  0  0  0  0  0  0
  149.0439  133.6796  154.0092 C   0  0  0  0  0  0  0  0  0  0  0  0
  149.2791  132.6574  154.6546 O   0  0  0  0  0  0  0  0  0  0  0  0
  149.6956  134.8362  154.1975 N   0  0  0  0  0  0  0  0  0  0  0  0
  150.7531  135.0488  155.1815 C   0  0  0  0  0  0  0  0  0  0  0  0
  150.8667  136.5264  155.6209 C   0  0  1  0  0  0  0  0  0  0  0  0
  151.9649  136.7555  156.6842 C   0  0  0  0  0  0  0  0  0  0  0  0
  152.0225  138.2250  157.1310 C   0  0  0  0  0  0  0  0  0  0  0  0
  152.2229  139.1679  155.9356 C   0  0  0  0  0  0  0  0  0  0  0  0
  151.1373  138.9526  154.8672 C   0  0  0  0  0  0  0  0  0  0  0  0
  151.0501  137.4814  154.4162 C   0  0  1  0  0  0  0  0  0  0  0  0
  152.2089  137.1527  153.6724 O   0  0  0  0  0  0  0  0  0  0  0  0
  147.2834  131.4937  152.9166 N   0  0  0  0  0  0  0  0  0  0  0  0
  145.9041  128.5264  152.2472 H   0  0  0  0  0  0  0  0  0  0  0  0
  146.2078  129.0719  153.9007 H   0  0  0  0  0  0  0  0  0  0  0  0
  147.5547  128.8657  152.7732 H   0  0  0  0  0  0  0  0  0  0  0  0
  144.5996  130.3100  151.2026 H   0  0  0  0  0  0  0  0  0  0  0  0
  144.4468  132.7278  150.5588 H   0  0  0  0  0  0  0  0  0  0  0  0
  146.1386  134.3276  151.4534 H   0  0  0  0  0  0  0  0  0  0  0  0
  148.0474  134.6929  152.5897 H   0  0  0  0  0  0  0  0  0  0  0  0
  149.4428  135.6269  153.6229 H   0  0  0  0  0  0  0  0  0  0  0  0
  150.5375  134.4154  156.0422 H   0  0  0  0  0  0  0  0  0  0  0  0
  151.7044  134.6994  154.7762 H   0  0  0  0  0  0  0  0  0  0  0  0
  149.9157  136.7960  156.0834 H   0  0  0  0  0  0  0  0  0  0  0  0
  151.7852  136.1277  157.5572 H   0  0  0  0  0  0  0  0  0  0  0  0
  152.9352  136.4557  156.2863 H   0  0  0  0  0  0  0  0  0  0  0  0
  151.0990  138.4847  157.6500 H   0  0  0  0  0  0  0  0  0  0  0  0
  152.8301  138.3624  157.8507 H   0  0  0  0  0  0  0  0  0  0  0  0
  152.2093  140.2042  156.2740 H   0  0  0  0  0  0  0  0  0  0  0  0
  153.2084  139.0008  155.4992 H   0  0  0  0  0  0  0  0  0  0  0  0
  150.1730  139.2568  155.2764 H   0  0  0  0  0  0  0  0  0  0  0  0
  151.3206  139.6019  154.0103 H   0  0  0  0  0  0  0  0  0  0  0  0
  150.1984  137.3743  153.7433 H   0  0  0  0  0  0  0  0  0  0  0  0
  151.9519  136.9735  152.7810 H   0  0  0  0  0  0  0  0  0  0  0  0
  1  2  1  0  0  0  0
  1 20  1  0  0  0  0
  1 21  1  0  0  0  0
  1 22  1  0  0  0  0
  2 19  1  0  0  0  0
  2  3  2  0  0  0  0
  3  4  1  0  0  0  0
  3 23  1  0  0  0  0
  4  5  2  0  0  0  0
  4 24  1  0  0  0  0
  5  6  1  0  0  0  0
  5 25  1  0  0  0  0
  6  7  1  0  0  0  0
  6 19  2  0  0  0  0
  7  8  1  0  0  0  0
  7 26  1  0  0  0  0
  8  9  2  0  0  0  0
  8 10  1  0  0  0  0
 10 11  1  0  0  0  0
 10 27  1  0  0  0  0
 11 12  1  0  0  0  0
 11 28  1  0  0  0  0
 11 29  1  0  0  0  0
 12 17  1  0  0  0  0
 12 13  1  0  0  0  0
 12 30  1  0  0  0  0
 13 14  1  0  0  0  0
 13 31  1  0  0  0  0
 13 32  1  0  0  0  0
 14 15  1  0  0  0  0
 14 33  1  0  0  0  0
 14 34  1  0  0  0  0
 15 16  1  0  0  0  0
 15 35  1  0  0  0  0
 15 36  1  0  0  0  0
 16 17  1  0  0  0  0
 16 37  1  0  0  0  0
 16 38  1  0  0  0  0
 17 18  1  0  0  0  0
 17 39  1  0  0  0  0
 18 40  1  0  0  0  0
M  END
> <s_m_source_file>
AV-unprocessed.smi

> <i_m_source_file_index>
2471

> <i_lp_mmshare_version>
43012

> <i_f3d_flags>
0

> <s_epik_input>
W0NIM11jMVtjSF1bY0hdW2NIXWMobjEpW05IXUMoPU8pW05IXVtDSDJdW0NAQEhdMltDSDJdW0NIMl1bQ0gyXVtDSDJdW0NASF0yW09IXQ==

> <s_epik_cmdline>
J2VwaWtfcHl0aG9uJywgJy1waCcsICc3LjAnLCAnLXRuJywgJzgnLCAnLW1hJywgJzIwMCcsICctbWV0YWxfYmluZGluZycsICctaW1hZScsICc8aW5maWxlLm1hZT4nLCAnLW9tYWUnLCAnPG91dGZpbGUubWFlPic=

> <r_lp_tautomer_probability>
1

> <r_epik_Ionization_Penalty>
8.52237e-05

> <r_epik_Ionization_Penalty_Charging>
0

> <r_epik_Ionization_Penalty_Neutral>
8.52237e-05

> <r_epik_State_Penalty>
-0

> <r_epik_Charging_Adjusted_Penalty>
0

> <i_epik_Tot_Q>
0

> <i_epik_Tot_abs_Q>
0

> <r_epik_Metal_State_Penalty>
-0

> <b_epik_Metal_Only>
0

> <s_lp_Force_Field>
OPLS_2005

> <r_lp_Energy>
16.6086

> <b_lp_Chiralities_Consistent>
1

> <s_lp_Variant>
AV-unprocessed.smi:2471-2

> <Gold.Version>
5.8.1

> <Gold.Id.Protein>
6NUR|6NUR_protein|mol2

> <Gold.PLP.Fitness>
46.3241

> <Gold.PLP.PLP>
-35.1230

> <Gold.PLP.part.hbond>
-4.2141

> <Gold.PLP.part.metal>
0.0000

> <Gold.PLP.part.buried>
-3.8789

> <Gold.PLP.part.nonpolar>
-26.4504

> <Gold.PLP.part.repulsive>
0.1800

> <Gold.PLP.ligand.clash>
0.0000

> <Gold.PLP.ligand.torsion>
0.2152

> <Gold.PLP.Chemscore.Hbond>
3.8720

> <Gold.PLP.Chemscore.CHOScore>
0.0000

> <Gold.PLP.Chemscore.Metal>
0.0000

> <Gold.Chemscore.Hbonds>
donor molecule, donor type, donor heavy atom, donor atom, acceptor molecule, acceptor atom, score
      L1  H     7    26       P1  7948  0.94
      L1  H    10    27       P1  7948  0.90
      L1  H    18    40       P1  7949  1.00
      P1  H 10752 10764       L1    18  0.99

> <Gold.PLP.Chemscore.Internal.Correction>
0.0154

> <Gold.Rescore>
     Score         DG    S(hbond)    S(metal)    S(lipo)     H(rot)  DE(clash)    DE(int)     intcor
     18.08     -19.58       2.88        0.00      76.30       1.73       0.02       1.47       ----

> <Gold.Chemscore.Fitness>
18.0824

> <Gold.Chemscore.DG>
-19.5804

> <Gold.Chemscore.ZeroCoef>
-5.4800

> <Gold.Chemscore.Hbond>
2.8779

> <Gold.Chemscore.Metal>
0.0000

> <Gold.Chemscore.Lipo>
76.2976

> <Gold.Chemscore.Internal_Hbond>
0.0000

> <Gold.Chemscore.DEClash>
0.0234

> <Gold.Chemscore.DEInternal>
1.4745

> <Gold.Chemscore.Rot>
1.7339

> <Gold.Chemscore.Internal.Correction>
   9.000000E+99

> <Gold.Chemscore.Hbonds>
donor molecule, donor type, donor heavy atom, donor atom, acceptor molecule, acceptor atom, score
      L1  H     7    26       P1  7948  0.55
      L1  H    10    27       P1  7948  0.26
      L1  H    18    40       P1  7949  0.98
      P1  H 10752 10764       L1    18  0.27

> <Gold.Chemscore.Hbond.Weighted>
-9.6122

> <Gold.Chemscore.Metal.Weighted>
-0.0000

> <Gold.Chemscore.Lipo.Weighted>
-8.9268

> <Gold.Chemscore.Internal_Hbond.Weighted>
0.0000

> <Gold.Chemscore.DEClash.Weighted>
0.0234

> <Gold.Chemscore.DEInternal.Weighted>
1.4745

> <Gold.Chemscore.Rot.Weighted>
4.4387

> <Gold.Chemscore.Internal.Correction.Weighted>
   9.000000E+99

> <Gold.Protein.RotatedTorsions>
[ 6907 6896 6895 6894 ] final  100.63 input  -60.11 | X-H torsion
[ 7974 7965 7964 7962 ] final   80.27 input  175.53 | X-H torsion
[ 8008 7997 7996 7995 ] final  117.71 input   59.86 | X-H torsion
[ 10167 10162 10161 10158 ] final  117.45 input  -65.29 | X-H torsion
[ 10718 10713 10712 10709 ] final  111.78 input   66.30 | X-H torsion
[ 10763 10752 10751 10750 ] final  -89.45 input  -60.55 | X-H torsion
[ 11005 11000 10999 10996 ] final   54.01 input  -57.11 | X-H torsion

> <Gold.Protein.ActiveResidues>
 VAL166  LYS551  ARG553  GLY616  TRP617  ASP618  TYR619  PRO620  LYS621  CYS622 
 ASP623  PHE694  ASN695  SER759  ASP760  ASP761  ALA762  ILE779  LEU786  VAL792 
 PHE793  MET794  SER795  GLU796  ALA797  LYS798  CYS799  TRP800  GLU811  SER814 

> <Gold.Protein.RotatedAtoms>
  152.5368  134.0248  159.7997 H   0  0  0  0  0  0  0  0  0  0  0  0  # atno 6907 bound_to 6896
  151.0428  133.5683  159.2656 H   0  0  0  0  0  0  0  0  0  0  0  0  # atno 6908 bound_to 6896
  151.2646  135.0672  159.9165 H   0  0  0  0  0  0  0  0  0  0  0  0  # atno 6909 bound_to 6896
  145.6534  139.2453  143.1964 H   0  0  0  0  0  0  0  0  0  0  0  0  # atno 7974 bound_to 7965
  156.2508  140.2890  156.0721 H   0  0  0  0  0  0  0  0  0  0  0  0  # atno 8008 bound_to 7997
  155.1659  140.0400  157.2870 H   0  0  0  0  0  0  0  0  0  0  0  0  # atno 8009 bound_to 7997
  154.6360  140.2511  155.7385 H   0  0  0  0  0  0  0  0  0  0  0  0  # atno 8010 bound_to 7997
  139.6178  144.7095  151.2701 H   0  0  0  0  0  0  0  0  0  0  0  0  # atno 10167 bound_to 10162
  157.6427  131.0956  150.6799 H   0  0  0  0  0  0  0  0  0  0  0  0  # atno 10718 bound_to 10713
  154.6554  135.5340  153.7953 H   0  0  0  0  0  0  0  0  0  0  0  0  # atno 10763 bound_to 10752
  153.0410  135.6493  154.0953 H   0  0  0  0  0  0  0  0  0  0  0  0  # atno 10764 bound_to 10752
  154.0866  135.2943  155.3260 H   0  0  0  0  0  0  0  0  0  0  0  0  # atno 10765 bound_to 10752
  140.0720  134.5456  155.9036 H   0  0  0  0  0  0  0  0  0  0  0  0  # atno 11005 bound_to 11000
  146.1185  140.7339  142.9469 LP  0  0  0  0  0  0  0  0  0  0  0  0  # atno 17320 bound_to 7965
  144.7114  140.4053  143.7077 LP  0  0  0  0  0  0  0  0  0  0  0  0  # atno 17321 bound_to 7965
  140.7362  143.6714  150.8079 LP  0  0  0  0  0  0  0  0  0  0  0  0  # atno 17342 bound_to 10162
  140.0319  143.5434  152.2756 LP  0  0  0  0  0  0  0  0  0  0  0  0  # atno 17343 bound_to 10162
  156.7120  130.4654  149.5545 LP  0  0  0  0  0  0  0  0  0  0  0  0  # atno 17370 bound_to 10713
  156.1723  130.6445  151.0853 LP  0  0  0  0  0  0  0  0  0  0  0  0  # atno 17371 bound_to 10713
  141.2015  133.6619  156.5957 LP  0  0  0  0  0  0  0  0  0  0  0  0  # atno 17394 bound_to 11000
  140.3613  134.7685  157.4535 LP  0  0  0  0  0  0  0  0  0  0  0  0  # atno 17395 bound_to 11000

$$$$
