#       Name:                AV-unprocessed.smi:456
#       Creating user name   scv26
#       Creation time:       Thu Mar 26 23:01:57 2020


#       File generated by GOLD software.
#

@<TRIPOS>MOLECULE
AV-unprocessed.smi:456
    35    37     1
SMALL
NO_CHARGES


@<TRIPOS>ATOM
      1 ****        -1.3820   1.6846   0.6623 O.3            1 S1                 0.0000
      2 ****        -0.8807   0.3616   0.6804 C.3            1 S1                 0.0000
      3 ****         0.6601   0.3913   0.6589 C.3            1 S1                 0.0000
      4 ****         1.2009   1.0992  -0.5088 N.pl3          1 S1                 0.0000
      5 ****         1.6380   2.3821  -0.6292 C.2            1 S1                 0.0000
      6 ****         2.0413   2.5589  -1.9182 N.pl3          1 S1                 1.0000
      7 ****         1.8576   1.3718  -2.6314 C.ar           1 S1                 0.0000
      8 ****         2.1156   1.0564  -3.9614 C.ar           1 S1                 0.0000
      9 ****         1.8097  -0.2576  -4.3735 C.ar           1 S1                 0.0000
     10 ****         2.0423  -0.6180  -5.6577 F              1 S1                 0.0000
     11 ****         1.2673  -1.2014  -3.4752 C.ar           1 S1                 0.0000
     12 ****         0.9880  -2.4522  -3.9121 F              1 S1                 0.0000
     13 ****         1.0092  -0.8696  -2.1288 C.ar           1 S1                 0.0000
     14 ****         1.3166   0.4304  -1.7310 C.ar           1 S1                 0.0000
     15 ****        -1.3997  -0.4371   1.8653 C.ar           1 S1                 0.0000
     16 ****        -1.8592  -1.7583   1.6754 C.ar           1 S1                 0.0000
     17 ****        -2.3328  -2.5095   2.7685 C.ar           1 S1                 0.0000
     18 ****        -2.3464  -1.9454   4.0586 C.ar           1 S1                 0.0000
     19 ****        -1.8853  -0.6295   4.2552 C.ar           1 S1                 0.0000
     20 ****        -1.4125   0.1226   3.1623 C.ar           1 S1                 0.0000
     21 ****        -2.3249   1.6460   0.6084 H              1 S1                 0.0000
     22 ****        -1.2381  -0.1160  -0.2327 H              1 S1                 0.0000
     23 ****         1.0444   0.8887   1.5506 H              1 S1                 0.0000
     24 ****         1.0699  -0.6197   0.6689 H              1 S1                 0.0000
     25 ****         1.6574   3.1251   0.1552 H              1 S1                 0.0000
     26 ****         2.5299   1.7756  -4.6526 H              1 S1                 0.0000
     27 ****         0.5927  -1.5983  -1.4494 H              1 S1                 0.0000
     28 ****        -1.8495  -2.2019   0.6904 H              1 S1                 0.0000
     29 ****        -2.6845  -3.5195   2.6172 H              1 S1                 0.0000
     30 ****        -2.7086  -2.5220   4.8969 H              1 S1                 0.0000
     31 ****        -1.8928  -0.1971   5.2450 H              1 S1                 0.0000
     32 ****        -1.0572   1.1298   3.3241 H              1 S1                 0.0000
     33 ****         2.4126   3.4277  -2.2811 H              1 S1                 0.0000
     34 ****        -1.0181   2.1728  -0.1310 LP             1 S1                 0.0000
     35 ****        -1.1108   2.1600   1.4993 LP             1 S1                 0.0000
@<TRIPOS>BOND
    1    1    2 1     
    2    1   21 1     
    3    2    3 1     
    4    2   15 1     
    5    2   22 1     
    6    3    4 1     
    7    3   23 1     
    8    3   24 1     
    9    4   14 1     
   10    4    5 1     
   11    5    6 2     
   12    5   25 1     
   13    6    7 1     
   14    6   33 1     
   15    7   14 ar    
   16    7    8 ar    
   17    8    9 ar    
   18    8   26 1     
   19    9   10 1     
   20    9   11 ar    
   21   11   12 1     
   22   11   13 ar    
   23   13   14 ar    
   24   13   27 1     
   25   15   20 ar    
   26   15   16 ar    
   27   16   17 ar    
   28   16   28 1     
   29   17   18 ar    
   30   17   29 1     
   31   18   19 ar    
   32   18   30 1     
   33   19   20 ar    
   34   19   31 1     
   35   20   32 1     
   36    1   34 1     
   37    1   35 1     
@<TRIPOS>SUBSTRUCTURE
      1 S1             1
@<TRIPOS>SET
LONE_PAIRS      STATIC     ATOMS    <user>   **** ""
2 34 35
DONOR_HYDROGENS      STATIC     ATOMS    <user>   **** ""
2 21 33
ATOM$BLUE        STATIC     ATOMS    COLORGROUP SYSTEM
2 34 35
ATOM$RED        STATIC     ATOMS    COLORGROUP SYSTEM
2 21 33
