AV-unprocessed.smi:1460|AV-procd|sdf|5929|dock9
  -GOLD-   22720 6 13D 1   1.00000     0.00000
 Structure written by MMmdl.
 41 42  0  0  0  0  0  0  0  0  1 V2000
  154.4644  141.9648  160.0391 C   0  0  0  0  0  0  0  0  0  0  0  0
  153.1086  141.6639  160.6916 C   0  0  1  0  0  0  0  0  0  0  0  0
  152.5523  142.9023  161.4275 C   0  0  0  0  0  0  0  0  0  0  0  0
  152.0211  143.9047  160.5205 N   0  0  0  0  0  0  0  0  0  0  0  0
  152.6782  144.5912  159.5206 C   0  0  0  0  0  0  0  0  0  0  0  0
  151.7643  145.4106  158.9228 C   0  0  0  0  0  0  0  0  0  0  0  0
  150.5618  145.1550  159.6396 C   0  0  0  0  0  0  0  0  0  0  0  0
  150.7197  144.2564  160.5978 N   0  0  0  0  0  0  0  0  0  0  0  0
  152.1766  141.2094  159.6600 N   0  0  0  0  0  0  0  0  0  0  0  0
  152.4108  140.2359  158.7650 C   0  0  0  0  0  0  0  0  0  0  0  0
  153.4754  139.6208  158.6959 O   0  0  0  0  0  0  0  0  0  0  0  0
  151.2577  139.8905  157.8151 C   0  0  0  0  0  0  0  0  0  0  0  0
  150.8636  138.4009  157.9504 C   0  0  0  0  0  0  0  0  0  0  0  0
  149.7993  138.0109  156.9085 C   0  0  0  0  0  0  0  0  0  0  0  0
  150.3164  138.3150  155.5636 N   0  0  0  0  0  0  0  0  0  0  0  0
  150.7595  137.4117  154.6531 C   0  0  0  0  0  0  0  0  0  0  0  0
  150.9246  137.8843  153.4136 N   0  0  0  0  0  0  0  0  0  0  0  0
  151.0385  136.2453  154.9261 O   0  0  0  0  0  0  0  0  0  0  0  0
  150.5182  139.7581  155.3846 C   0  0  0  0  0  0  0  0  0  0  0  0
  151.6175  140.2341  156.3510 C   0  0  0  0  0  0  0  0  0  0  0  0
  155.1958  142.2794  160.7840 H   0  0  0  0  0  0  0  0  0  0  0  0
  154.3823  142.7600  159.2974 H   0  0  0  0  0  0  0  0  0  0  0  0
  154.8647  141.0820  159.5394 H   0  0  0  0  0  0  0  0  0  0  0  0
  153.2735  140.8667  161.4190 H   0  0  0  0  0  0  0  0  0  0  0  0
  151.7521  142.6064  162.1075 H   0  0  0  0  0  0  0  0  0  0  0  0
  153.3266  143.3626  162.0428 H   0  0  0  0  0  0  0  0  0  0  0  0
  153.7265  144.4338  159.3145 H   0  0  0  0  0  0  0  0  0  0  0  0
  151.9283  146.0877  158.0978 H   0  0  0  0  0  0  0  0  0  0  0  0
  149.5857  145.5929  159.4934 H   0  0  0  0  0  0  0  0  0  0  0  0
  151.2727  141.6591  159.6380 H   0  0  0  0  0  0  0  0  0  0  0  0
  150.3887  140.4903  158.0922 H   0  0  0  0  0  0  0  0  0  0  0  0
  151.7393  137.7624  157.8223 H   0  0  0  0  0  0  0  0  0  0  0  0
  150.4840  138.2048  158.9541 H   0  0  0  0  0  0  0  0  0  0  0  0
  149.5156  136.9679  157.0478 H   0  0  0  0  0  0  0  0  0  0  0  0
  148.8861  138.5834  157.0776 H   0  0  0  0  0  0  0  0  0  0  0  0
  151.2504  137.2722  152.6802 H   0  0  0  0  0  0  0  0  0  0  0  0
  150.7205  138.8534  153.2177 H   0  0  0  0  0  0  0  0  0  0  0  0
  150.7834  140.0212  154.3595 H   0  0  0  0  0  0  0  0  0  0  0  0
  149.5839  140.2825  155.5907 H   0  0  0  0  0  0  0  0  0  0  0  0
  151.7602  141.3101  156.2434 H   0  0  0  0  0  0  0  0  0  0  0  0
  152.5636  139.7678  156.0710 H   0  0  0  0  0  0  0  0  0  0  0  0
  1  2  1  0  0  0  0
  1 21  1  0  0  0  0
  1 22  1  0  0  0  0
  1 23  1  0  0  0  0
  2  3  1  0  0  0  0
  2  9  1  0  0  0  0
  2 24  1  0  0  0  0
  3  4  1  0  0  0  0
  3 25  1  0  0  0  0
  3 26  1  0  0  0  0
  4  8  1  0  0  0  0
  4  5  1  0  0  0  0
  5  6  2  0  0  0  0
  5 27  1  0  0  0  0
  6  7  1  0  0  0  0
  6 28  1  0  0  0  0
  7  8  2  0  0  0  0
  7 29  1  0  0  0  0
  9 10  1  0  0  0  0
  9 30  1  0  0  0  0
 10 11  2  0  0  0  0
 10 12  1  0  0  0  0
 12 20  1  0  0  0  0
 12 13  1  0  0  0  0
 12 31  1  0  0  0  0
 13 14  1  0  0  0  0
 13 32  1  0  0  0  0
 13 33  1  0  0  0  0
 14 15  1  0  0  0  0
 14 34  1  0  0  0  0
 14 35  1  0  0  0  0
 15 16  1  0  0  0  0
 15 19  1  0  0  0  0
 16 17  1  0  0  0  0
 16 18  2  0  0  0  0
 17 36  1  0  0  0  0
 17 37  1  0  0  0  0
 19 20  1  0  0  0  0
 19 38  1  0  0  0  0
 19 39  1  0  0  0  0
 20 40  1  0  0  0  0
 20 41  1  0  0  0  0
M  END
> <s_m_source_file>
AV-unprocessed.smi

> <i_m_source_file_index>
1460

> <i_lp_mmshare_version>
43012

> <i_f3d_flags>
0

> <s_epik_input>
bjFbY0hdW2NIXVtjSF1uMVtDSDJdW0NAQEhdKFtDSDNdKVtOSF1DKD1PKVtDSF0yW0NIMl1bQ0gyXU4oQyg9TylbTkgyXSlbQ0gyXVtDSDJdMg==

> <s_epik_cmdline>
J2VwaWtfcHl0aG9uJywgJy1waCcsICc3LjAnLCAnLXRuJywgJzgnLCAnLW1hJywgJzIwMCcsICctbWV0YWxfYmluZGluZycsICctaW1hZScsICc8aW5maWxlLm1hZT4nLCAnLW9tYWUnLCAnPG91dGZpbGUubWFlPic=

> <r_lp_tautomer_probability>
1

> <r_epik_Ionization_Penalty>
0.000387527

> <r_epik_Ionization_Penalty_Charging>
0

> <r_epik_Ionization_Penalty_Neutral>
0.000387527

> <r_epik_State_Penalty>
-0

> <r_epik_Charging_Adjusted_Penalty>
0

> <i_epik_Tot_Q>
0

> <i_epik_Tot_abs_Q>
0

> <r_epik_Metal_State_Penalty>
-0

> <b_epik_Metal_Only>
0

> <s_lp_Force_Field>
OPLS_2005

> <r_lp_Energy>
25.9922

> <b_lp_Chiralities_Consistent>
1

> <s_lp_Variant>
AV-unprocessed.smi:1460-2

> <Gold.Version>
5.8.1

> <Gold.Id.Protein>
6NUR|6NUR_protein|mol2

> <Gold.PLP.Fitness>
49.9478

> <Gold.PLP.PLP>
-38.6911

> <Gold.PLP.part.hbond>
-4.3282

> <Gold.PLP.part.metal>
0.0000

> <Gold.PLP.part.buried>
-4.3957

> <Gold.PLP.part.nonpolar>
-29.0252

> <Gold.PLP.part.repulsive>
0.5280

> <Gold.PLP.ligand.clash>
0.0081

> <Gold.PLP.ligand.torsion>
0.3797

> <Gold.PLP.Chemscore.Hbond>
2.9913

> <Gold.PLP.Chemscore.CHOScore>
0.9970

> <Gold.PLP.Chemscore.Metal>
0.0000

> <Gold.Chemscore.Hbonds>
donor molecule, donor type, donor heavy atom, donor atom, acceptor molecule, acceptor atom, score
      L1  H    17    36       P1  7949  1.00
      P1  H  7997  8009       L1    11  0.96
      P1  H 10752 10763       L1    18  0.99
      L1  C     7    29       P1  8029  0.32

> <Gold.PLP.Chemscore.Internal.Correction>
0.0594

> <Gold.Rescore>
     Score         DG    S(hbond)    S(metal)    S(lipo)     H(rot)  DE(clash)    DE(int)     intcor
     18.10     -20.33       2.86        0.00      85.17       1.82       1.06       1.17       ----

> <Gold.Chemscore.Fitness>
18.0981

> <Gold.Chemscore.DG>
-20.3262

> <Gold.Chemscore.ZeroCoef>
-5.4800

> <Gold.Chemscore.Hbond>
2.8568

> <Gold.Chemscore.Metal>
0.0000

> <Gold.Chemscore.Lipo>
85.1738

> <Gold.Chemscore.Internal_Hbond>
0.0000

> <Gold.Chemscore.DEClash>
1.0555

> <Gold.Chemscore.DEInternal>
1.1726

> <Gold.Chemscore.Rot>
1.8206

> <Gold.Chemscore.Internal.Correction>
   9.000000E+99

> <Gold.Chemscore.Hbonds>
donor molecule, donor type, donor heavy atom, donor atom, acceptor molecule, acceptor atom, score
      L1  H    17    36       P1  7949  0.65
      P1  H  7997  8009       L1    11  0.78
      P1  H 10752 10763       L1    18  0.87

> <Gold.Chemscore.Hbond.Weighted>
-9.5416

> <Gold.Chemscore.Metal.Weighted>
-0.0000

> <Gold.Chemscore.Lipo.Weighted>
-9.9653

> <Gold.Chemscore.Internal_Hbond.Weighted>
0.0000

> <Gold.Chemscore.DEClash.Weighted>
1.0555

> <Gold.Chemscore.DEInternal.Weighted>
1.1726

> <Gold.Chemscore.Rot.Weighted>
4.6607

> <Gold.Chemscore.Internal.Correction.Weighted>
   9.000000E+99

> <Gold.Protein.RotatedTorsions>
[ 6907 6896 6895 6894 ] final   25.15 input  -60.11 | X-H torsion
[ 7974 7965 7964 7962 ] final  -64.29 input  175.53 | X-H torsion
[ 8008 7997 7996 7995 ] final  155.53 input   59.86 | X-H torsion
[ 10167 10162 10161 10158 ] final   98.49 input  -65.29 | X-H torsion
[ 10718 10713 10712 10709 ] final   40.87 input   66.30 | X-H torsion
[ 10763 10752 10751 10750 ] final   52.34 input  -60.55 | X-H torsion
[ 11005 11000 10999 10996 ] final  -27.72 input  -57.11 | X-H torsion

> <Gold.Protein.ActiveResidues>
 VAL166  LYS551  ARG553  GLY616  TRP617  ASP618  TYR619  PRO620  LYS621  CYS622 
 ASP623  PHE694  ASN695  SER759  ASP760  ASP761  ALA762  ILE779  LEU786  VAL792 
 PHE793  MET794  SER795  GLU796  ALA797  LYS798  CYS799  TRP800  GLU811  SER814 

> <Gold.Protein.RotatedAtoms>
  151.9683  135.0090  160.0551 H   0  0  0  0  0  0  0  0  0  0  0  0  # atno 6907 bound_to 6896
  152.1807  133.4700  159.4965 H   0  0  0  0  0  0  0  0  0  0  0  0  # atno 6908 bound_to 6896
  150.6917  134.1755  159.4271 H   0  0  0  0  0  0  0  0  0  0  0  0  # atno 6909 bound_to 6896
  145.7686  140.8825  143.0392 H   0  0  0  0  0  0  0  0  0  0  0  0  # atno 7974 bound_to 7965
  156.2473  140.1937  156.6815 H   0  0  0  0  0  0  0  0  0  0  0  0  # atno 8008 bound_to 7997
  154.6318  140.0595  156.9767 H   0  0  0  0  0  0  0  0  0  0  0  0  # atno 8009 bound_to 7997
  155.1698  140.3267  155.4397 H   0  0  0  0  0  0  0  0  0  0  0  0  # atno 8010 bound_to 7997
  139.7704  144.6924  151.0164 H   0  0  0  0  0  0  0  0  0  0  0  0  # atno 10167 bound_to 10162
  157.3871  130.7785  149.7239 H   0  0  0  0  0  0  0  0  0  0  0  0  # atno 10718 bound_to 10713
  152.9788  135.5815  154.4563 H   0  0  0  0  0  0  0  0  0  0  0  0  # atno 10763 bound_to 10752
  154.4145  135.2770  155.2017 H   0  0  0  0  0  0  0  0  0  0  0  0  # atno 10764 bound_to 10752
  154.3793  135.6150  153.5836 H   0  0  0  0  0  0  0  0  0  0  0  0  # atno 10765 bound_to 10752
  140.9145  133.7439  156.0715 H   0  0  0  0  0  0  0  0  0  0  0  0  # atno 11005 bound_to 11000
  144.6817  139.9823  143.7483 LP  0  0  0  0  0  0  0  0  0  0  0  0  # atno 17320 bound_to 7965
  146.0193  139.3237  143.0823 LP  0  0  0  0  0  0  0  0  0  0  0  0  # atno 17321 bound_to 7965
  140.7813  143.4595  151.0298 LP  0  0  0  0  0  0  0  0  0  0  0  0  # atno 17342 bound_to 10162
  139.8279  143.7731  152.3179 LP  0  0  0  0  0  0  0  0  0  0  0  0  # atno 17343 bound_to 10162
  155.9789  130.4046  150.3619 LP  0  0  0  0  0  0  0  0  0  0  0  0  # atno 17370 bound_to 10713
  157.1730  131.0373  151.2786 LP  0  0  0  0  0  0  0  0  0  0  0  0  # atno 17371 bound_to 10713
  140.8068  134.3445  157.5423 LP  0  0  0  0  0  0  0  0  0  0  0  0  # atno 17394 bound_to 11000
  139.8763  134.9230  156.3315 LP  0  0  0  0  0  0  0  0  0  0  0  0  # atno 17395 bound_to 11000

$$$$
