AV-unprocessed.smi:1648|AV-procd|sdf|6627|dock5
  -GOLD-   22720 7323D 1   1.00000     0.00000
 Structure written by MMmdl.
 42 42  0  0  0  0  0  0  0  0  2 V2000
  151.2596  138.1184  153.8408 C   0  0  0  0  0  0  0  0  0  0  0  0
  149.9365  137.8922  154.5749 C   0  0  0  0  0  0  0  0  0  0  0  0
  149.8442  138.2039  155.7596 O   0  0  0  0  0  0  0  0  0  0  0  0
  148.8986  137.3537  153.9117 N   0  0  0  0  0  0  0  0  0  0  0  0
  147.5627  137.0629  154.4386 C   0  0  2  0  0  0  0  0  0  0  0  0
  147.3349  135.5475  154.2917 C   0  0  0  0  0  0  0  0  0  0  0  0
  147.0589  134.8607  155.2765 O   0  0  0  0  0  0  0  0  0  0  0  0
  147.4390  135.0458  153.0508 N   0  0  0  0  0  0  0  0  0  0  0  0
  147.2140  133.6508  152.6741 C   0  0  2  0  0  0  0  0  0  0  0  0
  148.4443  132.8254  153.0735 C   0  0  0  0  0  0  0  0  0  0  0  0
  146.9210  133.5242  151.1621 C   0  0  0  0  0  0  0  0  0  0  0  0
  145.5301  133.1539  150.8738 N   0  0  0  0  0  0  0  0  0  0  0  0
  144.8860  131.9984  151.2360 C   0  0  0  0  0  0  0  0  0  0  0  0
  143.6021  132.1024  150.7664 C   0  0  0  0  0  0  0  0  0  0  0  0
  143.5192  133.3106  150.1281 N   0  3  0  0  0  0  0  0  0  0  0  0
  144.6954  133.9432  150.1845 C   0  0  0  0  0  0  0  0  0  0  0  0
  146.5079  137.8449  153.6022 C   0  0  0  0  0  0  0  0  0  0  0  0
  146.9216  139.3145  153.3906 C   0  0  0  0  0  0  0  0  0  0  0  0
  145.0972  137.8027  154.2260 C   0  0  0  0  0  0  0  0  0  0  0  0
  151.7149  137.1637  153.5764 H   0  0  0  0  0  0  0  0  0  0  0  0
  151.9617  138.6620  154.4739 H   0  0  0  0  0  0  0  0  0  0  0  0
  151.1137  138.6982  152.9301 H   0  0  0  0  0  0  0  0  0  0  0  0
  149.0652  137.0692  152.9572 H   0  0  0  0  0  0  0  0  0  0  0  0
  147.4803  137.3621  155.4851 H   0  0  0  0  0  0  0  0  0  0  0  0
  147.6804  135.6828  152.3052 H   0  0  0  0  0  0  0  0  0  0  0  0
  146.3656  133.2518  153.2333 H   0  0  0  0  0  0  0  0  0  0  0  0
  148.3015  131.7700  152.8396 H   0  0  0  0  0  0  0  0  0  0  0  0
  148.6371  132.9004  154.1443 H   0  0  0  0  0  0  0  0  0  0  0  0
  149.3388  133.1639  152.5492 H   0  0  0  0  0  0  0  0  0  0  0  0
  147.1510  134.4561  150.6426 H   0  0  0  0  0  0  0  0  0  0  0  0
  147.5523  132.7529  150.7195 H   0  0  0  0  0  0  0  0  0  0  0  0
  145.3733  131.2138  151.7964 H   0  0  0  0  0  0  0  0  0  0  0  0
  142.7632  131.4254  150.8374 H   0  0  0  0  0  0  0  0  0  0  0  0
  144.9198  134.9077  149.7657 H   0  0  0  0  0  0  0  0  0  0  0  0
  146.4374  137.3898  152.6125 H   0  0  0  0  0  0  0  0  0  0  0  0
  147.0428  139.8315  154.3431 H   0  0  0  0  0  0  0  0  0  0  0  0
  146.1699  139.8550  152.8144 H   0  0  0  0  0  0  0  0  0  0  0  0
  147.8608  139.4002  152.8440 H   0  0  0  0  0  0  0  0  0  0  0  0
  145.1012  138.2069  155.2389 H   0  0  0  0  0  0  0  0  0  0  0  0
  144.6971  136.7896  154.2728 H   0  0  0  0  0  0  0  0  0  0  0  0
  144.3919  138.3915  153.6387 H   0  0  0  0  0  0  0  0  0  0  0  0
  142.6890  133.6746  149.6769 H   0  0  0  0  0  0  0  0  0  0  0  0
  1  2  1  0  0  0  0
  1 20  1  0  0  0  0
  1 21  1  0  0  0  0
  1 22  1  0  0  0  0
  2  3  2  0  0  0  0
  2  4  1  0  0  0  0
  4  5  1  0  0  0  0
  4 23  1  0  0  0  0
  5  6  1  0  0  0  0
  5 17  1  0  0  0  0
  5 24  1  0  0  0  0
  6  7  2  0  0  0  0
  6  8  1  0  0  0  0
  8  9  1  0  0  0  0
  8 25  1  0  0  0  0
  9 10  1  0  0  0  0
  9 11  1  0  0  0  0
  9 26  1  0  0  0  0
 10 27  1  0  0  0  0
 10 28  1  0  0  0  0
 10 29  1  0  0  0  0
 11 12  1  0  0  0  0
 11 30  1  0  0  0  0
 11 31  1  0  0  0  0
 12 16  1  0  0  0  0
 12 13  1  0  0  0  0
 13 14  2  0  0  0  0
 13 32  1  0  0  0  0
 14 15  1  0  0  0  0
 14 33  1  0  0  0  0
 15 16  2  0  0  0  0
 15 42  1  0  0  0  0
 16 34  1  0  0  0  0
 17 18  1  0  0  0  0
 17 19  1  0  0  0  0
 17 35  1  0  0  0  0
 18 36  1  0  0  0  0
 18 37  1  0  0  0  0
 18 38  1  0  0  0  0
 19 39  1  0  0  0  0
 19 40  1  0  0  0  0
 19 41  1  0  0  0  0
M  CHG  1  15   1
M  END
> <s_m_source_file>
AV-unprocessed.smi

> <i_m_source_file_index>
1648

> <i_lp_mmshare_version>
43012

> <i_f3d_flags>
0

> <s_epik_input>
W0NIM11DKD1PKVtOSF1bQ0BASF0oW0NIXShbQ0gzXSlbQ0gzXSlDKD1PKVtOSF1bQ0BIXShbQ0gzXSlbQ0gyXW4xW2NIXVtjSF1uW2NIXTE=

> <s_epik_cmdline>
J2VwaWtfcHl0aG9uJywgJy1waCcsICc3LjAnLCAnLXRuJywgJzgnLCAnLW1hJywgJzIwMCcsICctbWV0YWxfYmluZGluZycsICctaW1hZScsICc8aW5maWxlLm1hZT4nLCAnLW9tYWUnLCAnPG91dGZpbGUubWFlPic=

> <r_lp_tautomer_probability>
1

> <r_epik_Ionization_Penalty>
0.251562

> <r_epik_Ionization_Penalty_Charging>
0

> <r_epik_Ionization_Penalty_Neutral>
0.251562

> <r_epik_State_Penalty>
0.242926

> <r_epik_Charging_Adjusted_Penalty>
0.242926

> <i_epik_Tot_Q>
1

> <i_epik_Tot_abs_Q>
1

> <r_epik_Metal_State_Penalty>
0.53388

> <b_epik_Metal_Only>
0

> <s_lp_Force_Field>
OPLS_2005

> <r_lp_Energy>
9.98337

> <b_lp_Chiralities_Consistent>
1

> <s_lp_Variant>
AV-unprocessed.smi:1648-1

> <Gold.Version>
5.8.1

> <Gold.Id.Protein>
6NUR|6NUR_protein|mol2

> <Gold.PLP.Fitness>
40.1577

> <Gold.PLP.PLP>
-28.7763

> <Gold.PLP.part.hbond>
-2.5894

> <Gold.PLP.part.metal>
0.0000

> <Gold.PLP.part.buried>
-3.0253

> <Gold.PLP.part.nonpolar>
-22.4115

> <Gold.PLP.part.repulsive>
0.0892

> <Gold.PLP.ligand.clash>
0.0000

> <Gold.PLP.ligand.torsion>
1.1605

> <Gold.PLP.Chemscore.Hbond>
3.8000

> <Gold.PLP.Chemscore.CHOScore>
0.7473

> <Gold.PLP.Chemscore.Metal>
0.0000

> <Gold.Chemscore.Hbonds>
donor molecule, donor type, donor heavy atom, donor atom, acceptor molecule, acceptor atom, score
      L1  H     4    23       P1  7948  0.59
      L1  H     8    25       P1  7948  0.50
      L1  H    15    42       P1 10186  2.00
      L1  C    16    34       P1  7921  0.69

> <Gold.PLP.Chemscore.Internal.Correction>
0.0607

> <Gold.Rescore>
     Score         DG    S(hbond)    S(metal)    S(lipo)     H(rot)  DE(clash)    DE(int)     intcor
     13.57     -15.06       2.94        0.00      55.09       2.61       0.02       1.47       ----

> <Gold.Chemscore.Fitness>
13.5735

> <Gold.Chemscore.DG>
-15.0586

> <Gold.Chemscore.ZeroCoef>
-5.4800

> <Gold.Chemscore.Hbond>
2.9412

> <Gold.Chemscore.Metal>
0.0000

> <Gold.Chemscore.Lipo>
55.0912

> <Gold.Chemscore.Internal_Hbond>
0.0000

> <Gold.Chemscore.DEClash>
0.0174

> <Gold.Chemscore.DEInternal>
1.4677

> <Gold.Chemscore.Rot>
2.6135

> <Gold.Chemscore.Internal.Correction>
   9.000000E+99

> <Gold.Chemscore.Hbonds>
donor molecule, donor type, donor heavy atom, donor atom, acceptor molecule, acceptor atom, score
      L1  H     4    23       P1  7948  0.58
      L1  H     8    25       P1  7948  0.49
      L1  H    15    42       P1 10186  0.99

> <Gold.Chemscore.Hbond.Weighted>
-9.8236

> <Gold.Chemscore.Metal.Weighted>
-0.0000

> <Gold.Chemscore.Lipo.Weighted>
-6.4457

> <Gold.Chemscore.Internal_Hbond.Weighted>
0.0000

> <Gold.Chemscore.DEClash.Weighted>
0.0174

> <Gold.Chemscore.DEInternal.Weighted>
1.4677

> <Gold.Chemscore.Rot.Weighted>
6.6906

> <Gold.Chemscore.Internal.Correction.Weighted>
   9.000000E+99

> <Gold.Protein.RotatedTorsions>
[ 6907 6896 6895 6894 ] final -154.86 input  -60.11 | X-H torsion
[ 7974 7965 7964 7962 ] final   81.66 input  175.53 | X-H torsion
[ 8008 7997 7996 7995 ] final   87.16 input   59.86 | X-H torsion
[ 10167 10162 10161 10158 ] final  -87.01 input  -65.29 | X-H torsion
[ 10718 10713 10712 10709 ] final   75.77 input   66.30 | X-H torsion
[ 10763 10752 10751 10750 ] final    8.85 input  -60.55 | X-H torsion
[ 11005 11000 10999 10996 ] final -136.71 input  -57.11 | X-H torsion

> <Gold.Protein.ActiveResidues>
 VAL166  LYS551  ARG553  GLY616  TRP617  ASP618  TYR619  PRO620  LYS621  CYS622 
 ASP623  PHE694  ASN695  SER759  ASP760  ASP761  ALA762  ILE779  LEU786  VAL792 
 PHE793  MET794  SER795  GLU796  ALA797  LYS798  CYS799  TRP800  GLU811  SER814 

> <Gold.Protein.RotatedAtoms>
  151.2638  133.4289  159.2617 H   0  0  0  0  0  0  0  0  0  0  0  0  # atno 6907 bound_to 6896
  151.0507  134.9671  159.8220 H   0  0  0  0  0  0  0  0  0  0  0  0  # atno 6908 bound_to 6896
  152.5382  134.2592  159.8981 H   0  0  0  0  0  0  0  0  0  0  0  0  # atno 6909 bound_to 6896
  145.6352  139.2413  143.2062 H   0  0  0  0  0  0  0  0  0  0  0  0  # atno 7974 bound_to 7965
  155.9719  140.3385  155.6583 H   0  0  0  0  0  0  0  0  0  0  0  0  # atno 8008 bound_to 7997
  155.6664  140.0722  157.2554 H   0  0  0  0  0  0  0  0  0  0  0  0  # atno 8009 bound_to 7997
  154.4168  140.1699  156.1819 H   0  0  0  0  0  0  0  0  0  0  0  0  # atno 8010 bound_to 7997
  140.3886  143.2715  151.9293 H   0  0  0  0  0  0  0  0  0  0  0  0  # atno 10167 bound_to 10162
  157.6647  130.9742  150.1402 H   0  0  0  0  0  0  0  0  0  0  0  0  # atno 10718 bound_to 10713
  153.2204  135.6880  153.8006 H   0  0  0  0  0  0  0  0  0  0  0  0  # atno 10763 bound_to 10752
  153.7207  135.3268  155.3267 H   0  0  0  0  0  0  0  0  0  0  0  0  # atno 10764 bound_to 10752
  154.8267  135.4612  154.1049 H   0  0  0  0  0  0  0  0  0  0  0  0  # atno 10765 bound_to 10752
  140.8780  134.1968  157.4609 H   0  0  0  0  0  0  0  0  0  0  0  0  # atno 11005 bound_to 11000
  146.1325  140.7167  142.9405 LP  0  0  0  0  0  0  0  0  0  0  0  0  # atno 17320 bound_to 7965
  144.7178  140.4270  143.7031 LP  0  0  0  0  0  0  0  0  0  0  0  0  # atno 17321 bound_to 7965
  139.4790  144.5749  151.8028 LP  0  0  0  0  0  0  0  0  0  0  0  0  # atno 17342 bound_to 10162
  140.4863  144.1376  150.5941 LP  0  0  0  0  0  0  0  0  0  0  0  0  # atno 17343 bound_to 10162
  156.2226  130.3675  149.8538 LP  0  0  0  0  0  0  0  0  0  0  0  0  # atno 17370 bound_to 10713
  156.6386  130.8695  151.3509 LP  0  0  0  0  0  0  0  0  0  0  0  0  # atno 17371 bound_to 10713
  139.8717  134.9804  156.5076 LP  0  0  0  0  0  0  0  0  0  0  0  0  # atno 17394 bound_to 11000
  140.8495  133.8143  155.9155 LP  0  0  0  0  0  0  0  0  0  0  0  0  # atno 17395 bound_to 11000

$$$$
