AV-unprocessed.smi:793|AV-procd|sdf|3755|dock5
  -GOLD-   22720 1183D 1   1.00000     0.00000
 Structure written by MMmdl.
 38 39  0  0  0  0  0  0  0  0  2 V2000
  150.5769  138.8283  157.9368 C   0  0  0  0  0  0  0  0  0  0  0  0
  149.1120  138.5644  157.5664 C   0  0  0  0  0  0  0  0  0  0  0  0
  148.8871  137.1487  157.0022 C   0  0  1  0  0  0  0  0  0  0  0  0
  149.9727  136.8544  156.1242 O   0  0  0  0  0  0  0  0  0  0  0  0
  149.8275  137.2842  154.7723 C   0  0  0  0  0  0  0  0  0  0  0  0
  150.9648  136.7138  153.9182 C   0  0  0  0  0  0  0  0  0  0  0  0
  152.1665  137.6380  154.1552 C   0  0  0  0  0  0  0  0  0  0  0  0
  151.6054  138.9368  154.7534 C   0  0  0  0  0  0  0  0  0  0  0  0
  150.0810  138.7907  154.7300 C   0  0  0  0  0  0  0  0  0  0  0  0
  148.8058  136.0985  158.1233 C   0  0  0  0  0  0  0  0  0  0  0  0
  149.5252  135.1004  158.0766 O   0  0  0  0  0  0  0  0  0  0  0  0
  147.9245  136.3637  159.1048 N   0  0  0  0  0  0  0  0  0  0  0  0
  147.6184  135.6034  160.2680 C   0  0  0  0  0  0  0  0  0  0  0  0
  147.9468  134.2329  160.4220 C   0  0  0  0  0  0  0  0  0  0  0  0
  147.6417  133.5104  161.5215 N   0  0  0  0  0  0  0  0  0  0  0  0
  146.9822  134.1305  162.5222 C   0  0  0  0  0  0  0  0  0  0  0  0
  146.5902  135.4816  162.4693 C   0  0  0  0  0  0  0  0  0  0  0  0
  146.9092  136.2304  161.3200 C   0  0  0  0  0  0  0  0  0  0  0  0
  146.5318  137.5428  161.2451 O   0  5  0  0  0  0  0  0  0  0  0  0
  150.7027  139.8381  158.3277 H   0  0  0  0  0  0  0  0  0  0  0  0
  151.2269  138.7244  157.0677 H   0  0  0  0  0  0  0  0  0  0  0  0
  150.9235  138.1310  158.7000 H   0  0  0  0  0  0  0  0  0  0  0  0
  148.4857  138.7196  158.4460 H   0  0  0  0  0  0  0  0  0  0  0  0
  148.7994  139.3082  156.8319 H   0  0  0  0  0  0  0  0  0  0  0  0
  147.9530  137.1493  156.4363 H   0  0  0  0  0  0  0  0  0  0  0  0
  148.8431  137.0440  154.3664 H   0  0  0  0  0  0  0  0  0  0  0  0
  151.1902  135.6716  154.1441 H   0  0  0  0  0  0  0  0  0  0  0  0
  150.6789  136.7611  152.8667 H   0  0  0  0  0  0  0  0  0  0  0  0
  152.8676  137.1797  154.8538 H   0  0  0  0  0  0  0  0  0  0  0  0
  152.7063  137.8219  153.2257 H   0  0  0  0  0  0  0  0  0  0  0  0
  151.9488  139.0414  155.7833 H   0  0  0  0  0  0  0  0  0  0  0  0
  151.9361  139.8209  154.2074 H   0  0  0  0  0  0  0  0  0  0  0  0
  149.6926  139.1961  153.7948 H   0  0  0  0  0  0  0  0  0  0  0  0
  149.5931  139.3239  155.5468 H   0  0  0  0  0  0  0  0  0  0  0  0
  147.4595  137.2587  159.0529 H   0  0  0  0  0  0  0  0  0  0  0  0
  148.4487  133.6748  159.6474 H   0  0  0  0  0  0  0  0  0  0  0  0
  146.7535  133.5293  163.3896 H   0  0  0  0  0  0  0  0  0  0  0  0
  146.0560  135.9309  163.2937 H   0  0  0  0  0  0  0  0  0  0  0  0
  1  2  1  0  0  0  0
  1 20  1  0  0  0  0
  1 21  1  0  0  0  0
  1 22  1  0  0  0  0
  2  3  1  0  0  0  0
  2 23  1  0  0  0  0
  2 24  1  0  0  0  0
  3  4  1  0  0  0  0
  3 10  1  0  0  0  0
  3 25  1  0  0  0  0
  4  5  1  0  0  0  0
  5  9  1  0  0  0  0
  5  6  1  0  0  0  0
  5 26  1  0  0  0  0
  6  7  1  0  0  0  0
  6 27  1  0  0  0  0
  6 28  1  0  0  0  0
  7  8  1  0  0  0  0
  7 29  1  0  0  0  0
  7 30  1  0  0  0  0
  8  9  1  0  0  0  0
  8 31  1  0  0  0  0
  8 32  1  0  0  0  0
  9 33  1  0  0  0  0
  9 34  1  0  0  0  0
 10 11  2  0  0  0  0
 10 12  1  0  0  0  0
 12 35  1  0  0  0  0
 12 13  1  0  0  0  0
 13 18  1  0  0  0  0
 13 14  2  0  0  0  0
 14 36  1  0  0  0  0
 14 15  1  0  0  0  0
 15 16  2  0  0  0  0
 16 37  1  0  0  0  0
 16 17  1  0  0  0  0
 17 18  2  0  0  0  0
 17 38  1  0  0  0  0
 18 19  1  0  0  0  0
M  CHG  1  19  -1
M  END
> <s_m_source_file>
AV-unprocessed.smi

> <i_m_source_file_index>
793

> <i_lp_mmshare_version>
43012

> <i_f3d_flags>
0

> <s_epik_input>
W0NIMl0xW0NIMl1bQ0gyXVtDSDJdW0NIXTFPW0NAQEhdKFtDSDJdW0NIM10pQyg9TylbTkhdYzJbY0hdbltjSF1bY0hdYzJbT0hd

> <s_epik_cmdline>
J2VwaWtfcHl0aG9uJywgJy1waCcsICc3LjAnLCAnLXRuJywgJzgnLCAnLW1hJywgJzIwMCcsICctbWV0YWxfYmluZGluZycsICctaW1hZScsICc8aW5maWxlLm1hZT4nLCAnLW9tYWUnLCAnPG91dGZpbGUubWFlPic=

> <r_lp_tautomer_probability>
1

> <r_epik_Ionization_Penalty>
5.91611

> <r_epik_Ionization_Penalty_Charging>
1.01889

> <r_epik_Ionization_Penalty_Neutral>
4.89722

> <r_epik_State_Penalty>
4.89706

> <r_epik_Charging_Adjusted_Penalty>
5.91595

> <i_epik_Tot_Q>
-1

> <i_epik_Tot_abs_Q>
1

> <r_epik_Metal_State_Penalty>
1.05012

> <b_epik_Metal_Only>
1

> <s_lp_Force_Field>
OPLS_2005

> <r_lp_Energy>
29.623

> <b_lp_Chiralities_Consistent>
1

> <s_lp_Variant>
AV-unprocessed.smi:793-4

> <Gold.Version>
5.8.1

> <Gold.Id.Protein>
6NUR|6NUR_protein|mol2

> <Gold.PLP.Fitness>
40.0769

> <Gold.PLP.PLP>
-32.6105

> <Gold.PLP.part.hbond>
-2.3459

> <Gold.PLP.part.metal>
0.0000

> <Gold.PLP.part.buried>
-4.5221

> <Gold.PLP.part.nonpolar>
-27.2246

> <Gold.PLP.part.repulsive>
0.1619

> <Gold.PLP.ligand.clash>
0.0000

> <Gold.PLP.ligand.torsion>
0.7717

> <Gold.PLP.Chemscore.Hbond>
2.9840

> <Gold.PLP.Chemscore.CHOScore>
0.0000

> <Gold.PLP.Chemscore.Metal>
0.0000

> <Gold.Chemscore.Hbonds>
donor molecule, donor type, donor heavy atom, donor atom, acceptor molecule, acceptor atom, score
      P1  H  6896  6908       L1    11  1.00
      P1  H  6934  6947       L1    19  2.00

> <Gold.PLP.Chemscore.Internal.Correction>
0.0577

> <Gold.Rescore>
     Score         DG    S(hbond)    S(metal)    S(lipo)     H(rot)  DE(clash)    DE(int)     intcor
     15.54     -17.43       1.95        0.00      79.00       1.49       0.04       1.85       ----

> <Gold.Chemscore.Fitness>
15.5377

> <Gold.Chemscore.DG>
-17.4272

> <Gold.Chemscore.ZeroCoef>
-5.4800

> <Gold.Chemscore.Hbond>
1.9542

> <Gold.Chemscore.Metal>
0.0000

> <Gold.Chemscore.Lipo>
78.9974

> <Gold.Chemscore.Internal_Hbond>
0.0000

> <Gold.Chemscore.DEClash>
0.0378

> <Gold.Chemscore.DEInternal>
1.8517

> <Gold.Chemscore.Rot>
1.4932

> <Gold.Chemscore.Internal.Correction>
   9.000000E+99

> <Gold.Chemscore.Hbonds>
donor molecule, donor type, donor heavy atom, donor atom, acceptor molecule, acceptor atom, score
      P1  H  6896  6908       L1    11  0.99
      P1  H  6934  6947       L1    19  0.99

> <Gold.Chemscore.Hbond.Weighted>
-6.5271

> <Gold.Chemscore.Metal.Weighted>
-0.0000

> <Gold.Chemscore.Lipo.Weighted>
-9.2427

> <Gold.Chemscore.Internal_Hbond.Weighted>
0.0000

> <Gold.Chemscore.DEClash.Weighted>
0.0378

> <Gold.Chemscore.DEInternal.Weighted>
1.8517

> <Gold.Chemscore.Rot.Weighted>
3.8226

> <Gold.Chemscore.Internal.Correction.Weighted>
   9.000000E+99

> <Gold.Protein.RotatedTorsions>
[ 6907 6896 6895 6894 ] final  162.24 input  -60.11 | X-H torsion
[ 7974 7965 7964 7962 ] final  -22.94 input  175.53 | X-H torsion
[ 8008 7997 7996 7995 ] final  -51.21 input   59.86 | X-H torsion
[ 10167 10162 10161 10158 ] final  -96.64 input  -65.29 | X-H torsion
[ 10718 10713 10712 10709 ] final -158.07 input   66.30 | X-H torsion
[ 10763 10752 10751 10750 ] final -167.31 input  -60.55 | X-H torsion
[ 11005 11000 10999 10996 ] final   24.08 input  -57.11 | X-H torsion

> <Gold.Protein.ActiveResidues>
 VAL166  LYS551  ARG553  GLY616  TRP617  ASP618  TYR619  PRO620  LYS621  CYS622 
 ASP623  PHE694  ASN695  SER759  ASP760  ASP761  ALA762  ILE779  LEU786  VAL792 
 PHE793  MET794  SER795  GLU796  ALA797  LYS798  CYS799  TRP800  GLU811  SER814 

> <Gold.Protein.RotatedAtoms>
  151.9435  133.3645  159.3973 H   0  0  0  0  0  0  0  0  0  0  0  0  # atno 6907 bound_to 6896
  150.6994  134.4415  159.5303 H   0  0  0  0  0  0  0  0  0  0  0  0  # atno 6908 bound_to 6896
  152.2076  134.8531  160.0552 H   0  0  0  0  0  0  0  0  0  0  0  0  # atno 6909 bound_to 6896
  146.1646  140.4548  142.8557 H   0  0  0  0  0  0  0  0  0  0  0  0  # atno 7974 bound_to 7965
  154.4078  140.1253  156.4792 H   0  0  0  0  0  0  0  0  0  0  0  0  # atno 8008 bound_to 7997
  155.7102  140.3494  155.4951 H   0  0  0  0  0  0  0  0  0  0  0  0  # atno 8009 bound_to 7997
  155.9307  140.1069  157.1124 H   0  0  0  0  0  0  0  0  0  0  0  0  # atno 8010 bound_to 7997
  140.2917  143.3217  152.0338 H   0  0  0  0  0  0  0  0  0  0  0  0  # atno 10167 bound_to 10162
  156.5491  130.8597  151.2774 H   0  0  0  0  0  0  0  0  0  0  0  0  # atno 10718 bound_to 10713
  154.6744  135.2944  154.9698 H   0  0  0  0  0  0  0  0  0  0  0  0  # atno 10763 bound_to 10752
  154.0714  135.6617  153.4829 H   0  0  0  0  0  0  0  0  0  0  0  0  # atno 10764 bound_to 10752
  153.0507  135.5176  154.7756 H   0  0  0  0  0  0  0  0  0  0  0  0  # atno 10765 bound_to 10752
  140.3626  134.2109  155.7671 H   0  0  0  0  0  0  0  0  0  0  0  0  # atno 11005 bound_to 11000
  144.8074  140.6324  143.6438 LP  0  0  0  0  0  0  0  0  0  0  0  0  # atno 17320 bound_to 7965
  145.4502  139.1524  143.3923 LP  0  0  0  0  0  0  0  0  0  0  0  0  # atno 17321 bound_to 7965
  139.4936  144.6520  151.6656 LP  0  0  0  0  0  0  0  0  0  0  0  0  # atno 17342 bound_to 10162
  140.5726  144.0083  150.6225 LP  0  0  0  0  0  0  0  0  0  0  0  0  # atno 17343 bound_to 10162
  157.7391  130.9825  150.2292 LP  0  0  0  0  0  0  0  0  0  0  0  0  # atno 17370 bound_to 10713
  156.2901  130.3744  149.7850 LP  0  0  0  0  0  0  0  0  0  0  0  0  # atno 17371 bound_to 10713
  141.1979  133.8047  157.0605 LP  0  0  0  0  0  0  0  0  0  0  0  0  # atno 17394 bound_to 11000
  140.0615  134.9752  157.1312 LP  0  0  0  0  0  0  0  0  0  0  0  0  # atno 17395 bound_to 11000

$$$$
