AV-unprocessed.smi:2751|AV-procd|sdf|10599|dock2
  -GOLD-   2272015 53D 1   1.00000     0.00000
 Structure written by MMmdl.
 34 35  0  0  0  0  0  0  0  0  1 V2000
  150.3520  140.1586  154.8188 O   0  0  0  0  0  0  0  0  0  0  0  0
  149.6825  141.1962  154.8454 C   0  0  0  0  0  0  0  0  0  0  0  0
  149.9263  142.1641  155.7418 N   0  0  0  0  0  0  0  0  0  0  0  0
  150.9704  142.1320  156.7603 C   0  0  0  0  0  0  0  0  0  0  0  0
  150.4210  142.5020  158.1488 C   0  0  0  0  0  0  0  0  0  0  0  0
  151.5172  142.9700  159.1191 C   0  0  2  0  0  0  0  0  0  0  0  0
  152.3439  141.7903  159.6673 C   0  0  0  0  0  0  0  0  0  0  0  0
  153.3764  142.2834  160.6875 C   0  0  0  0  0  0  0  0  0  0  0  0
  152.6789  143.1166  161.7676 C   0  0  0  0  0  0  0  0  0  0  0  0
  151.8304  144.2239  161.1230 C   0  0  0  0  0  0  0  0  0  0  0  0
  150.8993  143.6516  160.2097 O   0  0  0  0  0  0  0  0  0  0  0  0
  148.6291  141.5666  154.0217 N   0  0  0  0  0  0  0  0  0  0  0  0
  147.8913  140.6524  153.4716 C   0  0  0  0  0  0  0  0  0  0  0  0
  146.8049  140.8354  152.6309 N   0  0  0  0  0  0  0  0  0  0  0  0
  146.3256  139.6037  152.2798 C   0  0  0  0  0  0  0  0  0  0  0  0
  147.0777  138.6822  152.8745 C   0  0  0  0  0  0  0  0  0  0  0  0
  148.0467  139.2924  153.6120 O   0  0  0  0  0  0  0  0  0  0  0  0
  149.3457  142.9897  155.7122 H   0  0  0  0  0  0  0  0  0  0  0  0
  151.4417  141.1481  156.7832 H   0  0  0  0  0  0  0  0  0  0  0  0
  151.7465  142.8389  156.4656 H   0  0  0  0  0  0  0  0  0  0  0  0
  149.6621  143.2795  158.0501 H   0  0  0  0  0  0  0  0  0  0  0  0
  149.9168  141.6347  158.5770 H   0  0  0  0  0  0  0  0  0  0  0  0
  152.1797  143.6599  158.5929 H   0  0  0  0  0  0  0  0  0  0  0  0
  151.6815  141.0642  160.1406 H   0  0  0  0  0  0  0  0  0  0  0  0
  152.8473  141.2693  158.8523 H   0  0  0  0  0  0  0  0  0  0  0  0
  153.9019  141.4402  161.1363 H   0  0  0  0  0  0  0  0  0  0  0  0
  154.1291  142.8909  160.1832 H   0  0  0  0  0  0  0  0  0  0  0  0
  152.0379  142.4723  162.3710 H   0  0  0  0  0  0  0  0  0  0  0  0
  153.4153  143.5497  162.4451 H   0  0  0  0  0  0  0  0  0  0  0  0
  151.2805  144.7688  161.8904 H   0  0  0  0  0  0  0  0  0  0  0  0
  152.4620  144.9497  160.6084 H   0  0  0  0  0  0  0  0  0  0  0  0
  146.4031  141.7036  152.3073 H   0  0  0  0  0  0  0  0  0  0  0  0
  145.4728  139.5162  151.6228 H   0  0  0  0  0  0  0  0  0  0  0  0
  147.0540  137.6024  152.8731 H   0  0  0  0  0  0  0  0  0  0  0  0
  1  2  2  0  0  0  0
  2 12  1  0  0  0  0
  2  3  1  0  0  0  0
  3  4  1  0  0  0  0
  3 18  1  0  0  0  0
  4  5  1  0  0  0  0
  4 19  1  0  0  0  0
  4 20  1  0  0  0  0
  5  6  1  0  0  0  0
  5 21  1  0  0  0  0
  5 22  1  0  0  0  0
  6 11  1  0  0  0  0
  6  7  1  0  0  0  0
  6 23  1  0  0  0  0
  7  8  1  0  0  0  0
  7 24  1  0  0  0  0
  7 25  1  0  0  0  0
  8  9  1  0  0  0  0
  8 26  1  0  0  0  0
  8 27  1  0  0  0  0
  9 10  1  0  0  0  0
  9 28  1  0  0  0  0
  9 29  1  0  0  0  0
 10 11  1  0  0  0  0
 10 30  1  0  0  0  0
 10 31  1  0  0  0  0
 12 13  2  0  0  0  0
 13 17  1  0  0  0  0
 13 14  1  0  0  0  0
 14 32  1  0  0  0  0
 14 15  1  0  0  0  0
 15 33  1  0  0  0  0
 15 16  2  0  0  0  0
 16 34  1  0  0  0  0
 16 17  1  0  0  0  0
M  END
> <s_m_source_file>
AV-unprocessed.smi

> <i_m_source_file_index>
2751

> <i_lp_mmshare_version>
43012

> <i_f3d_flags>
0

> <s_epik_input>
bzFbY0hdW2NIXW5jMVtOSF1DKD1PKVtOSF1bQ0gyXVtDSDJdW0NAQEhdMltDSDJdW0NIMl1bQ0gyXVtDSDJdTzI=

> <s_epik_cmdline>
J2VwaWtfcHl0aG9uJywgJy1waCcsICc3LjAnLCAnLXRuJywgJzgnLCAnLW1hJywgJzIwMCcsICctbWV0YWxfYmluZGluZycsICctaW1hZScsICc8aW5maWxlLm1hZT4nLCAnLW9tYWUnLCAnPG91dGZpbGUubWFlPic=

> <r_lp_tautomer_probability>
0.107061

> <r_epik_Ionization_Penalty>
1.421

> <r_epik_Ionization_Penalty_Charging>
1.42064

> <r_epik_Ionization_Penalty_Neutral>
0.0003614

> <r_epik_State_Penalty>
2.61489

> <r_epik_Charging_Adjusted_Penalty>
4.03553

> <i_epik_Tot_Q>
0

> <i_epik_Tot_abs_Q>
0

> <r_epik_Metal_State_Penalty>
3.57288

> <b_epik_Metal_Only>
0

> <s_lp_Force_Field>
OPLS_2005

> <r_lp_Energy>
32.3985

> <b_lp_Chiralities_Consistent>
1

> <s_lp_Variant>
AV-unprocessed.smi:2751-5

> <Gold.Version>
5.8.1

> <Gold.Id.Protein>
6NUR|6NUR_protein|mol2

> <Gold.PLP.Fitness>
47.2225

> <Gold.PLP.PLP>
-33.8491

> <Gold.PLP.part.hbond>
-5.0000

> <Gold.PLP.part.metal>
0.0000

> <Gold.PLP.part.buried>
1.2076

> <Gold.PLP.part.nonpolar>
-31.2175

> <Gold.PLP.part.repulsive>
2.0939

> <Gold.PLP.ligand.clash>
0.0000

> <Gold.PLP.ligand.torsion>
0.4508

> <Gold.PLP.Chemscore.Hbond>
2.1549

> <Gold.PLP.Chemscore.CHOScore>
2.6008

> <Gold.PLP.Chemscore.Metal>
0.0000

> <Gold.Chemscore.Hbonds>
donor molecule, donor type, donor heavy atom, donor atom, acceptor molecule, acceptor atom, score
      L1  H     3    18       P1  8028  1.00
      P1  H  7989  7998       L1     1  0.65
      P1  H  8011  8017       L1    12  0.32
      L1  C    15    33       P1 10171  0.92
      L1  C    15    33       P1 10175  0.66
      L1  C    16    34       P1  7948  0.79

> <Gold.PLP.Chemscore.Internal.Correction>
0.0081

> <Gold.Rescore>
     Score         DG    S(hbond)    S(metal)    S(lipo)     H(rot)  DE(clash)    DE(int)     intcor
     12.70     -16.38       1.52        0.00      85.61       1.63       1.80       1.88       ----

> <Gold.Chemscore.Fitness>
12.7019

> <Gold.Chemscore.DG>
-16.3805

> <Gold.Chemscore.ZeroCoef>
-5.4800

> <Gold.Chemscore.Hbond>
1.5161

> <Gold.Chemscore.Metal>
0.0000

> <Gold.Chemscore.Lipo>
85.6126

> <Gold.Chemscore.Internal_Hbond>
0.0000

> <Gold.Chemscore.DEClash>
1.8024

> <Gold.Chemscore.DEInternal>
1.8762

> <Gold.Chemscore.Rot>
1.6328

> <Gold.Chemscore.Internal.Correction>
   9.000000E+99

> <Gold.Chemscore.Hbonds>
donor molecule, donor type, donor heavy atom, donor atom, acceptor molecule, acceptor atom, score
      L1  H     3    18       P1  8028  1.00
      P1  H  7989  7998       L1     1  0.05
      P1  H  8011  8017       L1    12  0.03

> <Gold.Chemscore.Hbond.Weighted>
-5.0637

> <Gold.Chemscore.Metal.Weighted>
-0.0000

> <Gold.Chemscore.Lipo.Weighted>
-10.0167

> <Gold.Chemscore.Internal_Hbond.Weighted>
0.0000

> <Gold.Chemscore.DEClash.Weighted>
1.8024

> <Gold.Chemscore.DEInternal.Weighted>
1.8762

> <Gold.Chemscore.Rot.Weighted>
4.1799

> <Gold.Chemscore.Internal.Correction.Weighted>
   9.000000E+99

> <Gold.Protein.RotatedTorsions>
[ 6907 6896 6895 6894 ] final   38.43 input  -60.11 | X-H torsion
[ 7974 7965 7964 7962 ] final   88.97 input  175.53 | X-H torsion
[ 8008 7997 7996 7995 ] final  -41.27 input   59.86 | X-H torsion
[ 10167 10162 10161 10158 ] final  -54.02 input  -65.29 | X-H torsion
[ 10718 10713 10712 10709 ] final   82.07 input   66.30 | X-H torsion
[ 10763 10752 10751 10750 ] final  -35.05 input  -60.55 | X-H torsion
[ 11005 11000 10999 10996 ] final -151.15 input  -57.11 | X-H torsion

> <Gold.Protein.ActiveResidues>
 VAL166  LYS551  ARG553  GLY616  TRP617  ASP618  TYR619  PRO620  LYS621  CYS622 
 ASP623  PHE694  ASN695  SER759  ASP760  ASP761  ALA762  ILE779  LEU786  VAL792 
 PHE793  MET794  SER795  GLU796  ALA797  LYS798  CYS799  TRP800  GLU811  SER814 

> <Gold.Protein.RotatedAtoms>
  152.1564  134.8947  160.0544 H   0  0  0  0  0  0  0  0  0  0  0  0  # atno 6907 bound_to 6896
  151.9960  133.3803  159.4171 H   0  0  0  0  0  0  0  0  0  0  0  0  # atno 6908 bound_to 6896
  150.6882  134.3808  159.5077 H   0  0  0  0  0  0  0  0  0  0  0  0  # atno 6909 bound_to 6896
  145.5386  139.2287  143.2579 H   0  0  0  0  0  0  0  0  0  0  0  0  # atno 7974 bound_to 7965
  154.4005  140.1504  156.3163 H   0  0  0  0  0  0  0  0  0  0  0  0  # atno 8008 bound_to 7997
  155.8570  140.3455  155.5709 H   0  0  0  0  0  0  0  0  0  0  0  0  # atno 8009 bound_to 7997
  155.7922  140.0858  157.1993 H   0  0  0  0  0  0  0  0  0  0  0  0  # atno 8010 bound_to 7997
  140.6453  143.2531  151.4876 H   0  0  0  0  0  0  0  0  0  0  0  0  # atno 10167 bound_to 10162
  157.6848  131.0032  150.2321 H   0  0  0  0  0  0  0  0  0  0  0  0  # atno 10718 bound_to 10713
  153.8569  135.6844  153.4786 H   0  0  0  0  0  0  0  0  0  0  0  0  # atno 10763 bound_to 10752
  153.1365  135.4675  154.9427 H   0  0  0  0  0  0  0  0  0  0  0  0  # atno 10764 bound_to 10752
  154.7777  135.3258  154.8006 H   0  0  0  0  0  0  0  0  0  0  0  0  # atno 10765 bound_to 10752
  140.7326  134.3604  157.5163 H   0  0  0  0  0  0  0  0  0  0  0  0  # atno 11005 bound_to 11000
  146.1996  140.6205  142.9108 LP  0  0  0  0  0  0  0  0  0  0  0  0  # atno 17320 bound_to 7965
  144.7589  140.5374  143.6749 LP  0  0  0  0  0  0  0  0  0  0  0  0  # atno 17321 bound_to 7965
  139.5663  144.2033  152.1770 LP  0  0  0  0  0  0  0  0  0  0  0  0  # atno 17342 bound_to 10162
  140.1316  144.5283  150.6799 LP  0  0  0  0  0  0  0  0  0  0  0  0  # atno 17343 bound_to 10162
  156.2952  130.3751  149.7803 LP  0  0  0  0  0  0  0  0  0  0  0  0  # atno 17370 bound_to 10713
  156.5451  130.8317  151.3281 LP  0  0  0  0  0  0  0  0  0  0  0  0  # atno 17371 bound_to 10713
  139.8823  134.9028  156.2842 LP  0  0  0  0  0  0  0  0  0  0  0  0  # atno 17394 bound_to 11000
  140.9907  133.7210  156.0810 LP  0  0  0  0  0  0  0  0  0  0  0  0  # atno 17395 bound_to 11000

$$$$
