AV-unprocessed.smi:3051|AV-procd|sdf|11634|dock10
  -GOLD-   2272017 23D 1   1.00000     0.00000
 Structure written by MMmdl.
 37 37  0  0  0  0  0  0  0  0  1 V2000
  152.4641  143.2446  161.1849 C   0  0  0  0  0  0  0  0  0  0  0  0
  152.5746  142.6718  159.7660 C   0  0  0  0  0  0  0  0  0  0  0  0
  151.2625  142.3831  159.2005 N   0  0  0  0  0  0  0  0  0  0  0  0
  151.0410  141.7044  158.0637 C   0  0  0  0  0  0  0  0  0  0  0  0
  151.9399  141.2316  157.3685 O   0  0  0  0  0  0  0  0  0  0  0  0
  149.5798  141.5300  157.6462 C   0  0  0  0  0  0  0  0  0  0  0  0
  149.4770  141.1369  156.2523 N   0  0  0  0  0  0  0  0  0  0  0  0
  148.6869  141.6873  155.2620 C   0  0  0  0  0  0  0  0  0  0  0  0
  148.9086  140.9757  154.1170 C   0  0  0  0  0  0  0  0  0  0  0  0
  149.8590  139.9984  154.5198 C   0  0  0  0  0  0  0  0  0  0  0  0
  150.3557  139.0360  153.6325 N   0  0  0  0  0  0  0  0  0  0  0  0
  151.3307  138.0452  154.0743 C   0  0  1  0  0  0  0  0  0  0  0  0
  152.5977  138.7272  154.6183 C   0  0  0  0  0  0  0  0  0  0  0  0
  150.7080  137.1250  155.1355 C   0  0  0  0  0  0  0  0  0  0  0  0
  151.6247  136.0919  155.4584 O   0  0  0  0  0  0  0  0  0  0  0  0
  151.0403  135.0778  156.2566 C   0  0  0  0  0  0  0  0  0  0  0  0
  150.2075  140.0965  155.7936 N   0  0  0  0  0  0  0  0  0  0  0  0
  153.4503  143.4860  161.5817 H   0  0  0  0  0  0  0  0  0  0  0  0
  151.9993  142.5317  161.8666 H   0  0  0  0  0  0  0  0  0  0  0  0
  151.8686  144.1580  161.1964 H   0  0  0  0  0  0  0  0  0  0  0  0
  153.0724  143.3920  159.1167 H   0  0  0  0  0  0  0  0  0  0  0  0
  153.1941  141.7736  159.7657 H   0  0  0  0  0  0  0  0  0  0  0  0
  150.4607  142.7376  159.7025 H   0  0  0  0  0  0  0  0  0  0  0  0
  149.1033  140.7661  158.2622 H   0  0  0  0  0  0  0  0  0  0  0  0
  149.0308  142.4596  157.8055 H   0  0  0  0  0  0  0  0  0  0  0  0
  148.0365  142.5277  155.4550 H   0  0  0  0  0  0  0  0  0  0  0  0
  148.4565  141.1274  153.1480 H   0  0  0  0  0  0  0  0  0  0  0  0
  150.0324  139.0136  152.6760 H   0  0  0  0  0  0  0  0  0  0  0  0
  151.6140  137.4276  153.2209 H   0  0  0  0  0  0  0  0  0  0  0  0
  153.3360  137.9878  154.9297 H   0  0  0  0  0  0  0  0  0  0  0  0
  152.3711  139.3539  155.4815 H   0  0  0  0  0  0  0  0  0  0  0  0
  153.0706  139.3581  153.8655 H   0  0  0  0  0  0  0  0  0  0  0  0
  150.4884  137.6975  156.0382 H   0  0  0  0  0  0  0  0  0  0  0  0
  149.7648  136.7073  154.7784 H   0  0  0  0  0  0  0  0  0  0  0  0
  151.7806  134.3071  156.4704 H   0  0  0  0  0  0  0  0  0  0  0  0
  150.2017  134.6054  155.7432 H   0  0  0  0  0  0  0  0  0  0  0  0
  150.6878  135.4788  157.2078 H   0  0  0  0  0  0  0  0  0  0  0  0
  1  2  1  0  0  0  0
  1 18  1  0  0  0  0
  1 19  1  0  0  0  0
  1 20  1  0  0  0  0
  2  3  1  0  0  0  0
  2 21  1  0  0  0  0
  2 22  1  0  0  0  0
  3  4  1  0  0  0  0
  3 23  1  0  0  0  0
  4  5  2  0  0  0  0
  4  6  1  0  0  0  0
  6  7  1  0  0  0  0
  6 24  1  0  0  0  0
  6 25  1  0  0  0  0
  7 17  1  0  0  0  0
  7  8  1  0  0  0  0
  8  9  2  0  0  0  0
  8 26  1  0  0  0  0
  9 10  1  0  0  0  0
  9 27  1  0  0  0  0
 10 11  1  0  0  0  0
 10 17  2  0  0  0  0
 11 12  1  0  0  0  0
 11 28  1  0  0  0  0
 12 13  1  0  0  0  0
 12 14  1  0  0  0  0
 12 29  1  0  0  0  0
 13 30  1  0  0  0  0
 13 31  1  0  0  0  0
 13 32  1  0  0  0  0
 14 15  1  0  0  0  0
 14 33  1  0  0  0  0
 14 34  1  0  0  0  0
 15 16  1  0  0  0  0
 16 35  1  0  0  0  0
 16 36  1  0  0  0  0
 16 37  1  0  0  0  0
M  END
> <s_m_source_file>
AV-unprocessed.smi

> <i_m_source_file_index>
3051

> <i_lp_mmshare_version>
43012

> <i_f3d_flags>
0

> <s_epik_input>
W0NIM11bQ0gyXVtOSF1DKD1PKVtDSDJdbjFbY0hdW2NIXWMobjEpW05IXVtDQEhdKFtDSDNdKVtDSDJdT1tDSDNd

> <s_epik_cmdline>
J2VwaWtfcHl0aG9uJywgJy1waCcsICc3LjAnLCAnLXRuJywgJzgnLCAnLW1hJywgJzIwMCcsICctbWV0YWxfYmluZGluZycsICctaW1hZScsICc8aW5maWxlLm1hZT4nLCAnLW9tYWUnLCAnPG91dGZpbGUubWFlPic=

> <r_lp_tautomer_probability>
1

> <r_epik_Ionization_Penalty>
0.00023157

> <r_epik_Ionization_Penalty_Charging>
0

> <r_epik_Ionization_Penalty_Neutral>
0.00023157

> <r_epik_State_Penalty>
-0

> <r_epik_Charging_Adjusted_Penalty>
0

> <i_epik_Tot_Q>
0

> <i_epik_Tot_abs_Q>
0

> <r_epik_Metal_State_Penalty>
-0

> <b_epik_Metal_Only>
0

> <s_lp_Force_Field>
OPLS_2005

> <r_lp_Energy>
3.21547

> <b_lp_Chiralities_Consistent>
1

> <s_lp_Variant>
AV-unprocessed.smi:3051-2

> <Gold.Version>
5.8.1

> <Gold.Id.Protein>
6NUR|6NUR_protein|mol2

> <Gold.PLP.Fitness>
39.4856

> <Gold.PLP.PLP>
-31.7941

> <Gold.PLP.part.hbond>
-2.0000

> <Gold.PLP.part.metal>
0.0000

> <Gold.PLP.part.buried>
-1.0608

> <Gold.PLP.part.nonpolar>
-27.7751

> <Gold.PLP.part.repulsive>
0.3275

> <Gold.PLP.ligand.clash>
0.0000

> <Gold.PLP.ligand.torsion>
0.4007

> <Gold.PLP.Chemscore.Hbond>
1.8800

> <Gold.PLP.Chemscore.CHOScore>
0.9378

> <Gold.PLP.Chemscore.Metal>
0.0000

> <Gold.Chemscore.Hbonds>
donor molecule, donor type, donor heavy atom, donor atom, acceptor molecule, acceptor atom, score
      L1  H    11    28       P1  7957  0.93
      P1  H 10752 10763       L1    15  1.00
      L1  C     8    26       P1  8028  0.85

> <Gold.PLP.Chemscore.Internal.Correction>
0.0395

> <Gold.Rescore>
     Score         DG    S(hbond)    S(metal)    S(lipo)     H(rot)  DE(clash)    DE(int)     intcor
     10.44     -13.67       1.83        0.00      65.66       2.19       0.16       3.08       ----

> <Gold.Chemscore.Fitness>
10.4370

> <Gold.Chemscore.DG>
-13.6705

> <Gold.Chemscore.ZeroCoef>
-5.4800

> <Gold.Chemscore.Hbond>
1.8300

> <Gold.Chemscore.Metal>
0.0000

> <Gold.Chemscore.Lipo>
65.6582

> <Gold.Chemscore.Internal_Hbond>
0.0000

> <Gold.Chemscore.DEClash>
0.1553

> <Gold.Chemscore.DEInternal>
3.0782

> <Gold.Chemscore.Rot>
2.1890

> <Gold.Chemscore.Internal.Correction>
   9.000000E+99

> <Gold.Chemscore.Hbonds>
donor molecule, donor type, donor heavy atom, donor atom, acceptor molecule, acceptor atom, score
      L1  H    11    28       P1  7957  0.63
      P1  H 10752 10763       L1    15  0.82

> <Gold.Chemscore.Hbond.Weighted>
-6.1124

> <Gold.Chemscore.Metal.Weighted>
-0.0000

> <Gold.Chemscore.Lipo.Weighted>
-7.6820

> <Gold.Chemscore.Internal_Hbond.Weighted>
0.0000

> <Gold.Chemscore.DEClash.Weighted>
0.1553

> <Gold.Chemscore.DEInternal.Weighted>
3.0782

> <Gold.Chemscore.Rot.Weighted>
5.6039

> <Gold.Chemscore.Internal.Correction.Weighted>
   9.000000E+99

> <Gold.Protein.RotatedTorsions>
[ 6907 6896 6895 6894 ] final  -56.63 input  -60.11 | X-H torsion
[ 7974 7965 7964 7962 ] final -122.65 input  175.53 | X-H torsion
[ 8008 7997 7996 7995 ] final  -38.70 input   59.86 | X-H torsion
[ 10167 10162 10161 10158 ] final -155.88 input  -65.29 | X-H torsion
[ 10718 10713 10712 10709 ] final   76.00 input   66.30 | X-H torsion
[ 10763 10752 10751 10750 ] final   63.26 input  -60.55 | X-H torsion
[ 11005 11000 10999 10996 ] final  -80.37 input  -57.11 | X-H torsion

> <Gold.Protein.ActiveResidues>
 VAL166  LYS551  ARG553  GLY616  TRP617  ASP618  TYR619  PRO620  LYS621  CYS622 
 ASP623  PHE694  ASN695  SER759  ASP760  ASP761  ALA762  ILE779  LEU786  VAL792 
 PHE793  MET794  SER795  GLU796  ALA797  LYS798  CYS799  TRP800  GLU811  SER814 

> <Gold.Protein.RotatedAtoms>
  150.8152  134.7330  159.6723 H   0  0  0  0  0  0  0  0  0  0  0  0  # atno 6907 bound_to 6896
  152.4271  134.5845  159.9967 H   0  0  0  0  0  0  0  0  0  0  0  0  # atno 6908 bound_to 6896
  151.6043  133.3316  159.3090 H   0  0  0  0  0  0  0  0  0  0  0  0  # atno 6909 bound_to 6896
  145.0272  140.8037  143.4345 H   0  0  0  0  0  0  0  0  0  0  0  0  # atno 7974 bound_to 7965
  154.4033  140.1571  156.2743 H   0  0  0  0  0  0  0  0  0  0  0  0  # atno 8008 bound_to 7997
  155.8925  140.3438  155.5945 H   0  0  0  0  0  0  0  0  0  0  0  0  # atno 8009 bound_to 7997
  155.7541  140.0809  157.2177 H   0  0  0  0  0  0  0  0  0  0  0  0  # atno 8010 bound_to 7997
  139.6895  143.9444  152.2378 H   0  0  0  0  0  0  0  0  0  0  0  0  # atno 10167 bound_to 10162
  157.6656  130.9753  150.1434 H   0  0  0  0  0  0  0  0  0  0  0  0  # atno 10718 bound_to 10713
  153.0011  135.5435  154.6324 H   0  0  0  0  0  0  0  0  0  0  0  0  # atno 10763 bound_to 10752
  154.5598  135.2833  155.0932 H   0  0  0  0  0  0  0  0  0  0  0  0  # atno 10764 bound_to 10752
  154.2139  135.6462  153.5176 H   0  0  0  0  0  0  0  0  0  0  0  0  # atno 10765 bound_to 10752
  141.1668  133.7147  156.8262 H   0  0  0  0  0  0  0  0  0  0  0  0  # atno 11005 bound_to 11000
  145.1818  139.2347  143.5288 LP  0  0  0  0  0  0  0  0  0  0  0  0  # atno 17320 bound_to 7965
  146.3494  140.1594  142.8591 LP  0  0  0  0  0  0  0  0  0  0  0  0  # atno 17321 bound_to 7965
  139.9256  144.6773  150.8416 LP  0  0  0  0  0  0  0  0  0  0  0  0  # atno 17342 bound_to 10162
  140.7678  143.3344  151.2340 LP  0  0  0  0  0  0  0  0  0  0  0  0  # atno 17343 bound_to 10162
  156.2251  130.3677  149.8510 LP  0  0  0  0  0  0  0  0  0  0  0  0  # atno 17370 bound_to 10713
  156.6352  130.8682  151.3503 LP  0  0  0  0  0  0  0  0  0  0  0  0  # atno 17371 bound_to 10713
  140.2084  134.8846  157.3247 LP  0  0  0  0  0  0  0  0  0  0  0  0  # atno 17394 bound_to 11000
  140.2113  134.4135  155.7611 LP  0  0  0  0  0  0  0  0  0  0  0  0  # atno 17395 bound_to 11000

$$$$
