AV-unprocessed.smi:1|AV-procd|sdf|11|dock5
  -GOLD-   2262015103D 1   1.00000     0.00000
 Structure written by MMmdl.
 57 62  0  0  0  0  0  0  0  0  1 V2000
  154.2699  139.5436  158.8634 O   0  0  0  0  0  0  0  0  0  0  0  0
  153.1522  139.8148  159.3108 C   0  0  0  0  0  0  0  0  0  0  0  0
  152.0552  138.9794  159.4794 N   0  0  0  0  0  0  0  0  0  0  0  0
  151.6564  138.2235  158.5014 C   0  0  0  0  0  0  0  0  0  0  0  0
  152.1264  138.0418  157.1938 N   0  0  0  0  0  0  0  0  0  0  0  0
  151.5729  137.1836  156.2310 C   0  0  0  0  0  0  0  0  0  0  0  0
  150.5279  136.4230  156.4206 N   0  0  0  0  0  0  0  0  0  0  0  0
  150.0250  136.5636  157.7061 C   0  0  0  0  0  0  0  0  0  0  0  0
  150.4772  137.3612  158.7347 C   0  0  0  0  0  0  0  0  0  0  0  0
  149.6894  137.1970  159.8696 N   0  0  0  0  0  0  0  0  0  0  0  0
  148.7870  136.3035  159.4712 C   0  0  0  0  0  0  0  0  0  0  0  0
  148.9185  135.8816  158.1986 N   0  0  0  0  0  0  0  0  0  0  0  0
  148.0706  134.8947  157.4639 C   0  0  2  0  0  0  0  0  0  0  0  0
  146.7359  135.2727  157.5836 O   0  0  0  0  0  0  0  0  0  0  0  0
  145.9479  134.1035  157.4267 C   0  0  2  0  0  0  0  0  0  0  0  0
  144.4969  134.3389  157.8661 C   0  0  0  0  0  0  0  0  0  0  0  0
  143.9524  133.1121  158.3231 O   0  0  0  0  0  0  0  0  0  0  0  0
  142.6911  133.0633  158.7905 C   0  0  0  0  0  0  0  0  0  0  0  0
  142.0200  134.0638  159.0514 O   0  0  0  0  0  0  0  0  0  0  0  0
  142.1906  131.6682  158.9574 C   0  0  0  0  0  0  0  0  0  0  0  0
  142.8022  130.6204  158.2300 C   0  0  0  0  0  0  0  0  0  0  0  0
  142.3517  129.2932  158.3682 C   0  0  0  0  0  0  0  0  0  0  0  0
  141.2827  128.9975  159.2340 C   0  0  0  0  0  0  0  0  0  0  0  0
  140.6648  130.0309  159.9621 C   0  0  0  0  0  0  0  0  0  0  0  0
  141.1149  131.3587  159.8265 C   0  0  0  0  0  0  0  0  0  0  0  0
  146.7212  133.0583  158.2353 C   0  0  2  0  0  0  0  0  0  0  0  0
  146.3917  133.1554  159.6109 O   0  0  0  0  0  0  0  0  0  0  0  0
  147.7963  133.1995  160.5106 S   0  0  0  0  0  0  0  0  0  0  0  0
  147.7774  134.4168  161.3354 O   0  0  0  0  0  0  0  0  0  0  0  0
  148.0179  131.8617  161.0802 O   0  0  0  0  0  0  0  0  0  0  0  0
  148.8894  133.4217  159.2679 O   0  0  0  0  0  0  0  0  0  0  0  0
  148.1906  133.4670  158.0333 C   0  0  2  0  0  0  0  0  0  0  0  0
  152.9051  141.2152  159.7684 C   0  0  0  0  0  0  0  0  0  0  0  0
  153.1893  141.5851  161.1002 C   0  0  0  0  0  0  0  0  0  0  0  0
  152.9542  142.9055  161.5314 C   0  0  0  0  0  0  0  0  0  0  0  0
  152.4321  143.8576  160.6345 C   0  0  0  0  0  0  0  0  0  0  0  0
  152.1434  143.4898  159.3059 C   0  0  0  0  0  0  0  0  0  0  0  0
  152.3789  142.1703  158.8729 C   0  0  0  0  0  0  0  0  0  0  0  0
  152.0958  137.1954  155.2736 H   0  0  0  0  0  0  0  0  0  0  0  0
  148.0090  135.9424  160.1278 H   0  0  0  0  0  0  0  0  0  0  0  0
  148.3861  134.9663  156.4219 H   0  0  0  0  0  0  0  0  0  0  0  0
  145.9666  133.8302  156.3698 H   0  0  0  0  0  0  0  0  0  0  0  0
  144.4472  135.0942  158.6515 H   0  0  0  0  0  0  0  0  0  0  0  0
  143.9094  134.7054  157.0233 H   0  0  0  0  0  0  0  0  0  0  0  0
  143.6247  130.8226  157.5590 H   0  0  0  0  0  0  0  0  0  0  0  0
  142.8276  128.5013  157.8087 H   0  0  0  0  0  0  0  0  0  0  0  0
  140.9370  127.9798  159.3395 H   0  0  0  0  0  0  0  0  0  0  0  0
  139.8438  129.8051  160.6264 H   0  0  0  0  0  0  0  0  0  0  0  0
  140.6176  132.1274  160.4000 H   0  0  0  0  0  0  0  0  0  0  0  0
  146.5215  132.0421  157.8939 H   0  0  0  0  0  0  0  0  0  0  0  0
  148.6877  132.8367  157.2957 H   0  0  0  0  0  0  0  0  0  0  0  0
  153.5888  140.8599  161.7943 H   0  0  0  0  0  0  0  0  0  0  0  0
  153.1742  143.1875  162.5504 H   0  0  0  0  0  0  0  0  0  0  0  0
  152.2515  144.8695  160.9661 H   0  0  0  0  0  0  0  0  0  0  0  0
  151.7410  144.2196  158.6189 H   0  0  0  0  0  0  0  0  0  0  0  0
  152.1542  141.8950  157.8523 H   0  0  0  0  0  0  0  0  0  0  0  0
  152.9356  138.5804  156.9197 H   0  0  0  0  0  0  0  0  0  0  0  0
  1  2  2  0  0  0  0
  2  3  1  0  0  0  0
  2 33  1  0  0  0  0
  3  4  2  0  0  0  0
  4  9  1  0  0  0  0
  4  5  1  0  0  0  0
  5  6  1  0  0  0  0
  5 57  1  0  0  0  0
  6  7  2  0  0  0  0
  6 39  1  0  0  0  0
  7  8  1  0  0  0  0
  8 12  1  0  0  0  0
  8  9  2  0  0  0  0
  9 10  1  0  0  0  0
 10 11  2  0  0  0  0
 11 12  1  0  0  0  0
 11 40  1  0  0  0  0
 12 13  1  0  0  0  0
 13 32  1  0  0  0  0
 13 14  1  0  0  0  0
 13 41  1  0  0  0  0
 14 15  1  0  0  0  0
 15 16  1  0  0  0  0
 15 26  1  0  0  0  0
 15 42  1  0  0  0  0
 16 17  1  0  0  0  0
 16 43  1  0  0  0  0
 16 44  1  0  0  0  0
 17 18  1  0  0  0  0
 18 19  2  0  0  0  0
 18 20  1  0  0  0  0
 20 25  1  0  0  0  0
 20 21  2  0  0  0  0
 21 22  1  0  0  0  0
 21 45  1  0  0  0  0
 22 23  2  0  0  0  0
 22 46  1  0  0  0  0
 23 24  1  0  0  0  0
 23 47  1  0  0  0  0
 24 25  2  0  0  0  0
 24 48  1  0  0  0  0
 25 49  1  0  0  0  0
 26 32  1  0  0  0  0
 26 27  1  0  0  0  0
 26 50  1  0  0  0  0
 27 28  1  0  0  0  0
 28 29  2  0  0  0  0
 28 30  2  0  0  0  0
 28 31  1  0  0  0  0
 31 32  1  0  0  0  0
 32 51  1  0  0  0  0
 33 38  1  0  0  0  0
 33 34  2  0  0  0  0
 34 35  1  0  0  0  0
 34 52  1  0  0  0  0
 35 36  2  0  0  0  0
 35 53  1  0  0  0  0
 36 37  1  0  0  0  0
 36 54  1  0  0  0  0
 37 38  2  0  0  0  0
 37 55  1  0  0  0  0
 38 56  1  0  0  0  0
M  END
> <s_m_source_file>
AV-unprocessed.smi

> <i_m_source_file_index>
1

> <i_lp_mmshare_version>
43012

> <i_f3d_flags>
0

> <s_epik_input>
W2NIXTFbY0hdW2NIXVtjSF1bY0hdYzFDKD1PKVtOSF1jKG5bY0hdbjIpYyhjMjMpbltjSF1uM1tDQEBIXShbQ0BIXShbQ0BIXTQ1KU9TKE81KSg9Tyk9TylPW0NASF00W0NIMl1PQyg9TyljNltjSF1bY0hdW2NIXVtjSF1bY0hdNg==

> <s_epik_cmdline>
J2VwaWtfcHl0aG9uJywgJy1waCcsICc3LjAnLCAnLXRuJywgJzgnLCAnLW1hJywgJzIwMCcsICctbWV0YWxfYmluZGluZycsICctaW1hZScsICc8aW5maWxlLm1hZT4nLCAnLW9tYWUnLCAnPG91dGZpbGUubWFlPic=

> <r_epik_Ionization_Penalty>
0.122545

> <r_epik_Ionization_Penalty_Charging>
0.122545

> <r_epik_Ionization_Penalty_Neutral>
7.8935e-16

> <r_epik_State_Penalty>
2.69178

> <r_epik_Charging_Adjusted_Penalty>
2.81433

> <i_epik_Tot_Q>
0

> <i_epik_Tot_abs_Q>
0

> <r_epik_Metal_State_Penalty>
3.02665

> <b_epik_Metal_Only>
0

> <s_epik_Chemistry_Notes>
This compound has an ester and may undergo hydrolysis at high or low pH. This compound contains an acetal/aminal-like group ( X-CH(R)-Y where X, Y are N, S, or O) that may be acid/base labile, releasing an aldehyde.

> <s_lp_Force_Field>
OPLS_2005

> <r_lp_Energy>
59.7171

> <b_lp_Chiralities_Consistent>
1

> <s_lp_Variant>
AV-unprocessed.smi:1-11

> <Gold.Version>
5.8.1

> <Gold.Id.Protein>
6NUR|6NUR_protein|mol2

> <Gold.PLP.Fitness>
52.1101

> <Gold.PLP.PLP>
-51.2452

> <Gold.PLP.part.hbond>
-4.0000

> <Gold.PLP.part.metal>
0.0000

> <Gold.PLP.part.buried>
-6.5936

> <Gold.PLP.part.nonpolar>
-40.6518

> <Gold.PLP.part.repulsive>
0.1658

> <Gold.PLP.ligand.clash>
0.0000

> <Gold.PLP.ligand.torsion>
2.6870

> <Gold.PLP.Chemscore.Hbond>
2.0000

> <Gold.PLP.Chemscore.CHOScore>
0.0000

> <Gold.PLP.Chemscore.Metal>
0.0000

> <Gold.Chemscore.Hbonds>
donor molecule, donor type, donor heavy atom, donor atom, acceptor molecule, acceptor atom, score
      P1  H  6931  6943       L1    10  0.06
      P1  H  7997  8010       L1     1  1.00
      P1  H 11000 11005       L1    19  1.00

> <Gold.PLP.Chemscore.Internal.Correction>
0.2389

> <Gold.Rescore>
     Score         DG    S(hbond)    S(metal)    S(lipo)     H(rot)  DE(clash)    DE(int)     intcor
     11.16     -19.14       1.95        0.00     107.76       2.13       1.20       6.77       ----

> <Gold.Chemscore.Fitness>
11.1640

> <Gold.Chemscore.DG>
-19.1351

> <Gold.Chemscore.ZeroCoef>
-5.4800

> <Gold.Chemscore.Hbond>
1.9487

> <Gold.Chemscore.Metal>
0.0000

> <Gold.Chemscore.Lipo>
107.7602

> <Gold.Chemscore.Internal_Hbond>
0.0000

> <Gold.Chemscore.DEClash>
1.2018

> <Gold.Chemscore.DEInternal>
6.7693

> <Gold.Chemscore.Rot>
2.1333

> <Gold.Chemscore.Internal.Correction>
   9.000000E+99

> <Gold.Chemscore.Hbonds>
donor molecule, donor type, donor heavy atom, donor atom, acceptor molecule, acceptor atom, score
      P1  H  6931  6943       L1    10  0.06
      P1  H  7997  8010       L1     1  0.96
      P1  H 11000 11005       L1    19  0.35

> <Gold.Chemscore.Hbond.Weighted>
-6.5086

> <Gold.Chemscore.Metal.Weighted>
-0.0000

> <Gold.Chemscore.Lipo.Weighted>
-12.6079

> <Gold.Chemscore.Internal_Hbond.Weighted>
0.0000

> <Gold.Chemscore.DEClash.Weighted>
1.2018

> <Gold.Chemscore.DEInternal.Weighted>
6.7693

> <Gold.Chemscore.Rot.Weighted>
5.4614

> <Gold.Chemscore.Internal.Correction.Weighted>
   9.000000E+99

> <Gold.Protein.RotatedTorsions>
[ 6907 6896 6895 6894 ] final -140.74 input  -60.11 | X-H torsion
[ 7974 7965 7964 7962 ] final    7.49 input  175.53 | X-H torsion
[ 8008 7997 7996 7995 ] final   -7.12 input   59.86 | X-H torsion
[ 10167 10162 10161 10158 ] final  166.52 input  -65.29 | X-H torsion
[ 10718 10713 10712 10709 ] final  -19.32 input   66.30 | X-H torsion
[ 10763 10752 10751 10750 ] final  127.83 input  -60.55 | X-H torsion
[ 11005 11000 10999 10996 ] final -136.97 input  -57.11 | X-H torsion

> <Gold.Protein.ActiveResidues>
 VAL166  LYS551  ARG553  GLY616  TRP617  ASP618  TYR619  PRO620  LYS621  CYS622 
 ASP623  PHE694  ASN695  SER759  ASP760  ASP761  ALA762  ILE779  LEU786  VAL792 
 PHE793  MET794  SER795  GLU796  ALA797  LYS798  CYS799  TRP800  GLU811  SER814 

> <Gold.Protein.RotatedAtoms>
  151.0646  133.5515  159.2631 H   0  0  0  0  0  0  0  0  0  0  0  0  # atno 6907 bound_to 6896
  151.2478  135.0611  159.9060 H   0  0  0  0  0  0  0  0  0  0  0  0  # atno 6908 bound_to 6896
  152.5403  134.0411  159.8122 H   0  0  0  0  0  0  0  0  0  0  0  0  # atno 6909 bound_to 6896
  146.2426  140.0075  142.8410 H   0  0  0  0  0  0  0  0  0  0  0  0  # atno 7974 bound_to 7965
  154.5869  140.2415  155.7975 H   0  0  0  0  0  0  0  0  0  0  0  0  # atno 8008 bound_to 7997
  156.2220  140.2994  155.9929 H   0  0  0  0  0  0  0  0  0  0  0  0  # atno 8009 bound_to 7997
  155.2442  140.0408  157.2969 H   0  0  0  0  0  0  0  0  0  0  0  0  # atno 8010 bound_to 7997
  139.4926  144.4019  151.9400 H   0  0  0  0  0  0  0  0  0  0  0  0  # atno 10167 bound_to 10162
  156.5473  130.4693  149.6469 H   0  0  0  0  0  0  0  0  0  0  0  0  # atno 10718 bound_to 10713
  153.7157  135.3261  155.3256 H   0  0  0  0  0  0  0  0  0  0  0  0  # atno 10763 bound_to 10752
  154.8371  135.4487  154.1268 H   0  0  0  0  0  0  0  0  0  0  0  0  # atno 10764 bound_to 10752
  153.2375  135.6967  153.7900 H   0  0  0  0  0  0  0  0  0  0  0  0  # atno 10765 bound_to 10752
  140.8755  134.1998  157.4624 H   0  0  0  0  0  0  0  0  0  0  0  0  # atno 11005 bound_to 11000
  145.1358  140.9544  143.4517 LP  0  0  0  0  0  0  0  0  0  0  0  0  # atno 17320 bound_to 7965
  145.0343  139.3314  143.6008 LP  0  0  0  0  0  0  0  0  0  0  0  0  # atno 17321 bound_to 7965
  140.3458  144.3149  150.5958 LP  0  0  0  0  0  0  0  0  0  0  0  0  # atno 17342 bound_to 10162
  140.5527  143.2204  151.7899 LP  0  0  0  0  0  0  0  0  0  0  0  0  # atno 17343 bound_to 10162
  156.2917  130.7128  151.1978 LP  0  0  0  0  0  0  0  0  0  0  0  0  # atno 17370 bound_to 10713
  157.7394  131.0529  150.5232 LP  0  0  0  0  0  0  0  0  0  0  0  0  # atno 17371 bound_to 10713
  139.8715  134.9793  156.5033 LP  0  0  0  0  0  0  0  0  0  0  0  0  # atno 17394 bound_to 11000
  140.8523  133.8122  155.9181 LP  0  0  0  0  0  0  0  0  0  0  0  0  # atno 17395 bound_to 11000

$$$$
