#       Name:                AV-unprocessed.smi:2424
#       Creating user name   scv26
#       Creation time:       Fri Mar 27 13:19:29 2020


#       File generated by GOLD software.
#

@<TRIPOS>MOLECULE
AV-unprocessed.smi:2424
    56    57     1
SMALL
NO_CHARGES


@<TRIPOS>ATOM
      1 ****         0.0623  -1.6340   2.0960 C.3            1 S1                 0.0000
      2 ****        -1.0547  -2.0382   1.1158 C.3            1 S1                 0.0000
      3 ****        -2.0362  -0.9149   0.6699 C.3            1 S1                 0.0000
      4 ****        -2.5813  -0.1767   1.9078 C.3            1 S1                 0.0000
      5 ****        -3.4151  -1.0498   2.8587 C.3            1 S1                 0.0000
      6 ****        -1.5897   0.0102  -0.4976 C.3            1 S1                 0.0000
      7 ****        -0.1482   0.1411  -0.6802 N.am           1 S1                 0.0000
      8 ****         0.5713   1.2098  -0.3122 C.2            1 S1                 0.0000
      9 ****         0.0781   2.2024   0.2226 O.2            1 S1                 0.0000
     10 ****         1.8751   1.0290  -0.5943 N.am           1 S1                 0.0000
     11 ****         2.9592   1.8929  -0.3784 C.2            1 S1                 0.0000
     12 ****         2.8757   3.1547   0.0953 C.2            1 S1                 0.0000
     13 ****         4.0181   3.9398   0.2733 N.am           1 S1                 0.0000
     14 ****         5.2772   3.5298  -0.0026 C.2            1 S1                 0.0000
     15 ****         6.2330   4.2809   0.1835 O.2            1 S1                 0.0000
     16 ****         5.3946   2.1589  -0.5245 C.2            1 S1                 0.0000
     17 ****         6.7800   1.6348  -0.8569 C.3            1 S1                 0.0000
     18 ****         4.2871   1.4013  -0.6954 C.2            1 S1                 0.0000
     19 ****        -2.2178  -0.9631  -1.5008 C.3            1 S1                 0.0000
     20 ****        -2.8213  -0.4034  -2.7824 C.3            1 S1                 0.0000
     21 ****        -3.1312  -1.3674  -0.3340 C.3            1 S1                 0.0000
     22 ****        -3.4221  -2.7550  -0.2471 O.3            1 S1                 0.0000
     23 ****        -4.4155  -3.1784  -1.1637 C.3            1 S1                 0.0000
     24 ****         3.8804   4.8728   0.6340 H              1 S1                 0.0000
     25 ****         0.7466  -2.4681   2.2520 H              1 S1                 0.0000
     26 ****        -0.3344  -1.3655   3.0746 H              1 S1                 0.0000
     27 ****         0.6524  -0.7955   1.7327 H              1 S1                 0.0000
     28 ****        -0.5784  -2.4837   0.2425 H              1 S1                 0.0000
     29 ****        -1.6101  -2.8596   1.5685 H              1 S1                 0.0000
     30 ****        -1.7751   0.3053   2.4603 H              1 S1                 0.0000
     31 ****        -3.2166   0.6487   1.5844 H              1 S1                 0.0000
     32 ****        -3.8277  -0.4478   3.6684 H              1 S1                 0.0000
     33 ****        -2.8179  -1.8392   3.3144 H              1 S1                 0.0000
     34 ****        -4.2508  -1.5177   2.3378 H              1 S1                 0.0000
     35 ****        -2.1239   0.9639  -0.4977 H              1 S1                 0.0000
     36 ****         0.3311  -0.6368  -1.1096 H              1 S1                 0.0000
     37 ****         2.1193   0.1447  -1.0152 H              1 S1                 0.0000
     38 ****         1.9708   3.6727   0.3703 H              1 S1                 0.0000
     39 ****         6.7389   0.6147  -1.2397 H              1 S1                 0.0000
     40 ****         7.4108   1.6358   0.0326 H              1 S1                 0.0000
     41 ****         7.2530   2.2602  -1.6148 H              1 S1                 0.0000
     42 ****         4.3923   0.3965  -1.0785 H              1 S1                 0.0000
     43 ****        -1.5267  -1.7780  -1.7244 H              1 S1                 0.0000
     44 ****        -3.5711   0.3590  -2.5703 H              1 S1                 0.0000
     45 ****        -3.3011  -1.1832  -3.3728 H              1 S1                 0.0000
     46 ****        -2.0555   0.0556  -3.4077 H              1 S1                 0.0000
     47 ****        -4.0275  -0.7453  -0.2692 H              1 S1                 0.0000
     48 ****        -4.6340  -4.2336  -1.0012 H              1 S1                 0.0000
     49 ****        -4.0796  -3.0641  -2.1939 H              1 S1                 0.0000
     50 ****        -5.3423  -2.6186  -1.0306 H              1 S1                 0.0000
     51 ****        -0.9051   2.2373   0.4019 LP             1 S1                 0.0000
     52 ****         0.6605   2.9742   0.4779 LP             1 S1                 0.0000
     53 ****         6.0824   5.2025   0.5414 LP             1 S1                 0.0000
     54 ****         7.1607   3.9701  -0.0230 LP             1 S1                 0.0000
     55 ****        -3.7397  -2.9551   0.6798 LP             1 S1                 0.0000
     56 ****        -2.5829  -3.2671  -0.4298 LP             1 S1                 0.0000
@<TRIPOS>BOND
    1    1    2 1     
    2    1   25 1     
    3    1   26 1     
    4    1   27 1     
    5    2    3 1     
    6    2   28 1     
    7    2   29 1     
    8    3   21 1     
    9    3    4 1     
   10    3    6 1     
   11    4    5 1     
   12    4   30 1     
   13    4   31 1     
   14    5   32 1     
   15    5   33 1     
   16    5   34 1     
   17    6    7 1     
   18    6   19 1     
   19    6   35 1     
   20    7    8 am    
   21    7   36 1     
   22    8    9 2     
   23    8   10 am    
   24   10   11 1     
   25   10   37 1     
   26   11   18 1     
   27   11   12 2     
   28   12   13 1     
   29   12   38 1     
   30   13   24 1     
   31   13   14 am    
   32   14   15 2     
   33   14   16 1     
   34   16   17 1     
   35   16   18 2     
   36   17   39 1     
   37   17   40 1     
   38   17   41 1     
   39   18   42 1     
   40   19   20 1     
   41   19   21 1     
   42   19   43 1     
   43   20   44 1     
   44   20   45 1     
   45   20   46 1     
   46   21   22 1     
   47   21   47 1     
   48   22   23 1     
   49   23   48 1     
   50   23   49 1     
   51   23   50 1     
   52    9   51 1     
   53    9   52 1     
   54   15   53 1     
   55   15   54 1     
   56   22   55 1     
   57   22   56 1     
@<TRIPOS>SUBSTRUCTURE
      1 S1             1
@<TRIPOS>SET
LONE_PAIRS      STATIC     ATOMS    <user>   **** ""
6 51 52 53 54 55 56
DONOR_HYDROGENS      STATIC     ATOMS    <user>   **** ""
3 36 37 24
ATOM$BLUE        STATIC     ATOMS    COLORGROUP SYSTEM
6 51 52 53 54 55 56
ATOM$RED        STATIC     ATOMS    COLORGROUP SYSTEM
3 36 37 24
