#       Name:                AV-unprocessed.smi:136
#       Creating user name   scv26
#       Creation time:       Thu Mar 26 18:32:04 2020


#       File generated by GOLD software.
#

@<TRIPOS>MOLECULE
AV-unprocessed.smi:136
    65    69     1
SMALL
NO_CHARGES


@<TRIPOS>ATOM
      1 ****        -1.3993   0.9224   1.3754 O.2            1 S1                 0.0000
      2 ****        -0.6318  -0.0064   1.1158 C.2            1 S1                 0.0000
      3 ****         0.8656   0.2791   0.8745 C.3            1 S1                 0.0000
      4 ****         1.1973   1.7208   0.8686 N.am           1 S1                 0.0000
      5 ****         1.5808   2.3362   2.0858 C.2            1 S1                 0.0000
      6 ****         1.6517   1.6918   3.1333 O.2            1 S1                 0.0000
      7 ****         1.8690   3.7635   2.0059 C.2            1 S1                 0.0000
      8 ****         2.2418   4.4293   3.1121 F              1 S1                 0.0000
      9 ****         1.7657   4.4300   0.8378 C.2            1 S1                 0.0000
     10 ****         1.3884   3.8166  -0.3437 N.am           1 S1                 0.0000
     11 ****         1.2589   4.5832  -1.6434 C.3            1 S1                 0.0000
     12 ****         2.4132   4.2291  -2.6006 C.3            1 S1                 0.0000
     13 ****         2.9586   5.5896  -2.9869 C.3            1 S1                 0.0000
     14 ****         2.6379   6.4194  -1.7531 C.3            1 S1                 0.0000
     15 ****         1.3419   5.9582  -1.3958 O.3            1 S1                 0.0000
     16 ****         1.0828   2.4381  -0.3460 C.2            1 S1                 0.0000
     17 ****         0.7208   1.8775  -1.3831 O.2            1 S1                 0.0000
     18 ****        -1.0601  -1.2862   1.0394 N.am           1 S1                 0.0000
     19 ****        -0.2188  -2.3423   0.9048 N.2            1 S1                 0.0000
     20 ****        -0.8741  -3.4371   1.0266 C.2            1 S1                 0.0000
     21 ****        -0.2739  -4.7872   0.9401 C.ar           1 S1                 0.0000
     22 ****         1.1085  -4.9173   0.6746 C.ar           1 S1                 0.0000
     23 ****         1.6801  -6.2019   0.5900 C.ar           1 S1                 0.0000
     24 ****         0.8784  -7.3471   0.7694 C.ar           1 S1                 0.0000
     25 ****         1.5841  -8.9178   0.6630 Cl             1 S1                 0.0000
     26 ****        -0.4989  -7.2116   1.0356 C.ar           1 S1                 0.0000
     27 ****        -1.0820  -5.9322   1.1228 C.ar           1 S1                 0.0000
     28 ****        -2.3331  -3.2417   1.2679 C.3            1 S1                 0.0000
     29 ****        -2.4518  -1.7162   1.2275 C.3            1 S1                 0.0000
     30 ****        -3.3900  -1.2346   0.1574 C.2            1 S1                 0.0000
     31 ****        -3.2252  -0.6211  -1.0559 C.2            1 S1                 0.0000
     32 ****        -4.5274  -0.4356  -1.5958 C.2            1 S1                 0.0000
     33 ****        -5.3923  -0.9549  -0.6759 C.2            1 S1                 0.0000
     34 ****        -4.7152  -1.4483   0.3962 O.3            1 S1                 0.0000
     35 ****         1.4483  -0.2527   1.6282 H              1 S1                 0.0000
     36 ****         1.1648  -0.1825  -0.0681 H              1 S1                 0.0000
     37 ****         1.9887   5.4858   0.8501 H              1 S1                 0.0000
     38 ****         0.2665   4.3436  -2.0297 H              1 S1                 0.0000
     39 ****         3.1754   3.6496  -2.0769 H              1 S1                 0.0000
     40 ****         2.0525   3.6526  -3.4528 H              1 S1                 0.0000
     41 ****         4.0223   5.5715  -3.2257 H              1 S1                 0.0000
     42 ****         2.4186   5.9800  -3.8503 H              1 S1                 0.0000
     43 ****         3.3472   6.2124  -0.9507 H              1 S1                 0.0000
     44 ****         2.6424   7.4915  -1.9504 H              1 S1                 0.0000
     45 ****         1.7400  -4.0520   0.5335 H              1 S1                 0.0000
     46 ****         2.7357  -6.3076   0.3862 H              1 S1                 0.0000
     47 ****        -1.1110  -8.0909   1.1732 H              1 S1                 0.0000
     48 ****        -2.1392  -5.8562   1.3287 H              1 S1                 0.0000
     49 ****        -2.9274  -3.7239   0.4902 H              1 S1                 0.0000
     50 ****        -2.6317  -3.6422   2.2373 H              1 S1                 0.0000
     51 ****        -2.7980  -1.3559   2.1980 H              1 S1                 0.0000
     52 ****        -2.2821  -0.3382  -1.4997 H              1 S1                 0.0000
     53 ****        -4.7967   0.0186  -2.5377 H              1 S1                 0.0000
     54 ****        -6.4669  -1.0509  -0.6272 H              1 S1                 0.0000
     55 ****        -1.0514   1.8584   1.4293 LP             1 S1                 0.0000
     56 ****        -2.3700   0.7400   1.5321 LP             1 S1                 0.0000
     57 ****         1.4365   0.7153   3.1351 LP             1 S1                 0.0000
     58 ****         1.9244   2.1453   3.9818 LP             1 S1                 0.0000
     59 ****         1.1803   6.1337  -0.4247 LP             1 S1                 0.0000
     60 ****         0.6540   6.4383  -1.9402 LP             1 S1                 0.0000
     61 ****         0.5030   0.9016  -1.3741 LP             1 S1                 0.0000
     62 ****         0.6450   2.3989  -2.2331 LP             1 S1                 0.0000
     63 ****         0.7646  -2.2763   0.7359 LP             1 S1                 0.0000
     64 ****        -4.9960  -0.9722   1.2296 LP             1 S1                 0.0000
     65 ****        -4.8937  -2.4272   0.4953 LP             1 S1                 0.0000
@<TRIPOS>BOND
    1    1    2 2     
    2    2    3 1     
    3    2   18 am    
    4    3    4 1     
    5    3   35 1     
    6    3   36 1     
    7    4   16 am    
    8    4    5 am    
    9    5    6 2     
   10    5    7 1     
   11    7    8 1     
   12    7    9 2     
   13    9   10 1     
   14    9   37 1     
   15   10   11 1     
   16   10   16 am    
   17   11   15 1     
   18   11   12 1     
   19   11   38 1     
   20   12   13 1     
   21   12   39 1     
   22   12   40 1     
   23   13   14 1     
   24   13   41 1     
   25   13   42 1     
   26   14   15 1     
   27   14   43 1     
   28   14   44 1     
   29   16   17 2     
   30   18   29 1     
   31   18   19 1     
   32   19   20 2     
   33   20   21 1     
   34   20   28 1     
   35   21   27 ar    
   36   21   22 ar    
   37   22   23 ar    
   38   22   45 1     
   39   23   24 ar    
   40   23   46 1     
   41   24   25 1     
   42   24   26 ar    
   43   26   27 ar    
   44   26   47 1     
   45   27   48 1     
   46   28   29 1     
   47   28   49 1     
   48   28   50 1     
   49   29   30 1     
   50   29   51 1     
   51   30   34 1     
   52   30   31 2     
   53   31   32 1     
   54   31   52 1     
   55   32   33 2     
   56   32   53 1     
   57   33   34 1     
   58   33   54 1     
   59    1   55 1     
   60    1   56 1     
   61    6   57 1     
   62    6   58 1     
   63   15   59 1     
   64   15   60 1     
   65   17   61 1     
   66   17   62 1     
   67   19   63 1     
   68   34   64 1     
   69   34   65 1     
@<TRIPOS>SUBSTRUCTURE
      1 S1             1
@<TRIPOS>SET
LONE_PAIRS      STATIC     ATOMS    <user>   **** ""
11 55 56 57 58 59 60 61 62 63 64 65
ATOM$BLUE        STATIC     ATOMS    COLORGROUP SYSTEM
11 55 56 57 58 59 60 61 62 63 64 65
