#       Name:                AV-unprocessed.smi:2056
#       Creating user name   scv26
#       Creation time:       Fri Mar 27 11:00:41 2020


#       File generated by GOLD software.
#

@<TRIPOS>MOLECULE
AV-unprocessed.smi:2056
    39    39     1
SMALL
NO_CHARGES


@<TRIPOS>ATOM
      1 ****        -2.2167   0.0867   1.6715 C.3            1 S1                 0.0000
      2 ****        -3.1349   0.0264   0.4321 C.3            1 S1                 0.0000
      3 ****        -4.4836  -0.5862   0.8574 C.3            1 S1                 0.0000
      4 ****        -3.3931   1.4606  -0.0769 C.3            1 S1                 0.0000
      5 ****        -2.5271  -0.8738  -0.6840 C.3            1 S1                 0.0000
      6 ****        -1.1721  -0.4164  -1.2515 C.2            1 S1                 0.0000
      7 ****        -1.1499   0.4390  -2.1380 O.2            1 S1                 0.0000
      8 ****        -0.1318  -1.0628  -0.6717 N.pl3          1 S1                -1.0000
      9 ****         1.1236  -0.7489  -1.0259 C.2            1 S1                 0.0000
     10 ****         1.8999   0.0682  -0.3060 N.2            1 S1                 0.0000
     11 ****         3.1759   0.2507  -0.8472 C.2            1 S1                 0.0000
     12 ****         4.1681   1.1458  -0.1587 C.3            1 S1                 0.0000
     13 ****         4.8263   0.4480   1.0374 C.2            1 S1                 0.0000
     14 ****         5.3493  -0.7663   0.8400 N.am           1 S1                 0.0000
     15 ****         4.8840   1.0116   2.1283 O.2            1 S1                 0.0000
     16 ****         3.3679  -0.4464  -2.0125 C.2            1 S1                 0.0000
     17 ****         1.9571  -1.3641  -2.4544 S.3            1 S1                 0.0000
     18 ****        -2.6846   0.6419   2.4850 H              1 S1                 0.0000
     19 ****        -1.2690   0.5794   1.4517 H              1 S1                 0.0000
     20 ****        -1.9886  -0.9126   2.0437 H              1 S1                 0.0000
     21 ****        -4.3562  -1.5980   1.2437 H              1 S1                 0.0000
     22 ****        -5.1777  -0.6405   0.0181 H              1 S1                 0.0000
     23 ****        -4.9619   0.0041   1.6399 H              1 S1                 0.0000
     24 ****        -3.9087   2.0598   0.6741 H              1 S1                 0.0000
     25 ****        -4.0118   1.4571  -0.9748 H              1 S1                 0.0000
     26 ****        -2.4656   1.9809  -0.3168 H              1 S1                 0.0000
     27 ****        -2.4428  -1.9001  -0.3200 H              1 S1                 0.0000
     28 ****        -3.2246  -0.9276  -1.5210 H              1 S1                 0.0000
     29 ****         4.9501   1.4574  -0.8518 H              1 S1                 0.0000
     30 ****         3.6800   2.0599   0.1822 H              1 S1                 0.0000
     31 ****         5.8124  -1.2437   1.5997 H              1 S1                 0.0000
     32 ****         5.3009  -1.1904  -0.0748 H              1 S1                 0.0000
     33 ****         4.2503  -0.4794  -2.6333 H              1 S1                 0.0000
     34 ****        -2.0058   0.8271  -2.4799 LP             1 S1                 0.0000
     35 ****        -0.2761   0.7452  -2.5156 LP             1 S1                 0.0000
     36 ****        -0.2988  -1.7694   0.0159 LP             1 S1                 0.0000
     37 ****         1.5962   0.5072   0.5397 LP             1 S1                 0.0000
     38 ****         4.5008   1.9287   2.2382 LP             1 S1                 0.0000
     39 ****         5.3141   0.5530   2.9059 LP             1 S1                 0.0000
@<TRIPOS>BOND
    1    1    2 1     
    2    1   18 1     
    3    1   19 1     
    4    1   20 1     
    5    2    3 1     
    6    2    4 1     
    7    2    5 1     
    8    3   21 1     
    9    3   22 1     
   10    3   23 1     
   11    4   24 1     
   12    4   25 1     
   13    4   26 1     
   14    5    6 1     
   15    5   27 1     
   16    5   28 1     
   17    6    7 2     
   18    6    8 1     
   19    8    9 1     
   20    9   17 1     
   21    9   10 2     
   22   10   11 1     
   23   11   12 1     
   24   11   16 2     
   25   12   13 1     
   26   12   29 1     
   27   12   30 1     
   28   13   14 am    
   29   13   15 2     
   30   14   31 1     
   31   14   32 1     
   32   16   17 1     
   33   16   33 1     
   34    7   34 1     
   35    7   35 1     
   36    8   36 1     
   37   10   37 1     
   38   15   38 1     
   39   15   39 1     
@<TRIPOS>SUBSTRUCTURE
      1 S1             1
@<TRIPOS>SET
LONE_PAIRS      STATIC     ATOMS    <user>   **** ""
6 34 35 36 37 38 39
DONOR_HYDROGENS      STATIC     ATOMS    <user>   **** ""
2 31 32
ATOM$BLUE        STATIC     ATOMS    COLORGROUP SYSTEM
6 34 35 36 37 38 39
ATOM$RED        STATIC     ATOMS    COLORGROUP SYSTEM
2 31 32
