AV-unprocessed.smi:922|AV-procd|sdf|4174|dock4
  -GOLD-   22720 2 83D 1   1.00000     0.00000
 Structure written by MMmdl.
 32 33  0  0  0  0  0  0  0  0  2 V2000
  153.5918  141.6428  161.2978 C   0  0  0  0  0  0  0  0  0  0  0  0
  152.9959  142.1717  159.9894 C   0  0  1  0  0  0  0  0  0  0  0  0
  151.8996  141.2400  159.4402 C   0  0  0  0  0  0  0  0  0  0  0  0
  151.2759  141.8292  158.2631 N   0  0  0  0  0  0  0  0  0  0  0  0
  151.1266  141.1950  157.0287 C   0  0  0  0  0  0  0  0  0  0  0  0
  150.1148  141.7019  156.0686 C   0  0  0  0  0  0  0  0  0  0  0  0
  149.9215  141.1740  154.9258 N   0  0  0  0  0  0  0  0  0  0  0  0
  150.6890  140.0271  154.4988 N   0  5  0  0  0  0  0  0  0  0  0  0
  151.6501  139.5020  155.3168 C   0  0  0  0  0  0  0  0  0  0  0  0
  152.3298  138.5328  154.9825 O   0  0  0  0  0  0  0  0  0  0  0  0
  151.8673  140.1217  156.6311 C   0  0  0  0  0  0  0  0  0  0  0  0
  153.1357  139.4643  157.6139 Cl  0  0  0  0  0  0  0  0  0  0  0  0
  150.7100  143.1368  158.5726 C   0  0  0  0  0  0  0  0  0  0  0  0
  151.7891  144.0901  159.1349 C   0  0  0  0  0  0  0  0  0  0  0  0
  152.8127  144.5062  158.0565 C   0  0  0  0  0  0  0  0  0  0  0  0
  151.1197  145.3482  159.7090 C   0  0  0  0  0  0  0  0  0  0  0  0
  152.4372  143.4609  160.2471 O   0  0  0  0  0  0  0  0  0  0  0  0
  154.0482  140.6635  161.1523 H   0  0  0  0  0  0  0  0  0  0  0  0
  152.8274  141.5458  162.0693 H   0  0  0  0  0  0  0  0  0  0  0  0
  154.3623  142.3160  161.6744 H   0  0  0  0  0  0  0  0  0  0  0  0
  153.8063  142.2644  159.2675 H   0  0  0  0  0  0  0  0  0  0  0  0
  152.3062  140.2551  159.2110 H   0  0  0  0  0  0  0  0  0  0  0  0
  151.1299  141.0833  160.1970 H   0  0  0  0  0  0  0  0  0  0  0  0
  149.5319  142.5645  156.4017 H   0  0  0  0  0  0  0  0  0  0  0  0
  150.2565  143.5801  157.6851 H   0  0  0  0  0  0  0  0  0  0  0  0
  149.9076  143.0000  159.2988 H   0  0  0  0  0  0  0  0  0  0  0  0
  152.3319  145.0816  157.2650 H   0  0  0  0  0  0  0  0  0  0  0  0
  153.2874  143.6500  157.5783 H   0  0  0  0  0  0  0  0  0  0  0  0
  153.6019  145.1261  158.4822 H   0  0  0  0  0  0  0  0  0  0  0  0
  150.5774  145.8960  158.9374 H   0  0  0  0  0  0  0  0  0  0  0  0
  151.8568  146.0256  160.1411 H   0  0  0  0  0  0  0  0  0  0  0  0
  150.4085  145.0931  160.4952 H   0  0  0  0  0  0  0  0  0  0  0  0
  1  2  1  0  0  0  0
  1 18  1  0  0  0  0
  1 19  1  0  0  0  0
  1 20  1  0  0  0  0
  2 17  1  0  0  0  0
  2  3  1  0  0  0  0
  2 21  1  0  0  0  0
  3  4  1  0  0  0  0
  3 22  1  0  0  0  0
  3 23  1  0  0  0  0
  4  5  1  0  0  0  0
  4 13  1  0  0  0  0
  5 11  2  0  0  0  0
  5  6  1  0  0  0  0
  6  7  2  0  0  0  0
  6 24  1  0  0  0  0
  7  8  1  0  0  0  0
  8  9  1  0  0  0  0
  9 10  2  0  0  0  0
  9 11  1  0  0  0  0
 11 12  1  0  0  0  0
 13 14  1  0  0  0  0
 13 25  1  0  0  0  0
 13 26  1  0  0  0  0
 14 15  1  0  0  0  0
 14 16  1  0  0  0  0
 14 17  1  0  0  0  0
 15 27  1  0  0  0  0
 15 28  1  0  0  0  0
 15 29  1  0  0  0  0
 16 30  1  0  0  0  0
 16 31  1  0  0  0  0
 16 32  1  0  0  0  0
M  CHG  1   8  -1
M  END
> <s_m_source_file>
AV-unprocessed.smi

> <i_m_source_file_index>
922

> <i_lp_mmshare_version>
43012

> <i_f3d_flags>
0

> <s_epik_input>
W0NIM11bQ0BASF0oTzEpW0NIMl1OKFtDSDJdQzEoW0NIM10pW0NIM10pYzJbY0hdbltuSF1jKD1PKWMyQ2w=

> <s_epik_cmdline>
J2VwaWtfcHl0aG9uJywgJy1waCcsICc3LjAnLCAnLXRuJywgJzgnLCAnLW1hJywgJzIwMCcsICctbWV0YWxfYmluZGluZycsICctaW1hZScsICc8aW5maWxlLm1hZT4nLCAnLW9tYWUnLCAnPG91dGZpbGUubWFlPic=

> <r_lp_tautomer_probability>
1

> <r_epik_Ionization_Penalty>
2.48086

> <r_epik_Ionization_Penalty_Charging>
0.00187014

> <r_epik_Ionization_Penalty_Neutral>
2.47899

> <r_epik_State_Penalty>
0.0455822

> <r_epik_Charging_Adjusted_Penalty>
0.0474524

> <i_epik_Tot_Q>
-1

> <i_epik_Tot_abs_Q>
1

> <r_epik_Metal_State_Penalty>
0.000768086

> <b_epik_Metal_Only>
0

> <s_lp_Force_Field>
OPLS_2005

> <r_lp_Energy>
41.3096

> <b_lp_Chiralities_Consistent>
1

> <s_lp_Variant>
AV-unprocessed.smi:922-2

> <Gold.Version>
5.8.1

> <Gold.Id.Protein>
6NUR|6NUR_protein|mol2

> <Gold.PLP.Fitness>
38.6691

> <Gold.PLP.PLP>
-38.1746

> <Gold.PLP.part.hbond>
-2.0000

> <Gold.PLP.part.metal>
0.0000

> <Gold.PLP.part.buried>
-2.0540

> <Gold.PLP.part.nonpolar>
-34.0911

> <Gold.PLP.part.repulsive>
0.2668

> <Gold.PLP.ligand.clash>
5.4627

> <Gold.PLP.ligand.torsion>
0.1316

> <Gold.PLP.Chemscore.Hbond>
0.7500

> <Gold.PLP.Chemscore.CHOScore>
1.0000

> <Gold.PLP.Chemscore.Metal>
0.0000

> <Gold.Chemscore.Hbonds>
donor molecule, donor type, donor heavy atom, donor atom, acceptor molecule, acceptor atom, score
      P1  H  7989  7998       L1     8  0.75
      L1  C     6    24       P1  8028  1.00

> <Gold.PLP.Chemscore.Internal.Correction>
0.9704

> <Gold.Rescore>
     Score         DG    S(hbond)    S(metal)    S(lipo)     H(rot)  DE(clash)    DE(int)     intcor
     15.92     -17.40       0.03        0.00     101.02       0.00       0.03       1.45       ----

> <Gold.Chemscore.Fitness>
15.9217

> <Gold.Chemscore.DG>
-17.4025

> <Gold.Chemscore.ZeroCoef>
-5.4800

> <Gold.Chemscore.Hbond>
0.0310

> <Gold.Chemscore.Metal>
0.0000

> <Gold.Chemscore.Lipo>
101.0161

> <Gold.Chemscore.Internal_Hbond>
0.0000

> <Gold.Chemscore.DEClash>
0.0272

> <Gold.Chemscore.DEInternal>
1.4536

> <Gold.Chemscore.Rot>
0.0000

> <Gold.Chemscore.Internal.Correction>
   9.000000E+99

> <Gold.Chemscore.Hbonds>
donor molecule, donor type, donor heavy atom, donor atom, acceptor molecule, acceptor atom, score
      P1  H  7989  7998       L1     8  0.02

> <Gold.Chemscore.Hbond.Weighted>
-0.1036

> <Gold.Chemscore.Metal.Weighted>
-0.0000

> <Gold.Chemscore.Lipo.Weighted>
-11.8189

> <Gold.Chemscore.Internal_Hbond.Weighted>
0.0000

> <Gold.Chemscore.DEClash.Weighted>
0.0272

> <Gold.Chemscore.DEInternal.Weighted>
1.4536

> <Gold.Chemscore.Rot.Weighted>
0.0000

> <Gold.Chemscore.Internal.Correction.Weighted>
   9.000000E+99

> <Gold.Protein.RotatedTorsions>
[ 6907 6896 6895 6894 ] final  109.32 input  -60.11 | X-H torsion
[ 7974 7965 7964 7962 ] final   69.33 input  175.53 | X-H torsion
[ 8008 7997 7996 7995 ] final -109.26 input   59.86 | X-H torsion
[ 10167 10162 10161 10158 ] final  -88.87 input  -65.29 | X-H torsion
[ 10718 10713 10712 10709 ] final -106.05 input   66.30 | X-H torsion
[ 10763 10752 10751 10750 ] final   97.34 input  -60.55 | X-H torsion
[ 11005 11000 10999 10996 ] final  159.93 input  -57.11 | X-H torsion

> <Gold.Protein.ActiveResidues>
 VAL166  LYS551  ARG553  GLY616  TRP617  ASP618  TYR619  PRO620  LYS621  CYS622 
 ASP623  PHE694  ASN695  SER759  ASP760  ASP761  ALA762  ILE779  LEU786  VAL792 
 PHE793  MET794  SER795  GLU796  ALA797  LYS798  CYS799  TRP800  GLU811  SER814 

> <Gold.Protein.RotatedAtoms>
  152.5073  133.8961  159.7417 H   0  0  0  0  0  0  0  0  0  0  0  0  # atno 6907 bound_to 6896
  150.9388  133.6672  159.2802 H   0  0  0  0  0  0  0  0  0  0  0  0  # atno 6908 bound_to 6896
  151.3990  135.0973  159.9602 H   0  0  0  0  0  0  0  0  0  0  0  0  # atno 6909 bound_to 6896
  145.7918  139.2937  143.1206 H   0  0  0  0  0  0  0  0  0  0  0  0  # atno 7974 bound_to 7965
  154.9567  140.0400  157.2170 H   0  0  0  0  0  0  0  0  0  0  0  0  # atno 8008 bound_to 7997
  154.7927  140.2838  155.5957 H   0  0  0  0  0  0  0  0  0  0  0  0  # atno 8009 bound_to 7997
  156.2952  140.2570  156.2778 H   0  0  0  0  0  0  0  0  0  0  0  0  # atno 8010 bound_to 7997
  140.3704  143.2797  151.9507 H   0  0  0  0  0  0  0  0  0  0  0  0  # atno 10167 bound_to 10162
  156.0373  130.5594  150.7626 H   0  0  0  0  0  0  0  0  0  0  0  0  # atno 10718 bound_to 10713
  153.2758  135.4186  155.1031 H   0  0  0  0  0  0  0  0  0  0  0  0  # atno 10763 bound_to 10752
  154.8472  135.3483  154.6181 H   0  0  0  0  0  0  0  0  0  0  0  0  # atno 10764 bound_to 10752
  153.6601  135.7048  153.5238 H   0  0  0  0  0  0  0  0  0  0  0  0  # atno 10765 bound_to 10752
  140.2009  134.8338  157.3017 H   0  0  0  0  0  0  0  0  0  0  0  0  # atno 11005 bound_to 11000
  145.9969  140.8554  143.0038 LP  0  0  0  0  0  0  0  0  0  0  0  0  # atno 17320 bound_to 7965
  144.6781  140.2296  143.7357 LP  0  0  0  0  0  0  0  0  0  0  0  0  # atno 17321 bound_to 7965
  139.4804  144.5912  151.7768 LP  0  0  0  0  0  0  0  0  0  0  0  0  # atno 17342 bound_to 10162
  140.5039  144.1128  150.5978 LP  0  0  0  0  0  0  0  0  0  0  0  0  # atno 17343 bound_to 10162
  157.5141  131.0927  151.0161 LP  0  0  0  0  0  0  0  0  0  0  0  0  # atno 17370 bound_to 10713
  157.0508  130.5786  149.5370 LP  0  0  0  0  0  0  0  0  0  0  0  0  # atno 17371 bound_to 10713
  140.2055  134.4203  155.7640 LP  0  0  0  0  0  0  0  0  0  0  0  0  # atno 17394 bound_to 11000
  141.2227  133.7092  156.8253 LP  0  0  0  0  0  0  0  0  0  0  0  0  # atno 17395 bound_to 11000

$$$$
