#       Name:                AV-unprocessed.smi:471
#       Creating user name   scv26
#       Creation time:       Thu Mar 26 23:07:10 2020


#       File generated by GOLD software.
#

@<TRIPOS>MOLECULE
AV-unprocessed.smi:471
    25    25     1
SMALL
NO_CHARGES


@<TRIPOS>ATOM
      1 ****        -2.6522   0.7046  -1.4848 O.co2          1 S1                 0.0000
      2 ****        -1.8317  -0.2123  -1.7081 C.2            1 S1                 0.0000
      3 ****        -2.1234  -1.4006  -1.9687 O.co2          1 S1                -1.0000
      4 ****        -0.3437   0.1510  -1.6633 C.3            1 S1                 0.0000
      5 ****         0.1681   0.2405  -0.2844 N.am           1 S1                 0.0000
      6 ****         0.2532  -0.9564   0.4514 C.2            1 S1                 0.0000
      7 ****         0.7334  -0.9893   1.7088 C.2            1 S1                 0.0000
      8 ****         1.1824   0.2607   2.3076 C.2            1 S1                 0.0000
      9 ****         1.6191   0.2521   3.4572 O.2            1 S1                 0.0000
     10 ****         1.0983   1.3927   1.5498 N.pl3          1 S1                -1.0000
     11 ****         0.6104   1.4108   0.2696 C.2            1 S1                 0.0000
     12 ****         0.5604   2.4479  -0.3922 O.2            1 S1                 0.0000
     13 ****         0.2252  -0.6134  -2.1948 H              1 S1                 0.0000
     14 ****        -0.1966   1.0669  -2.2369 H              1 S1                 0.0000
     15 ****        -0.0923  -1.8378  -0.0688 H              1 S1                 0.0000
     16 ****         0.7896  -1.9179   2.2574 H              1 S1                 0.0000
     17 ****        -3.6336   0.5137  -1.5068 LP             1 S1                 0.0000
     18 ****        -2.3270   1.6287  -1.2842 LP             1 S1                 0.0000
     19 ****        -3.0820  -1.6823  -2.0116 LP             1 S1                 0.0000
     20 ****        -1.3980  -2.0687  -2.1341 LP             1 S1                 0.0000
     21 ****         1.6627  -0.6058   3.9691 LP             1 S1                 0.0000
     22 ****         1.9306   1.1031   3.8801 LP             1 S1                 0.0000
     23 ****         1.4093   2.2547   1.9502 LP             1 S1                 0.0000
     24 ****         0.1993   2.4292  -1.3245 LP             1 S1                 0.0000
     25 ****         0.8809   3.3090   0.0027 LP             1 S1                 0.0000
@<TRIPOS>BOND
    1    1    2 ar    
    2    2    3 ar    
    3    2    4 1     
    4    4    5 1     
    5    4   13 1     
    6    4   14 1     
    7    5   11 am    
    8    5    6 1     
    9    6    7 2     
   10    6   15 1     
   11    7    8 1     
   12    7   16 1     
   13    8    9 2     
   14    8   10 1     
   15   10   11 1     
   16   11   12 2     
   17    1   17 1     
   18    1   18 1     
   19    3   19 1     
   20    3   20 1     
   21    9   21 1     
   22    9   22 1     
   23   10   23 1     
   24   12   24 1     
   25   12   25 1     
@<TRIPOS>SUBSTRUCTURE
      1 S1             1
@<TRIPOS>SET
LONE_PAIRS      STATIC     ATOMS    <user>   **** ""
9 17 18 19 20 21 22 23 24 25
ATOM$BLUE        STATIC     ATOMS    COLORGROUP SYSTEM
9 17 18 19 20 21 22 23 24 25
