AV-unprocessed.smi:1512|AV-procd|sdf|6100|dock2
  -GOLD-   22720 6233D 1   1.00000     0.00000
 Structure written by MMmdl.
 44 46  0  0  0  0  0  0  0  0  3 V2000
  144.5711  137.8313  153.3295 C   0  0  0  0  0  0  0  0  0  0  0  0
  145.8575  136.9896  153.3630 C   0  0  2  0  0  0  0  0  0  0  0  0
  146.9786  137.8552  152.9992 N   0  0  0  0  0  0  0  0  0  0  0  0
  147.1844  139.1070  153.4379 C   0  0  0  0  0  0  0  0  0  0  0  0
  146.4407  139.6771  154.2374 O   0  0  0  0  0  0  0  0  0  0  0  0
  148.4427  139.8045  152.9021 C   0  0  0  0  0  0  0  0  0  0  0  0
  149.3853  140.1993  153.9632 N   0  0  0  0  0  0  0  0  0  0  0  0
  149.2471  141.4986  154.4861 C   0  0  0  0  0  0  0  0  0  0  0  0
  150.0528  141.9634  155.4514 C   0  0  0  0  0  0  0  0  0  0  0  0
  151.0898  141.0946  155.9524 C   0  0  0  0  0  0  0  0  0  0  0  0
  151.2462  139.8436  155.4613 C   0  0  0  0  0  0  0  0  0  0  0  0
  152.3115  139.0296  156.0003 N   0  3  0  0  0  0  0  0  0  0  0  0
  152.6446  138.0136  155.3979 O   0  0  0  0  0  0  0  0  0  0  0  0
  152.8568  139.3913  157.0387 O   0  5  0  0  0  0  0  0  0  0  0  0
  150.3483  139.3314  154.4052 C   0  0  0  0  0  0  0  0  0  0  0  0
  150.4399  138.1920  153.9439 O   0  0  0  0  0  0  0  0  0  0  0  0
  145.7870  135.7679  152.4123 C   0  0  2  0  0  0  0  0  0  0  0  0
  145.6070  136.1557  150.9238 C   0  0  0  0  0  0  0  0  0  0  0  0
  144.3672  135.3527  150.4930 C   0  0  1  0  0  0  0  0  0  0  0  0
  144.7147  133.8541  150.4436 C   0  0  0  0  0  0  0  0  0  0  0  0
  144.8324  133.4869  151.9341 C   0  0  0  0  0  0  0  0  0  0  0  0
  144.5703  134.8322  152.6383 C   0  0  2  0  0  0  0  0  0  0  0  0
  143.4980  135.4397  151.7402 C   0  0  0  0  0  0  0  0  0  0  0  0
  143.7022  137.2525  153.6417 H   0  0  0  0  0  0  0  0  0  0  0  0
  144.3720  138.2130  152.3276 H   0  0  0  0  0  0  0  0  0  0  0  0
  144.6470  138.6869  154.0013 H   0  0  0  0  0  0  0  0  0  0  0  0
  145.9840  136.6275  154.3843 H   0  0  0  0  0  0  0  0  0  0  0  0
  147.6504  137.4708  152.3509 H   0  0  0  0  0  0  0  0  0  0  0  0
  148.9247  139.1321  152.1909 H   0  0  0  0  0  0  0  0  0  0  0  0
  148.1516  140.6774  152.3143 H   0  0  0  0  0  0  0  0  0  0  0  0
  148.4540  142.0894  154.0512 H   0  0  0  0  0  0  0  0  0  0  0  0
  149.9339  142.9650  155.8384 H   0  0  0  0  0  0  0  0  0  0  0  0
  151.7517  141.4657  156.7215 H   0  0  0  0  0  0  0  0  0  0  0  0
  146.7076  135.1947  152.5339 H   0  0  0  0  0  0  0  0  0  0  0  0
  145.4091  137.2219  150.8082 H   0  0  0  0  0  0  0  0  0  0  0  0
  146.4862  135.9173  150.3240 H   0  0  0  0  0  0  0  0  0  0  0  0
  143.9017  135.7245  149.5798 H   0  0  0  0  0  0  0  0  0  0  0  0
  143.9143  133.2839  149.9705 H   0  0  0  0  0  0  0  0  0  0  0  0
  145.6358  133.6615  149.8921 H   0  0  0  0  0  0  0  0  0  0  0  0
  144.0719  132.7544  152.2077 H   0  0  0  0  0  0  0  0  0  0  0  0
  145.8060  133.0647  152.1856 H   0  0  0  0  0  0  0  0  0  0  0  0
  144.2740  134.7080  153.6795 H   0  0  0  0  0  0  0  0  0  0  0  0
  143.2280  136.4612  152.0126 H   0  0  0  0  0  0  0  0  0  0  0  0
  142.5910  134.8357  151.6789 H   0  0  0  0  0  0  0  0  0  0  0  0
  1  2  1  0  0  0  0
  1 24  1  0  0  0  0
  1 25  1  0  0  0  0
  1 26  1  0  0  0  0
  2  3  1  0  0  0  0
  2 17  1  0  0  0  0
  2 27  1  0  0  0  0
  3  4  1  0  0  0  0
  3 28  1  0  0  0  0
  4  5  2  0  0  0  0
  4  6  1  0  0  0  0
  6  7  1  0  0  0  0
  6 29  1  0  0  0  0
  6 30  1  0  0  0  0
  7 15  1  0  0  0  0
  7  8  1  0  0  0  0
  8  9  2  0  0  0  0
  8 31  1  0  0  0  0
  9 10  1  0  0  0  0
  9 32  1  0  0  0  0
 10 11  2  0  0  0  0
 10 33  1  0  0  0  0
 11 12  1  0  0  0  0
 11 15  1  0  0  0  0
 12 13  2  0  0  0  0
 12 14  1  0  0  0  0
 15 16  2  0  0  0  0
 17 22  1  0  0  0  0
 17 18  1  0  0  0  0
 17 34  1  0  0  0  0
 18 19  1  0  0  0  0
 18 35  1  0  0  0  0
 18 36  1  0  0  0  0
 19 23  1  0  0  0  0
 19 20  1  0  0  0  0
 19 37  1  0  0  0  0
 20 21  1  0  0  0  0
 20 38  1  0  0  0  0
 20 39  1  0  0  0  0
 21 22  1  0  0  0  0
 21 40  1  0  0  0  0
 21 41  1  0  0  0  0
 22 23  1  0  0  0  0
 22 42  1  0  0  0  0
 23 43  1  0  0  0  0
 23 44  1  0  0  0  0
M  CHG  1  12   1
M  CHG  1  14  -1
M  END
> <s_m_source_file>
AV-unprocessed.smi

> <i_m_source_file_index>
1512

> <i_lp_mmshare_version>
43012

> <i_f3d_flags>
0

> <s_epik_input>
W0NIMl0xW0NIMl1bQ0BIXShbQ0gyXTIpW0NAQEhdKFtDSDJdW0NAQEhdMTIpW0NASF0oW0NIM10pW05IXUMoPU8pW0NIMl1uM1tjSF1bY0hdW2NIXWMoW04rXSg9TylbTy1dKWMzPU8=

> <s_epik_cmdline>
J2VwaWtfcHl0aG9uJywgJy1waCcsICc3LjAnLCAnLXRuJywgJzgnLCAnLW1hJywgJzIwMCcsICctbWV0YWxfYmluZGluZycsICctaW1hZScsICc8aW5maWxlLm1hZT4nLCAnLW9tYWUnLCAnPG91dGZpbGUubWFlPic=

> <r_lp_tautomer_probability>
1

> <r_epik_Ionization_Penalty>
2.17697e-08

> <r_epik_Ionization_Penalty_Charging>
1.42735e-10

> <r_epik_Ionization_Penalty_Neutral>
2.16269e-08

> <r_epik_State_Penalty>
-0

> <r_epik_Charging_Adjusted_Penalty>
1.42735e-10

> <i_epik_Tot_Q>
0

> <i_epik_Tot_abs_Q>
2

> <r_epik_Metal_State_Penalty>
-0

> <b_epik_Metal_Only>
0

> <s_lp_Force_Field>
OPLS_2005

> <r_lp_Energy>
64.3974

> <b_lp_Chiralities_Consistent>
1

> <s_lp_Variant>
AV-unprocessed.smi:1512-1

> <Gold.Version>
5.8.1

> <Gold.Id.Protein>
6NUR|6NUR_protein|mol2

> <Gold.PLP.Fitness>
41.7624

> <Gold.PLP.PLP>
-37.0077

> <Gold.PLP.part.hbond>
-3.0000

> <Gold.PLP.part.metal>
0.0000

> <Gold.PLP.part.buried>
-0.8246

> <Gold.PLP.part.nonpolar>
-34.7146

> <Gold.PLP.part.repulsive>
0.3849

> <Gold.PLP.ligand.clash>
0.0000

> <Gold.PLP.ligand.torsion>
0.6589

> <Gold.PLP.Chemscore.Hbond>
2.0000

> <Gold.PLP.Chemscore.CHOScore>
0.0000

> <Gold.PLP.Chemscore.Metal>
0.0000

> <Gold.Chemscore.Hbonds>
donor molecule, donor type, donor heavy atom, donor atom, acceptor molecule, acceptor atom, score
      L1  H     3    28       P1  7948  1.00
      P1  H  7997  8010       L1    14  1.00

> <Gold.PLP.Chemscore.Internal.Correction>
0.0725

> <Gold.Rescore>
     Score         DG    S(hbond)    S(metal)    S(lipo)     H(rot)  DE(clash)    DE(int)     intcor
     10.03     -16.82       1.99        0.00      78.25       1.75       2.13       4.66       ----

> <Gold.Chemscore.Fitness>
10.0260

> <Gold.Chemscore.DG>
-16.8205

> <Gold.Chemscore.ZeroCoef>
-5.4800

> <Gold.Chemscore.Hbond>
1.9937

> <Gold.Chemscore.Metal>
0.0000

> <Gold.Chemscore.Lipo>
78.2459

> <Gold.Chemscore.Internal_Hbond>
0.0000

> <Gold.Chemscore.DEClash>
2.1309

> <Gold.Chemscore.DEInternal>
4.6637

> <Gold.Chemscore.Rot>
1.7474

> <Gold.Chemscore.Internal.Correction>
   9.000000E+99

> <Gold.Chemscore.Hbonds>
donor molecule, donor type, donor heavy atom, donor atom, acceptor molecule, acceptor atom, score
      L1  H     3    28       P1  7948  0.98
      P1  H  7997  8010       L1    14  0.74

> <Gold.Chemscore.Hbond.Weighted>
-6.6591

> <Gold.Chemscore.Metal.Weighted>
-0.0000

> <Gold.Chemscore.Lipo.Weighted>
-9.1548

> <Gold.Chemscore.Internal_Hbond.Weighted>
0.0000

> <Gold.Chemscore.DEClash.Weighted>
2.1309

> <Gold.Chemscore.DEInternal.Weighted>
4.6637

> <Gold.Chemscore.Rot.Weighted>
4.4733

> <Gold.Chemscore.Internal.Correction.Weighted>
   9.000000E+99

> <Gold.Protein.RotatedTorsions>
[ 6907 6896 6895 6894 ] final  157.74 input  -60.11 | X-H torsion
[ 7974 7965 7964 7962 ] final   59.13 input  175.53 | X-H torsion
[ 8008 7997 7996 7995 ] final   57.20 input   59.86 | X-H torsion
[ 10167 10162 10161 10158 ] final  167.38 input  -65.29 | X-H torsion
[ 10718 10713 10712 10709 ] final -112.51 input   66.30 | X-H torsion
[ 10763 10752 10751 10750 ] final  133.39 input  -60.55 | X-H torsion
[ 11005 11000 10999 10996 ] final    0.49 input  -57.11 | X-H torsion

> <Gold.Protein.ActiveResidues>
 VAL166  LYS551  ARG553  GLY616  TRP617  ASP618  TYR619  PRO620  LYS621  CYS622 
 ASP623  PHE694  ASN695  SER759  ASP760  ASP761  ALA762  ILE779  LEU786  VAL792 
 PHE793  MET794  SER795  GLU796  ALA797  LYS798  CYS799  TRP800  GLU811  SER814 

> <Gold.Protein.RotatedAtoms>
  152.0106  133.3860  159.4217 H   0  0  0  0  0  0  0  0  0  0  0  0  # atno 6907 bound_to 6896
  150.6900  134.3734  159.5011 H   0  0  0  0  0  0  0  0  0  0  0  0  # atno 6908 bound_to 6896
  152.1494  134.8999  160.0599 H   0  0  0  0  0  0  0  0  0  0  0  0  # atno 6909 bound_to 6896
  145.9106  139.3651  143.0538 H   0  0  0  0  0  0  0  0  0  0  0  0  # atno 7974 bound_to 7965
  155.5299  140.3482  155.4424 H   0  0  0  0  0  0  0  0  0  0  0  0  # atno 8008 bound_to 7997
  156.0725  140.1366  156.9838 H   0  0  0  0  0  0  0  0  0  0  0  0  # atno 8009 bound_to 7997
  154.4536  140.0962  156.6666 H   0  0  0  0  0  0  0  0  0  0  0  0  # atno 8010 bound_to 7997
  139.4944  144.3927  151.9498 H   0  0  0  0  0  0  0  0  0  0  0  0  # atno 10167 bound_to 10162
  156.0710  130.5924  150.8518 H   0  0  0  0  0  0  0  0  0  0  0  0  # atno 10718 bound_to 10713
  153.8063  135.3135  155.3396 H   0  0  0  0  0  0  0  0  0  0  0  0  # atno 10763 bound_to 10752
  154.8069  135.4692  154.0418 H   0  0  0  0  0  0  0  0  0  0  0  0  # atno 10764 bound_to 10752
  153.1782  135.6889  153.8602 H   0  0  0  0  0  0  0  0  0  0  0  0  # atno 10765 bound_to 10752
  140.6260  133.9618  155.8249 H   0  0  0  0  0  0  0  0  0  0  0  0  # atno 11005 bound_to 11000
  145.8677  140.9438  143.0667 LP  0  0  0  0  0  0  0  0  0  0  0  0  # atno 17320 bound_to 7965
  144.6743  140.0613  143.7476 LP  0  0  0  0  0  0  0  0  0  0  0  0  # atno 17321 bound_to 7965
  140.3365  144.3254  150.5976 LP  0  0  0  0  0  0  0  0  0  0  0  0  # atno 17342 bound_to 10162
  140.5601  143.2193  151.7779 LP  0  0  0  0  0  0  0  0  0  0  0  0  # atno 17343 bound_to 10162
  157.5780  131.0946  150.9315 LP  0  0  0  0  0  0  0  0  0  0  0  0  # atno 17370 bound_to 10713
  156.9516  130.5422  149.5282 LP  0  0  0  0  0  0  0  0  0  0  0  0  # atno 17371 bound_to 10713
  141.0709  134.0207  157.3528 LP  0  0  0  0  0  0  0  0  0  0  0  0  # atno 17394 bound_to 11000
  139.9134  135.0193  156.7786 LP  0  0  0  0  0  0  0  0  0  0  0  0  # atno 17395 bound_to 11000

$$$$
