AV-unprocessed.smi:663|AV-procd|sdf|3250|dock9
  -GOLD-   22720 0203D 1   1.00000     0.00000
 Structure written by MMmdl.
 29 30  0  0  0  0  0  0  0  0  2 V2000
  151.4385  139.0624  156.1643 N   0  0  0  0  0  0  0  0  0  0  0  0
  151.1207  140.1757  155.4991 C   0  0  0  0  0  0  0  0  0  0  0  0
  150.8555  140.1699  154.2988 O   0  0  0  0  0  0  0  0  0  0  0  0
  151.1085  141.4872  156.2933 C   0  0  0  0  0  0  0  0  0  0  0  0
  151.3561  141.3026  157.8087 C   0  0  1  0  0  0  0  0  0  0  0  0
  152.6296  140.6154  158.0356 N   0  0  0  0  0  0  0  0  0  0  0  0
  152.8375  139.5200  158.7821 C   0  0  0  0  0  0  0  0  0  0  0  0
  151.8987  138.9867  159.3775 O   0  0  0  0  0  0  0  0  0  0  0  0
  154.1240  139.1024  158.7820 N   0  5  0  0  0  0  0  0  0  0  0  0
  154.4529  137.9477  159.3842 C   0  0  0  0  0  0  0  0  0  0  0  0
  153.5451  137.1694  159.9953 N   0  0  0  0  0  0  0  0  0  0  0  0
  154.0960  136.0233  160.5526 N   0  0  0  0  0  0  0  0  0  0  0  0
  155.4126  135.9703  160.3526 C   0  0  0  0  0  0  0  0  0  0  0  0
  156.1006  137.3187  159.4726 S   0  0  0  0  0  0  0  0  0  0  0  0
  151.3013  142.6403  158.5234 C   0  0  0  0  0  0  0  0  0  0  0  0
  151.8097  143.8988  157.8624 C   0  0  0  0  0  0  0  0  0  0  0  0
  152.5587  143.3031  159.0337 C   0  0  0  0  0  0  0  0  0  0  0  0
  151.4316  138.1743  155.6846 H   0  0  0  0  0  0  0  0  0  0  0  0
  151.6576  139.1086  157.1487 H   0  0  0  0  0  0  0  0  0  0  0  0
  151.8402  142.1824  155.8780 H   0  0  0  0  0  0  0  0  0  0  0  0
  150.1324  141.9476  156.1369 H   0  0  0  0  0  0  0  0  0  0  0  0
  150.5392  140.7021  158.2137 H   0  0  0  0  0  0  0  0  0  0  0  0
  153.4374  141.0075  157.5748 H   0  0  0  0  0  0  0  0  0  0  0  0
  155.9830  135.1344  160.7292 H   0  0  0  0  0  0  0  0  0  0  0  0
  150.4212  142.7600  159.1529 H   0  0  0  0  0  0  0  0  0  0  0  0
  152.2608  143.8054  156.8763 H   0  0  0  0  0  0  0  0  0  0  0  0
  151.2510  144.8165  158.0345 H   0  0  0  0  0  0  0  0  0  0  0  0
  152.4994  143.8234  159.9874 H   0  0  0  0  0  0  0  0  0  0  0  0
  153.5093  142.8160  158.8257 H   0  0  0  0  0  0  0  0  0  0  0  0
  1  2  1  0  0  0  0
  1 18  1  0  0  0  0
  1 19  1  0  0  0  0
  2  3  2  0  0  0  0
  2  4  1  0  0  0  0
  4  5  1  0  0  0  0
  4 20  1  0  0  0  0
  4 21  1  0  0  0  0
  5  6  1  0  0  0  0
  5 15  1  0  0  0  0
  5 22  1  0  0  0  0
  6  7  1  0  0  0  0
  6 23  1  0  0  0  0
  7  8  2  0  0  0  0
  7  9  1  0  0  0  0
  9 10  1  0  0  0  0
 10 14  1  0  0  0  0
 10 11  2  0  0  0  0
 11 12  1  0  0  0  0
 12 13  2  0  0  0  0
 13 14  1  0  0  0  0
 13 24  1  0  0  0  0
 15 17  1  0  0  0  0
 15 16  1  0  0  0  0
 15 25  1  0  0  0  0
 16 17  1  0  0  0  0
 16 26  1  0  0  0  0
 16 27  1  0  0  0  0
 17 28  1  0  0  0  0
 17 29  1  0  0  0  0
M  CHG  1   9  -1
M  END
> <s_m_source_file>
AV-unprocessed.smi

> <i_m_source_file_index>
663

> <i_lp_mmshare_version>
43012

> <i_f3d_flags>
0

> <s_epik_input>
W05IMl1DKD1PKVtDSDJdW0NAQEhdKFtDSF0xW0NIMl1bQ0gyXTEpW05IXUMoPU8pW05IXWMybm5bY0hdczI=

> <s_epik_cmdline>
J2VwaWtfcHl0aG9uJywgJy1waCcsICc3LjAnLCAnLXRuJywgJzgnLCAnLW1hJywgJzIwMCcsICctbWV0YWxfYmluZGluZycsICctaW1hZScsICc8aW5maWxlLm1hZT4nLCAnLW9tYWUnLCAnPG91dGZpbGUubWFlPic=

> <r_lp_tautomer_probability>
1

> <r_epik_Ionization_Penalty>
4.41895

> <r_epik_Ionization_Penalty_Charging>
4.37725

> <r_epik_Ionization_Penalty_Neutral>
0.0416999

> <r_epik_State_Penalty>
4.37688

> <r_epik_Charging_Adjusted_Penalty>
8.75413

> <i_epik_Tot_Q>
-1

> <i_epik_Tot_abs_Q>
1

> <r_epik_Metal_State_Penalty>
0.761195

> <b_epik_Metal_Only>
1

> <s_lp_Force_Field>
OPLS_2005

> <r_lp_Energy>
7.27665

> <b_lp_Chiralities_Consistent>
1

> <s_lp_Variant>
AV-unprocessed.smi:663-4

> <Gold.Version>
5.8.1

> <Gold.Id.Protein>
6NUR|6NUR_protein|mol2

> <Gold.PLP.Fitness>
36.1021

> <Gold.PLP.PLP>
-25.3860

> <Gold.PLP.part.hbond>
-3.0418

> <Gold.PLP.part.metal>
0.0000

> <Gold.PLP.part.buried>
-3.5261

> <Gold.PLP.part.nonpolar>
-18.4890

> <Gold.PLP.part.repulsive>
0.3034

> <Gold.PLP.ligand.clash>
0.0000

> <Gold.PLP.ligand.torsion>
1.0668

> <Gold.PLP.Chemscore.Hbond>
3.9120

> <Gold.PLP.Chemscore.CHOScore>
0.0000

> <Gold.PLP.Chemscore.Metal>
0.0000

> <Gold.Chemscore.Hbonds>
donor molecule, donor type, donor heavy atom, donor atom, acceptor molecule, acceptor atom, score
      P1  H  6896  6908       L1    12  0.46
      P1  H  7989  7998       L1     3  0.46
      P1  H  7997  8009       L1     9  2.00

> <Gold.PLP.Chemscore.Internal.Correction>
1.1138

> <Gold.Rescore>
     Score         DG    S(hbond)    S(metal)    S(lipo)     H(rot)  DE(clash)    DE(int)     intcor
      7.40     -12.71       2.18        0.00      54.00       2.49       0.10       5.21       ----

> <Gold.Chemscore.Fitness>
7.4030

> <Gold.Chemscore.DG>
-12.7129

> <Gold.Chemscore.ZeroCoef>
-5.4800

> <Gold.Chemscore.Hbond>
2.1794

> <Gold.Chemscore.Metal>
0.0000

> <Gold.Chemscore.Lipo>
54.0036

> <Gold.Chemscore.Internal_Hbond>
0.0000

> <Gold.Chemscore.DEClash>
0.1031

> <Gold.Chemscore.DEInternal>
5.2067

> <Gold.Chemscore.Rot>
2.4863

> <Gold.Chemscore.Internal.Correction>
   9.000000E+99

> <Gold.Chemscore.Hbonds>
donor molecule, donor type, donor heavy atom, donor atom, acceptor molecule, acceptor atom, score
      P1  H  6896  6908       L1    12  0.06
      P1  H  7989  7998       L1     3  0.44
      P1  H  7997  8009       L1     9  0.30

> <Gold.Chemscore.Hbond.Weighted>
-7.2793

> <Gold.Chemscore.Metal.Weighted>
-0.0000

> <Gold.Chemscore.Lipo.Weighted>
-6.3184

> <Gold.Chemscore.Internal_Hbond.Weighted>
0.0000

> <Gold.Chemscore.DEClash.Weighted>
0.1031

> <Gold.Chemscore.DEInternal.Weighted>
5.2067

> <Gold.Chemscore.Rot.Weighted>
6.3648

> <Gold.Chemscore.Internal.Correction.Weighted>
   9.000000E+99

> <Gold.Protein.RotatedTorsions>
[ 6907 6896 6895 6894 ] final  -64.51 input  -60.11 | X-H torsion
[ 7974 7965 7964 7962 ] final  163.14 input  175.53 | X-H torsion
[ 8008 7997 7996 7995 ] final  139.06 input   59.86 | X-H torsion
[ 10167 10162 10161 10158 ] final   69.39 input  -65.29 | X-H torsion
[ 10718 10713 10712 10709 ] final  -22.86 input   66.30 | X-H torsion
[ 10763 10752 10751 10750 ] final   73.58 input  -60.55 | X-H torsion
[ 11005 11000 10999 10996 ] final  105.52 input  -57.11 | X-H torsion

> <Gold.Protein.ActiveResidues>
 VAL166  LYS551  ARG553  GLY616  TRP617  ASP618  TYR619  PRO620  LYS621  CYS622 
 ASP623  PHE694  ASN695  SER759  ASP760  ASP761  ALA762  ILE779  LEU786  VAL792 
 PHE793  MET794  SER795  GLU796  ALA797  LYS798  CYS799  TRP800  GLU811  SER814 

> <Gold.Protein.RotatedAtoms>
  150.7581  134.6289  159.6175 H   0  0  0  0  0  0  0  0  0  0  0  0  # atno 6907 bound_to 6896
  152.3572  134.6920  160.0227 H   0  0  0  0  0  0  0  0  0  0  0  0  # atno 6908 bound_to 6896
  151.7321  133.3282  159.3379 H   0  0  0  0  0  0  0  0  0  0  0  0  # atno 6909 bound_to 6896
  144.7603  139.8140  143.6335 H   0  0  0  0  0  0  0  0  0  0  0  0  # atno 7974 bound_to 7965
  156.2993  140.2377  156.4175 H   0  0  0  0  0  0  0  0  0  0  0  0  # atno 8008 bound_to 7997
  154.8385  140.0429  157.1545 H   0  0  0  0  0  0  0  0  0  0  0  0  # atno 8009 bound_to 7997
  154.9129  140.2993  155.5260 H   0  0  0  0  0  0  0  0  0  0  0  0  # atno 8010 bound_to 7997
  140.0683  144.5174  150.7245 H   0  0  0  0  0  0  0  0  0  0  0  0  # atno 10167 bound_to 10162
  156.4988  130.4583  149.6713 H   0  0  0  0  0  0  0  0  0  0  0  0  # atno 10718 bound_to 10713
  153.0531  135.5057  154.7915 H   0  0  0  0  0  0  0  0  0  0  0  0  # atno 10763 bound_to 10752
  154.6762  135.2961  154.9677 H   0  0  0  0  0  0  0  0  0  0  0  0  # atno 10764 bound_to 10752
  154.0479  135.6708  153.4850 H   0  0  0  0  0  0  0  0  0  0  0  0  # atno 10765 bound_to 10752
  139.8803  134.9338  156.5527 H   0  0  0  0  0  0  0  0  0  0  0  0  # atno 11005 bound_to 11000
  146.1660  139.4791  142.9958 LP  0  0  0  0  0  0  0  0  0  0  0  0  # atno 17320 bound_to 7965
  145.6640  141.0233  143.1693 LP  0  0  0  0  0  0  0  0  0  0  0  0  # atno 17321 bound_to 7965
  140.7138  143.2527  151.4498 LP  0  0  0  0  0  0  0  0  0  0  0  0  # atno 17342 bound_to 10162
  139.5852  144.1621  152.2019 LP  0  0  0  0  0  0  0  0  0  0  0  0  # atno 17343 bound_to 10162
  156.3353  130.7353  151.2290 LP  0  0  0  0  0  0  0  0  0  0  0  0  # atno 17370 bound_to 10713
  157.7465  131.0418  150.4666 LP  0  0  0  0  0  0  0  0  0  0  0  0  # atno 17371 bound_to 10713
  140.8228  133.8340  155.8911 LP  0  0  0  0  0  0  0  0  0  0  0  0  # atno 17394 bound_to 11000
  140.9402  134.1910  157.4803 LP  0  0  0  0  0  0  0  0  0  0  0  0  # atno 17395 bound_to 11000

$$$$
