AV-unprocessed.smi:1180|AV-procd|sdf|4962|dock3
  -GOLD-   22720 3553D 1   1.00000     0.00000
 Structure written by MMmdl.
 38 39  0  0  0  0  0  0  0  0  1 V2000
  146.2059  138.2545  152.2989 C   0  0  0  0  0  0  0  0  0  0  0  0
  147.1450  139.1626  153.0627 C   0  0  0  0  0  0  0  0  0  0  0  0
  148.3702  138.5831  153.3488 N   0  0  0  0  0  0  0  0  0  0  0  0
  149.2960  139.3374  154.0477 C   0  0  0  0  0  0  0  0  0  0  0  0
  150.6105  138.6277  154.3214 C   0  0  0  0  0  0  0  0  0  0  0  0
  149.0174  140.6077  154.4363 C   0  0  0  0  0  0  0  0  0  0  0  0
  150.0129  141.4792  155.2013 C   0  0  0  0  0  0  0  0  0  0  0  0
  149.8261  141.5488  156.7197 C   0  0  0  0  0  0  0  0  0  0  0  0
  150.0136  140.5559  157.4238 O   0  0  0  0  0  0  0  0  0  0  0  0
  149.4566  142.7403  157.2119 N   0  0  0  0  0  0  0  0  0  0  0  0
  149.2406  143.0345  158.6245 C   0  0  0  0  0  0  0  0  0  0  0  0
  150.5176  143.5568  159.3109 C   0  0  2  0  0  0  0  0  0  0  0  0
  150.7124  145.0639  159.1932 C   0  0  0  0  0  0  0  0  0  0  0  0
  152.2227  145.2392  158.9988 C   0  0  0  0  0  0  0  0  0  0  0  0
  152.7826  143.9460  159.1794 O   0  0  0  0  0  0  0  0  0  0  0  0
  151.8214  143.0033  158.7383 C   0  0  0  0  0  0  0  0  0  0  0  0
  147.6934  141.1774  154.0914 C   0  0  0  0  0  0  0  0  0  0  0  0
  147.3882  142.3286  154.4005 O   0  0  0  0  0  0  0  0  0  0  0  0
  146.7858  140.3666  153.3905 N   0  0  0  0  0  0  0  0  0  0  0  0
  148.6199  137.6436  153.0754 H   0  0  0  0  0  0  0  0  0  0  0  0
  145.2007  138.6762  152.2613 H   0  0  0  0  0  0  0  0  0  0  0  0
  146.1461  137.2755  152.7756 H   0  0  0  0  0  0  0  0  0  0  0  0
  146.5591  138.1220  151.2758 H   0  0  0  0  0  0  0  0  0  0  0  0
  150.7658  138.5145  155.3945 H   0  0  0  0  0  0  0  0  0  0  0  0
  151.4446  139.1963  153.9097 H   0  0  0  0  0  0  0  0  0  0  0  0
  150.6308  137.6331  153.8738 H   0  0  0  0  0  0  0  0  0  0  0  0
  149.9548  142.4972  154.8161 H   0  0  0  0  0  0  0  0  0  0  0  0
  151.0337  141.1599  154.9868 H   0  0  0  0  0  0  0  0  0  0  0  0
  149.3235  143.5017  156.5620 H   0  0  0  0  0  0  0  0  0  0  0  0
  148.4475  143.7796  158.6936 H   0  0  0  0  0  0  0  0  0  0  0  0
  148.8721  142.1446  159.1375 H   0  0  0  0  0  0  0  0  0  0  0  0
  150.4870  143.3074  160.3730 H   0  0  0  0  0  0  0  0  0  0  0  0
  150.1753  145.4791  158.3395 H   0  0  0  0  0  0  0  0  0  0  0  0
  150.3563  145.5746  160.0887 H   0  0  0  0  0  0  0  0  0  0  0  0
  152.4398  145.5859  157.9875 H   0  0  0  0  0  0  0  0  0  0  0  0
  152.6549  145.9519  159.7015 H   0  0  0  0  0  0  0  0  0  0  0  0
  152.0485  141.9999  159.0995 H   0  0  0  0  0  0  0  0  0  0  0  0
  151.8005  142.9829  157.6473 H   0  0  0  0  0  0  0  0  0  0  0  0
  1 21  1  0  0  0  0
  1 22  1  0  0  0  0
  1 23  1  0  0  0  0
  1  2  1  0  0  0  0
  2  3  1  0  0  0  0
  2 19  2  0  0  0  0
  3  4  1  0  0  0  0
  3 20  1  0  0  0  0
  4  6  2  0  0  0  0
  4  5  1  0  0  0  0
  5 24  1  0  0  0  0
  5 25  1  0  0  0  0
  5 26  1  0  0  0  0
  6 17  1  0  0  0  0
  6  7  1  0  0  0  0
  7  8  1  0  0  0  0
  7 27  1  0  0  0  0
  7 28  1  0  0  0  0
  8  9  2  0  0  0  0
  8 10  1  0  0  0  0
 10 11  1  0  0  0  0
 10 29  1  0  0  0  0
 11 12  1  0  0  0  0
 11 30  1  0  0  0  0
 11 31  1  0  0  0  0
 12 16  1  0  0  0  0
 12 13  1  0  0  0  0
 12 32  1  0  0  0  0
 13 14  1  0  0  0  0
 13 33  1  0  0  0  0
 13 34  1  0  0  0  0
 14 15  1  0  0  0  0
 14 35  1  0  0  0  0
 14 36  1  0  0  0  0
 15 16  1  0  0  0  0
 16 37  1  0  0  0  0
 16 38  1  0  0  0  0
 17 18  2  0  0  0  0
 17 19  1  0  0  0  0
M  END
> <s_m_source_file>
AV-unprocessed.smi

> <i_m_source_file_index>
1180

> <i_lp_mmshare_version>
43012

> <i_f3d_flags>
0

> <s_epik_input>
W0NIM11jMW5jKFtDSDNdKWMoYyg9TylbbkhdMSlbQ0gyXUMoPU8pW05IXVtDSDJdW0NAQEhdMltDSDJdW0NIMl1PW0NIMl0y

> <s_epik_cmdline>
J2VwaWtfcHl0aG9uJywgJy1waCcsICc3LjAnLCAnLXRuJywgJzgnLCAnLW1hJywgJzIwMCcsICctbWV0YWxfYmluZGluZycsICctaW1hZScsICc8aW5maWxlLm1hZT4nLCAnLW9tYWUnLCAnPG91dGZpbGUubWFlPic=

> <r_lp_tautomer_probability>
0.156392

> <r_epik_Ionization_Penalty>
0.014237

> <r_epik_Ionization_Penalty_Charging>
0.0141173

> <r_epik_Ionization_Penalty_Neutral>
0.000119724

> <r_epik_State_Penalty>
1.52876

> <r_epik_Charging_Adjusted_Penalty>
1.54288

> <i_epik_Tot_Q>
0

> <i_epik_Tot_abs_Q>
0

> <r_epik_Metal_State_Penalty>
1.70686

> <b_epik_Metal_Only>
0

> <s_lp_Force_Field>
OPLS_2005

> <r_lp_Energy>
24.076

> <b_lp_Chiralities_Consistent>
1

> <s_lp_Variant>
AV-unprocessed.smi:1180-3

> <Gold.Version>
5.8.1

> <Gold.Id.Protein>
6NUR|6NUR_protein|mol2

> <Gold.PLP.Fitness>
40.8906

> <Gold.PLP.PLP>
-36.6193

> <Gold.PLP.part.hbond>
-3.0000

> <Gold.PLP.part.metal>
0.0000

> <Gold.PLP.part.buried>
-5.0510

> <Gold.PLP.part.nonpolar>
-30.3036

> <Gold.PLP.part.repulsive>
0.7381

> <Gold.PLP.ligand.clash>
0.0000

> <Gold.PLP.ligand.torsion>
0.8757

> <Gold.PLP.Chemscore.Hbond>
2.0000

> <Gold.PLP.Chemscore.CHOScore>
0.0000

> <Gold.PLP.Chemscore.Metal>
0.0000

> <Gold.Chemscore.Hbonds>
donor molecule, donor type, donor heavy atom, donor atom, acceptor molecule, acceptor atom, score
      L1  H     3    20       P1  7948  1.00
      L1  H    10    29       P1  8028  1.00

> <Gold.PLP.Chemscore.Internal.Correction>
0.0227

> <Gold.Rescore>
     Score         DG    S(hbond)    S(metal)    S(lipo)     H(rot)  DE(clash)    DE(int)     intcor
     16.06     -17.29       1.94        0.00      85.07       1.81       0.29       0.94       ----

> <Gold.Chemscore.Fitness>
16.0627

> <Gold.Chemscore.DG>
-17.2858

> <Gold.Chemscore.ZeroCoef>
-5.4800

> <Gold.Chemscore.Hbond>
1.9392

> <Gold.Chemscore.Metal>
0.0000

> <Gold.Chemscore.Lipo>
85.0728

> <Gold.Chemscore.Internal_Hbond>
0.0000

> <Gold.Chemscore.DEClash>
0.2871

> <Gold.Chemscore.DEInternal>
0.9361

> <Gold.Chemscore.Rot>
1.8065

> <Gold.Chemscore.Internal.Correction>
   9.000000E+99

> <Gold.Chemscore.Hbonds>
donor molecule, donor type, donor heavy atom, donor atom, acceptor molecule, acceptor atom, score
      L1  H     3    20       P1  7948  0.98
      L1  H    10    29       P1  8028  0.97

> <Gold.Chemscore.Hbond.Weighted>
-6.4769

> <Gold.Chemscore.Metal.Weighted>
-0.0000

> <Gold.Chemscore.Lipo.Weighted>
-9.9535

> <Gold.Chemscore.Internal_Hbond.Weighted>
0.0000

> <Gold.Chemscore.DEClash.Weighted>
0.2871

> <Gold.Chemscore.DEInternal.Weighted>
0.9361

> <Gold.Chemscore.Rot.Weighted>
4.6246

> <Gold.Chemscore.Internal.Correction.Weighted>
   9.000000E+99

> <Gold.Protein.RotatedTorsions>
[ 6907 6896 6895 6894 ] final   15.18 input  -60.11 | X-H torsion
[ 7974 7965 7964 7962 ] final  -35.51 input  175.53 | X-H torsion
[ 8008 7997 7996 7995 ] final  -69.78 input   59.86 | X-H torsion
[ 10167 10162 10161 10158 ] final  -69.82 input  -65.29 | X-H torsion
[ 10718 10713 10712 10709 ] final  -36.31 input   66.30 | X-H torsion
[ 10763 10752 10751 10750 ] final  123.39 input  -60.55 | X-H torsion
[ 11005 11000 10999 10996 ] final  -26.00 input  -57.11 | X-H torsion

> <Gold.Protein.ActiveResidues>
 VAL166  LYS551  ARG553  GLY616  TRP617  ASP618  TYR619  PRO620  LYS621  CYS622 
 ASP623  PHE694  ASN695  SER759  ASP760  ASP761  ALA762  ILE779  LEU786  VAL792 
 PHE793  MET794  SER795  GLU796  ALA797  LYS798  CYS799  TRP800  GLU811  SER814 

> <Gold.Protein.RotatedAtoms>
  151.8139  135.0672  160.0416 H   0  0  0  0  0  0  0  0  0  0  0  0  # atno 6907 bound_to 6896
  152.3000  133.5641  159.5621 H   0  0  0  0  0  0  0  0  0  0  0  0  # atno 6908 bound_to 6896
  150.7269  134.0221  159.3747 H   0  0  0  0  0  0  0  0  0  0  0  0  # atno 6909 bound_to 6896
  146.0741  140.6167  142.8939 H   0  0  0  0  0  0  0  0  0  0  0  0  # atno 7974 bound_to 7965
  154.4964  140.0847  156.7704 H   0  0  0  0  0  0  0  0  0  0  0  0  # atno 8008 bound_to 7997
  155.4108  140.3441  155.4245 H   0  0  0  0  0  0  0  0  0  0  0  0  # atno 8009 bound_to 7997
  156.1399  140.1526  156.8925 H   0  0  0  0  0  0  0  0  0  0  0  0  # atno 8010 bound_to 7997
  140.5401  143.2315  151.7105 H   0  0  0  0  0  0  0  0  0  0  0  0  # atno 10167 bound_to 10162
  156.3283  130.4275  149.7896 H   0  0  0  0  0  0  0  0  0  0  0  0  # atno 10718 bound_to 10713
  153.6447  135.3373  155.3082 H   0  0  0  0  0  0  0  0  0  0  0  0  # atno 10763 bound_to 10752
  154.8551  135.4326  154.1967 H   0  0  0  0  0  0  0  0  0  0  0  0  # atno 10764 bound_to 10752
  153.2895  135.7016  153.7381 H   0  0  0  0  0  0  0  0  0  0  0  0  # atno 10765 bound_to 10752
  140.8989  133.7537  156.0518 H   0  0  0  0  0  0  0  0  0  0  0  0  # atno 11005 bound_to 11000
  144.7250  140.4495  143.6980 LP  0  0  0  0  0  0  0  0  0  0  0  0  # atno 17320 bound_to 7965
  145.6339  139.1540  143.2954 LP  0  0  0  0  0  0  0  0  0  0  0  0  # atno 17321 bound_to 7965
  139.4985  144.3982  152.0209 LP  0  0  0  0  0  0  0  0  0  0  0  0  # atno 17342 bound_to 10162
  140.3090  144.3559  150.6039 LP  0  0  0  0  0  0  0  0  0  0  0  0  # atno 17343 bound_to 10162
  156.5177  130.8201  151.3192 LP  0  0  0  0  0  0  0  0  0  0  0  0  # atno 17370 bound_to 10713
  157.7425  130.9893  150.2525 LP  0  0  0  0  0  0  0  0  0  0  0  0  # atno 17371 bound_to 10713
  140.8254  134.3240  157.5367 LP  0  0  0  0  0  0  0  0  0  0  0  0  # atno 17394 bound_to 11000
  139.8739  134.9333  156.3577 LP  0  0  0  0  0  0  0  0  0  0  0  0  # atno 17395 bound_to 11000

$$$$
