AV-unprocessed.smi:2212|AV-procd|sdf|8952|dock4
  -GOLD-   2272012163D 1   1.00000     0.00000
 Structure written by MMmdl.
 32 33  0  0  0  0  0  0  0  0  2 V2000
  152.3806  138.9048  155.4369 C   0  0  0  0  0  0  0  0  0  0  0  0
  151.5179  139.8237  154.7778 O   0  0  0  0  0  0  0  0  0  0  0  0
  150.6029  140.5540  155.6022 C   0  0  0  0  0  0  0  0  0  0  0  0
  151.3318  141.4701  156.5970 C   0  0  0  0  0  0  0  0  0  0  0  0
  150.4860  142.5789  157.0291 N   0  0  0  0  0  0  0  0  0  0  0  0
  150.0832  142.8034  158.2881 C   0  0  0  0  0  0  0  0  0  0  0  0
  150.4176  142.1058  159.2463 O   0  0  0  0  0  0  0  0  0  0  0  0
  149.2757  143.8746  158.3633 N   0  0  0  0  0  0  0  0  0  0  0  0
  148.6417  144.3878  159.5234 C   0  0  0  0  0  0  0  0  0  0  0  0
  147.8199  145.4376  159.5937 N   0  3  0  0  0  0  0  0  0  0  0  0
  147.4241  145.6065  160.8965 C   0  0  0  0  0  0  0  0  0  0  0  0
  148.0473  144.6086  161.6059 C   0  0  0  0  0  0  0  0  0  0  0  0
  148.8153  143.8362  160.7566 O   0  0  0  0  0  0  0  0  0  0  0  0
  149.5530  141.1785  154.6631 C   0  0  0  0  0  0  0  0  0  0  0  0
  148.7068  139.9132  154.8100 C   0  0  0  0  0  0  0  0  0  0  0  0
  149.4672  139.6397  156.1089 C   0  0  0  0  0  0  0  0  0  0  0  0
  152.9156  138.3203  154.6887 H   0  0  0  0  0  0  0  0  0  0  0  0
  151.8372  138.2072  156.0731 H   0  0  0  0  0  0  0  0  0  0  0  0
  153.1290  139.4175  156.0409 H   0  0  0  0  0  0  0  0  0  0  0  0
  151.6713  140.8984  157.4623 H   0  0  0  0  0  0  0  0  0  0  0  0
  152.2390  141.8819  156.1558 H   0  0  0  0  0  0  0  0  0  0  0  0
  150.1607  143.2018  156.3041 H   0  0  0  0  0  0  0  0  0  0  0  0
  147.5172  146.0342  158.8332 H   0  0  0  0  0  0  0  0  0  0  0  0
  146.7528  146.4036  161.1824 H   0  0  0  0  0  0  0  0  0  0  0  0
  148.0523  144.3268  162.6489 H   0  0  0  0  0  0  0  0  0  0  0  0
  149.0633  142.0524  155.0955 H   0  0  0  0  0  0  0  0  0  0  0  0
  149.9021  141.3807  153.6499 H   0  0  0  0  0  0  0  0  0  0  0  0
  147.6381  140.0894  154.9336 H   0  0  0  0  0  0  0  0  0  0  0  0
  148.9109  139.1731  154.0346 H   0  0  0  0  0  0  0  0  0  0  0  0
  149.7228  138.5920  156.2633 H   0  0  0  0  0  0  0  0  0  0  0  0
  148.9559  140.0506  156.9810 H   0  0  0  0  0  0  0  0  0  0  0  0
  149.0867  144.3673  157.5028 H   0  0  0  0  0  0  0  0  0  0  0  0
  1  2  1  0  0  0  0
  1 17  1  0  0  0  0
  1 18  1  0  0  0  0
  1 19  1  0  0  0  0
  2  3  1  0  0  0  0
  3 16  1  0  0  0  0
  3  4  1  0  0  0  0
  3 14  1  0  0  0  0
  4  5  1  0  0  0  0
  4 20  1  0  0  0  0
  4 21  1  0  0  0  0
  5 22  1  0  0  0  0
  5  6  1  0  0  0  0
  6  8  1  0  0  0  0
  6  7  2  0  0  0  0
  8  9  1  0  0  0  0
  8 32  1  0  0  0  0
  9 13  1  0  0  0  0
  9 10  2  0  0  0  0
 10 23  1  0  0  0  0
 10 11  1  0  0  0  0
 11 24  1  0  0  0  0
 11 12  2  0  0  0  0
 12 25  1  0  0  0  0
 12 13  1  0  0  0  0
 14 15  1  0  0  0  0
 14 26  1  0  0  0  0
 14 27  1  0  0  0  0
 15 16  1  0  0  0  0
 15 28  1  0  0  0  0
 15 29  1  0  0  0  0
 16 30  1  0  0  0  0
 16 31  1  0  0  0  0
M  CHG  1  10   1
M  END
> <s_m_source_file>
AV-unprocessed.smi

> <i_m_source_file_index>
2212

> <i_lp_mmshare_version>
43012

> <i_f3d_flags>
0

> <s_epik_input>
W0NIMl0xW0NIMl1bQ0gyXUMxKE9bQ0gzXSlbQ0gyXVtOSF1DKD1PKVtOSF1jMm5bY0hdW2NIXW8y

> <s_epik_cmdline>
J2VwaWtfcHl0aG9uJywgJy1waCcsICc3LjAnLCAnLXRuJywgJzgnLCAnLW1hJywgJzIwMCcsICctbWV0YWxfYmluZGluZycsICctaW1hZScsICc8aW5maWxlLm1hZT4nLCAnLW9tYWUnLCAnPG91dGZpbGUubWFlPic=

> <r_epik_Ionization_Penalty>
6.73843

> <r_epik_Ionization_Penalty_Charging>
6.66704

> <r_epik_Ionization_Penalty_Neutral>
0.0713889

> <r_epik_State_Penalty>
1.94951

> <r_epik_Charging_Adjusted_Penalty>
8.61656

> <i_epik_Tot_Q>
1

> <i_epik_Tot_abs_Q>
1

> <r_epik_Metal_State_Penalty>
1.97013

> <b_epik_Metal_Only>
0

> <s_lp_Force_Field>
OPLS_2005

> <r_lp_Energy>
24.3681

> <b_lp_Chiralities_Consistent>
1

> <s_lp_Variant>
AV-unprocessed.smi:2212-2

> <Gold.Version>
5.8.1

> <Gold.Id.Protein>
6NUR|6NUR_protein|mol2

> <Gold.PLP.Fitness>
38.3697

> <Gold.PLP.PLP>
-26.9304

> <Gold.PLP.part.hbond>
-6.4609

> <Gold.PLP.part.metal>
0.0000

> <Gold.PLP.part.buried>
-0.7180

> <Gold.PLP.part.nonpolar>
-19.5852

> <Gold.PLP.part.repulsive>
0.5129

> <Gold.PLP.ligand.clash>
0.0000

> <Gold.PLP.ligand.torsion>
0.4308

> <Gold.PLP.Chemscore.Hbond>
4.0065

> <Gold.PLP.Chemscore.CHOScore>
0.0000

> <Gold.PLP.Chemscore.Metal>
0.0000

> <Gold.Chemscore.Hbonds>
donor molecule, donor type, donor heavy atom, donor atom, acceptor molecule, acceptor atom, score
      L1  H     5    22       P1  8028  0.88
      L1  H     8    32       P1  8028  0.30
      L1  H    10    23       P1  8029  1.22
      P1  H  6933  6944       L1    13  0.68
      P1  H  7989  7998       L1     2  1.00

> <Gold.PLP.Chemscore.Internal.Correction>
0.2815

> <Gold.Rescore>
     Score         DG    S(hbond)    S(metal)    S(lipo)     H(rot)  DE(clash)    DE(int)     intcor
     15.67     -18.21       3.27        0.00      51.90       1.67       0.66       1.87       ----

> <Gold.Chemscore.Fitness>
15.6739

> <Gold.Chemscore.DG>
-18.2100

> <Gold.Chemscore.ZeroCoef>
-5.4800

> <Gold.Chemscore.Hbond>
3.2695

> <Gold.Chemscore.Metal>
0.0000

> <Gold.Chemscore.Lipo>
51.9018

> <Gold.Chemscore.Internal_Hbond>
0.0000

> <Gold.Chemscore.DEClash>
0.6612

> <Gold.Chemscore.DEInternal>
1.8750

> <Gold.Chemscore.Rot>
1.6650

> <Gold.Chemscore.Internal.Correction>
   9.000000E+99

> <Gold.Chemscore.Hbonds>
donor molecule, donor type, donor heavy atom, donor atom, acceptor molecule, acceptor atom, score
      L1  H     5    22       P1  8028  0.81
      L1  H    10    23       P1  8029  0.60
      P1  H  6933  6944       L1    13  0.15
      P1  H  7989  7998       L1     2  0.25

> <Gold.Chemscore.Hbond.Weighted>
-10.9200

> <Gold.Chemscore.Metal.Weighted>
-0.0000

> <Gold.Chemscore.Lipo.Weighted>
-6.0725

> <Gold.Chemscore.Internal_Hbond.Weighted>
0.0000

> <Gold.Chemscore.DEClash.Weighted>
0.6612

> <Gold.Chemscore.DEInternal.Weighted>
1.8750

> <Gold.Chemscore.Rot.Weighted>
4.2625

> <Gold.Chemscore.Internal.Correction.Weighted>
   9.000000E+99

> <Gold.Protein.RotatedTorsions>
[ 6907 6896 6895 6894 ] final  115.44 input  -60.11 | X-H torsion
[ 7974 7965 7964 7962 ] final -150.75 input  175.53 | X-H torsion
[ 8008 7997 7996 7995 ] final   25.51 input   59.86 | X-H torsion
[ 10167 10162 10161 10158 ] final -176.27 input  -65.29 | X-H torsion
[ 10718 10713 10712 10709 ] final  114.58 input   66.30 | X-H torsion
[ 10763 10752 10751 10750 ] final  -37.02 input  -60.55 | X-H torsion
[ 11005 11000 10999 10996 ] final  164.49 input  -57.11 | X-H torsion

> <Gold.Protein.ActiveResidues>
 VAL166  LYS551  ARG553  GLY616  TRP617  ASP618  TYR619  PRO620  LYS621  CYS622 
 ASP623  PHE694  ASN695  SER759  ASP760  ASP761  ALA762  ILE779  LEU786  VAL792 
 PHE793  MET794  SER795  GLU796  ALA797  LYS798  CYS799  TRP800  GLU811  SER814 

> <Gold.Protein.RotatedAtoms>
  152.4741  133.8098  159.6996 H   0  0  0  0  0  0  0  0  0  0  0  0  # atno 6907 bound_to 6896
  150.8748  133.7445  159.2956 H   0  0  0  0  0  0  0  0  0  0  0  0  # atno 6908 bound_to 6896
  151.4969  135.1063  159.9870 H   0  0  0  0  0  0  0  0  0  0  0  0  # atno 6909 bound_to 6896
  144.7889  140.4890  143.5786 H   0  0  0  0  0  0  0  0  0  0  0  0  # atno 7974 bound_to 7965
  155.0128  140.3138  155.4823 H   0  0  0  0  0  0  0  0  0  0  0  0  # atno 8008 bound_to 7997
  156.2906  140.2211  156.5185 H   0  0  0  0  0  0  0  0  0  0  0  0  # atno 8009 bound_to 7997
  154.7519  140.0465  157.0889 H   0  0  0  0  0  0  0  0  0  0  0  0  # atno 8010 bound_to 7997
  139.5538  144.2041  152.1124 H   0  0  0  0  0  0  0  0  0  0  0  0  # atno 10167 bound_to 10162
  157.6273  131.1000  150.7206 H   0  0  0  0  0  0  0  0  0  0  0  0  # atno 10718 bound_to 10713
  153.8893  135.6814  153.4761 H   0  0  0  0  0  0  0  0  0  0  0  0  # atno 10763 bound_to 10752
  153.1190  135.4748  154.9161 H   0  0  0  0  0  0  0  0  0  0  0  0  # atno 10764 bound_to 10752
  154.7630  135.3216  154.8294 H   0  0  0  0  0  0  0  0  0  0  0  0  # atno 10765 bound_to 10752
  140.2465  134.8011  157.3460 H   0  0  0  0  0  0  0  0  0  0  0  0  # atno 11005 bound_to 11000
  145.5846  139.1491  143.3216 LP  0  0  0  0  0  0  0  0  0  0  0  0  # atno 17320 bound_to 7965
  146.2133  140.5975  142.9050 LP  0  0  0  0  0  0  0  0  0  0  0  0  # atno 17321 bound_to 7965
  140.1541  144.5087  150.6670 LP  0  0  0  0  0  0  0  0  0  0  0  0  # atno 17342 bound_to 10162
  140.6807  143.2325  151.5392 LP  0  0  0  0  0  0  0  0  0  0  0  0  # atno 17343 bound_to 10162
  156.7552  130.4781  149.5448 LP  0  0  0  0  0  0  0  0  0  0  0  0  # atno 17370 bound_to 10713
  156.1453  130.6273  151.0523 LP  0  0  0  0  0  0  0  0  0  0  0  0  # atno 17371 bound_to 10713
  140.1601  134.4739  155.7900 LP  0  0  0  0  0  0  0  0  0  0  0  0  # atno 17394 bound_to 11000
  141.2206  133.6898  156.7529 LP  0  0  0  0  0  0  0  0  0  0  0  0  # atno 17395 bound_to 11000

$$$$
