AV-unprocessed.smi:1927|AV-procd|sdf|7797|dock5
  -GOLD-   22720 9543D 1   1.00000     0.00000
 Structure written by MMmdl.
 34 35  0  0  0  0  0  0  0  0  1 V2000
  147.7227  132.9636  152.5425 C   0  0  0  0  0  0  0  0  0  0  0  0
  146.4172  133.0426  151.7674 C   0  0  0  0  0  0  0  0  0  0  0  0
  145.8174  131.8535  151.3010 C   0  0  0  0  0  0  0  0  0  0  0  0
  144.6111  131.9290  150.5842 C   0  0  0  0  0  0  0  0  0  0  0  0
  144.0520  133.1992  150.3624 C   0  0  0  0  0  0  0  0  0  0  0  0
  144.6181  134.3407  150.8047 N   0  0  0  0  0  0  0  0  0  0  0  0
  145.7824  134.2853  151.4989 C   0  0  0  0  0  0  0  0  0  0  0  0
  146.4343  135.4471  152.0009 N   0  0  0  0  0  0  0  0  0  0  0  0
  145.9001  136.4898  152.6611 C   0  0  0  0  0  0  0  0  0  0  0  0
  144.7060  136.6309  152.9265 O   0  0  0  0  0  0  0  0  0  0  0  0
  146.8444  137.3802  152.9984 N   0  0  0  0  0  0  0  0  0  0  0  0
  146.6164  138.6276  153.7212 C   0  0  0  0  0  0  0  0  0  0  0  0
  147.7907  139.6090  153.5518 C   0  0  1  0  0  0  0  0  0  0  0  0
  147.6862  140.8867  154.3624 C   0  0  0  0  0  0  0  0  0  0  0  0
  149.1330  141.3728  154.3818 C   0  0  0  0  0  0  0  0  0  0  0  0
  149.9435  140.2041  154.2885 O   0  0  0  0  0  0  0  0  0  0  0  0
  149.1268  139.0621  154.0516 C   0  0  0  0  0  0  0  0  0  0  0  0
  148.0593  131.9319  152.6502 H   0  0  0  0  0  0  0  0  0  0  0  0
  147.5998  133.3825  153.5417 H   0  0  0  0  0  0  0  0  0  0  0  0
  148.5065  133.5191  152.0269 H   0  0  0  0  0  0  0  0  0  0  0  0
  146.2740  130.8927  151.4887 H   0  0  0  0  0  0  0  0  0  0  0  0
  144.1270  131.0373  150.2145 H   0  0  0  0  0  0  0  0  0  0  0  0
  143.1257  133.3024  149.8171 H   0  0  0  0  0  0  0  0  0  0  0  0
  147.4307  135.4819  151.8462 H   0  0  0  0  0  0  0  0  0  0  0  0
  147.7985  137.1794  152.7365 H   0  0  0  0  0  0  0  0  0  0  0  0
  145.6774  139.0925  153.4155 H   0  0  0  0  0  0  0  0  0  0  0  0
  146.5015  138.3794  154.7765 H   0  0  0  0  0  0  0  0  0  0  0  0
  147.8976  139.8707  152.4974 H   0  0  0  0  0  0  0  0  0  0  0  0
  147.0009  141.6171  153.9310 H   0  0  0  0  0  0  0  0  0  0  0  0
  147.3531  140.6662  155.3778 H   0  0  0  0  0  0  0  0  0  0  0  0
  149.3348  142.0026  153.5145 H   0  0  0  0  0  0  0  0  0  0  0  0
  149.3650  141.9474  155.2789 H   0  0  0  0  0  0  0  0  0  0  0  0
  148.9982  138.5286  154.9945 H   0  0  0  0  0  0  0  0  0  0  0  0
  149.5928  138.3808  153.3392 H   0  0  0  0  0  0  0  0  0  0  0  0
  1  2  1  0  0  0  0
  1 18  1  0  0  0  0
  1 19  1  0  0  0  0
  1 20  1  0  0  0  0
  2  7  1  0  0  0  0
  2  3  2  0  0  0  0
  3  4  1  0  0  0  0
  3 21  1  0  0  0  0
  4  5  2  0  0  0  0
  4 22  1  0  0  0  0
  5  6  1  0  0  0  0
  5 23  1  0  0  0  0
  6  7  2  0  0  0  0
  7  8  1  0  0  0  0
  8  9  1  0  0  0  0
  8 24  1  0  0  0  0
  9 10  2  0  0  0  0
  9 11  1  0  0  0  0
 11 12  1  0  0  0  0
 11 25  1  0  0  0  0
 12 13  1  0  0  0  0
 12 26  1  0  0  0  0
 12 27  1  0  0  0  0
 13 17  1  0  0  0  0
 13 14  1  0  0  0  0
 13 28  1  0  0  0  0
 14 15  1  0  0  0  0
 14 29  1  0  0  0  0
 14 30  1  0  0  0  0
 15 16  1  0  0  0  0
 15 31  1  0  0  0  0
 15 32  1  0  0  0  0
 16 17  1  0  0  0  0
 17 33  1  0  0  0  0
 17 34  1  0  0  0  0
M  END
> <s_m_source_file>
AV-unprocessed.smi

> <i_m_source_file_index>
1927

> <i_lp_mmshare_version>
43012

> <i_f3d_flags>
0

> <s_epik_input>
W0NIM11jMVtjSF1bY0hdW2NIXW5jMVtOSF1DKD1PKVtOSF1bQ0gyXVtDQEBIXTJbQ0gyXVtDSDJdT1tDSDJdMg==

> <s_epik_cmdline>
J2VwaWtfcHl0aG9uJywgJy1waCcsICc3LjAnLCAnLXRuJywgJzgnLCAnLW1hJywgJzIwMCcsICctbWV0YWxfYmluZGluZycsICctaW1hZScsICc8aW5maWxlLm1hZT4nLCAnLW9tYWUnLCAnPG91dGZpbGUubWFlPic=

> <r_lp_tautomer_probability>
1

> <r_epik_Ionization_Penalty>
5.84082e-05

> <r_epik_Ionization_Penalty_Charging>
0

> <r_epik_Ionization_Penalty_Neutral>
5.84082e-05

> <r_epik_State_Penalty>
-0

> <r_epik_Charging_Adjusted_Penalty>
0

> <i_epik_Tot_Q>
0

> <i_epik_Tot_abs_Q>
0

> <r_epik_Metal_State_Penalty>
-0

> <b_epik_Metal_Only>
0

> <s_lp_Force_Field>
OPLS_2005

> <r_lp_Energy>
21.9437

> <b_lp_Chiralities_Consistent>
1

> <s_lp_Variant>
AV-unprocessed.smi:1927-2

> <Gold.Version>
5.8.1

> <Gold.Id.Protein>
6NUR|6NUR_protein|mol2

> <Gold.PLP.Fitness>
40.5658

> <Gold.PLP.PLP>
-29.7180

> <Gold.PLP.part.hbond>
-3.0000

> <Gold.PLP.part.metal>
0.0000

> <Gold.PLP.part.buried>
-2.7864

> <Gold.PLP.part.nonpolar>
-24.2272

> <Gold.PLP.part.repulsive>
0.5094

> <Gold.PLP.ligand.clash>
0.0000

> <Gold.PLP.ligand.torsion>
0.5188

> <Gold.PLP.Chemscore.Hbond>
2.9600

> <Gold.PLP.Chemscore.CHOScore>
1.0000

> <Gold.PLP.Chemscore.Metal>
0.0000

> <Gold.Chemscore.Hbonds>
donor molecule, donor type, donor heavy atom, donor atom, acceptor molecule, acceptor atom, score
      L1  H     8    24       P1  7948  1.00
      L1  H    11    25       P1  7948  1.00
      P1  H  7989  7998       L1    16  0.93
      L1  C     5    23       P1 10186  1.00

> <Gold.PLP.Chemscore.Internal.Correction>
0.0054

> <Gold.Rescore>
     Score         DG    S(hbond)    S(metal)    S(lipo)     H(rot)  DE(clash)    DE(int)     intcor
     18.30     -18.86       2.49        0.00      70.33       1.23       0.02       0.54       ----

> <Gold.Chemscore.Fitness>
18.3000

> <Gold.Chemscore.DG>
-18.8605

> <Gold.Chemscore.ZeroCoef>
-5.4800

> <Gold.Chemscore.Hbond>
2.4881

> <Gold.Chemscore.Metal>
0.0000

> <Gold.Chemscore.Lipo>
70.3285

> <Gold.Chemscore.Internal_Hbond>
0.0000

> <Gold.Chemscore.DEClash>
0.0233

> <Gold.Chemscore.DEInternal>
0.5372

> <Gold.Chemscore.Rot>
1.2337

> <Gold.Chemscore.Internal.Correction>
   9.000000E+99

> <Gold.Chemscore.Hbonds>
donor molecule, donor type, donor heavy atom, donor atom, acceptor molecule, acceptor atom, score
      L1  H     8    24       P1  7948  0.98
      L1  H    11    25       P1  7948  0.95
      P1  H  7989  7998       L1    16  0.35

> <Gold.Chemscore.Hbond.Weighted>
-8.3103

> <Gold.Chemscore.Metal.Weighted>
-0.0000

> <Gold.Chemscore.Lipo.Weighted>
-8.2284

> <Gold.Chemscore.Internal_Hbond.Weighted>
0.0000

> <Gold.Chemscore.DEClash.Weighted>
0.0233

> <Gold.Chemscore.DEInternal.Weighted>
0.5372

> <Gold.Chemscore.Rot.Weighted>
3.1582

> <Gold.Chemscore.Internal.Correction.Weighted>
   9.000000E+99

> <Gold.Protein.RotatedTorsions>
[ 6907 6896 6895 6894 ] final -102.87 input  -60.11 | X-H torsion
[ 7974 7965 7964 7962 ] final -136.14 input  175.53 | X-H torsion
[ 8008 7997 7996 7995 ] final   41.76 input   59.86 | X-H torsion
[ 10167 10162 10161 10158 ] final   41.40 input  -65.29 | X-H torsion
[ 10718 10713 10712 10709 ] final   49.31 input   66.30 | X-H torsion
[ 10763 10752 10751 10750 ] final   44.95 input  -60.55 | X-H torsion
[ 11005 11000 10999 10996 ] final   66.81 input  -57.11 | X-H torsion

> <Gold.Protein.ActiveResidues>
 VAL166  LYS551  ARG553  GLY616  TRP617  ASP618  TYR619  PRO620  LYS621  CYS622 
 ASP623  PHE694  ASN695  SER759  ASP760  ASP761  ALA762  ILE779  LEU786  VAL792 
 PHE793  MET794  SER795  GLU796  ALA797  LYS798  CYS799  TRP800  GLU811  SER814 

> <Gold.Protein.RotatedAtoms>
  150.7215  134.0515  159.3799 H   0  0  0  0  0  0  0  0  0  0  0  0  # atno 6907 bound_to 6896
  151.8492  135.0561  160.0466 H   0  0  0  0  0  0  0  0  0  0  0  0  # atno 6908 bound_to 6896
  152.2803  133.5428  159.5530 H   0  0  0  0  0  0  0  0  0  0  0  0  # atno 6909 bound_to 6896
  144.8952  140.6697  143.5120 H   0  0  0  0  0  0  0  0  0  0  0  0  # atno 7974 bound_to 7965
  155.2750  140.3368  155.4262 H   0  0  0  0  0  0  0  0  0  0  0  0  # atno 8008 bound_to 7997
  156.2115  140.1772  156.7724 H   0  0  0  0  0  0  0  0  0  0  0  0  # atno 8009 bound_to 7997
  154.5694  140.0673  156.8925 H   0  0  0  0  0  0  0  0  0  0  0  0  # atno 8010 bound_to 7997
  140.3647  144.2183  150.6136 H   0  0  0  0  0  0  0  0  0  0  0  0  # atno 10167 bound_to 10162
  157.4774  130.8293  149.8054 H   0  0  0  0  0  0  0  0  0  0  0  0  # atno 10718 bound_to 10713
  152.9832  135.6054  154.3358 H   0  0  0  0  0  0  0  0  0  0  0  0  # atno 10763 bound_to 10752
  154.3058  135.2772  155.2591 H   0  0  0  0  0  0  0  0  0  0  0  0  # atno 10764 bound_to 10752
  154.4823  135.5914  153.6454 H   0  0  0  0  0  0  0  0  0  0  0  0  # atno 10765 bound_to 10752
  139.9809  134.6746  156.0264 H   0  0  0  0  0  0  0  0  0  0  0  0  # atno 11005 bound_to 11000
  145.3712  139.1658  143.4331 LP  0  0  0  0  0  0  0  0  0  0  0  0  # atno 17320 bound_to 7965
  146.3077  140.3784  142.8681 LP  0  0  0  0  0  0  0  0  0  0  0  0  # atno 17321 bound_to 7965
  140.5093  143.2295  151.8560 LP  0  0  0  0  0  0  0  0  0  0  0  0  # atno 17342 bound_to 10162
  139.4810  144.4969  151.9112 LP  0  0  0  0  0  0  0  0  0  0  0  0  # atno 17343 bound_to 10162
  156.0103  130.3836  150.2286 LP  0  0  0  0  0  0  0  0  0  0  0  0  # atno 17370 bound_to 10713
  157.0471  131.0052  151.3265 LP  0  0  0  0  0  0  0  0  0  0  0  0  # atno 17371 bound_to 10713
  141.1481  133.6552  156.3929 LP  0  0  0  0  0  0  0  0  0  0  0  0  # atno 17394 bound_to 11000
  140.5099  134.6405  157.5280 LP  0  0  0  0  0  0  0  0  0  0  0  0  # atno 17395 bound_to 11000

$$$$
