#       Name:                AV-unprocessed.smi:1831
#       Creating user name   scv26
#       Creation time:       Fri Mar 27 09:15:26 2020


#       File generated by GOLD software.
#

@<TRIPOS>MOLECULE
AV-unprocessed.smi:1831
    45    46     1
SMALL
NO_CHARGES


@<TRIPOS>ATOM
      1 ****        -3.4289   5.0404   3.1810 C.3            1 S1                 0.0000
      2 ****        -3.4540   4.1908   1.9569 C.2            1 S1                 0.0000
      3 ****        -4.5897   3.7978   1.3755 N.2            1 S1                 0.0000
      4 ****        -4.3589   3.0194   0.2507 N.2            1 S1                 0.0000
      5 ****        -3.0558   2.8273   0.0023 C.2            1 S1                 0.0000
      6 ****        -2.6206   2.1027  -1.0418 N.pl3          1 S1                -1.0000
      7 ****        -2.2787   0.8067  -0.8681 C.2            1 S1                 0.0000
      8 ****        -2.3127   0.1786   0.1926 O.2            1 S1                 0.0000
      9 ****        -1.8581   0.2052  -1.9904 N.am           1 S1                 0.0000
     10 ****        -1.3988  -1.1756  -2.1101 C.3            1 S1                 0.0000
     11 ****         0.1293  -1.2859  -1.9499 C.3            1 S1                 0.0000
     12 ****         0.6689  -2.7046  -2.1165 C.3            1 S1                 0.0000
     13 ****         1.9881  -2.7185  -1.3321 C.3            1 S1                 0.0000
     14 ****         2.0224  -1.4832  -0.5092 N.4            1 S1                 1.0000
     15 ****         2.5885  -1.6455   0.8596 C.3            1 S1                 0.0000
     16 ****         2.5307  -0.3302   1.6606 C.3            1 S1                 0.0000
     17 ****         4.0427  -2.1497   0.8013 C.3            1 S1                 0.0000
     18 ****         0.6675  -0.8968  -0.5730 C.3            1 S1                 0.0000
     19 ****        -1.9940   3.6305   1.1586 S.3            1 S1                 0.0000
     20 ****        -3.7224   6.0604   2.9328 H              1 S1                 0.0000
     21 ****        -2.4270   5.0583   3.6100 H              1 S1                 0.0000
     22 ****        -4.1201   4.6468   3.9265 H              1 S1                 0.0000
     23 ****        -1.8551   0.7596  -2.8343 H              1 S1                 0.0000
     24 ****        -1.9118  -1.8186  -1.3930 H              1 S1                 0.0000
     25 ****        -1.6873  -1.5339  -3.0984 H              1 S1                 0.0000
     26 ****         0.6101  -0.6505  -2.6959 H              1 S1                 0.0000
     27 ****        -0.0228  -3.4229  -1.6737 H              1 S1                 0.0000
     28 ****         0.8021  -2.9782  -3.1635 H              1 S1                 0.0000
     29 ****         2.0396  -3.6186  -0.7174 H              1 S1                 0.0000
     30 ****         2.8483  -2.7240  -2.0023 H              1 S1                 0.0000
     31 ****         1.9888  -2.3883   1.3883 H              1 S1                 0.0000
     32 ****         2.9948  -0.4487   2.6402 H              1 S1                 0.0000
     33 ****         1.5059  -0.0031   1.8372 H              1 S1                 0.0000
     34 ****         3.0551   0.4736   1.1426 H              1 S1                 0.0000
     35 ****         4.4609  -2.2508   1.8032 H              1 S1                 0.0000
     36 ****         4.6785  -1.4583   0.2470 H              1 S1                 0.0000
     37 ****         4.1206  -3.1275   0.3261 H              1 S1                 0.0000
     38 ****         0.6904   0.1843  -0.4324 H              1 S1                 0.0000
     39 ****         0.0438  -1.3318   0.2101 H              1 S1                 0.0000
     40 ****         2.6205  -0.8361  -1.0029 H              1 S1                 0.0000
     41 ****        -5.5007   4.0367   1.7117 LP             1 S1                 0.0000
     42 ****        -5.0899   2.6403  -0.3167 LP             1 S1                 0.0000
     43 ****        -2.5497   2.5219  -1.9469 LP             1 S1                 0.0000
     44 ****        -2.6159   0.6303   1.0317 LP             1 S1                 0.0000
     45 ****        -2.0371  -0.7825   0.2137 LP             1 S1                 0.0000
@<TRIPOS>BOND
    1    1    2 1     
    2    1   20 1     
    3    1   21 1     
    4    1   22 1     
    5    2   19 1     
    6    2    3 2     
    7    3    4 1     
    8    4    5 2     
    9    5    6 1     
   10    5   19 1     
   11    6    7 1     
   12    7    8 2     
   13    7    9 am    
   14    9   10 1     
   15    9   23 1     
   16   10   11 1     
   17   10   24 1     
   18   10   25 1     
   19   11   18 1     
   20   11   12 1     
   21   11   26 1     
   22   12   13 1     
   23   12   27 1     
   24   12   28 1     
   25   13   14 1     
   26   13   29 1     
   27   13   30 1     
   28   14   15 1     
   29   14   18 1     
   30   14   40 1     
   31   15   16 1     
   32   15   17 1     
   33   15   31 1     
   34   16   32 1     
   35   16   33 1     
   36   16   34 1     
   37   17   35 1     
   38   17   36 1     
   39   17   37 1     
   40   18   38 1     
   41   18   39 1     
   42    3   41 1     
   43    4   42 1     
   44    6   43 1     
   45    8   44 1     
   46    8   45 1     
@<TRIPOS>SUBSTRUCTURE
      1 S1             1
@<TRIPOS>SET
LONE_PAIRS      STATIC     ATOMS    <user>   **** ""
5 41 42 43 44 45
DONOR_HYDROGENS      STATIC     ATOMS    <user>   **** ""
2 23 40
ATOM$BLUE        STATIC     ATOMS    COLORGROUP SYSTEM
5 41 42 43 44 45
ATOM$RED        STATIC     ATOMS    COLORGROUP SYSTEM
2 23 40
