AV-unprocessed.smi:1472|AV-procd|sdf|5965|dock7
  -GOLD-   22720 6 53D 1   1.00000     0.00000
 Structure written by MMmdl.
 42 43  0  0  0  0  0  0  0  0  2 V2000
  151.0236  142.6090  156.8488 C   0  0  0  0  0  0  0  0  0  0  0  0
  150.0484  141.0523  156.7539 S   0  0  0  0  0  0  0  0  0  0  0  0
  150.9137  139.9414  157.1788 O   0  0  0  0  0  0  0  0  0  0  0  0
  148.7630  141.2756  157.4332 O   0  0  0  0  0  0  0  0  0  0  0  0
  149.7241  140.8569  155.0552 N   0  0  0  0  0  0  0  0  0  0  0  0
  150.0510  139.5829  154.3856 C   0  0  0  0  0  0  0  0  0  0  0  0
  148.7995  138.7107  154.1786 C   0  0  0  0  0  0  0  0  0  0  0  0
  147.6897  139.4775  153.4354 C   0  0  0  0  0  0  0  0  0  0  0  0
  146.4146  138.6327  153.2244 C   0  0  0  0  0  0  0  0  0  0  0  0
  146.6937  137.3304  152.6258 N   0  0  0  0  0  0  0  0  0  0  0  0
  145.7634  136.4367  152.2606 C   0  0  0  0  0  0  0  0  0  0  0  0
  144.5553  136.6160  152.4116 O   0  0  0  0  0  0  0  0  0  0  0  0
  146.3245  135.3342  151.7338 N   0  0  0  0  0  0  0  0  0  0  0  0
  145.6839  134.1891  151.1858 C   0  0  0  0  0  0  0  0  0  0  0  0
  146.4844  133.2716  150.4693 C   0  0  0  0  0  0  0  0  0  0  0  0
  145.8892  132.1316  149.8911 C   0  0  0  0  0  0  0  0  0  0  0  0
  144.5603  131.9293  150.0181 N   0  3  0  0  0  0  0  0  0  0  0  0
  143.7522  132.7840  150.6812 C   0  0  0  0  0  0  0  0  0  0  0  0
  144.2903  133.9415  151.2798 C   0  0  0  0  0  0  0  0  0  0  0  0
  147.3778  140.7671  154.2114 C   0  0  0  0  0  0  0  0  0  0  0  0
  148.6380  141.6257  154.4160 C   0  0  0  0  0  0  0  0  0  0  0  0
  151.2802  142.8045  157.8896 H   0  0  0  0  0  0  0  0  0  0  0  0
  150.4321  143.4407  156.4704 H   0  0  0  0  0  0  0  0  0  0  0  0
  151.9405  142.5094  156.2710 H   0  0  0  0  0  0  0  0  0  0  0  0
  150.5014  139.8091  153.4184 H   0  0  0  0  0  0  0  0  0  0  0  0
  150.8040  139.0380  154.9543 H   0  0  0  0  0  0  0  0  0  0  0  0
  149.0821  137.8184  153.6196 H   0  0  0  0  0  0  0  0  0  0  0  0
  148.4247  138.3595  155.1391 H   0  0  0  0  0  0  0  0  0  0  0  0
  148.0738  139.7658  152.4557 H   0  0  0  0  0  0  0  0  0  0  0  0
  145.9173  138.4645  154.1801 H   0  0  0  0  0  0  0  0  0  0  0  0
  145.7011  139.1736  152.6004 H   0  0  0  0  0  0  0  0  0  0  0  0
  147.6648  137.0999  152.4747 H   0  0  0  0  0  0  0  0  0  0  0  0
  147.3329  135.2940  151.7630 H   0  0  0  0  0  0  0  0  0  0  0  0
  147.5477  133.4335  150.3649 H   0  0  0  0  0  0  0  0  0  0  0  0
  146.4321  131.3828  149.3332 H   0  0  0  0  0  0  0  0  0  0  0  0
  142.7044  132.5224  150.7075 H   0  0  0  0  0  0  0  0  0  0  0  0
  143.6219  134.6209  151.7863 H   0  0  0  0  0  0  0  0  0  0  0  0
  146.6302  141.3509  153.6732 H   0  0  0  0  0  0  0  0  0  0  0  0
  146.9324  140.5219  155.1748 H   0  0  0  0  0  0  0  0  0  0  0  0
  148.4024  142.5125  155.0038 H   0  0  0  0  0  0  0  0  0  0  0  0
  148.9947  141.9847  153.4499 H   0  0  0  0  0  0  0  0  0  0  0  0
  144.1488  131.0990  149.5908 H   0  0  0  0  0  0  0  0  0  0  0  0
  1  2  1  0  0  0  0
  1 22  1  0  0  0  0
  1 23  1  0  0  0  0
  1 24  1  0  0  0  0
  2  3  2  0  0  0  0
  2  4  2  0  0  0  0
  2  5  1  0  0  0  0
  5 21  1  0  0  0  0
  5  6  1  0  0  0  0
  6  7  1  0  0  0  0
  6 25  1  0  0  0  0
  6 26  1  0  0  0  0
  7  8  1  0  0  0  0
  7 27  1  0  0  0  0
  7 28  1  0  0  0  0
  8  9  1  0  0  0  0
  8 20  1  0  0  0  0
  8 29  1  0  0  0  0
  9 10  1  0  0  0  0
  9 30  1  0  0  0  0
  9 31  1  0  0  0  0
 10 11  1  0  0  0  0
 10 32  1  0  0  0  0
 11 12  2  0  0  0  0
 11 13  1  0  0  0  0
 13 14  1  0  0  0  0
 13 33  1  0  0  0  0
 14 19  1  0  0  0  0
 14 15  2  0  0  0  0
 15 16  1  0  0  0  0
 15 34  1  0  0  0  0
 16 17  2  0  0  0  0
 16 35  1  0  0  0  0
 17 18  1  0  0  0  0
 17 42  1  0  0  0  0
 18 19  2  0  0  0  0
 18 36  1  0  0  0  0
 19 37  1  0  0  0  0
 20 21  1  0  0  0  0
 20 38  1  0  0  0  0
 20 39  1  0  0  0  0
 21 40  1  0  0  0  0
 21 41  1  0  0  0  0
M  CHG  1  17   1
M  END
> <s_m_source_file>
AV-unprocessed.smi

> <i_m_source_file_index>
1472

> <i_lp_mmshare_version>
43012

> <i_f3d_flags>
0

> <s_epik_input>
W0NIM11TKD1PKSg9TylOMVtDSDJdW0NIMl1bQ0hdKFtDSDJdW0NIMl0xKVtDSDJdW05IXUMoPU8pW05IXWMyW2NIXVtjSF1uW2NIXVtjSF0y

> <s_epik_cmdline>
J2VwaWtfcHl0aG9uJywgJy1waCcsICc3LjAnLCAnLXRuJywgJzgnLCAnLW1hJywgJzIwMCcsICctbWV0YWxfYmluZGluZycsICctaW1hZScsICc8aW5maWxlLm1hZT4nLCAnLW9tYWUnLCAnPG91dGZpbGUubWFlPic=

> <r_epik_Ionization_Penalty>
1.02593

> <r_epik_Ionization_Penalty_Charging>
1.02591

> <r_epik_Ionization_Penalty_Neutral>
2.05222e-05

> <r_epik_State_Penalty>
1.07662

> <r_epik_Charging_Adjusted_Penalty>
2.10252

> <i_epik_Tot_Q>
1

> <i_epik_Tot_abs_Q>
1

> <r_epik_Metal_State_Penalty>
1.17465

> <b_epik_Metal_Only>
0

> <s_lp_Force_Field>
OPLS_2005

> <r_lp_Energy>
12.5629

> <b_lp_Chiralities_Consistent>
1

> <s_lp_Variant>
AV-unprocessed.smi:1472-2

> <Gold.Version>
5.8.1

> <Gold.Id.Protein>
6NUR|6NUR_protein|mol2

> <Gold.PLP.Fitness>
42.9868

> <Gold.PLP.PLP>
-37.2956

> <Gold.PLP.part.hbond>
-2.0000

> <Gold.PLP.part.metal>
0.0000

> <Gold.PLP.part.buried>
-2.0364

> <Gold.PLP.part.nonpolar>
-32.6583

> <Gold.PLP.part.repulsive>
0.4721

> <Gold.PLP.ligand.clash>
0.0000

> <Gold.PLP.ligand.torsion>
1.1224

> <Gold.PLP.Chemscore.Hbond>
1.9600

> <Gold.PLP.Chemscore.CHOScore>
0.0000

> <Gold.PLP.Chemscore.Metal>
0.0000

> <Gold.Chemscore.Hbonds>
donor molecule, donor type, donor heavy atom, donor atom, acceptor molecule, acceptor atom, score
      L1  H    10    32       P1  7948  1.00
      L1  H    13    33       P1  7948  0.98

> <Gold.PLP.Chemscore.Internal.Correction>
2.0561

> <Gold.Rescore>
     Score         DG    S(hbond)    S(metal)    S(lipo)     H(rot)  DE(clash)    DE(int)     intcor
     16.21     -18.58       1.91        0.00      85.89       1.30       0.02       2.35       ----

> <Gold.Chemscore.Fitness>
16.2051

> <Gold.Chemscore.DG>
-18.5764

> <Gold.Chemscore.ZeroCoef>
-5.4800

> <Gold.Chemscore.Hbond>
1.9113

> <Gold.Chemscore.Metal>
0.0000

> <Gold.Chemscore.Lipo>
85.8859

> <Gold.Chemscore.Internal_Hbond>
0.0000

> <Gold.Chemscore.DEClash>
0.0179

> <Gold.Chemscore.DEInternal>
2.3534

> <Gold.Chemscore.Rot>
1.3031

> <Gold.Chemscore.Internal.Correction>
   9.000000E+99

> <Gold.Chemscore.Hbonds>
donor molecule, donor type, donor heavy atom, donor atom, acceptor molecule, acceptor atom, score
      L1  H    10    32       P1  7948  0.98
      L1  H    13    33       P1  7948  0.90

> <Gold.Chemscore.Hbond.Weighted>
-6.3837

> <Gold.Chemscore.Metal.Weighted>
-0.0000

> <Gold.Chemscore.Lipo.Weighted>
-10.0487

> <Gold.Chemscore.Internal_Hbond.Weighted>
0.0000

> <Gold.Chemscore.DEClash.Weighted>
0.0179

> <Gold.Chemscore.DEInternal.Weighted>
2.3534

> <Gold.Chemscore.Rot.Weighted>
3.3359

> <Gold.Chemscore.Internal.Correction.Weighted>
   9.000000E+99

> <Gold.Protein.RotatedTorsions>
[ 6907 6896 6895 6894 ] final  -37.56 input  -60.11 | X-H torsion
[ 7974 7965 7964 7962 ] final   35.65 input  175.53 | X-H torsion
[ 8008 7997 7996 7995 ] final  -65.78 input   59.86 | X-H torsion
[ 10167 10162 10161 10158 ] final -155.33 input  -65.29 | X-H torsion
[ 10718 10713 10712 10709 ] final -151.30 input   66.30 | X-H torsion
[ 10763 10752 10751 10750 ] final  144.10 input  -60.55 | X-H torsion
[ 11005 11000 10999 10996 ] final  108.79 input  -57.11 | X-H torsion

> <Gold.Protein.ActiveResidues>
 VAL166  LYS551  ARG553  GLY616  TRP617  ASP618  TYR619  PRO620  LYS621  CYS622 
 ASP623  PHE694  ASN695  SER759  ASP760  ASP761  ALA762  ILE779  LEU786  VAL792 
 PHE793  MET794  SER795  GLU796  ALA797  LYS798  CYS799  TRP800  GLU811  SER814 

> <Gold.Protein.RotatedAtoms>
  151.0132  134.9412  159.8018 H   0  0  0  0  0  0  0  0  0  0  0  0  # atno 6907 bound_to 6896
  152.5307  134.3001  159.9085 H   0  0  0  0  0  0  0  0  0  0  0  0  # atno 6908 bound_to 6896
  151.3008  133.4081  159.2674 H   0  0  0  0  0  0  0  0  0  0  0  0  # atno 6909 bound_to 6896
  146.1268  139.6116  142.9253 H   0  0  0  0  0  0  0  0  0  0  0  0  # atno 7974 bound_to 7965
  154.4693  140.0926  156.7102 H   0  0  0  0  0  0  0  0  0  0  0  0  # atno 8008 bound_to 7997
  155.4769  140.3466  155.4315 H   0  0  0  0  0  0  0  0  0  0  0  0  # atno 8009 bound_to 7997
  156.1011  140.1422  156.9455 H   0  0  0  0  0  0  0  0  0  0  0  0  # atno 8010 bound_to 7997
  139.6940  143.9373  152.2398 H   0  0  0  0  0  0  0  0  0  0  0  0  # atno 10167 bound_to 10162
  156.4575  130.8197  151.2428 H   0  0  0  0  0  0  0  0  0  0  0  0  # atno 10718 bound_to 10713
  153.9833  135.2939  155.3418 H   0  0  0  0  0  0  0  0  0  0  0  0  # atno 10763 bound_to 10752
  154.7256  135.5090  153.8884 H   0  0  0  0  0  0  0  0  0  0  0  0  # atno 10764 bound_to 10752
  153.0844  135.6689  154.0094 H   0  0  0  0  0  0  0  0  0  0  0  0  # atno 10765 bound_to 10752
  139.8850  134.9440  156.6026 H   0  0  0  0  0  0  0  0  0  0  0  0  # atno 11005 bound_to 11000
  145.5348  141.0425  143.2363 LP  0  0  0  0  0  0  0  0  0  0  0  0  # atno 17320 bound_to 7965
  144.7650  139.6866  143.7218 LP  0  0  0  0  0  0  0  0  0  0  0  0  # atno 17321 bound_to 7965
  139.9197  144.6807  150.8474 LP  0  0  0  0  0  0  0  0  0  0  0  0  # atno 17342 bound_to 10162
  140.7691  143.3384  151.2261 LP  0  0  0  0  0  0  0  0  0  0  0  0  # atno 17343 bound_to 10162
  157.7500  131.0118  150.3359 LP  0  0  0  0  0  0  0  0  0  0  0  0  # atno 17370 bound_to 10713
  156.3751  130.3870  149.7145 LP  0  0  0  0  0  0  0  0  0  0  0  0  # atno 17371 bound_to 10713
  140.7872  133.8611  155.8616 LP  0  0  0  0  0  0  0  0  0  0  0  0  # atno 17394 bound_to 11000
  140.9709  134.1533  157.4577 LP  0  0  0  0  0  0  0  0  0  0  0  0  # atno 17395 bound_to 11000

$$$$
