AV-unprocessed.smi:1513|AV-procd|sdf|6112|dock3
  -GOLD-   22720 6243D 1   1.00000     0.00000
 Structure written by MMmdl.
 32 33  0  0  0  0  0  0  0  0  3 V2000
  156.1243  139.2681  158.6037 N   0  5  0  0  0  0  0  0  0  0  0  0
  154.9084  138.9533  159.6177 S   0  0  0  0  0  0  0  0  0  0  0  0
  154.8953  137.5324  160.0037 O   0  0  0  0  0  0  0  0  0  0  0  0
  154.8992  139.9169  160.7304 O   0  0  0  0  0  0  0  0  0  0  0  0
  153.7517  139.2857  158.5305 N   0  5  0  0  0  0  0  0  0  0  0  0
  152.4304  139.6895  158.9838 C   0  0  0  0  0  0  0  0  0  0  0  0
  152.1796  141.1837  158.7291 C   0  0  0  0  0  0  0  0  0  0  0  0
  152.6501  142.1127  159.6884 C   0  0  0  0  0  0  0  0  0  0  0  0
  152.4526  143.4897  159.4825 C   0  0  0  0  0  0  0  0  0  0  0  0
  151.7865  143.8987  158.3162 C   0  0  0  0  0  0  0  0  0  0  0  0
  151.3269  143.0362  157.3891 N   0  0  0  0  0  0  0  0  0  0  0  0
  151.5072  141.7034  157.5743 C   0  0  0  0  0  0  0  0  0  0  0  0
  150.9632  140.8759  156.5676 N   0  0  0  0  0  0  0  0  0  0  0  0
  150.1273  141.5971  155.6158 C   0  0  0  0  0  0  0  0  0  0  0  0
  149.3996  140.6012  154.6964 C   0  0  0  0  0  0  0  0  0  0  0  0
  150.3504  139.7485  154.0629 O   0  0  0  0  0  0  0  0  0  0  0  0
  151.1004  138.9913  155.0094 C   0  0  0  0  0  0  0  0  0  0  0  0
  151.8842  139.9467  155.9252 C   0  0  0  0  0  0  0  0  0  0  0  0
  156.9697  138.8118  158.9658 H   0  0  0  0  0  0  0  0  0  0  0  0
  151.6446  139.1128  158.4939 H   0  0  0  0  0  0  0  0  0  0  0  0
  152.2887  139.5124  160.0505 H   0  0  0  0  0  0  0  0  0  0  0  0
  153.1635  141.7934  160.5855 H   0  0  0  0  0  0  0  0  0  0  0  0
  152.8044  144.2130  160.2028 H   0  0  0  0  0  0  0  0  0  0  0  0
  151.6167  144.9473  158.1221 H   0  0  0  0  0  0  0  0  0  0  0  0
  149.4007  142.2163  156.1426 H   0  0  0  0  0  0  0  0  0  0  0  0
  150.7508  142.2677  155.0232 H   0  0  0  0  0  0  0  0  0  0  0  0
  148.6811  140.0050  155.2606 H   0  0  0  0  0  0  0  0  0  0  0  0
  148.8368  141.1378  153.9329 H   0  0  0  0  0  0  0  0  0  0  0  0
  150.4326  138.3541  155.5919 H   0  0  0  0  0  0  0  0  0  0  0  0
  151.7861  138.3331  154.4760 H   0  0  0  0  0  0  0  0  0  0  0  0
  152.6196  140.4974  155.3377 H   0  0  0  0  0  0  0  0  0  0  0  0
  152.4270  139.3819  156.6840 H   0  0  0  0  0  0  0  0  0  0  0  0
  1  2  1  0  0  0  0
  1 19  1  0  0  0  0
  2  3  2  0  0  0  0
  2  4  2  0  0  0  0
  2  5  1  0  0  0  0
  5  6  1  0  0  0  0
  6  7  1  0  0  0  0
  6 20  1  0  0  0  0
  6 21  1  0  0  0  0
  7 12  1  0  0  0  0
  7  8  2  0  0  0  0
  8  9  1  0  0  0  0
  8 22  1  0  0  0  0
  9 10  2  0  0  0  0
  9 23  1  0  0  0  0
 10 11  1  0  0  0  0
 10 24  1  0  0  0  0
 11 12  2  0  0  0  0
 12 13  1  0  0  0  0
 13 18  1  0  0  0  0
 13 14  1  0  0  0  0
 14 15  1  0  0  0  0
 14 25  1  0  0  0  0
 14 26  1  0  0  0  0
 15 16  1  0  0  0  0
 15 27  1  0  0  0  0
 15 28  1  0  0  0  0
 16 17  1  0  0  0  0
 17 18  1  0  0  0  0
 17 29  1  0  0  0  0
 17 30  1  0  0  0  0
 18 31  1  0  0  0  0
 18 32  1  0  0  0  0
M  CHG  1   1  -1
M  CHG  1   5  -1
M  END
> <s_m_source_file>
AV-unprocessed.smi

> <i_m_source_file_index>
1513

> <i_lp_mmshare_version>
43012

> <i_f3d_flags>
0

> <s_epik_input>
W05IMl1TKD1PKSg9TylbTkhdW0NIMl1jMVtjSF1bY0hdW2NIXW5jMU4yW0NIMl1bQ0gyXU9bQ0gyXVtDSDJdMg==

> <s_epik_cmdline>
J2VwaWtfcHl0aG9uJywgJy1waCcsICc3LjAnLCAnLXRuJywgJzgnLCAnLW1hJywgJzIwMCcsICctbWV0YWxfYmluZGluZycsICctaW1hZScsICc8aW5maWxlLm1hZT4nLCAnLW9tYWUnLCAnPG91dGZpbGUubWFlPic=

> <r_lp_tautomer_probability>
1

> <r_epik_Ionization_Penalty>
9.15309

> <r_epik_Ionization_Penalty_Charging>
9.0542

> <r_epik_Ionization_Penalty_Neutral>
0.0988939

> <r_epik_State_Penalty>
4.65345

> <r_epik_Charging_Adjusted_Penalty>
13.7077

> <i_epik_Tot_Q>
-2

> <i_epik_Tot_abs_Q>
2

> <r_epik_Metal_State_Penalty>
1.24006

> <b_epik_Metal_Only>
1

> <s_lp_Force_Field>
OPLS_2005

> <r_lp_Energy>
26.0571

> <b_lp_Chiralities_Consistent>
1

> <s_lp_Variant>
AV-unprocessed.smi:1513-5

> <Gold.Version>
5.8.1

> <Gold.Id.Protein>
6NUR|6NUR_protein|mol2

> <Gold.PLP.Fitness>
43.9258

> <Gold.PLP.PLP>
-33.9930

> <Gold.PLP.part.hbond>
-3.0000

> <Gold.PLP.part.metal>
0.0000

> <Gold.PLP.part.buried>
-5.3448

> <Gold.PLP.part.nonpolar>
-26.7279

> <Gold.PLP.part.repulsive>
0.8328

> <Gold.PLP.ligand.clash>
0.0000

> <Gold.PLP.ligand.torsion>
1.1180

> <Gold.PLP.Chemscore.Hbond>
3.6560

> <Gold.PLP.Chemscore.CHOScore>
0.0000

> <Gold.PLP.Chemscore.Metal>
0.0000

> <Gold.Chemscore.Hbonds>
donor molecule, donor type, donor heavy atom, donor atom, acceptor molecule, acceptor atom, score
      P1  H  7989  7998       L1    16  1.00
      P1  H  7997  8008       L1     5  1.92
      P1  H  7997  8010       L1     1  0.74

> <Gold.PLP.Chemscore.Internal.Correction>
1.2009

> <Gold.Rescore>
     Score         DG    S(hbond)    S(metal)    S(lipo)     H(rot)  DE(clash)    DE(int)     intcor
     13.87     -15.19       1.53        0.00      80.01       1.86       0.11       1.20       ----

> <Gold.Chemscore.Fitness>
13.8743

> <Gold.Chemscore.DG>
-15.1880

> <Gold.Chemscore.ZeroCoef>
-5.4800

> <Gold.Chemscore.Hbond>
1.5299

> <Gold.Chemscore.Metal>
0.0000

> <Gold.Chemscore.Lipo>
80.0085

> <Gold.Chemscore.Internal_Hbond>
0.0000

> <Gold.Chemscore.DEClash>
0.1136

> <Gold.Chemscore.DEInternal>
1.2001

> <Gold.Chemscore.Rot>
1.8606

> <Gold.Chemscore.Internal.Correction>
   9.000000E+99

> <Gold.Chemscore.Hbonds>
donor molecule, donor type, donor heavy atom, donor atom, acceptor molecule, acceptor atom, score
      P1  H  7989  7998       L1    16  0.11
      P1  H  7997  8008       L1     5  0.71
      P1  H  7997  8010       L1     1  0.35

> <Gold.Chemscore.Hbond.Weighted>
-5.1100

> <Gold.Chemscore.Metal.Weighted>
-0.0000

> <Gold.Chemscore.Lipo.Weighted>
-9.3610

> <Gold.Chemscore.Internal_Hbond.Weighted>
0.0000

> <Gold.Chemscore.DEClash.Weighted>
0.1136

> <Gold.Chemscore.DEInternal.Weighted>
1.2001

> <Gold.Chemscore.Rot.Weighted>
4.7631

> <Gold.Chemscore.Internal.Correction.Weighted>
   9.000000E+99

> <Gold.Protein.RotatedTorsions>
[ 6907 6896 6895 6894 ] final   11.39 input  -60.11 | X-H torsion
[ 7974 7965 7964 7962 ] final  166.14 input  175.53 | X-H torsion
[ 8008 7997 7996 7995 ] final  -75.89 input   59.86 | X-H torsion
[ 10167 10162 10161 10158 ] final   20.16 input  -65.29 | X-H torsion
[ 10718 10713 10712 10709 ] final   -2.23 input   66.30 | X-H torsion
[ 10763 10752 10751 10750 ] final  -62.67 input  -60.55 | X-H torsion
[ 11005 11000 10999 10996 ] final   39.98 input  -57.11 | X-H torsion

> <Gold.Protein.ActiveResidues>
 VAL166  LYS551  ARG553  GLY616  TRP617  ASP618  TYR619  PRO620  LYS621  CYS622 
 ASP623  PHE694  ASN695  SER759  ASP760  ASP761  ALA762  ILE779  LEU786  VAL792 
 PHE793  MET794  SER795  GLU796  ALA797  LYS798  CYS799  TRP800  GLU811  SER814 

> <Gold.Protein.RotatedAtoms>
  151.7536  135.0827  160.0334 H   0  0  0  0  0  0  0  0  0  0  0  0  # atno 6907 bound_to 6896
  152.3400  133.6052  159.5878 H   0  0  0  0  0  0  0  0  0  0  0  0  # atno 6908 bound_to 6896
  150.7473  133.9653  159.3570 H   0  0  0  0  0  0  0  0  0  0  0  0  # atno 6909 bound_to 6896
  144.7474  139.8572  143.6377 H   0  0  0  0  0  0  0  0  0  0  0  0  # atno 7974 bound_to 7965
  154.5457  140.0736  156.8584 H   0  0  0  0  0  0  0  0  0  0  0  0  # atno 8008 bound_to 7997
  155.3092  140.3389  155.4226 H   0  0  0  0  0  0  0  0  0  0  0  0  # atno 8009 bound_to 7997
  156.1915  140.1688  156.8068 H   0  0  0  0  0  0  0  0  0  0  0  0  # atno 8010 bound_to 7997
  140.5524  143.9484  150.6587 H   0  0  0  0  0  0  0  0  0  0  0  0  # atno 10167 bound_to 10162
  156.7939  130.5371  149.5731 H   0  0  0  0  0  0  0  0  0  0  0  0  # atno 10718 bound_to 10713
  154.3034  135.6230  153.5434 H   0  0  0  0  0  0  0  0  0  0  0  0  # atno 10763 bound_to 10752
  152.9838  135.5684  154.5258 H   0  0  0  0  0  0  0  0  0  0  0  0  # atno 10764 bound_to 10752
  154.4893  135.2866  155.1485 H   0  0  0  0  0  0  0  0  0  0  0  0  # atno 10765 bound_to 10752
  140.1975  134.3911  155.8113 H   0  0  0  0  0  0  0  0  0  0  0  0  # atno 11005 bound_to 11000
  146.1374  139.4422  143.0130 LP  0  0  0  0  0  0  0  0  0  0  0  0  # atno 17320 bound_to 7965
  145.7071  141.0118  143.1473 LP  0  0  0  0  0  0  0  0  0  0  0  0  # atno 17321 bound_to 7965
  140.2914  143.3322  152.1059 LP  0  0  0  0  0  0  0  0  0  0  0  0  # atno 17342 bound_to 10162
  139.5033  144.6753  151.6144 LP  0  0  0  0  0  0  0  0  0  0  0  0  # atno 17343 bound_to 10162
  156.1142  130.6062  151.0094 LP  0  0  0  0  0  0  0  0  0  0  0  0  # atno 17370 bound_to 10713
  157.6587  131.0885  150.7889 LP  0  0  0  0  0  0  0  0  0  0  0  0  # atno 17371 bound_to 10713
  141.2227  133.7077  156.8201 LP  0  0  0  0  0  0  0  0  0  0  0  0  # atno 17394 bound_to 11000
  140.2091  134.8841  157.3254 LP  0  0  0  0  0  0  0  0  0  0  0  0  # atno 17395 bound_to 11000

$$$$
