#       Name:                AV-unprocessed.smi:1349
#       Creating user name   scv26
#       Creation time:       Fri Mar 27 05:10:25 2020


#       File generated by GOLD software.
#

@<TRIPOS>MOLECULE
AV-unprocessed.smi:1349
    47    49     1
SMALL
NO_CHARGES


@<TRIPOS>ATOM
      1 ****        -3.8365   0.6687   0.8467 O.3            1 S1                 0.0000
      2 ****        -3.3013   1.9757   0.8272 C.3            1 S1                 0.0000
      3 ****        -1.7761   1.9360   0.6531 C.3            1 S1                 0.0000
      4 ****        -1.0391   1.3472   1.8681 C.3            1 S1                 0.0000
      5 ****         0.4477   1.2846   1.6651 C.2            1 S1                 0.0000
      6 ****         1.1732   2.4020   1.5908 N.2            1 S1                 0.0000
      7 ****         2.4528   1.9269   1.3888 C.ar           1 S1                 0.0000
      8 ****         3.6733   2.6189   1.2180 C.ar           1 S1                 0.0000
      9 ****         4.8756   1.9083   1.0222 C.ar           1 S1                 0.0000
     10 ****         4.8745   0.4987   0.9953 C.ar           1 S1                 0.0000
     11 ****         3.6692  -0.2097   1.1655 C.ar           1 S1                 0.0000
     12 ****         2.4712   0.5046   1.3599 C.ar           1 S1                 0.0000
     13 ****         1.1470   0.1224   1.5569 N.pl3          1 S1                 0.0000
     14 ****         0.6772  -1.2559   1.6278 C.3            1 S1                 0.0000
     15 ****         0.3709  -1.8464   0.2449 C.3            1 S1                 0.0000
     16 ****        -0.7078  -1.1472  -0.3616 O.3            1 S1                 0.0000
     17 ****        -1.1402  -1.5698  -1.6014 C.ar           1 S1                 0.0000
     18 ****        -2.2567  -0.9081  -2.1542 C.ar           1 S1                 0.0000
     19 ****        -2.7642  -1.2765  -3.4150 C.ar           1 S1                 0.0000
     20 ****        -2.1557  -2.3160  -4.1416 C.ar           1 S1                 0.0000
     21 ****        -1.0408  -2.9851  -3.6040 C.ar           1 S1                 0.0000
     22 ****        -0.5345  -2.6170  -2.3420 C.ar           1 S1                 0.0000
     23 ****        -4.7749   0.7292   0.9406 H              1 S1                 0.0000
     24 ****        -3.7567   2.5209   0.0001 H              1 S1                 0.0000
     25 ****        -3.5741   2.4957   1.7461 H              1 S1                 0.0000
     26 ****        -1.5218   1.3760  -0.2464 H              1 S1                 0.0000
     27 ****        -1.4201   2.9525   0.4820 H              1 S1                 0.0000
     28 ****        -1.2368   1.9598   2.7484 H              1 S1                 0.0000
     29 ****        -1.4419   0.3635   2.0956 H              1 S1                 0.0000
     30 ****         3.6836   3.6986   1.2373 H              1 S1                 0.0000
     31 ****         5.8026   2.4475   0.8921 H              1 S1                 0.0000
     32 ****         5.7993  -0.0388   0.8443 H              1 S1                 0.0000
     33 ****         3.6659  -1.2893   1.1455 H              1 S1                 0.0000
     34 ****         1.4558  -1.8513   2.1053 H              1 S1                 0.0000
     35 ****        -0.1856  -1.3319   2.2867 H              1 S1                 0.0000
     36 ****         1.2621  -1.7853  -0.3817 H              1 S1                 0.0000
     37 ****         0.1121  -2.9001   0.3582 H              1 S1                 0.0000
     38 ****        -2.7340  -0.1102  -1.6061 H              1 S1                 0.0000
     39 ****        -3.6207  -0.7612  -3.8238 H              1 S1                 0.0000
     40 ****        -2.5433  -2.5998  -5.1090 H              1 S1                 0.0000
     41 ****        -0.5719  -3.7830  -4.1606 H              1 S1                 0.0000
     42 ****         0.3218  -3.1550  -1.9653 H              1 S1                 0.0000
     43 ****        -3.4529   0.1588   1.6167 LP             1 S1                 0.0000
     44 ****        -3.6128   0.2001  -0.0079 LP             1 S1                 0.0000
     45 ****         0.8652   3.3506   1.6636 LP             1 S1                 0.0000
     46 ****        -0.4276  -0.1918  -0.4545 LP             1 S1                 0.0000
     47 ****        -1.4879  -1.2067   0.2612 LP             1 S1                 0.0000
@<TRIPOS>BOND
    1    1    2 1     
    2    1   23 1     
    3    2    3 1     
    4    2   24 1     
    5    2   25 1     
    6    3    4 1     
    7    3   26 1     
    8    3   27 1     
    9    4    5 1     
   10    4   28 1     
   11    4   29 1     
   12    5   13 1     
   13    5    6 2     
   14    6    7 1     
   15    7   12 ar    
   16    7    8 ar    
   17    8    9 ar    
   18    8   30 1     
   19    9   10 ar    
   20    9   31 1     
   21   10   11 ar    
   22   10   32 1     
   23   11   12 ar    
   24   11   33 1     
   25   12   13 1     
   26   13   14 1     
   27   14   15 1     
   28   14   34 1     
   29   14   35 1     
   30   15   16 1     
   31   15   36 1     
   32   15   37 1     
   33   16   17 1     
   34   17   22 ar    
   35   17   18 ar    
   36   18   19 ar    
   37   18   38 1     
   38   19   20 ar    
   39   19   39 1     
   40   20   21 ar    
   41   20   40 1     
   42   21   22 ar    
   43   21   41 1     
   44   22   42 1     
   45    1   43 1     
   46    1   44 1     
   47    6   45 1     
   48   16   46 1     
   49   16   47 1     
@<TRIPOS>SUBSTRUCTURE
      1 S1             1
@<TRIPOS>SET
LONE_PAIRS      STATIC     ATOMS    <user>   **** ""
5 43 44 45 46 47
DONOR_HYDROGENS      STATIC     ATOMS    <user>   **** ""
1 23
ATOM$BLUE        STATIC     ATOMS    COLORGROUP SYSTEM
5 43 44 45 46 47
ATOM$RED        STATIC     ATOMS    COLORGROUP SYSTEM
1 23
