AV-unprocessed.smi:1802|AV-procd|sdf|7271|dock3
  -GOLD-   22720 8523D 1   1.00000     0.00000
 Structure written by MMmdl.
 41 42  0  0  0  0  0  0  0  0  2 V2000
  145.5082  132.1486  149.4555 C   0  0  0  0  0  0  0  0  0  0  0  0
  146.2688  132.8989  150.5580 C   0  0  2  0  0  0  0  0  0  0  0  0
  146.5018  132.0044  151.7870 C   0  0  0  0  0  0  0  0  0  0  0  0
  147.2432  132.7857  152.8781 C   0  0  0  0  0  0  0  0  0  0  0  0
  146.4916  134.0778  153.2334 C   0  0  0  0  0  0  0  0  0  0  0  0
  146.2830  134.9260  152.0312 N   0  3  2  0  0  0  0  0  0  0  0  0
  145.6783  136.2381  152.3753 C   0  0  0  0  0  0  0  0  0  0  0  0
  146.2134  137.3873  151.5033 C   0  0  0  0  0  0  0  0  0  0  0  0
  146.3629  138.6952  152.2986 C   0  0  0  0  0  0  0  0  0  0  0  0
  147.7593  138.9937  152.5961 N   0  0  0  0  0  0  0  0  0  0  0  0
  148.3002  138.9845  153.8231 C   0  0  0  0  0  0  0  0  0  0  0  0
  147.6546  138.7465  154.8444 O   0  0  0  0  0  0  0  0  0  0  0  0
  149.6146  139.2653  153.7801 N   0  0  0  0  0  0  0  0  0  0  0  0
  150.5370  139.3228  154.8584 C   0  0  0  0  0  0  0  0  0  0  0  0
  151.8234  139.6802  154.7193 N   0  0  0  0  0  0  0  0  0  0  0  0
  152.5031  139.6559  155.9301 N   0  0  0  0  0  0  0  0  0  0  0  0
  151.7043  139.2808  156.9330 C   0  0  0  0  0  0  0  0  0  0  0  0
  150.0429  138.9205  156.4967 S   0  0  0  0  0  0  0  0  0  0  0  0
  145.5390  134.1943  150.9696 C   0  0  0  0  0  0  0  0  0  0  0  0
  144.5197  131.8380  149.7953 H   0  0  0  0  0  0  0  0  0  0  0  0
  146.0495  131.2545  149.1447 H   0  0  0  0  0  0  0  0  0  0  0  0
  145.3753  132.7749  148.5729 H   0  0  0  0  0  0  0  0  0  0  0  0
  147.2433  133.1761  150.1527 H   0  0  0  0  0  0  0  0  0  0  0  0
  145.5468  131.6477  152.1757 H   0  0  0  0  0  0  0  0  0  0  0  0
  147.0758  131.1195  151.5094 H   0  0  0  0  0  0  0  0  0  0  0  0
  147.3586  132.1652  153.7674 H   0  0  0  0  0  0  0  0  0  0  0  0
  148.2507  133.0283  152.5370 H   0  0  0  0  0  0  0  0  0  0  0  0
  145.5268  133.8413  153.6853 H   0  0  0  0  0  0  0  0  0  0  0  0
  147.0651  134.6283  153.9803 H   0  0  0  0  0  0  0  0  0  0  0  0
  144.5910  136.1747  152.3095 H   0  0  0  0  0  0  0  0  0  0  0  0
  145.9096  136.4736  153.4152 H   0  0  0  0  0  0  0  0  0  0  0  0
  147.1804  137.1070  151.0833 H   0  0  0  0  0  0  0  0  0  0  0  0
  145.5474  137.5593  150.6583 H   0  0  0  0  0  0  0  0  0  0  0  0
  145.9139  139.5275  151.7536 H   0  0  0  0  0  0  0  0  0  0  0  0
  145.8259  138.6192  153.2444 H   0  0  0  0  0  0  0  0  0  0  0  0
  148.3599  139.1992  151.8108 H   0  0  0  0  0  0  0  0  0  0  0  0
  150.0060  139.4449  152.8672 H   0  0  0  0  0  0  0  0  0  0  0  0
  152.0966  139.2158  157.9370 H   0  0  0  0  0  0  0  0  0  0  0  0
  145.4245  134.8260  150.0896 H   0  0  0  0  0  0  0  0  0  0  0  0
  144.5329  133.9647  151.3243 H   0  0  0  0  0  0  0  0  0  0  0  0
  147.2031  135.1224  151.6638 H   0  0  0  0  0  0  0  0  0  0  0  0
  1  2  1  0  0  0  0
  1 20  1  0  0  0  0
  1 21  1  0  0  0  0
  1 22  1  0  0  0  0
  2 19  1  0  0  0  0
  2  3  1  0  0  0  0
  2 23  1  0  0  0  0
  3  4  1  0  0  0  0
  3 24  1  0  0  0  0
  3 25  1  0  0  0  0
  4  5  1  0  0  0  0
  4 26  1  0  0  0  0
  4 27  1  0  0  0  0
  5  6  1  0  0  0  0
  5 28  1  0  0  0  0
  5 29  1  0  0  0  0
  6  7  1  0  0  0  0
  6 19  1  0  0  0  0
  6 41  1  0  0  0  0
  7  8  1  0  0  0  0
  7 30  1  0  0  0  0
  7 31  1  0  0  0  0
  8  9  1  0  0  0  0
  8 32  1  0  0  0  0
  8 33  1  0  0  0  0
  9 10  1  0  0  0  0
  9 34  1  0  0  0  0
  9 35  1  0  0  0  0
 10 11  1  0  0  0  0
 10 36  1  0  0  0  0
 11 12  2  0  0  0  0
 11 13  1  0  0  0  0
 13 14  1  0  0  0  0
 13 37  1  0  0  0  0
 14 18  1  0  0  0  0
 14 15  2  0  0  0  0
 15 16  1  0  0  0  0
 16 17  2  0  0  0  0
 17 18  1  0  0  0  0
 17 38  1  0  0  0  0
 19 39  1  0  0  0  0
 19 40  1  0  0  0  0
M  CHG  1   6   1
M  END
> <s_m_source_file>
AV-unprocessed.smi

> <i_m_source_file_index>
1802

> <i_lp_mmshare_version>
43012

> <i_f3d_flags>
0

> <s_epik_input>
W0NIM11bQ0BASF0xW0NIMl1bQ0gyXVtDSDJdTihbQ0gyXTEpW0NIMl1bQ0gyXVtDSDJdW05IXUMoPU8pW05IXWMybm5bY0hdczI=

> <s_epik_cmdline>
J2VwaWtfcHl0aG9uJywgJy1waCcsICc3LjAnLCAnLXRuJywgJzgnLCAnLW1hJywgJzIwMCcsICctbWV0YWxfYmluZGluZycsICctaW1hZScsICc8aW5maWxlLm1hZT4nLCAnLW9tYWUnLCAnPG91dGZpbGUubWFlPic=

> <r_lp_tautomer_probability>
1

> <r_epik_Ionization_Penalty>
0.00272894

> <r_epik_Ionization_Penalty_Charging>
0.000288442

> <r_epik_Ionization_Penalty_Neutral>
0.0024405

> <r_epik_State_Penalty>
-0

> <r_epik_Charging_Adjusted_Penalty>
0.000288442

> <i_epik_Tot_Q>
1

> <i_epik_Tot_abs_Q>
1

> <r_epik_Metal_State_Penalty>
0.350525

> <b_epik_Metal_Only>
0

> <s_lp_Force_Field>
OPLS_2005

> <r_lp_Energy>
15.5864

> <b_lp_Chiralities_Consistent>
1

> <s_lp_Variant>
AV-unprocessed.smi:1802-1

> <Gold.Version>
5.8.1

> <Gold.Id.Protein>
6NUR|6NUR_protein|mol2

> <Gold.PLP.Fitness>
47.2832

> <Gold.PLP.PLP>
-31.6857

> <Gold.PLP.part.hbond>
-5.8105

> <Gold.PLP.part.metal>
0.0000

> <Gold.PLP.part.buried>
-0.3673

> <Gold.PLP.part.nonpolar>
-26.6060

> <Gold.PLP.part.repulsive>
0.3394

> <Gold.PLP.ligand.clash>
0.0000

> <Gold.PLP.ligand.torsion>
1.0238

> <Gold.PLP.Chemscore.Hbond>
5.8469

> <Gold.PLP.Chemscore.CHOScore>
0.0000

> <Gold.PLP.Chemscore.Metal>
0.0000

> <Gold.Chemscore.Hbonds>
donor molecule, donor type, donor heavy atom, donor atom, acceptor molecule, acceptor atom, score
      L1  H     6    41       P1  7948  1.93
      L1  H    10    36       P1  7957  1.00
      L1  H    13    37       P1  7957  0.90
      P1  H  7989  7998       L1    15  1.00
      P1  H  7997  8008       L1    16  1.00

> <Gold.PLP.Chemscore.Internal.Correction>
0.1042

> <Gold.Rescore>
     Score         DG    S(hbond)    S(metal)    S(lipo)     H(rot)  DE(clash)    DE(int)     intcor
     19.45     -22.15       4.14        0.00      67.61       1.98       0.48       2.22       ----

> <Gold.Chemscore.Fitness>
19.4463

> <Gold.Chemscore.DG>
-22.1469

> <Gold.Chemscore.ZeroCoef>
-5.4800

> <Gold.Chemscore.Hbond>
4.1389

> <Gold.Chemscore.Metal>
0.0000

> <Gold.Chemscore.Lipo>
67.6065

> <Gold.Chemscore.Internal_Hbond>
0.0000

> <Gold.Chemscore.DEClash>
0.4828

> <Gold.Chemscore.DEInternal>
2.2177

> <Gold.Chemscore.Rot>
1.9793

> <Gold.Chemscore.Internal.Correction>
   9.000000E+99

> <Gold.Chemscore.Hbonds>
donor molecule, donor type, donor heavy atom, donor atom, acceptor molecule, acceptor atom, score
      L1  H     6    41       P1  7948  0.79
      L1  H    10    36       P1  7957  0.94
      L1  H    13    37       P1  7957  0.86
      P1  H  7989  7998       L1    15  0.24
      P1  H  7997  8008       L1    16  0.98

> <Gold.Chemscore.Hbond.Weighted>
-13.8239

> <Gold.Chemscore.Metal.Weighted>
-0.0000

> <Gold.Chemscore.Lipo.Weighted>
-7.9100

> <Gold.Chemscore.Internal_Hbond.Weighted>
0.0000

> <Gold.Chemscore.DEClash.Weighted>
0.4828

> <Gold.Chemscore.DEInternal.Weighted>
2.2177

> <Gold.Chemscore.Rot.Weighted>
5.0670

> <Gold.Chemscore.Internal.Correction.Weighted>
   9.000000E+99

> <Gold.Protein.RotatedTorsions>
[ 6907 6896 6895 6894 ] final -120.89 input  -60.11 | X-H torsion
[ 7974 7965 7964 7962 ] final  -79.76 input  175.53 | X-H torsion
[ 8008 7997 7996 7995 ] final  -31.34 input   59.86 | X-H torsion
[ 10167 10162 10161 10158 ] final  -12.66 input  -65.29 | X-H torsion
[ 10718 10713 10712 10709 ] final   26.73 input   66.30 | X-H torsion
[ 10763 10752 10751 10750 ] final  -45.35 input  -60.55 | X-H torsion
[ 11005 11000 10999 10996 ] final  -97.98 input  -57.11 | X-H torsion

> <Gold.Protein.ActiveResidues>
 VAL166  LYS551  ARG553  GLY616  TRP617  ASP618  TYR619  PRO620  LYS621  CYS622 
 ASP623  PHE694  ASN695  SER759  ASP760  ASP761  ALA762  ILE779  LEU786  VAL792 
 PHE793  MET794  SER795  GLU796  ALA797  LYS798  CYS799  TRP800  GLU811  SER814 

> <Gold.Protein.RotatedAtoms>
  150.8434  133.7900  159.3052 H   0  0  0  0  0  0  0  0  0  0  0  0  # atno 6907 bound_to 6896
  151.5595  135.1064  159.9979 H   0  0  0  0  0  0  0  0  0  0  0  0  # atno 6908 bound_to 6896
  152.4493  133.7554  159.6773 H   0  0  0  0  0  0  0  0  0  0  0  0  # atno 6909 bound_to 6896
  145.5690  140.9469  143.1406 H   0  0  0  0  0  0  0  0  0  0  0  0  # atno 7974 bound_to 7965
  154.4217  140.1767  156.1550 H   0  0  0  0  0  0  0  0  0  0  0  0  # atno 8008 bound_to 7997
  155.9884  140.3371  155.6705 H   0  0  0  0  0  0  0  0  0  0  0  0  # atno 8009 bound_to 7997
  155.6406  140.0679  157.2610 H   0  0  0  0  0  0  0  0  0  0  0  0  # atno 8010 bound_to 7997
  140.7166  143.5508  150.9303 H   0  0  0  0  0  0  0  0  0  0  0  0  # atno 10167 bound_to 10162
  157.2108  130.6933  149.6227 H   0  0  0  0  0  0  0  0  0  0  0  0  # atno 10718 bound_to 10713
  154.0270  135.6661  153.4777 H   0  0  0  0  0  0  0  0  0  0  0  0  # atno 10763 bound_to 10752
  153.0556  135.5058  154.7969 H   0  0  0  0  0  0  0  0  0  0  0  0  # atno 10764 bound_to 10752
  154.6902  135.3060  154.9456 H   0  0  0  0  0  0  0  0  0  0  0  0  # atno 10765 bound_to 10752
  141.1360  133.8211  157.0779 H   0  0  0  0  0  0  0  0  0  0  0  0  # atno 11005 bound_to 11000
  144.7447  139.7353  143.7297 LP  0  0  0  0  0  0  0  0  0  0  0  0  # atno 17320 bound_to 7965
  146.1798  139.4985  142.9874 LP  0  0  0  0  0  0  0  0  0  0  0  0  # atno 17321 bound_to 7965
  139.9232  143.6580  152.3092 LP  0  0  0  0  0  0  0  0  0  0  0  0  # atno 17342 bound_to 10162
  139.7005  144.7635  151.1282 LP  0  0  0  0  0  0  0  0  0  0  0  0  # atno 17343 bound_to 10162
  155.9691  130.4552  150.5878 LP  0  0  0  0  0  0  0  0  0  0  0  0  # atno 17370 bound_to 10713
  157.3674  131.0760  151.1586 LP  0  0  0  0  0  0  0  0  0  0  0  0  # atno 17371 bound_to 10713
  140.0470  134.9825  157.1067 LP  0  0  0  0  0  0  0  0  0  0  0  0  # atno 17394 bound_to 11000
  140.4048  134.2044  155.7163 LP  0  0  0  0  0  0  0  0  0  0  0  0  # atno 17395 bound_to 11000

$$$$
