AV-unprocessed.smi:2151|AV-procd|sdf|8761|dock8
  -GOLD-   2272011543D 1   1.00000     0.00000
 Structure written by MMmdl.
 39 40  0  0  0  0  0  0  0  0  1 V2000
  146.5573  140.6873  154.5408 C   0  0  0  0  0  0  0  0  0  0  0  0
  146.8617  141.7096  155.6469 C   0  0  1  0  0  0  0  0  0  0  0  0
  148.2871  142.0296  155.6048 N   0  0  0  0  0  0  0  0  0  0  0  0
  149.2814  141.2219  156.0051 C   0  0  0  0  0  0  0  0  0  0  0  0
  149.0934  140.0893  156.4517 O   0  0  0  0  0  0  0  0  0  0  0  0
  150.6981  141.8036  155.8947 C   0  0  0  0  0  0  0  0  0  0  0  0
  151.3865  141.9187  157.1914 N   0  0  0  0  0  0  0  0  0  0  0  0
  151.1568  143.0938  157.9337 C   0  0  0  0  0  0  0  0  0  0  0  0
  151.7229  143.3257  159.1335 C   0  0  0  0  0  0  0  0  0  0  0  0
  151.4017  144.5740  159.9408 C   0  0  0  0  0  0  0  0  0  0  0  0
  151.9631  144.5229  161.1491 F   0  0  0  0  0  0  0  0  0  0  0  0
  151.8675  145.6519  159.3115 F   0  0  0  0  0  0  0  0  0  0  0  0
  150.0854  144.7214  160.0965 F   0  0  0  0  0  0  0  0  0  0  0  0
  152.5780  142.2779  159.6561 C   0  0  0  0  0  0  0  0  0  0  0  0
  152.7961  141.1415  158.9658 C   0  0  0  0  0  0  0  0  0  0  0  0
  152.1827  140.9099  157.6560 C   0  0  0  0  0  0  0  0  0  0  0  0
  152.3719  139.8740  157.0179 O   0  0  0  0  0  0  0  0  0  0  0  0
  146.0281  143.0003  155.4990 C   0  0  1  0  0  0  0  0  0  0  0  0
  145.8445  143.4790  154.0584 C   0  0  0  0  0  0  0  0  0  0  0  0
  144.6051  144.3361  154.1762 C   0  0  0  0  0  0  0  0  0  0  0  0
  143.7703  143.5506  155.1837 C   0  0  0  0  0  0  0  0  0  0  0  0
  144.6956  142.8026  155.9683 O   0  0  0  0  0  0  0  0  0  0  0  0
  145.5164  140.3649  154.5723 H   0  0  0  0  0  0  0  0  0  0  0  0
  147.1751  139.7953  154.6515 H   0  0  0  0  0  0  0  0  0  0  0  0
  146.7475  141.1036  153.5510 H   0  0  0  0  0  0  0  0  0  0  0  0
  146.6191  141.2419  156.6029 H   0  0  0  0  0  0  0  0  0  0  0  0
  148.5349  142.9444  155.2569 H   0  0  0  0  0  0  0  0  0  0  0  0
  151.2810  141.1919  155.2034 H   0  0  0  0  0  0  0  0  0  0  0  0
  150.6300  142.7832  155.4186 H   0  0  0  0  0  0  0  0  0  0  0  0
  150.4753  143.7913  157.4683 H   0  0  0  0  0  0  0  0  0  0  0  0
  153.0543  142.4065  160.6169 H   0  0  0  0  0  0  0  0  0  0  0  0
  153.4398  140.3825  159.3858 H   0  0  0  0  0  0  0  0  0  0  0  0
  146.4709  143.8050  156.0887 H   0  0  0  0  0  0  0  0  0  0  0  0
  146.7057  144.0285  153.6774 H   0  0  0  0  0  0  0  0  0  0  0  0
  145.6532  142.6354  153.3936 H   0  0  0  0  0  0  0  0  0  0  0  0
  144.8656  145.3132  154.5856 H   0  0  0  0  0  0  0  0  0  0  0  0
  144.0944  144.4889  153.2251 H   0  0  0  0  0  0  0  0  0  0  0  0
  143.1589  144.2025  155.8078 H   0  0  0  0  0  0  0  0  0  0  0  0
  143.1072  142.8518  154.6731 H   0  0  0  0  0  0  0  0  0  0  0  0
  1  2  1  0  0  0  0
  1 23  1  0  0  0  0
  1 24  1  0  0  0  0
  1 25  1  0  0  0  0
  2  3  1  0  0  0  0
  2 18  1  0  0  0  0
  2 26  1  0  0  0  0
  3  4  1  0  0  0  0
  3 27  1  0  0  0  0
  4  5  2  0  0  0  0
  4  6  1  0  0  0  0
  6  7  1  0  0  0  0
  6 28  1  0  0  0  0
  6 29  1  0  0  0  0
  7 16  1  0  0  0  0
  7  8  1  0  0  0  0
  8  9  2  0  0  0  0
  8 30  1  0  0  0  0
  9 10  1  0  0  0  0
  9 14  1  0  0  0  0
 10 11  1  0  0  0  0
 10 12  1  0  0  0  0
 10 13  1  0  0  0  0
 14 15  2  0  0  0  0
 14 31  1  0  0  0  0
 15 16  1  0  0  0  0
 15 32  1  0  0  0  0
 16 17  2  0  0  0  0
 18 22  1  0  0  0  0
 18 19  1  0  0  0  0
 18 33  1  0  0  0  0
 19 20  1  0  0  0  0
 19 34  1  0  0  0  0
 19 35  1  0  0  0  0
 20 21  1  0  0  0  0
 20 36  1  0  0  0  0
 20 37  1  0  0  0  0
 21 22  1  0  0  0  0
 21 38  1  0  0  0  0
 21 39  1  0  0  0  0
M  END
> <s_m_source_file>
AV-unprocessed.smi

> <i_m_source_file_index>
2151

> <i_lp_mmshare_version>
43012

> <i_f3d_flags>
0

> <s_epik_input>
TzFbQ0gyXVtDSDJdW0NIMl1bQ0BIXTFbQ0BIXShbQ0gzXSlbTkhdQyg9TylbQ0gyXW4yW2NIXWMoQyhGKShGKUYpW2NIXVtjSF1jMj1P

> <s_epik_cmdline>
J2VwaWtfcHl0aG9uJywgJy1waCcsICc3LjAnLCAnLXRuJywgJzgnLCAnLW1hJywgJzIwMCcsICctbWV0YWxfYmluZGluZycsICctaW1hZScsICc8aW5maWxlLm1hZT4nLCAnLW9tYWUnLCAnPG91dGZpbGUubWFlPic=

> <r_lp_tautomer_probability>
1

> <r_epik_Ionization_Penalty>
4.20109e-08

> <r_epik_Ionization_Penalty_Charging>
1.89977e-08

> <r_epik_Ionization_Penalty_Neutral>
2.30132e-08

> <r_epik_State_Penalty>
-0

> <r_epik_Charging_Adjusted_Penalty>
1.89977e-08

> <i_epik_Tot_Q>
0

> <i_epik_Tot_abs_Q>
0

> <r_epik_Metal_State_Penalty>
-0

> <b_epik_Metal_Only>
0

> <s_lp_Force_Field>
OPLS_2005

> <r_lp_Energy>
30.384

> <b_lp_Chiralities_Consistent>
1

> <s_lp_Variant>
AV-unprocessed.smi:2151-4

> <Gold.Version>
5.8.1

> <Gold.Id.Protein>
6NUR|6NUR_protein|mol2

> <Gold.PLP.Fitness>
51.0754

> <Gold.PLP.PLP>
-44.4278

> <Gold.PLP.part.hbond>
-2.0000

> <Gold.PLP.part.metal>
0.0000

> <Gold.PLP.part.buried>
-6.4079

> <Gold.PLP.part.nonpolar>
-35.8584

> <Gold.PLP.part.repulsive>
0.2054

> <Gold.PLP.ligand.clash>
0.0000

> <Gold.PLP.ligand.torsion>
1.0074

> <Gold.PLP.Chemscore.Hbond>
1.9760

> <Gold.PLP.Chemscore.CHOScore>
0.8912

> <Gold.PLP.Chemscore.Metal>
0.0000

> <Gold.Chemscore.Hbonds>
donor molecule, donor type, donor heavy atom, donor atom, acceptor molecule, acceptor atom, score
      L1  H     3    27       P1  8028  0.96
      P1  H  7997  8008       L1    17  0.96
      L1  C     8    30       P1  8028  0.93

> <Gold.PLP.Chemscore.Internal.Correction>
0.0610

> <Gold.Rescore>
     Score         DG    S(hbond)    S(metal)    S(lipo)     H(rot)  DE(clash)    DE(int)     intcor
     15.68     -17.17       1.89        0.00      85.67       1.82       0.61       0.87       ----

> <Gold.Chemscore.Fitness>
15.6820

> <Gold.Chemscore.DG>
-17.1657

> <Gold.Chemscore.ZeroCoef>
-5.4800

> <Gold.Chemscore.Hbond>
1.8948

> <Gold.Chemscore.Metal>
0.0000

> <Gold.Chemscore.Lipo>
85.6701

> <Gold.Chemscore.Internal_Hbond>
0.0000

> <Gold.Chemscore.DEClash>
0.6142

> <Gold.Chemscore.DEInternal>
0.8695

> <Gold.Chemscore.Rot>
1.8228

> <Gold.Chemscore.Internal.Correction>
   9.000000E+99

> <Gold.Chemscore.Hbonds>
donor molecule, donor type, donor heavy atom, donor atom, acceptor molecule, acceptor atom, score
      L1  H     3    27       P1  8028  0.92
      P1  H  7997  8008       L1    17  0.23

> <Gold.Chemscore.Hbond.Weighted>
-6.3288

> <Gold.Chemscore.Metal.Weighted>
-0.0000

> <Gold.Chemscore.Lipo.Weighted>
-10.0234

> <Gold.Chemscore.Internal_Hbond.Weighted>
0.0000

> <Gold.Chemscore.DEClash.Weighted>
0.6142

> <Gold.Chemscore.DEInternal.Weighted>
0.8695

> <Gold.Chemscore.Rot.Weighted>
4.6665

> <Gold.Chemscore.Internal.Correction.Weighted>
   9.000000E+99

> <Gold.Protein.RotatedTorsions>
[ 6907 6896 6895 6894 ] final  -85.16 input  -60.11 | X-H torsion
[ 7974 7965 7964 7962 ] final -123.84 input  175.53 | X-H torsion
[ 8008 7997 7996 7995 ] final  -56.48 input   59.86 | X-H torsion
[ 10167 10162 10161 10158 ] final   -8.95 input  -65.29 | X-H torsion
[ 10718 10713 10712 10709 ] final  154.89 input   66.30 | X-H torsion
[ 10763 10752 10751 10750 ] final   77.25 input  -60.55 | X-H torsion
[ 11005 11000 10999 10996 ] final  147.76 input  -57.11 | X-H torsion

> <Gold.Protein.ActiveResidues>
 VAL166  LYS551  ARG553  GLY616  TRP617  ASP618  TYR619  PRO620  LYS621  CYS622 
 ASP623  PHE694  ASN695  SER759  ASP760  ASP761  ALA762  ILE779  LEU786  VAL792 
 PHE793  MET794  SER795  GLU796  ALA797  LYS798  CYS799  TRP800  GLU811  SER814 

> <Gold.Protein.RotatedAtoms>
  150.6872  134.3247  159.4801 H   0  0  0  0  0  0  0  0  0  0  0  0  # atno 6907 bound_to 6896
  152.1118  134.9266  160.0575 H   0  0  0  0  0  0  0  0  0  0  0  0  # atno 6908 bound_to 6896
  152.0505  133.3982  159.4412 H   0  0  0  0  0  0  0  0  0  0  0  0  # atno 6909 bound_to 6896
  145.0145  140.7934  143.4418 H   0  0  0  0  0  0  0  0  0  0  0  0  # atno 7974 bound_to 7965
  154.4232  140.1129  156.5644 H   0  0  0  0  0  0  0  0  0  0  0  0  # atno 8008 bound_to 7997
  155.6277  140.3495  155.4653 H   0  0  0  0  0  0  0  0  0  0  0  0  # atno 8009 bound_to 7997
  155.9973  140.1192  157.0571 H   0  0  0  0  0  0  0  0  0  0  0  0  # atno 8010 bound_to 7997
  140.7073  143.5912  150.8892 H   0  0  0  0  0  0  0  0  0  0  0  0  # atno 10167 bound_to 10162
  157.2256  131.0728  151.1885 H   0  0  0  0  0  0  0  0  0  0  0  0  # atno 10718 bound_to 10713
  153.0785  135.4921  154.8453 H   0  0  0  0  0  0  0  0  0  0  0  0  # atno 10763 bound_to 10752
  154.7119  135.3021  154.9186 H   0  0  0  0  0  0  0  0  0  0  0  0  # atno 10764 bound_to 10752
  153.9877  135.6782  153.4805 H   0  0  0  0  0  0  0  0  0  0  0  0  # atno 10765 bound_to 10752
  140.0902  134.9045  157.1639 H   0  0  0  0  0  0  0  0  0  0  0  0  # atno 11005 bound_to 11000
  145.1979  139.2267  143.5208 LP  0  0  0  0  0  0  0  0  0  0  0  0  # atno 17320 bound_to 7965
  146.3475  140.1790  142.8589 LP  0  0  0  0  0  0  0  0  0  0  0  0  # atno 17321 bound_to 7965
  139.9637  143.6134  152.2994 LP  0  0  0  0  0  0  0  0  0  0  0  0  # atno 17342 bound_to 10162
  139.6696  144.7661  151.1808 LP  0  0  0  0  0  0  0  0  0  0  0  0  # atno 17343 bound_to 10162
  157.3531  130.7092  149.6453 LP  0  0  0  0  0  0  0  0  0  0  0  0  # atno 17370 bound_to 10713
  155.9679  130.4247  150.4619 LP  0  0  0  0  0  0  0  0  0  0  0  0  # atno 17371 bound_to 10713
  140.3362  134.2754  155.7219 LP  0  0  0  0  0  0  0  0  0  0  0  0  # atno 17394 bound_to 11000
  141.2075  133.7802  157.0112 LP  0  0  0  0  0  0  0  0  0  0  0  0  # atno 17395 bound_to 11000

$$$$
