#       Name:                AV-unprocessed.smi:2020
#       Creating user name   scv26
#       Creation time:       Fri Mar 27 10:42:18 2020


#       File generated by GOLD software.
#

@<TRIPOS>MOLECULE
AV-unprocessed.smi:2020
    45    46     1
SMALL
NO_CHARGES


@<TRIPOS>ATOM
      1 ****        -3.2063   6.5241  -0.6601 C.3            1 S1                 0.0000
      2 ****        -2.9256   5.5235   0.4077 C.2            1 S1                 0.0000
      3 ****        -2.3444   4.3441   0.1753 N.2            1 S1                 0.0000
      4 ****        -2.1829   3.5843   1.3382 C.2            1 S1                 0.0000
      5 ****        -1.5424   2.2315   1.2651 C.3            1 S1                 0.0000
      6 ****        -0.0121   2.3196   1.1388 C.3            1 S1                 0.0000
      7 ****         0.6044   0.9982   1.1164 N.am           1 S1                 0.0000
      8 ****         0.6676   0.1982   0.0429 C.2            1 S1                 0.0000
      9 ****         0.2076   0.4882  -1.0618 O.2            1 S1                 0.0000
     10 ****         1.2882  -0.9572   0.3199 N.am           1 S1                 0.0000
     11 ****         1.5155  -2.0404  -0.6320 C.3            1 S1                 0.0000
     12 ****         0.2549  -2.9180  -0.7703 C.3            1 S1                 0.0000
     13 ****         0.4945  -4.1024  -1.7227 C.3            1 S1                 0.0000
     14 ****         1.7161  -4.9452  -1.3106 C.3            1 S1                 0.0000
     15 ****         1.4367  -5.6533  -0.1190 O.3            1 S1                 0.0000
     16 ****         2.9704  -4.0711  -1.1224 C.3            1 S1                 0.0000
     17 ****         2.7187  -2.8852  -0.1746 C.3            1 S1                 0.0000
     18 ****        -2.6554   4.2117   2.4639 C.2            1 S1                 0.0000
     19 ****        -3.3183   5.7822   2.1033 S.3            1 S1                 0.0000
     20 ****        -3.5088   6.0220  -1.5796 H              1 S1                 0.0000
     21 ****        -2.3125   7.1153  -0.8594 H              1 S1                 0.0000
     22 ****        -4.0081   7.1940  -0.3489 H              1 S1                 0.0000
     23 ****        -1.7995   1.6517   2.1525 H              1 S1                 0.0000
     24 ****        -1.9511   1.6777   0.4190 H              1 S1                 0.0000
     25 ****         0.2682   2.8773   0.2434 H              1 S1                 0.0000
     26 ****         0.3984   2.8681   1.9869 H              1 S1                 0.0000
     27 ****         1.0116   0.6706   1.9802 H              1 S1                 0.0000
     28 ****         1.6300  -1.0994   1.2590 H              1 S1                 0.0000
     29 ****         1.7551  -1.6094  -1.6060 H              1 S1                 0.0000
     30 ****        -0.0440  -3.2924   0.2098 H              1 S1                 0.0000
     31 ****        -0.5811  -2.3219  -1.1379 H              1 S1                 0.0000
     32 ****        -0.3973  -4.7278  -1.7758 H              1 S1                 0.0000
     33 ****         0.6535  -3.7161  -2.7303 H              1 S1                 0.0000
     34 ****         1.9134  -5.6888  -2.0833 H              1 S1                 0.0000
     35 ****         0.6941  -6.2175  -0.2716 H              1 S1                 0.0000
     36 ****         3.8007  -4.6754  -0.7550 H              1 S1                 0.0000
     37 ****         3.2828  -3.6852  -2.0937 H              1 S1                 0.0000
     38 ****         3.6134  -2.2634  -0.1240 H              1 S1                 0.0000
     39 ****         2.5468  -3.2584   0.8361 H              1 S1                 0.0000
     40 ****        -2.6522   3.8472   3.4805 H              1 S1                 0.0000
     41 ****        -2.0560   4.0374  -0.7317 LP             1 S1                 0.0000
     42 ****        -0.2474   1.3681  -1.1986 LP             1 S1                 0.0000
     43 ****         0.2890  -0.1562  -1.8222 LP             1 S1                 0.0000
     44 ****         1.2245  -5.0079   0.6148 LP             1 S1                 0.0000
     45 ****         2.2305  -6.2035   0.1402 LP             1 S1                 0.0000
@<TRIPOS>BOND
    1    1    2 1     
    2    1   20 1     
    3    1   21 1     
    4    1   22 1     
    5    2   19 1     
    6    2    3 2     
    7    3    4 1     
    8    4    5 1     
    9    4   18 2     
   10    5    6 1     
   11    5   23 1     
   12    5   24 1     
   13    6    7 1     
   14    6   25 1     
   15    6   26 1     
   16    7    8 am    
   17    7   27 1     
   18    8    9 2     
   19    8   10 am    
   20   10   11 1     
   21   10   28 1     
   22   11   17 1     
   23   11   12 1     
   24   11   29 1     
   25   12   13 1     
   26   12   30 1     
   27   12   31 1     
   28   13   14 1     
   29   13   32 1     
   30   13   33 1     
   31   14   15 1     
   32   14   16 1     
   33   14   34 1     
   34   15   35 1     
   35   16   17 1     
   36   16   36 1     
   37   16   37 1     
   38   17   38 1     
   39   17   39 1     
   40   18   19 1     
   41   18   40 1     
   42    3   41 1     
   43    9   42 1     
   44    9   43 1     
   45   15   44 1     
   46   15   45 1     
@<TRIPOS>SUBSTRUCTURE
      1 S1             1
@<TRIPOS>SET
LONE_PAIRS      STATIC     ATOMS    <user>   **** ""
5 41 42 43 44 45
DONOR_HYDROGENS      STATIC     ATOMS    <user>   **** ""
3 27 28 35
ATOM$BLUE        STATIC     ATOMS    COLORGROUP SYSTEM
5 41 42 43 44 45
ATOM$RED        STATIC     ATOMS    COLORGROUP SYSTEM
3 27 28 35
