AV-unprocessed.smi:1906|AV-procd|sdf|7727|dock4
  -GOLD-   22720 9473D 1   1.00000     0.00000
 Structure written by MMmdl.
 35 37  0  0  0  0  0  0  0  0  1 V2000
  152.3400  139.2489  156.0615 C   0  0  0  0  0  0  0  0  0  0  0  0
  151.0359  139.6049  155.4210 C   0  0  0  0  0  0  0  0  0  0  0  0
  150.3393  138.7300  154.6948 N   0  0  0  0  0  0  0  0  0  0  0  0
  149.2325  139.4645  154.3147 C   0  0  0  0  0  0  0  0  0  0  0  0
  148.1136  139.1031  153.5303 C   0  0  0  0  0  0  0  0  0  0  0  0
  147.0899  140.0387  153.2729 C   0  0  0  0  0  0  0  0  0  0  0  0
  147.1697  141.3462  153.7945 C   0  0  0  0  0  0  0  0  0  0  0  0
  148.2755  141.7271  154.5788 C   0  0  0  0  0  0  0  0  0  0  0  0
  149.2942  140.7892  154.8325 C   0  0  0  0  0  0  0  0  0  0  0  0
  150.4867  140.8385  155.5466 N   0  0  0  0  0  0  0  0  0  0  0  0
  151.0024  141.9914  156.2715 C   0  0  0  0  0  0  0  0  0  0  0  0
  151.4973  141.6290  157.6857 C   0  0  2  0  0  0  0  0  0  0  0  0
  150.6390  140.6665  158.2663 O   0  0  0  0  0  0  0  0  0  0  0  0
  151.6404  142.8688  158.5537 C   0  0  0  0  0  0  0  0  0  0  0  0
  151.4281  144.1556  158.0114 C   0  0  0  0  0  0  0  0  0  0  0  0
  151.5761  145.2996  158.8198 C   0  0  0  0  0  0  0  0  0  0  0  0
  151.9376  145.1639  160.1739 C   0  0  0  0  0  0  0  0  0  0  0  0
  152.1523  143.8834  160.7191 C   0  0  0  0  0  0  0  0  0  0  0  0
  152.5021  143.7513  162.0204 F   0  0  0  0  0  0  0  0  0  0  0  0
  152.0055  142.7395  159.9109 C   0  0  0  0  0  0  0  0  0  0  0  0
  152.6426  138.2403  155.7782 H   0  0  0  0  0  0  0  0  0  0  0  0
  152.2489  139.2878  157.1471 H   0  0  0  0  0  0  0  0  0  0  0  0
  153.1210  139.9406  155.7462 H   0  0  0  0  0  0  0  0  0  0  0  0
  148.0424  138.1045  153.1261 H   0  0  0  0  0  0  0  0  0  0  0  0
  146.2390  139.7516  152.6726 H   0  0  0  0  0  0  0  0  0  0  0  0
  146.3817  142.0569  153.5925 H   0  0  0  0  0  0  0  0  0  0  0  0
  148.3402  142.7275  154.9802 H   0  0  0  0  0  0  0  0  0  0  0  0
  151.8256  142.4071  155.6890 H   0  0  0  0  0  0  0  0  0  0  0  0
  150.2409  142.7701  156.3158 H   0  0  0  0  0  0  0  0  0  0  0  0
  152.4777  141.1578  157.6042 H   0  0  0  0  0  0  0  0  0  0  0  0
  149.7497  140.8718  158.0211 H   0  0  0  0  0  0  0  0  0  0  0  0
  151.1548  144.2688  156.9722 H   0  0  0  0  0  0  0  0  0  0  0  0
  151.4140  146.2817  158.4003 H   0  0  0  0  0  0  0  0  0  0  0  0
  152.0519  146.0414  160.7933 H   0  0  0  0  0  0  0  0  0  0  0  0
  152.1766  141.7619  160.3375 H   0  0  0  0  0  0  0  0  0  0  0  0
  1  2  1  0  0  0  0
  1 21  1  0  0  0  0
  1 22  1  0  0  0  0
  1 23  1  0  0  0  0
  2 10  1  0  0  0  0
  2  3  2  0  0  0  0
  3  4  1  0  0  0  0
  4  9  2  0  0  0  0
  4  5  1  0  0  0  0
  5  6  2  0  0  0  0
  5 24  1  0  0  0  0
  6  7  1  0  0  0  0
  6 25  1  0  0  0  0
  7  8  2  0  0  0  0
  7 26  1  0  0  0  0
  8  9  1  0  0  0  0
  8 27  1  0  0  0  0
  9 10  1  0  0  0  0
 10 11  1  0  0  0  0
 11 12  1  0  0  0  0
 11 28  1  0  0  0  0
 11 29  1  0  0  0  0
 12 13  1  0  0  0  0
 12 14  1  0  0  0  0
 12 30  1  0  0  0  0
 13 31  1  0  0  0  0
 14 20  1  0  0  0  0
 14 15  2  0  0  0  0
 15 16  1  0  0  0  0
 15 32  1  0  0  0  0
 16 17  2  0  0  0  0
 16 33  1  0  0  0  0
 17 18  1  0  0  0  0
 17 34  1  0  0  0  0
 18 19  1  0  0  0  0
 18 20  2  0  0  0  0
 20 35  1  0  0  0  0
M  END
> <s_m_source_file>
AV-unprocessed.smi

> <i_m_source_file_index>
1906

> <i_lp_mmshare_version>
43012

> <i_f3d_flags>
0

> <s_epik_input>
W2NIXTFbY0hdW2NIXVtjSF1jKGMxMiluKGMobjIpW0NIM10pW0NIMl1bQ0BIXShbT0hdKWMzW2NIXVtjSF1bY0hdYyhGKVtjSF0z

> <s_epik_cmdline>
J2VwaWtfcHl0aG9uJywgJy1waCcsICc3LjAnLCAnLXRuJywgJzgnLCAnLW1hJywgJzIwMCcsICctbWV0YWxfYmluZGluZycsICctaW1hZScsICc8aW5maWxlLm1hZT4nLCAnLW9tYWUnLCAnPG91dGZpbGUubWFlPic=

> <r_epik_Ionization_Penalty>
0.129664

> <r_epik_Ionization_Penalty_Charging>
0

> <r_epik_Ionization_Penalty_Neutral>
0.129664

> <r_epik_State_Penalty>
0.119073

> <r_epik_Charging_Adjusted_Penalty>
0.119073

> <i_epik_Tot_Q>
0

> <i_epik_Tot_abs_Q>
0

> <r_epik_Metal_State_Penalty>
0.000131867

> <b_epik_Metal_Only>
0

> <s_lp_Force_Field>
OPLS_2005

> <r_lp_Energy>
10.1528

> <b_lp_Chiralities_Consistent>
1

> <s_lp_Variant>
AV-unprocessed.smi:1906-1

> <Gold.Version>
5.8.1

> <Gold.Id.Protein>
6NUR|6NUR_protein|mol2

> <Gold.PLP.Fitness>
50.4121

> <Gold.PLP.PLP>
-51.2058

> <Gold.PLP.part.hbond>
0.0000

> <Gold.PLP.part.metal>
0.0000

> <Gold.PLP.part.buried>
-2.1809

> <Gold.PLP.part.nonpolar>
-47.8482

> <Gold.PLP.part.repulsive>
0.1490

> <Gold.PLP.ligand.clash>
0.0000

> <Gold.PLP.ligand.torsion>
0.4107

> <Gold.PLP.Chemscore.Hbond>
0.0000

> <Gold.PLP.Chemscore.CHOScore>
0.0000

> <Gold.PLP.Chemscore.Metal>
0.0000

> <Gold.PLP.Chemscore.Internal.Correction>
0.0276

> <Gold.Rescore>
     Score         DG    S(hbond)    S(metal)    S(lipo)     H(rot)  DE(clash)    DE(int)     intcor
     15.73     -16.08       0.00        0.00     129.82       1.79       0.09       0.26       ----

> <Gold.Chemscore.Fitness>
15.7298

> <Gold.Chemscore.DG>
-16.0796

> <Gold.Chemscore.ZeroCoef>
-5.4800

> <Gold.Chemscore.Hbond>
0.0000

> <Gold.Chemscore.Metal>
0.0000

> <Gold.Chemscore.Lipo>
129.8177

> <Gold.Chemscore.Internal_Hbond>
0.0000

> <Gold.Chemscore.DEClash>
0.0905

> <Gold.Chemscore.DEInternal>
0.2593

> <Gold.Chemscore.Rot>
1.7926

> <Gold.Chemscore.Internal.Correction>
   9.000000E+99

> <Gold.Chemscore.Hbond.Weighted>
-0.0000

> <Gold.Chemscore.Metal.Weighted>
-0.0000

> <Gold.Chemscore.Lipo.Weighted>
-15.1887

> <Gold.Chemscore.Internal_Hbond.Weighted>
0.0000

> <Gold.Chemscore.DEClash.Weighted>
0.0905

> <Gold.Chemscore.DEInternal.Weighted>
0.2593

> <Gold.Chemscore.Rot.Weighted>
4.5890

> <Gold.Chemscore.Internal.Correction.Weighted>
   9.000000E+99

> <Gold.Protein.RotatedTorsions>
[ 6907 6896 6895 6894 ] final -169.32 input  -60.11 | X-H torsion
[ 7974 7965 7964 7962 ] final  -26.55 input  175.53 | X-H torsion
[ 8008 7997 7996 7995 ] final   55.78 input   59.86 | X-H torsion
[ 10167 10162 10161 10158 ] final  164.41 input  -65.29 | X-H torsion
[ 10718 10713 10712 10709 ] final -134.51 input   66.30 | X-H torsion
[ 10763 10752 10751 10750 ] final   84.37 input  -60.55 | X-H torsion
[ 11005 11000 10999 10996 ] final  120.04 input  -57.11 | X-H torsion

> <Gold.Protein.ActiveResidues>
 VAL166  LYS551  ARG553  GLY616  TRP617  ASP618  TYR619  PRO620  LYS621  CYS622 
 ASP623  PHE694  ASN695  SER759  ASP760  ASP761  ALA762  ILE779  LEU786  VAL792 
 PHE793  MET794  SER795  GLU796  ALA797  LYS798  CYS799  TRP800  GLU811  SER814 

> <Gold.Protein.RotatedAtoms>
  151.4897  133.3527  159.2851 H   0  0  0  0  0  0  0  0  0  0  0  0  # atno 6907 bound_to 6896
  150.8843  134.8240  159.7258 H   0  0  0  0  0  0  0  0  0  0  0  0  # atno 6908 bound_to 6896
  152.4783  134.4798  159.9714 H   0  0  0  0  0  0  0  0  0  0  0  0  # atno 6909 bound_to 6896
  146.1418  140.5034  142.8649 H   0  0  0  0  0  0  0  0  0  0  0  0  # atno 7974 bound_to 7965
  155.5067  140.3476  155.4381 H   0  0  0  0  0  0  0  0  0  0  0  0  # atno 8008 bound_to 7997
  156.0877  140.1402  156.9659 H   0  0  0  0  0  0  0  0  0  0  0  0  # atno 8009 bound_to 7997
  154.4616  140.0932  156.6886 H   0  0  0  0  0  0  0  0  0  0  0  0  # atno 8010 bound_to 7997
  139.4888  144.4238  151.9154 H   0  0  0  0  0  0  0  0  0  0  0  0  # atno 10167 bound_to 10162
  156.2562  130.7182  151.1100 H   0  0  0  0  0  0  0  0  0  0  0  0  # atno 10718 bound_to 10713
  153.1375  135.4657  154.9445 H   0  0  0  0  0  0  0  0  0  0  0  0  # atno 10763 bound_to 10752
  154.7719  135.3161  154.8175 H   0  0  0  0  0  0  0  0  0  0  0  0  # atno 10764 bound_to 10752
  153.8704  135.6904  153.4829 H   0  0  0  0  0  0  0  0  0  0  0  0  # atno 10765 bound_to 10752
  139.9170  134.9632  156.7747 H   0  0  0  0  0  0  0  0  0  0  0  0  # atno 11005 bound_to 11000
  144.7801  140.5822  143.6611 LP  0  0  0  0  0  0  0  0  0  0  0  0  # atno 17320 bound_to 7965
  145.5029  139.1482  143.3647 LP  0  0  0  0  0  0  0  0  0  0  0  0  # atno 17321 bound_to 7965
  140.3683  144.2887  150.5923 LP  0  0  0  0  0  0  0  0  0  0  0  0  # atno 17342 bound_to 10162
  140.5341  143.2237  151.8191 LP  0  0  0  0  0  0  0  0  0  0  0  0  # atno 17343 bound_to 10162
  157.7233  131.0667  150.6041 LP  0  0  0  0  0  0  0  0  0  0  0  0  # atno 17370 bound_to 10713
  156.6125  130.4384  149.5853 LP  0  0  0  0  0  0  0  0  0  0  0  0  # atno 17371 bound_to 10713
  140.6593  133.9660  155.7796 LP  0  0  0  0  0  0  0  0  0  0  0  0  # atno 17394 bound_to 11000
  141.0655  134.0284  157.3600 LP  0  0  0  0  0  0  0  0  0  0  0  0  # atno 17395 bound_to 11000

$$$$
