AV-unprocessed.smi:2749|AV-procd|sdf|10587|dock9
  -GOLD-   2272015 33D 1   1.00000     0.00000
 Structure written by MMmdl.
 32 34  0  0  0  0  0  0  0  0  1 V2000
  146.2152  137.8959  155.2737 O   0  0  0  0  0  0  0  0  0  0  0  0
  146.9466  137.3712  154.4358 C   0  0  0  0  0  0  0  0  0  0  0  0
  148.1410  137.9119  154.1134 N   0  0  0  0  0  0  0  0  0  0  0  0
  148.7952  139.0889  154.5824 C   0  0  0  0  0  0  0  0  0  0  0  0
  150.2045  138.9935  154.6429 C   0  0  0  0  0  0  0  0  0  0  0  0
  150.9575  140.0904  155.1054 C   0  0  0  0  0  0  0  0  0  0  0  0
  150.2790  141.2560  155.5023 C   0  0  0  0  0  0  0  0  0  0  0  0
  150.9593  142.3359  155.9544 F   0  0  0  0  0  0  0  0  0  0  0  0
  148.8749  141.2704  155.4185 C   0  0  0  0  0  0  0  0  0  0  0  0
  148.1531  140.2197  154.9739 N   0  0  0  0  0  0  0  0  0  0  0  0
  146.6219  136.2354  153.7986 N   0  0  0  0  0  0  0  0  0  0  0  0
  145.3702  135.5037  153.9624 C   0  0  2  0  0  0  0  0  0  0  0  0
  145.6092  134.0058  154.1727 C   0  0  0  0  0  0  0  0  0  0  0  0
  144.8299  133.3906  153.0026 C   0  0  2  0  0  0  0  0  0  0  0  0
  145.5327  133.6240  151.6576 C   0  0  0  0  0  0  0  0  0  0  0  0
  145.2588  135.1071  151.4148 C   0  0  0  0  0  0  0  0  0  0  0  0
  144.4946  135.4971  152.6918 C   0  0  1  0  0  0  0  0  0  0  0  0
  143.7533  134.3067  152.9012 O   0  0  0  0  0  0  0  0  0  0  0  0
  148.6890  137.3593  153.4703 H   0  0  0  0  0  0  0  0  0  0  0  0
  150.7097  138.0888  154.3364 H   0  0  0  0  0  0  0  0  0  0  0  0
  152.0349  140.0366  155.1549 H   0  0  0  0  0  0  0  0  0  0  0  0
  148.3157  142.1453  155.7152 H   0  0  0  0  0  0  0  0  0  0  0  0
  147.2797  135.8697  153.1246 H   0  0  0  0  0  0  0  0  0  0  0  0
  144.8050  135.9010  154.8075 H   0  0  0  0  0  0  0  0  0  0  0  0
  146.6623  133.7209  154.1598 H   0  0  0  0  0  0  0  0  0  0  0  0
  145.1858  133.6863  155.1256 H   0  0  0  0  0  0  0  0  0  0  0  0
  144.5270  132.3567  153.1695 H   0  0  0  0  0  0  0  0  0  0  0  0
  146.5976  133.3925  151.7024 H   0  0  0  0  0  0  0  0  0  0  0  0
  145.0826  133.0180  150.8708 H   0  0  0  0  0  0  0  0  0  0  0  0
  146.1659  135.6897  151.2526 H   0  0  0  0  0  0  0  0  0  0  0  0
  144.6217  135.2334  150.5388 H   0  0  0  0  0  0  0  0  0  0  0  0
  143.8785  136.3893  152.5784 H   0  0  0  0  0  0  0  0  0  0  0  0
  1  2  2  0  0  0  0
  2  3  1  0  0  0  0
  2 11  1  0  0  0  0
  3  4  1  0  0  0  0
  3 19  1  0  0  0  0
  4 10  1  0  0  0  0
  4  5  2  0  0  0  0
  5  6  1  0  0  0  0
  5 20  1  0  0  0  0
  6  7  2  0  0  0  0
  6 21  1  0  0  0  0
  7  8  1  0  0  0  0
  7  9  1  0  0  0  0
  9 10  2  0  0  0  0
  9 22  1  0  0  0  0
 11 12  1  0  0  0  0
 11 23  1  0  0  0  0
 12 17  1  0  0  0  0
 12 13  1  0  0  0  0
 12 24  1  0  0  0  0
 13 14  1  0  0  0  0
 13 25  1  0  0  0  0
 13 26  1  0  0  0  0
 14 18  1  0  0  0  0
 14 15  1  0  0  0  0
 14 27  1  0  0  0  0
 15 16  1  0  0  0  0
 15 28  1  0  0  0  0
 15 29  1  0  0  0  0
 16 17  1  0  0  0  0
 16 30  1  0  0  0  0
 16 31  1  0  0  0  0
 17 18  1  0  0  0  0
 17 32  1  0  0  0  0
M  END
> <s_m_source_file>
AV-unprocessed.smi

> <i_m_source_file_index>
2749

> <i_lp_mmshare_version>
43012

> <i_f3d_flags>
0

> <s_epik_input>
W0NIMl0xW0NIMl1bQ0BIXShPMilbQ0BASF0oW0NIMl1bQ0BASF0xMilbTkhdQyg9TylbTkhdYzNbY0hdW2NIXWMoRilbY0hdbjM=

> <s_epik_cmdline>
J2VwaWtfcHl0aG9uJywgJy1waCcsICc3LjAnLCAnLXRuJywgJzgnLCAnLW1hJywgJzIwMCcsICctbWV0YWxfYmluZGluZycsICctaW1hZScsICc8aW5maWxlLm1hZT4nLCAnLW9tYWUnLCAnPG91dGZpbGUubWFlPic=

> <r_lp_tautomer_probability>
1

> <r_epik_Ionization_Penalty>
3.37159e-05

> <r_epik_Ionization_Penalty_Charging>
0

> <r_epik_Ionization_Penalty_Neutral>
3.37159e-05

> <r_epik_State_Penalty>
-0

> <r_epik_Charging_Adjusted_Penalty>
0

> <i_epik_Tot_Q>
0

> <i_epik_Tot_abs_Q>
0

> <r_epik_Metal_State_Penalty>
-0

> <b_epik_Metal_Only>
0

> <s_lp_Force_Field>
OPLS_2005

> <r_lp_Energy>
40.3406

> <b_lp_Chiralities_Consistent>
1

> <s_lp_Variant>
AV-unprocessed.smi:2749-3

> <Gold.Version>
5.8.1

> <Gold.Id.Protein>
6NUR|6NUR_protein|mol2

> <Gold.PLP.Fitness>
34.5133

> <Gold.PLP.PLP>
-26.1124

> <Gold.PLP.part.hbond>
-2.0000

> <Gold.PLP.part.metal>
0.0000

> <Gold.PLP.part.buried>
-4.1242

> <Gold.PLP.part.nonpolar>
-19.8308

> <Gold.PLP.part.repulsive>
0.3372

> <Gold.PLP.ligand.clash>
0.0000

> <Gold.PLP.ligand.torsion>
0.3092

> <Gold.PLP.Chemscore.Hbond>
2.0000

> <Gold.PLP.Chemscore.CHOScore>
1.0000

> <Gold.PLP.Chemscore.Metal>
0.0000

> <Gold.Chemscore.Hbonds>
donor molecule, donor type, donor heavy atom, donor atom, acceptor molecule, acceptor atom, score
      L1  H     3    19       P1  7948  1.00
      L1  H    11    23       P1  7948  0.76
      L1  C     9    22       P1  8028  0.76

> <Gold.PLP.Chemscore.Internal.Correction>
0.0193

> <Gold.Rescore>
     Score         DG    S(hbond)    S(metal)    S(lipo)     H(rot)  DE(clash)    DE(int)     intcor
     14.55     -15.87       1.93        0.00      55.61       1.00       0.09       1.24       ----

> <Gold.Chemscore.Fitness>
14.5493

> <Gold.Chemscore.DG>
-15.8705

> <Gold.Chemscore.ZeroCoef>
-5.4800

> <Gold.Chemscore.Hbond>
1.9293

> <Gold.Chemscore.Metal>
0.0000

> <Gold.Chemscore.Lipo>
55.6112

> <Gold.Chemscore.Internal_Hbond>
0.0000

> <Gold.Chemscore.DEClash>
0.0856

> <Gold.Chemscore.DEInternal>
1.2356

> <Gold.Chemscore.Rot>
1.0000

> <Gold.Chemscore.Internal.Correction>
   9.000000E+99

> <Gold.Chemscore.Hbonds>
donor molecule, donor type, donor heavy atom, donor atom, acceptor molecule, acceptor atom, score
      L1  H     3    19       P1  7948  0.96
      L1  H    11    23       P1  7948  0.72

> <Gold.Chemscore.Hbond.Weighted>
-6.4440

> <Gold.Chemscore.Metal.Weighted>
-0.0000

> <Gold.Chemscore.Lipo.Weighted>
-6.5065

> <Gold.Chemscore.Internal_Hbond.Weighted>
0.0000

> <Gold.Chemscore.DEClash.Weighted>
0.0856

> <Gold.Chemscore.DEInternal.Weighted>
1.2356

> <Gold.Chemscore.Rot.Weighted>
2.5600

> <Gold.Chemscore.Internal.Correction.Weighted>
   9.000000E+99

> <Gold.Protein.RotatedTorsions>
[ 6907 6896 6895 6894 ] final   88.98 input  -60.11 | X-H torsion
[ 7974 7965 7964 7962 ] final -107.65 input  175.53 | X-H torsion
[ 8008 7997 7996 7995 ] final -171.94 input   59.86 | X-H torsion
[ 10167 10162 10161 10158 ] final -155.20 input  -65.29 | X-H torsion
[ 10718 10713 10712 10709 ] final  138.93 input   66.30 | X-H torsion
[ 10763 10752 10751 10750 ] final  -73.39 input  -60.55 | X-H torsion
[ 11005 11000 10999 10996 ] final  123.08 input  -57.11 | X-H torsion

> <Gold.Protein.ActiveResidues>
 VAL166  LYS551  ARG553  GLY616  TRP617  ASP618  TYR619  PRO620  LYS621  CYS622 
 ASP623  PHE694  ASN695  SER759  ASP760  ASP761  ALA762  ILE779  LEU786  VAL792 
 PHE793  MET794  SER795  GLU796  ALA797  LYS798  CYS799  TRP800  GLU811  SER814 

> <Gold.Protein.RotatedAtoms>
  152.5431  134.2037  159.8722 H   0  0  0  0  0  0  0  0  0  0  0  0  # atno 6907 bound_to 6896
  151.2024  133.4596  159.2604 H   0  0  0  0  0  0  0  0  0  0  0  0  # atno 6908 bound_to 6896
  151.0976  134.9966  159.8488 H   0  0  0  0  0  0  0  0  0  0  0  0  # atno 6909 bound_to 6896
  145.2026  140.9063  143.3360 H   0  0  0  0  0  0  0  0  0  0  0  0  # atno 7974 bound_to 7965
  155.9381  140.1103  157.1078 H   0  0  0  0  0  0  0  0  0  0  0  0  # atno 8008 bound_to 7997
  154.4084  140.1224  156.4957 H   0  0  0  0  0  0  0  0  0  0  0  0  # atno 8009 bound_to 7997
  155.6996  140.3472  155.4930 H   0  0  0  0  0  0  0  0  0  0  0  0  # atno 8010 bound_to 7997
  139.6951  143.9356  152.2403 H   0  0  0  0  0  0  0  0  0  0  0  0  # atno 10167 bound_to 10162
  157.4200  131.1037  151.0364 H   0  0  0  0  0  0  0  0  0  0  0  0  # atno 10718 bound_to 10713
  154.4588  135.5899  153.6241 H   0  0  0  0  0  0  0  0  0  0  0  0  # atno 10763 bound_to 10752
  152.9821  135.6039  154.3513 H   0  0  0  0  0  0  0  0  0  0  0  0  # atno 10764 bound_to 10752
  154.3382  135.2842  155.2415 H   0  0  0  0  0  0  0  0  0  0  0  0  # atno 10765 bound_to 10752
  139.9297  134.9641  156.8206 H   0  0  0  0  0  0  0  0  0  0  0  0  # atno 11005 bound_to 11000
  144.9933  139.3669  143.6204 LP  0  0  0  0  0  0  0  0  0  0  0  0  # atno 17320 bound_to 7965
  146.3414  139.9124  142.8778 LP  0  0  0  0  0  0  0  0  0  0  0  0  # atno 17321 bound_to 7965
  139.9183  144.6815  150.8489 LP  0  0  0  0  0  0  0  0  0  0  0  0  # atno 17342 bound_to 10162
  140.7694  143.3393  151.2241 LP  0  0  0  0  0  0  0  0  0  0  0  0  # atno 17343 bound_to 10162
  157.1298  130.6097  149.5526 LP  0  0  0  0  0  0  0  0  0  0  0  0  # atno 17370 bound_to 10713
  155.9877  130.4918  150.7138 LP  0  0  0  0  0  0  0  0  0  0  0  0  # atno 17371 bound_to 10713
  140.6237  133.9970  155.7630 LP  0  0  0  0  0  0  0  0  0  0  0  0  # atno 17394 bound_to 11000
  141.0877  133.9965  157.3287 LP  0  0  0  0  0  0  0  0  0  0  0  0  # atno 17395 bound_to 11000

$$$$
