AV-unprocessed.smi:3292|AV-procd|sdf|12622|dock6
  -GOLD-   2272018553D 1   1.00000     0.00000
 Structure written by MMmdl.
 39 40  0  0  0  0  0  0  0  0  2 V2000
  146.6383  132.8519  154.5995 C   0  0  0  0  0  0  0  0  0  0  0  0
  147.8081  132.6871  153.6156 C   0  0  1  0  0  0  0  0  0  0  0  0
  147.3474  132.4333  152.1634 C   0  0  0  0  0  0  0  0  0  0  0  0
  146.1176  133.1543  151.8225 N   0  0  0  0  0  0  0  0  0  0  0  0
  145.9508  134.5130  151.7431 C   0  0  0  0  0  0  0  0  0  0  0  0
  144.6405  134.7265  151.4003 C   0  0  0  0  0  0  0  0  0  0  0  0
  144.0624  133.4903  151.2896 N   0  3  0  0  0  0  0  0  0  0  0  0
  144.9613  132.5354  151.5502 C   0  0  0  0  0  0  0  0  0  0  0  0
  148.6587  133.8723  153.6777 N   0  0  0  0  0  0  0  0  0  0  0  0
  149.3009  134.3031  154.7729 C   0  0  0  0  0  0  0  0  0  0  0  0
  149.2595  133.7326  155.8632 O   0  0  0  0  0  0  0  0  0  0  0  0
  149.9891  135.4287  154.5366 N   0  0  0  0  0  0  0  0  0  0  0  0
  150.7852  136.1539  155.5220 C   0  0  0  0  0  0  0  0  0  0  0  0
  151.3561  137.4636  154.9465 C   0  0  2  0  0  0  0  0  0  0  0  0
  152.1810  138.2591  155.9374 C   0  0  0  0  0  0  0  0  0  0  0  0
  152.2109  139.6416  155.2916 C   0  0  0  0  0  0  0  0  0  0  0  0
  150.9972  139.7568  154.5540 O   0  0  0  0  0  0  0  0  0  0  0  0
  150.3143  138.5074  154.5397 C   0  0  0  0  0  0  0  0  0  0  0  0
  146.0294  131.9492  154.6526 H   0  0  0  0  0  0  0  0  0  0  0  0
  145.9876  133.6768  154.3076 H   0  0  0  0  0  0  0  0  0  0  0  0
  147.0008  133.0550  155.6078 H   0  0  0  0  0  0  0  0  0  0  0  0
  148.3946  131.8288  153.9497 H   0  0  0  0  0  0  0  0  0  0  0  0
  148.1265  132.7242  151.4567 H   0  0  0  0  0  0  0  0  0  0  0  0
  147.1527  131.3727  151.9988 H   0  0  0  0  0  0  0  0  0  0  0  0
  146.7572  135.2079  151.9300 H   0  0  0  0  0  0  0  0  0  0  0  0
  144.0909  135.6412  151.2325 H   0  0  0  0  0  0  0  0  0  0  0  0
  144.7869  131.4742  151.5389 H   0  0  0  0  0  0  0  0  0  0  0  0
  148.7534  134.4107  152.8289 H   0  0  0  0  0  0  0  0  0  0  0  0
  149.9574  135.8182  153.6057 H   0  0  0  0  0  0  0  0  0  0  0  0
  150.2038  136.3498  156.4246 H   0  0  0  0  0  0  0  0  0  0  0  0
  151.6059  135.5035  155.8257 H   0  0  0  0  0  0  0  0  0  0  0  0
  151.9818  137.2372  154.0813 H   0  0  0  0  0  0  0  0  0  0  0  0
  151.6725  138.3097  156.9015 H   0  0  0  0  0  0  0  0  0  0  0  0
  153.1766  137.8448  156.0984 H   0  0  0  0  0  0  0  0  0  0  0  0
  152.3078  140.4405  156.0270 H   0  0  0  0  0  0  0  0  0  0  0  0
  153.0468  139.7192  154.5956 H   0  0  0  0  0  0  0  0  0  0  0  0
  149.8768  138.3054  153.5617 H   0  0  0  0  0  0  0  0  0  0  0  0
  149.5049  138.5503  155.2700 H   0  0  0  0  0  0  0  0  0  0  0  0
  143.0942  133.3204  151.0476 H   0  0  0  0  0  0  0  0  0  0  0  0
  1  2  1  0  0  0  0
  1 19  1  0  0  0  0
  1 20  1  0  0  0  0
  1 21  1  0  0  0  0
  2  3  1  0  0  0  0
  2  9  1  0  0  0  0
  2 22  1  0  0  0  0
  3  4  1  0  0  0  0
  3 23  1  0  0  0  0
  3 24  1  0  0  0  0
  4  8  1  0  0  0  0
  4  5  1  0  0  0  0
  5  6  2  0  0  0  0
  5 25  1  0  0  0  0
  6  7  1  0  0  0  0
  6 26  1  0  0  0  0
  7  8  2  0  0  0  0
  7 39  1  0  0  0  0
  8 27  1  0  0  0  0
  9 10  1  0  0  0  0
  9 28  1  0  0  0  0
 10 11  2  0  0  0  0
 10 12  1  0  0  0  0
 12 13  1  0  0  0  0
 12 29  1  0  0  0  0
 13 14  1  0  0  0  0
 13 30  1  0  0  0  0
 13 31  1  0  0  0  0
 14 18  1  0  0  0  0
 14 15  1  0  0  0  0
 14 32  1  0  0  0  0
 15 16  1  0  0  0  0
 15 33  1  0  0  0  0
 15 34  1  0  0  0  0
 16 17  1  0  0  0  0
 16 35  1  0  0  0  0
 16 36  1  0  0  0  0
 17 18  1  0  0  0  0
 18 37  1  0  0  0  0
 18 38  1  0  0  0  0
M  CHG  1   7   1
M  END
> <s_m_source_file>
AV-unprocessed.smi

> <i_m_source_file_index>
3292

> <i_lp_mmshare_version>
43012

> <i_f3d_flags>
0

> <s_epik_input>
W2NIXTFuW2NIXVtjSF1uMVtDSDJdW0NAQEhdKFtDSDNdKVtOSF1DKD1PKVtOSF1bQ0gyXVtDQEBIXTJbQ0gyXVtDSDJdT1tDSDJdMg==

> <s_epik_cmdline>
J2VwaWtfcHl0aG9uJywgJy1waCcsICc3LjAnLCAnLXRuJywgJzgnLCAnLW1hJywgJzIwMCcsICctbWV0YWxfYmluZGluZycsICctaW1hZScsICc8aW5maWxlLm1hZT4nLCAnLW9tYWUnLCAnPG91dGZpbGUubWFlPic=

> <r_lp_tautomer_probability>
1

> <r_epik_Ionization_Penalty>
0.255703

> <r_epik_Ionization_Penalty_Charging>
0

> <r_epik_Ionization_Penalty_Neutral>
0.255703

> <r_epik_State_Penalty>
0.247169

> <r_epik_Charging_Adjusted_Penalty>
0.247169

> <i_epik_Tot_Q>
1

> <i_epik_Tot_abs_Q>
1

> <r_epik_Metal_State_Penalty>
0.536791

> <b_epik_Metal_Only>
0

> <s_lp_Force_Field>
OPLS_2005

> <r_lp_Energy>
19.451

> <b_lp_Chiralities_Consistent>
1

> <s_lp_Variant>
AV-unprocessed.smi:3292-2

> <Gold.Version>
5.8.1

> <Gold.Id.Protein>
6NUR|6NUR_protein|mol2

> <Gold.PLP.Fitness>
48.8976

> <Gold.PLP.PLP>
-31.5468

> <Gold.PLP.part.hbond>
-4.0000

> <Gold.PLP.part.metal>
0.0000

> <Gold.PLP.part.buried>
-4.6192

> <Gold.PLP.part.nonpolar>
-23.2859

> <Gold.PLP.part.repulsive>
0.1662

> <Gold.PLP.ligand.clash>
0.0000

> <Gold.PLP.ligand.torsion>
0.3653

> <Gold.PLP.Chemscore.Hbond>
4.9920

> <Gold.PLP.Chemscore.CHOScore>
1.0000

> <Gold.PLP.Chemscore.Metal>
0.0000

> <Gold.Chemscore.Hbonds>
donor molecule, donor type, donor heavy atom, donor atom, acceptor molecule, acceptor atom, score
      L1  H     9    28       P1  7948  0.60
      L1  H    12    29       P1  7948  0.55
      P1  H  7989  7998       L1    17  0.65
      L1  C     5    25       P1  7948  1.00

> <Gold.PLP.Chemscore.Internal.Correction>
0.1054

> <Gold.Rescore>
     Score         DG    S(hbond)    S(metal)    S(lipo)     H(rot)  DE(clash)    DE(int)     intcor
     17.56     -18.32       3.80        0.00      50.17       2.24       0.05       0.71       ----

> <Gold.Chemscore.Fitness>
17.5643

> <Gold.Chemscore.DG>
-18.3194

> <Gold.Chemscore.ZeroCoef>
-5.4800

> <Gold.Chemscore.Hbond>
3.8009

> <Gold.Chemscore.Metal>
0.0000

> <Gold.Chemscore.Lipo>
50.1724

> <Gold.Chemscore.Internal_Hbond>
0.0000

> <Gold.Chemscore.DEClash>
0.0460

> <Gold.Chemscore.DEInternal>
0.7090

> <Gold.Chemscore.Rot>
2.2367

> <Gold.Chemscore.Internal.Correction>
   9.000000E+99

> <Gold.Chemscore.Hbonds>
donor molecule, donor type, donor heavy atom, donor atom, acceptor molecule, acceptor atom, score
      L1  H     9    28       P1  7948  0.04
      L1  H    12    29       P1  7948  0.03
      P1  H  7989  7998       L1    17  0.06

> <Gold.Chemscore.Hbond.Weighted>
-12.6950

> <Gold.Chemscore.Metal.Weighted>
-0.0000

> <Gold.Chemscore.Lipo.Weighted>
-5.8702

> <Gold.Chemscore.Internal_Hbond.Weighted>
0.0000

> <Gold.Chemscore.DEClash.Weighted>
0.0460

> <Gold.Chemscore.DEInternal.Weighted>
0.7090

> <Gold.Chemscore.Rot.Weighted>
5.7259

> <Gold.Chemscore.Internal.Correction.Weighted>
   9.000000E+99

> <Gold.Protein.RotatedTorsions>
[ 6907 6896 6895 6894 ] final  165.33 input  -60.11 | X-H torsion
[ 7974 7965 7964 7962 ] final   79.77 input  175.53 | X-H torsion
[ 8008 7997 7996 7995 ] final -141.94 input   59.86 | X-H torsion
[ 10167 10162 10161 10158 ] final    7.20 input  -65.29 | X-H torsion
[ 10718 10713 10712 10709 ] final   48.54 input   66.30 | X-H torsion
[ 10763 10752 10751 10750 ] final   99.00 input  -60.55 | X-H torsion
[ 11005 11000 10999 10996 ] final -145.91 input  -57.11 | X-H torsion

> <Gold.Protein.ActiveResidues>
 VAL166  LYS551  ARG553  GLY616  TRP617  ASP618  TYR619  PRO620  LYS621  CYS622 
 ASP623  PHE694  ASN695  SER759  ASP760  ASP761  ALA762  ILE779  LEU786  VAL792 
 PHE793  MET794  SER795  GLU796  ALA797  LYS798  CYS799  TRP800  GLU811  SER814 

> <Gold.Protein.RotatedAtoms>
  151.8961  133.3527  159.3814 H   0  0  0  0  0  0  0  0  0  0  0  0  # atno 6907 bound_to 6896
  150.7091  134.4875  159.5509 H   0  0  0  0  0  0  0  0  0  0  0  0  # atno 6908 bound_to 6896
  152.2455  134.8186  160.0505 H   0  0  0  0  0  0  0  0  0  0  0  0  # atno 6909 bound_to 6896
  145.6599  139.2469  143.1928 H   0  0  0  0  0  0  0  0  0  0  0  0  # atno 7974 bound_to 7965
  155.4861  140.0564  157.2960 H   0  0  0  0  0  0  0  0  0  0  0  0  # atno 8008 bound_to 7997
  154.4641  140.2010  156.0117 H   0  0  0  0  0  0  0  0  0  0  0  0  # atno 8009 bound_to 7997
  156.0943  140.3228  155.7861 H   0  0  0  0  0  0  0  0  0  0  0  0  # atno 8010 bound_to 7997
  140.6385  143.7829  150.7394 H   0  0  0  0  0  0  0  0  0  0  0  0  # atno 10167 bound_to 10162
  157.4696  130.8247  149.7974 H   0  0  0  0  0  0  0  0  0  0  0  0  # atno 10718 bound_to 10713
  153.2960  135.4129  155.1209 H   0  0  0  0  0  0  0  0  0  0  0  0  # atno 10763 bound_to 10752
  154.8535  135.3530  154.5917 H   0  0  0  0  0  0  0  0  0  0  0  0  # atno 10764 bound_to 10752
  153.6341  135.7059  153.5323 H   0  0  0  0  0  0  0  0  0  0  0  0  # atno 10765 bound_to 10752
  140.7874  134.3009  157.5025 H   0  0  0  0  0  0  0  0  0  0  0  0  # atno 11005 bound_to 11000
  146.1134  140.7400  142.9492 LP  0  0  0  0  0  0  0  0  0  0  0  0  # atno 17320 bound_to 7965
  144.7093  140.3975  143.7093 LP  0  0  0  0  0  0  0  0  0  0  0  0  # atno 17321 bound_to 7965
  140.1456  143.4403  152.2165 LP  0  0  0  0  0  0  0  0  0  0  0  0  # atno 17342 bound_to 10162
  139.5595  144.7396  151.4197 LP  0  0  0  0  0  0  0  0  0  0  0  0  # atno 17343 bound_to 10162
  156.0067  130.3852  150.2406 LP  0  0  0  0  0  0  0  0  0  0  0  0  # atno 17370 bound_to 10713
  157.0588  131.0084  151.3229 LP  0  0  0  0  0  0  0  0  0  0  0  0  # atno 17371 bound_to 10713
  139.8735  134.9354  156.3633 LP  0  0  0  0  0  0  0  0  0  0  0  0  # atno 17394 bound_to 11000
  140.9423  133.7506  156.0163 LP  0  0  0  0  0  0  0  0  0  0  0  0  # atno 17395 bound_to 11000

$$$$
