AV-unprocessed.smi:3128|AV-procd|sdf|11919|dock8
  -GOLD-   2272017303D 1   1.00000     0.00000
 Structure written by MMmdl.
 40 40  0  0  0  0  0  0  0  0  2 V2000
  150.3663  136.5428  155.1906 C   0  0  0  0  0  0  0  0  0  0  0  0
  150.4691  137.9176  154.5019 C   0  0  0  0  0  0  0  0  0  0  0  0
  151.6732  138.6875  155.0739 C   0  0  0  0  0  0  0  0  0  0  0  0
  149.1479  138.7253  154.6053 C   0  0  1  0  0  0  0  0  0  0  0  0
  149.3442  140.2435  154.4453 C   0  0  0  0  0  0  0  0  0  0  0  0
  148.1993  138.2766  153.5855 N   0  0  0  0  0  0  0  0  0  0  0  0
  147.0772  138.9139  153.2154 C   0  0  0  0  0  0  0  0  0  0  0  0
  146.7078  139.9824  153.7037 O   0  0  0  0  0  0  0  0  0  0  0  0
  146.2597  138.2414  152.1115 C   0  0  0  0  0  0  0  0  0  0  0  0
  146.5081  136.7870  152.0397 N   0  3  0  0  0  0  0  0  0  0  0  0
  145.8793  136.1288  150.8785 C   0  0  0  0  0  0  0  0  0  0  0  0
  144.6386  135.3283  151.2992 C   0  0  0  0  0  0  0  0  0  0  0  0
  144.8134  133.9081  151.0641 N   0  0  0  0  0  0  0  0  0  0  0  0
  143.9110  133.0058  150.5407 C   0  0  0  0  0  0  0  0  0  0  0  0
  144.5261  131.7870  150.5126 C   0  0  0  0  0  0  0  0  0  0  0  0
  145.8203  132.0485  151.0436 C   0  0  0  0  0  0  0  0  0  0  0  0
  145.9889  133.3194  151.3727 N   0  0  0  0  0  0  0  0  0  0  0  0
  150.1187  136.6489  156.2474 H   0  0  0  0  0  0  0  0  0  0  0  0
  151.3093  135.9992  155.1252 H   0  0  0  0  0  0  0  0  0  0  0  0
  149.6051  135.9118  154.7316 H   0  0  0  0  0  0  0  0  0  0  0  0
  150.6731  137.7349  153.4457 H   0  0  0  0  0  0  0  0  0  0  0  0
  151.5070  138.9680  156.1145 H   0  0  0  0  0  0  0  0  0  0  0  0
  151.8792  139.5965  154.5093 H   0  0  0  0  0  0  0  0  0  0  0  0
  152.5797  138.0825  155.0354 H   0  0  0  0  0  0  0  0  0  0  0  0
  148.7289  138.5473  155.5977 H   0  0  0  0  0  0  0  0  0  0  0  0
  149.9405  140.6622  155.2557 H   0  0  0  0  0  0  0  0  0  0  0  0
  148.3867  140.7655  154.4567 H   0  0  0  0  0  0  0  0  0  0  0  0
  149.8408  140.4829  153.5043 H   0  0  0  0  0  0  0  0  0  0  0  0
  148.4211  137.4072  153.1221 H   0  0  0  0  0  0  0  0  0  0  0  0
  145.2009  138.4210  152.3027 H   0  0  0  0  0  0  0  0  0  0  0  0
  146.5017  138.6960  151.1496 H   0  0  0  0  0  0  0  0  0  0  0  0
  147.5061  136.6372  151.9980 H   0  0  0  0  0  0  0  0  0  0  0  0
  145.6070  136.8887  150.1444 H   0  0  0  0  0  0  0  0  0  0  0  0
  146.6049  135.4665  150.4042 H   0  0  0  0  0  0  0  0  0  0  0  0
  144.4284  135.4809  152.3588 H   0  0  0  0  0  0  0  0  0  0  0  0
  143.7585  135.6655  150.7491 H   0  0  0  0  0  0  0  0  0  0  0  0
  142.9177  133.3013  150.2363 H   0  0  0  0  0  0  0  0  0  0  0  0
  144.1153  130.8507  150.1648 H   0  0  0  0  0  0  0  0  0  0  0  0
  146.6360  131.3576  151.1983 H   0  0  0  0  0  0  0  0  0  0  0  0
  146.1549  136.3618  152.8856 H   0  0  0  0  0  0  0  0  0  0  0  0
  1  2  1  0  0  0  0
  1 18  1  0  0  0  0
  1 19  1  0  0  0  0
  1 20  1  0  0  0  0
  2  3  1  0  0  0  0
  2  4  1  0  0  0  0
  2 21  1  0  0  0  0
  3 22  1  0  0  0  0
  3 23  1  0  0  0  0
  3 24  1  0  0  0  0
  4  5  1  0  0  0  0
  4  6  1  0  0  0  0
  4 25  1  0  0  0  0
  5 26  1  0  0  0  0
  5 27  1  0  0  0  0
  5 28  1  0  0  0  0
  6  7  1  0  0  0  0
  6 29  1  0  0  0  0
  7  8  2  0  0  0  0
  7  9  1  0  0  0  0
  9 10  1  0  0  0  0
  9 30  1  0  0  0  0
  9 31  1  0  0  0  0
 10 11  1  0  0  0  0
 10 32  1  0  0  0  0
 10 40  1  0  0  0  0
 11 12  1  0  0  0  0
 11 33  1  0  0  0  0
 11 34  1  0  0  0  0
 12 13  1  0  0  0  0
 12 35  1  0  0  0  0
 12 36  1  0  0  0  0
 13 17  1  0  0  0  0
 13 14  1  0  0  0  0
 14 15  2  0  0  0  0
 14 37  1  0  0  0  0
 15 16  1  0  0  0  0
 15 38  1  0  0  0  0
 16 17  2  0  0  0  0
 16 39  1  0  0  0  0
M  CHG  1  10   1
M  END
> <s_m_source_file>
AV-unprocessed.smi

> <i_m_source_file_index>
3128

> <i_lp_mmshare_version>
43012

> <i_f3d_flags>
0

> <s_epik_input>
W0NIM11bQ0hdKFtDSDNdKVtDQEhdKFtDSDNdKVtOSF1DKD1PKVtDSDJdW05IXVtDSDJdW0NIMl1uMVtjSF1bY0hdW2NIXW4x

> <s_epik_cmdline>
J2VwaWtfcHl0aG9uJywgJy1waCcsICc3LjAnLCAnLXRuJywgJzgnLCAnLW1hJywgJzIwMCcsICctbWV0YWxfYmluZGluZycsICctaW1hZScsICc8aW5maWxlLm1hZT4nLCAnLW9tYWUnLCAnPG91dGZpbGUubWFlPic=

> <r_lp_tautomer_probability>
1

> <r_epik_Ionization_Penalty>
0.20724

> <r_epik_Ionization_Penalty_Charging>
0.207237

> <r_epik_Ionization_Penalty_Neutral>
3.20642e-06

> <r_epik_State_Penalty>
0.197613

> <r_epik_Charging_Adjusted_Penalty>
0.40485

> <i_epik_Tot_Q>
1

> <i_epik_Tot_abs_Q>
1

> <r_epik_Metal_State_Penalty>
0.197789

> <b_epik_Metal_Only>
0

> <s_lp_Force_Field>
OPLS_2005

> <r_lp_Energy>
4.49363

> <b_lp_Chiralities_Consistent>
1

> <s_lp_Variant>
AV-unprocessed.smi:3128-2

> <Gold.Version>
5.8.1

> <Gold.Id.Protein>
6NUR|6NUR_protein|mol2

> <Gold.PLP.Fitness>
46.7891

> <Gold.PLP.PLP>
-35.6436

> <Gold.PLP.part.hbond>
-2.2261

> <Gold.PLP.part.metal>
0.0000

> <Gold.PLP.part.buried>
-6.0277

> <Gold.PLP.part.nonpolar>
-30.7560

> <Gold.PLP.part.repulsive>
0.3865

> <Gold.PLP.ligand.clash>
0.0000

> <Gold.PLP.ligand.torsion>
1.9910

> <Gold.PLP.Chemscore.Hbond>
3.0000

> <Gold.PLP.Chemscore.CHOScore>
2.0000

> <Gold.PLP.Chemscore.Metal>
0.0000

> <Gold.Chemscore.Hbonds>
donor molecule, donor type, donor heavy atom, donor atom, acceptor molecule, acceptor atom, score
      L1  H     6    29       P1  7948  1.00
      L1  H    10    32       P1  7948  1.79
      L1  C    14    37       P1 10186  1.00
      L1  C    16    39       P1 10747  0.92

> <Gold.PLP.Chemscore.Internal.Correction>
0.1275

> <Gold.Rescore>
     Score         DG    S(hbond)    S(metal)    S(lipo)     H(rot)  DE(clash)    DE(int)     intcor
     13.33     -16.12       2.00        0.00      83.02       2.24       0.03       2.76       ----

> <Gold.Chemscore.Fitness>
13.3250

> <Gold.Chemscore.DG>
-16.1190

> <Gold.Chemscore.ZeroCoef>
-5.4800

> <Gold.Chemscore.Hbond>
1.9952

> <Gold.Chemscore.Metal>
0.0000

> <Gold.Chemscore.Lipo>
83.0216

> <Gold.Chemscore.Internal_Hbond>
0.0000

> <Gold.Chemscore.DEClash>
0.0324

> <Gold.Chemscore.DEInternal>
2.7615

> <Gold.Chemscore.Rot>
2.2416

> <Gold.Chemscore.Internal.Correction>
   9.000000E+99

> <Gold.Chemscore.Hbonds>
donor molecule, donor type, donor heavy atom, donor atom, acceptor molecule, acceptor atom, score
      L1  H     6    29       P1  7948  1.00
      L1  H    10    32       P1  7948  0.87

> <Gold.Chemscore.Hbond.Weighted>
-6.6639

> <Gold.Chemscore.Metal.Weighted>
-0.0000

> <Gold.Chemscore.Lipo.Weighted>
-9.7135

> <Gold.Chemscore.Internal_Hbond.Weighted>
0.0000

> <Gold.Chemscore.DEClash.Weighted>
0.0324

> <Gold.Chemscore.DEInternal.Weighted>
2.7615

> <Gold.Chemscore.Rot.Weighted>
5.7385

> <Gold.Chemscore.Internal.Correction.Weighted>
   9.000000E+99

> <Gold.Protein.RotatedTorsions>
[ 6907 6896 6895 6894 ] final  -94.60 input  -60.11 | X-H torsion
[ 7974 7965 7964 7962 ] final   32.12 input  175.53 | X-H torsion
[ 8008 7997 7996 7995 ] final  -94.09 input   59.86 | X-H torsion
[ 10167 10162 10161 10158 ] final  -24.46 input  -65.29 | X-H torsion
[ 10718 10713 10712 10709 ] final  173.33 input   66.30 | X-H torsion
[ 10763 10752 10751 10750 ] final   52.05 input  -60.55 | X-H torsion
[ 11005 11000 10999 10996 ] final -166.41 input  -57.11 | X-H torsion

> <Gold.Protein.ActiveResidues>
 VAL166  LYS551  ARG553  GLY616  TRP617  ASP618  TYR619  PRO620  LYS621  CYS622 
 ASP623  PHE694  ASN695  SER759  ASP760  ASP761  ALA762  ILE779  LEU786  VAL792 
 PHE793  MET794  SER795  GLU796  ALA797  LYS798  CYS799  TRP800  GLU811  SER814 

> <Gold.Protein.RotatedAtoms>
  150.6945  134.1787  159.4240 H   0  0  0  0  0  0  0  0  0  0  0  0  # atno 6907 bound_to 6896
  151.9763  135.0049  160.0564 H   0  0  0  0  0  0  0  0  0  0  0  0  # atno 6908 bound_to 6896
  152.1796  133.4663  159.4988 H   0  0  0  0  0  0  0  0  0  0  0  0  # atno 6909 bound_to 6896
  146.1507  139.6568  142.9101 H   0  0  0  0  0  0  0  0  0  0  0  0  # atno 7974 bound_to 7965
  154.7439  140.0492  157.0835 H   0  0  0  0  0  0  0  0  0  0  0  0  # atno 8008 bound_to 7997
  155.0143  140.3139  155.4798 H   0  0  0  0  0  0  0  0  0  0  0  0  # atno 8009 bound_to 7997
  156.2870  140.2178  156.5258 H   0  0  0  0  0  0  0  0  0  0  0  0  # atno 8010 bound_to 7997
  140.7288  143.4351  151.0742 H   0  0  0  0  0  0  0  0  0  0  0  0  # atno 10167 bound_to 10162
  156.9658  131.0075  151.2917 H   0  0  0  0  0  0  0  0  0  0  0  0  # atno 10718 bound_to 10713
  152.9787  135.5825  154.4516 H   0  0  0  0  0  0  0  0  0  0  0  0  # atno 10763 bound_to 10752
  154.4104  135.2770  155.2042 H   0  0  0  0  0  0  0  0  0  0  0  0  # atno 10764 bound_to 10752
  154.3835  135.6141  153.5858 H   0  0  0  0  0  0  0  0  0  0  0  0  # atno 10765 bound_to 10752
  140.5648  134.5297  157.5150 H   0  0  0  0  0  0  0  0  0  0  0  0  # atno 11005 bound_to 11000
  145.4830  141.0438  143.2635 LP  0  0  0  0  0  0  0  0  0  0  0  0  # atno 17320 bound_to 7965
  144.7900  139.6347  143.7117 LP  0  0  0  0  0  0  0  0  0  0  0  0  # atno 17321 bound_to 7965
  139.8012  143.8081  152.3163 LP  0  0  0  0  0  0  0  0  0  0  0  0  # atno 17342 bound_to 10162
  139.8098  144.7340  150.9712 LP  0  0  0  0  0  0  0  0  0  0  0  0  # atno 17343 bound_to 10162
  157.5626  130.8256  149.8286 LP  0  0  0  0  0  0  0  0  0  0  0  0  # atno 17370 bound_to 10713
  156.0303  130.3766  150.1707 LP  0  0  0  0  0  0  0  0  0  0  0  0  # atno 17371 bound_to 10713
  139.9390  134.7822  156.0727 LP  0  0  0  0  0  0  0  0  0  0  0  0  # atno 17394 bound_to 11000
  141.1092  133.6649  156.2938 LP  0  0  0  0  0  0  0  0  0  0  0  0  # atno 17395 bound_to 11000

$$$$
