AV-unprocessed.smi:487|AV-procd|sdf|2699|dock9
  -GOLD-   2262023133D 1   1.00000     0.00000
 Structure written by MMmdl.
 41 42  0  0  0  0  0  0  0  0  1 V2000
  152.5200  139.8463  155.1742 O   0  0  0  0  0  0  0  0  0  0  0  0
  151.4584  139.5573  155.7252 C   0  0  0  0  0  0  0  0  0  0  0  0
  150.5517  138.4900  155.0881 C   0  0  0  0  0  0  0  0  0  0  0  0
  150.0582  137.4654  156.0234 N   0  0  0  0  0  0  0  0  0  0  0  0
  149.1632  137.8099  157.0264 C   0  0  0  0  0  0  0  0  0  0  0  0
  148.6800  136.9254  157.9307 C   0  0  0  0  0  0  0  0  0  0  0  0
  149.0923  135.5266  157.8888 C   0  0  0  0  0  0  0  0  0  0  0  0
  148.7116  134.6514  158.6630 O   0  0  0  0  0  0  0  0  0  0  0  0
  149.9940  135.2195  156.8662 N   0  0  0  0  0  0  0  0  0  0  0  0
  150.4970  136.1261  155.9321 C   0  0  0  0  0  0  0  0  0  0  0  0
  151.2973  135.7515  155.0760 O   0  0  0  0  0  0  0  0  0  0  0  0
  151.0467  140.1396  156.8651 N   0  0  0  0  0  0  0  0  0  0  0  0
  151.7720  141.1589  157.6209 C   0  0  0  0  0  0  0  0  0  0  0  0
  152.0321  140.5744  159.0333 C   0  0  0  0  0  0  0  0  0  0  0  0
  153.2316  141.1637  159.7960 C   0  0  0  0  0  0  0  0  0  0  0  0
  152.9291  142.3207  160.7697 C   0  0  0  0  0  0  0  0  0  0  0  0
  152.1952  143.5450  160.1951 C   0  0  0  0  0  0  0  0  0  0  0  0
  152.7035  144.0041  158.8165 C   0  0  0  0  0  0  0  0  0  0  0  0
  151.7086  143.7925  157.6622 C   0  0  0  0  0  0  0  0  0  0  0  0
  150.9328  142.4592  157.6152 C   0  0  0  0  0  0  0  0  0  0  0  0
  150.3091  134.2627  156.7988 H   0  0  0  0  0  0  0  0  0  0  0  0
  149.7072  139.0017  154.6241 H   0  0  0  0  0  0  0  0  0  0  0  0
  151.0886  138.0248  154.2594 H   0  0  0  0  0  0  0  0  0  0  0  0
  148.8343  138.8369  157.0982 H   0  0  0  0  0  0  0  0  0  0  0  0
  147.9857  137.2551  158.6903 H   0  0  0  0  0  0  0  0  0  0  0  0
  150.1609  139.8409  157.2467 H   0  0  0  0  0  0  0  0  0  0  0  0
  152.7277  141.3341  157.1238 H   0  0  0  0  0  0  0  0  0  0  0  0
  151.1303  140.6087  159.6460 H   0  0  0  0  0  0  0  0  0  0  0  0
  152.2504  139.5114  158.9148 H   0  0  0  0  0  0  0  0  0  0  0  0
  153.6645  140.3626  160.3964 H   0  0  0  0  0  0  0  0  0  0  0  0
  154.0242  141.4318  159.0979 H   0  0  0  0  0  0  0  0  0  0  0  0
  152.3556  141.9388  161.6150 H   0  0  0  0  0  0  0  0  0  0  0  0
  153.8783  142.6550  161.1897 H   0  0  0  0  0  0  0  0  0  0  0  0
  151.1222  143.3607  160.1761 H   0  0  0  0  0  0  0  0  0  0  0  0
  152.3146  144.3663  160.9027 H   0  0  0  0  0  0  0  0  0  0  0  0
  152.9300  145.0697  158.8662 H   0  0  0  0  0  0  0  0  0  0  0  0
  153.6581  143.5400  158.5741 H   0  0  0  0  0  0  0  0  0  0  0  0
  150.9732  144.5972  157.6959 H   0  0  0  0  0  0  0  0  0  0  0  0
  152.2410  143.9268  156.7199 H   0  0  0  0  0  0  0  0  0  0  0  0
  150.3444  142.4995  156.6971 H   0  0  0  0  0  0  0  0  0  0  0  0
  150.1844  142.4186  158.4063 H   0  0  0  0  0  0  0  0  0  0  0  0
  1  2  2  0  0  0  0
  2  3  1  0  0  0  0
  2 12  1  0  0  0  0
  3  4  1  0  0  0  0
  3 22  1  0  0  0  0
  3 23  1  0  0  0  0
  4 10  1  0  0  0  0
  4  5  1  0  0  0  0
  5  6  2  0  0  0  0
  5 24  1  0  0  0  0
  6  7  1  0  0  0  0
  6 25  1  0  0  0  0
  7  8  2  0  0  0  0
  7  9  1  0  0  0  0
  9 21  1  0  0  0  0
  9 10  1  0  0  0  0
 10 11  2  0  0  0  0
 12 13  1  0  0  0  0
 12 26  1  0  0  0  0
 13 20  1  0  0  0  0
 13 14  1  0  0  0  0
 13 27  1  0  0  0  0
 14 15  1  0  0  0  0
 14 28  1  0  0  0  0
 14 29  1  0  0  0  0
 15 16  1  0  0  0  0
 15 30  1  0  0  0  0
 15 31  1  0  0  0  0
 16 17  1  0  0  0  0
 16 32  1  0  0  0  0
 16 33  1  0  0  0  0
 17 18  1  0  0  0  0
 17 34  1  0  0  0  0
 17 35  1  0  0  0  0
 18 19  1  0  0  0  0
 18 36  1  0  0  0  0
 18 37  1  0  0  0  0
 19 20  1  0  0  0  0
 19 38  1  0  0  0  0
 19 39  1  0  0  0  0
 20 40  1  0  0  0  0
 20 41  1  0  0  0  0
M  END
> <s_m_source_file>
AV-unprocessed.smi

> <i_m_source_file_index>
487

> <i_lp_mmshare_version>
43012

> <i_f3d_flags>
0

> <s_epik_input>
Tz1jMVtuSF1jKD1PKVtjSF1bY0hdbjFbQ0gyXUMoPU8pW05IXVtDSF0yW0NIMl1bQ0gyXVtDSDJdW0NIMl1bQ0gyXVtDSDJdW0NIMl0y

> <s_epik_cmdline>
J2VwaWtfcHl0aG9uJywgJy1waCcsICc3LjAnLCAnLXRuJywgJzgnLCAnLW1hJywgJzIwMCcsICctbWV0YWxfYmluZGluZycsICctaW1hZScsICc8aW5maWxlLm1hZT4nLCAnLW9tYWUnLCAnPG91dGZpbGUubWFlPic=

> <r_lp_tautomer_probability>
0.999537

> <r_epik_Ionization_Penalty>
0.00321433

> <r_epik_Ionization_Penalty_Charging>
0.00321431

> <r_epik_Ionization_Penalty_Neutral>
2.02148e-08

> <r_epik_State_Penalty>
0.00226744

> <r_epik_Charging_Adjusted_Penalty>
0.00548175

> <i_epik_Tot_Q>
0

> <i_epik_Tot_abs_Q>
0

> <r_epik_Metal_State_Penalty>
0.364272

> <b_epik_Metal_Only>
0

> <s_lp_Force_Field>
OPLS_2005

> <r_lp_Energy>
21.4809

> <b_lp_Chiralities_Consistent>
1

> <s_lp_Variant>
AV-unprocessed.smi:487-1

> <Gold.Version>
5.8.1

> <Gold.Id.Protein>
6NUR|6NUR_protein|mol2

> <Gold.PLP.Fitness>
46.1331

> <Gold.PLP.PLP>
-36.4073

> <Gold.PLP.part.hbond>
-3.6661

> <Gold.PLP.part.metal>
0.0000

> <Gold.PLP.part.buried>
-4.6855

> <Gold.PLP.part.nonpolar>
-29.8932

> <Gold.PLP.part.repulsive>
0.3272

> <Gold.PLP.ligand.clash>
0.0000

> <Gold.PLP.ligand.torsion>
0.1986

> <Gold.PLP.Chemscore.Hbond>
3.3715

> <Gold.PLP.Chemscore.CHOScore>
0.0000

> <Gold.PLP.Chemscore.Metal>
0.0000

> <Gold.Chemscore.Hbonds>
donor molecule, donor type, donor heavy atom, donor atom, acceptor molecule, acceptor atom, score
      P1  H  6896  6908       L1     8  0.50
      P1  H  7989  7998       L1     1  0.40
      P1  H  7997  8009       L1     1  0.88
      P1  H 10752 10763       L1    11  1.00

> <Gold.PLP.Chemscore.Internal.Correction>
0.0084

> <Gold.Rescore>
     Score         DG    S(hbond)    S(metal)    S(lipo)     H(rot)  DE(clash)    DE(int)     intcor
     20.43     -20.69       2.70        0.00      89.64       1.68       0.03       0.23       ----

> <Gold.Chemscore.Fitness>
20.4258

> <Gold.Chemscore.DG>
-20.6857

> <Gold.Chemscore.ZeroCoef>
-5.4800

> <Gold.Chemscore.Hbond>
2.6975

> <Gold.Chemscore.Metal>
0.0000

> <Gold.Chemscore.Lipo>
89.6366

> <Gold.Chemscore.Internal_Hbond>
0.0000

> <Gold.Chemscore.DEClash>
0.0309

> <Gold.Chemscore.DEInternal>
0.2291

> <Gold.Chemscore.Rot>
1.6763

> <Gold.Chemscore.Internal.Correction>
   9.000000E+99

> <Gold.Chemscore.Hbonds>
donor molecule, donor type, donor heavy atom, donor atom, acceptor molecule, acceptor atom, score
      P1  H  6896  6908       L1     8  0.09
      P1  H  7989  7998       L1     1  0.07
      P1  H  7997  8009       L1     1  0.86
      P1  H 10752 10763       L1    11  0.99

> <Gold.Chemscore.Hbond.Weighted>
-9.0096

> <Gold.Chemscore.Metal.Weighted>
-0.0000

> <Gold.Chemscore.Lipo.Weighted>
-10.4875

> <Gold.Chemscore.Internal_Hbond.Weighted>
0.0000

> <Gold.Chemscore.DEClash.Weighted>
0.0309

> <Gold.Chemscore.DEInternal.Weighted>
0.2291

> <Gold.Chemscore.Rot.Weighted>
4.2914

> <Gold.Chemscore.Internal.Correction.Weighted>
   9.000000E+99

> <Gold.Protein.RotatedTorsions>
[ 6907 6896 6895 6894 ] final  130.14 input  -60.11 | X-H torsion
[ 7974 7965 7964 7962 ] final   82.23 input  175.53 | X-H torsion
[ 8008 7997 7996 7995 ] final -142.87 input   59.86 | X-H torsion
[ 10167 10162 10161 10158 ] final  -10.23 input  -65.29 | X-H torsion
[ 10718 10713 10712 10709 ] final   80.64 input   66.30 | X-H torsion
[ 10763 10752 10751 10750 ] final   74.04 input  -60.55 | X-H torsion
[ 11005 11000 10999 10996 ] final -109.93 input  -57.11 | X-H torsion

> <Gold.Protein.ActiveResidues>
 VAL166  LYS551  ARG553  GLY616  TRP617  ASP618  TYR619  PRO620  LYS621  CYS622 
 ASP623  PHE694  ASN695  SER759  ASP760  ASP761  ALA762  ILE779  LEU786  VAL792 
 PHE793  MET794  SER795  GLU796  ALA797  LYS798  CYS799  TRP800  GLU811  SER814 

> <Gold.Protein.RotatedAtoms>
  152.3556  133.6232  159.5976 H   0  0  0  0  0  0  0  0  0  0  0  0  # atno 6907 bound_to 6896
  150.7566  133.9506  159.3493 H   0  0  0  0  0  0  0  0  0  0  0  0  # atno 6908 bound_to 6896
  151.7351  135.0867  160.0357 H   0  0  0  0  0  0  0  0  0  0  0  0  # atno 6909 bound_to 6896
  145.6278  139.2398  143.2102 H   0  0  0  0  0  0  0  0  0  0  0  0  # atno 7974 bound_to 7965
  155.5014  140.0576  157.2938 H   0  0  0  0  0  0  0  0  0  0  0  0  # atno 8008 bound_to 7997
  154.4586  140.1985  156.0259 H   0  0  0  0  0  0  0  0  0  0  0  0  # atno 8009 bound_to 7997
  156.0846  140.3242  155.7742 H   0  0  0  0  0  0  0  0  0  0  0  0  # atno 8010 bound_to 7997
  140.7108  143.5771  150.9031 H   0  0  0  0  0  0  0  0  0  0  0  0  # atno 10167 bound_to 10162
  157.6812  130.9969  150.2110 H   0  0  0  0  0  0  0  0  0  0  0  0  # atno 10718 bound_to 10713
  153.0561  135.5040  154.7983 H   0  0  0  0  0  0  0  0  0  0  0  0  # atno 10763 bound_to 10752
  154.6808  135.2968  154.9617 H   0  0  0  0  0  0  0  0  0  0  0  0  # atno 10764 bound_to 10752
  154.0404  135.6717  153.4842 H   0  0  0  0  0  0  0  0  0  0  0  0  # atno 10765 bound_to 10752
  141.0820  133.9203  157.2268 H   0  0  0  0  0  0  0  0  0  0  0  0  # atno 11005 bound_to 11000
  146.1380  140.7096  142.9380 LP  0  0  0  0  0  0  0  0  0  0  0  0  # atno 17320 bound_to 7965
  144.7205  140.4358  143.7011 LP  0  0  0  0  0  0  0  0  0  0  0  0  # atno 17321 bound_to 7965
  139.9497  143.6286  152.3032 LP  0  0  0  0  0  0  0  0  0  0  0  0  # atno 17342 bound_to 10162
  139.6800  144.7656  151.1625 LP  0  0  0  0  0  0  0  0  0  0  0  0  # atno 17343 bound_to 10162
  156.2781  130.3730  149.7963 LP  0  0  0  0  0  0  0  0  0  0  0  0  # atno 17370 bound_to 10713
  156.5660  130.8404  151.3343 LP  0  0  0  0  0  0  0  0  0  0  0  0  # atno 17371 bound_to 10713
  139.9635  135.0148  156.9324 LP  0  0  0  0  0  0  0  0  0  0  0  0  # atno 17394 bound_to 11000
  140.5447  134.0686  155.7351 LP  0  0  0  0  0  0  0  0  0  0  0  0  # atno 17395 bound_to 11000

$$$$
