AV-unprocessed.smi:1824|AV-procd|sdf|7400|dock2
  -GOLD-   22720 9 73D 1   1.00000     0.00000
 Structure written by MMmdl.
 45 47  0  0  0  0  0  0  0  0  2 V2000
  151.2166  137.6038  154.4963 C   0  0  0  0  0  0  0  0  0  0  0  0
  150.2716  138.7433  154.8931 C   0  0  1  0  0  0  0  0  0  0  0  0
  150.9777  140.1139  154.8756 C   0  0  0  0  0  0  0  0  0  0  0  0
  150.0289  141.2124  155.1798 N   0  3  2  0  0  0  0  0  0  0  0  0
  149.7038  141.3395  156.6265 C   0  0  0  0  0  0  0  0  0  0  0  0
  150.4566  142.5038  157.3003 C   0  0  2  0  0  0  0  0  0  0  0  0
  151.0124  143.3274  156.2928 O   0  0  0  0  0  0  0  0  0  0  0  0
  151.5822  141.9976  158.2232 C   0  0  0  0  0  0  0  0  0  0  0  0
  151.6880  142.7749  159.4457 N   0  0  0  0  0  0  0  0  0  0  0  0
  151.0481  143.9258  159.7291 C   0  0  0  0  0  0  0  0  0  0  0  0
  151.2908  144.4826  160.9117 N   0  0  0  0  0  0  0  0  0  0  0  0
  152.1900  143.5867  161.4641 C   0  0  0  0  0  0  0  0  0  0  0  0
  152.8410  143.5967  162.7182 C   0  0  0  0  0  0  0  0  0  0  0  0
  153.7318  142.5612  163.0698 C   0  0  0  0  0  0  0  0  0  0  0  0
  154.3465  142.5861  164.2763 F   0  0  0  0  0  0  0  0  0  0  0  0
  153.9858  141.5023  162.1727 C   0  0  0  0  0  0  0  0  0  0  0  0
  154.8438  140.5132  162.5171 F   0  0  0  0  0  0  0  0  0  0  0  0
  153.3486  141.4708  160.9172 C   0  0  0  0  0  0  0  0  0  0  0  0
  152.4595  142.5053  160.5716 C   0  0  0  0  0  0  0  0  0  0  0  0
  148.8511  141.1447  154.2775 C   0  0  0  0  0  0  0  0  0  0  0  0
  148.2069  139.7410  154.2826 C   0  0  1  0  0  0  0  0  0  0  0  0
  147.0759  139.6241  153.2554 C   0  0  0  0  0  0  0  0  0  0  0  0
  149.1957  138.7687  153.9613 O   0  0  0  0  0  0  0  0  0  0  0  0
  152.0611  137.5368  155.1827 H   0  0  0  0  0  0  0  0  0  0  0  0
  151.6132  137.7507  153.4912 H   0  0  0  0  0  0  0  0  0  0  0  0
  150.6990  136.6444  154.5124 H   0  0  0  0  0  0  0  0  0  0  0  0
  149.8809  138.5352  155.8907 H   0  0  0  0  0  0  0  0  0  0  0  0
  151.8181  140.1309  155.5707 H   0  0  0  0  0  0  0  0  0  0  0  0
  151.3986  140.2937  153.8854 H   0  0  0  0  0  0  0  0  0  0  0  0
  148.6285  141.4580  156.7589 H   0  0  0  0  0  0  0  0  0  0  0  0
  149.9679  140.4160  157.1443 H   0  0  0  0  0  0  0  0  0  0  0  0
  149.7700  143.1079  157.8927 H   0  0  0  0  0  0  0  0  0  0  0  0
  150.3069  143.7018  155.7863 H   0  0  0  0  0  0  0  0  0  0  0  0
  151.4031  140.9570  158.4977 H   0  0  0  0  0  0  0  0  0  0  0  0
  152.5433  142.0211  157.7078 H   0  0  0  0  0  0  0  0  0  0  0  0
  150.3672  144.3824  159.0255 H   0  0  0  0  0  0  0  0  0  0  0  0
  152.6552  144.4029  163.4123 H   0  0  0  0  0  0  0  0  0  0  0  0
  153.5430  140.6612  160.2298 H   0  0  0  0  0  0  0  0  0  0  0  0
  148.1156  141.9060  154.5340 H   0  0  0  0  0  0  0  0  0  0  0  0
  149.1904  141.3810  153.2679 H   0  0  0  0  0  0  0  0  0  0  0  0
  147.7937  139.5170  155.2667 H   0  0  0  0  0  0  0  0  0  0  0  0
  146.2832  140.3443  153.4595 H   0  0  0  0  0  0  0  0  0  0  0  0
  146.6324  138.6283  153.2765 H   0  0  0  0  0  0  0  0  0  0  0  0
  147.4405  139.8045  152.2436 H   0  0  0  0  0  0  0  0  0  0  0  0
  150.5192  142.0664  154.9531 H   0  0  0  0  0  0  0  0  0  0  0  0
  1  2  1  0  0  0  0
  1 24  1  0  0  0  0
  1 25  1  0  0  0  0
  1 26  1  0  0  0  0
  2 23  1  0  0  0  0
  2  3  1  0  0  0  0
  2 27  1  0  0  0  0
  3  4  1  0  0  0  0
  3 28  1  0  0  0  0
  3 29  1  0  0  0  0
  4  5  1  0  0  0  0
  4 20  1  0  0  0  0
  4 45  1  0  0  0  0
  5  6  1  0  0  0  0
  5 30  1  0  0  0  0
  5 31  1  0  0  0  0
  6  7  1  0  0  0  0
  6  8  1  0  0  0  0
  6 32  1  0  0  0  0
  7 33  1  0  0  0  0
  8  9  1  0  0  0  0
  8 34  1  0  0  0  0
  8 35  1  0  0  0  0
  9 19  1  0  0  0  0
  9 10  1  0  0  0  0
 10 11  2  0  0  0  0
 10 36  1  0  0  0  0
 11 12  1  0  0  0  0
 12 19  2  0  0  0  0
 12 13  1  0  0  0  0
 13 14  2  0  0  0  0
 13 37  1  0  0  0  0
 14 15  1  0  0  0  0
 14 16  1  0  0  0  0
 16 17  1  0  0  0  0
 16 18  2  0  0  0  0
 18 19  1  0  0  0  0
 18 38  1  0  0  0  0
 20 21  1  0  0  0  0
 20 39  1  0  0  0  0
 20 40  1  0  0  0  0
 21 22  1  0  0  0  0
 21 23  1  0  0  0  0
 21 41  1  0  0  0  0
 22 42  1  0  0  0  0
 22 43  1  0  0  0  0
 22 44  1  0  0  0  0
M  CHG  1   4   1
M  END
> <s_m_source_file>
AV-unprocessed.smi

> <i_m_source_file_index>
1824

> <i_lp_mmshare_version>
43012

> <i_f3d_flags>
0

> <s_epik_input>
W0NIM11bQ0BASF0xW0NIMl1OKFtDSDJdW0NASF0oTzEpW0NIM10pW0NIMl1bQ0BIXShbT0hdKVtDSDJdbihbY0hdbjIpYyhjMjMpW2NIXWMoRiljKEYpW2NIXTM=

> <s_epik_cmdline>
J2VwaWtfcHl0aG9uJywgJy1waCcsICc3LjAnLCAnLXRuJywgJzgnLCAnLW1hJywgJzIwMCcsICctbWV0YWxfYmluZGluZycsICctaW1hZScsICc8aW5maWxlLm1hZT4nLCAnLW9tYWUnLCAnPG91dGZpbGUubWFlPic=

> <r_epik_Ionization_Penalty>
0.61967

> <r_epik_Ionization_Penalty_Charging>
0.608065

> <r_epik_Ionization_Penalty_Neutral>
0.0116057

> <r_epik_State_Penalty>
0.664205

> <r_epik_Charging_Adjusted_Penalty>
1.27227

> <i_epik_Tot_Q>
1

> <i_epik_Tot_abs_Q>
1

> <r_epik_Metal_State_Penalty>
0.654947

> <b_epik_Metal_Only>
0

> <s_lp_Force_Field>
OPLS_2005

> <r_lp_Energy>
21.7037

> <b_lp_Chiralities_Consistent>
1

> <s_lp_Variant>
AV-unprocessed.smi:1824-8

> <Gold.Version>
5.8.1

> <Gold.Id.Protein>
6NUR|6NUR_protein|mol2

> <Gold.PLP.Fitness>
50.3885

> <Gold.PLP.PLP>
-51.2436

> <Gold.PLP.part.hbond>
-1.0000

> <Gold.PLP.part.metal>
0.0000

> <Gold.PLP.part.buried>
1.1699

> <Gold.PLP.part.nonpolar>
-51.3109

> <Gold.PLP.part.repulsive>
1.0393

> <Gold.PLP.ligand.clash>
0.0000

> <Gold.PLP.ligand.torsion>
1.9454

> <Gold.PLP.Chemscore.Hbond>
1.0000

> <Gold.PLP.Chemscore.CHOScore>
0.0000

> <Gold.PLP.Chemscore.Metal>
0.0000

> <Gold.Chemscore.Hbonds>
donor molecule, donor type, donor heavy atom, donor atom, acceptor molecule, acceptor atom, score
      L1  H     7    33       P1  8028  1.00

> <Gold.PLP.Chemscore.Internal.Correction>
0.0357

> <Gold.Rescore>
     Score         DG    S(hbond)    S(metal)    S(lipo)     H(rot)  DE(clash)    DE(int)     intcor
     14.68     -18.38       1.00        0.00     132.64       2.33       1.73       1.97       ----

> <Gold.Chemscore.Fitness>
14.6797

> <Gold.Chemscore.DG>
-18.3805

> <Gold.Chemscore.ZeroCoef>
-5.4800

> <Gold.Chemscore.Hbond>
0.9981

> <Gold.Chemscore.Metal>
0.0000

> <Gold.Chemscore.Lipo>
132.6427

> <Gold.Chemscore.Internal_Hbond>
0.0000

> <Gold.Chemscore.DEClash>
1.7263

> <Gold.Chemscore.DEInternal>
1.9745

> <Gold.Chemscore.Rot>
2.3251

> <Gold.Chemscore.Internal.Correction>
   9.000000E+99

> <Gold.Chemscore.Hbonds>
donor molecule, donor type, donor heavy atom, donor atom, acceptor molecule, acceptor atom, score
      L1  H     7    33       P1  8028  0.95

> <Gold.Chemscore.Hbond.Weighted>
-3.3336

> <Gold.Chemscore.Metal.Weighted>
-0.0000

> <Gold.Chemscore.Lipo.Weighted>
-15.5192

> <Gold.Chemscore.Internal_Hbond.Weighted>
0.0000

> <Gold.Chemscore.DEClash.Weighted>
1.7263

> <Gold.Chemscore.DEInternal.Weighted>
1.9745

> <Gold.Chemscore.Rot.Weighted>
5.9523

> <Gold.Chemscore.Internal.Correction.Weighted>
   9.000000E+99

> <Gold.Protein.RotatedTorsions>
[ 6907 6896 6895 6894 ] final  -92.64 input  -60.11 | X-H torsion
[ 7974 7965 7964 7962 ] final  -65.41 input  175.53 | X-H torsion
[ 8008 7997 7996 7995 ] final   34.06 input   59.86 | X-H torsion
[ 10167 10162 10161 10158 ] final   84.09 input  -65.29 | X-H torsion
[ 10718 10713 10712 10709 ] final   -7.00 input   66.30 | X-H torsion
[ 10763 10752 10751 10750 ] final   90.54 input  -60.55 | X-H torsion
[ 11005 11000 10999 10996 ] final   40.12 input  -57.11 | X-H torsion

> <Gold.Protein.ActiveResidues>
 VAL166  LYS551  ARG553  GLY616  TRP617  ASP618  TYR619  PRO620  LYS621  CYS622 
 ASP623  PHE694  ASN695  SER759  ASP760  ASP761  ALA762  ILE779  LEU786  VAL792 
 PHE793  MET794  SER795  GLU796  ALA797  LYS798  CYS799  TRP800  GLU811  SER814 

> <Gold.Protein.RotatedAtoms>
  150.6909  134.2090  159.4351 H   0  0  0  0  0  0  0  0  0  0  0  0  # atno 6907 bound_to 6896
  152.0053  134.9904  160.0575 H   0  0  0  0  0  0  0  0  0  0  0  0  # atno 6908 bound_to 6896
  152.1540  133.4505  159.4864 H   0  0  0  0  0  0  0  0  0  0  0  0  # atno 6909 bound_to 6896
  145.7546  140.8891  143.0462 H   0  0  0  0  0  0  0  0  0  0  0  0  # atno 7974 bound_to 7965
  155.1487  140.3273  155.4436 H   0  0  0  0  0  0  0  0  0  0  0  0  # atno 8008 bound_to 7997
  156.2581  140.1980  156.6550 H   0  0  0  0  0  0  0  0  0  0  0  0  # atno 8009 bound_to 7997
  154.6489  140.0561  156.9919 H   0  0  0  0  0  0  0  0  0  0  0  0  # atno 8010 bound_to 7997
  139.9116  144.6268  150.8531 H   0  0  0  0  0  0  0  0  0  0  0  0  # atno 10167 bound_to 10162
  156.7237  130.5158  149.5862 H   0  0  0  0  0  0  0  0  0  0  0  0  # atno 10718 bound_to 10713
  153.1986  135.4430  155.0239 H   0  0  0  0  0  0  0  0  0  0  0  0  # atno 10763 bound_to 10752
  154.8134  135.3304  154.7246 H   0  0  0  0  0  0  0  0  0  0  0  0  # atno 10764 bound_to 10752
  153.7694  135.6986  153.4965 H   0  0  0  0  0  0  0  0  0  0  0  0  # atno 10765 bound_to 10752
  140.1961  134.3927  155.8120 H   0  0  0  0  0  0  0  0  0  0  0  0  # atno 11005 bound_to 11000
  144.6842  139.9639  143.7481 LP  0  0  0  0  0  0  0  0  0  0  0  0  # atno 17320 bound_to 7965
  146.0323  139.3346  143.0747 LP  0  0  0  0  0  0  0  0  0  0  0  0  # atno 17321 bound_to 7965
  140.7684  143.3361  151.2306 LP  0  0  0  0  0  0  0  0  0  0  0  0  # atno 17342 bound_to 10162
  139.6937  143.9648  152.2872 LP  0  0  0  0  0  0  0  0  0  0  0  0  # atno 17343 bound_to 10162
  156.1577  130.6353  151.0678 LP  0  0  0  0  0  0  0  0  0  0  0  0  # atno 17370 bound_to 10713
  157.6887  131.0816  150.7168 LP  0  0  0  0  0  0  0  0  0  0  0  0  # atno 17371 bound_to 10713
  141.2227  133.7070  156.8179 LP  0  0  0  0  0  0  0  0  0  0  0  0  # atno 17394 bound_to 11000
  140.2105  134.8831  157.3269 LP  0  0  0  0  0  0  0  0  0  0  0  0  # atno 17395 bound_to 11000

$$$$
