AV-unprocessed.smi:1756|AV-procd|sdf|7072|dock4
  -GOLD-   22720 8293D 1   1.00000     0.00000
 Structure written by MMmdl.
 38 39  0  0  0  0  0  0  0  0  1 V2000
  151.4547  135.5862  155.5995 O   0  0  0  0  0  0  0  0  0  0  0  0
  150.7072  135.8689  154.6636 C   0  0  0  0  0  0  0  0  0  0  0  0
  150.6329  137.0945  154.1258 N   0  0  0  0  0  0  0  0  0  0  0  0
  151.4175  138.2531  154.5426 C   0  0  0  0  0  0  0  0  0  0  0  0
  150.6415  139.1661  155.5096 C   0  0  1  0  0  0  0  0  0  0  0  0
  151.3597  139.3881  156.8583 C   0  0  0  0  0  0  0  0  0  0  0  0
  150.5900  140.3903  157.7257 C   0  0  0  0  0  0  0  0  0  0  0  0
  150.3325  141.6737  156.9303 C   0  0  0  0  0  0  0  0  0  0  0  0
  149.6637  141.3414  155.5879 C   0  0  0  0  0  0  0  0  0  0  0  0
  150.4719  140.4233  154.8582 O   0  0  0  0  0  0  0  0  0  0  0  0
  149.8504  135.0276  154.0558 N   0  0  0  0  0  0  0  0  0  0  0  0
  149.6186  133.6619  154.2934 C   0  0  0  0  0  0  0  0  0  0  0  0
  150.3926  132.8636  155.0748 C   0  0  0  0  0  0  0  0  0  0  0  0
  150.0978  131.4537  155.2690 C   0  0  0  0  0  0  0  0  0  0  0  0
  150.9204  130.5904  156.2126 C   0  0  0  0  0  0  0  0  0  0  0  0
  151.9202  131.2859  156.7560 F   0  0  0  0  0  0  0  0  0  0  0  0
  150.1486  130.1347  157.1981 F   0  0  0  0  0  0  0  0  0  0  0  0
  151.4388  129.5418  155.5732 F   0  0  0  0  0  0  0  0  0  0  0  0
  149.0095  130.9756  154.6382 C   0  0  0  0  0  0  0  0  0  0  0  0
  148.2221  131.7832  153.8148 N   0  0  0  0  0  0  0  0  0  0  0  0
  148.4509  133.0976  153.5963 C   0  0  0  0  0  0  0  0  0  0  0  0
  147.7077  133.7420  152.8569 O   0  0  0  0  0  0  0  0  0  0  0  0
  147.4322  131.3455  153.3628 H   0  0  0  0  0  0  0  0  0  0  0  0
  149.9844  137.2386  153.3655 H   0  0  0  0  0  0  0  0  0  0  0  0
  152.3685  137.9506  154.9840 H   0  0  0  0  0  0  0  0  0  0  0  0
  151.6686  138.8140  153.6422 H   0  0  0  0  0  0  0  0  0  0  0  0
  149.6567  138.7300  155.6874 H   0  0  0  0  0  0  0  0  0  0  0  0
  151.4650  138.4474  157.3985 H   0  0  0  0  0  0  0  0  0  0  0  0
  152.3694  139.7602  156.6792 H   0  0  0  0  0  0  0  0  0  0  0  0
  149.6401  139.9532  158.0360 H   0  0  0  0  0  0  0  0  0  0  0  0
  151.1466  140.6117  158.6366 H   0  0  0  0  0  0  0  0  0  0  0  0
  149.7074  142.3567  157.5061 H   0  0  0  0  0  0  0  0  0  0  0  0
  151.2765  142.1892  156.7491 H   0  0  0  0  0  0  0  0  0  0  0  0
  148.6671  140.9246  155.7410 H   0  0  0  0  0  0  0  0  0  0  0  0
  149.5410  142.2486  154.9961 H   0  0  0  0  0  0  0  0  0  0  0  0
  149.2597  135.4319  153.3437 H   0  0  0  0  0  0  0  0  0  0  0  0
  151.2706  133.2484  155.5665 H   0  0  0  0  0  0  0  0  0  0  0  0
  148.6584  129.9571  154.7180 H   0  0  0  0  0  0  0  0  0  0  0  0
  1  2  2  0  0  0  0
  2  3  1  0  0  0  0
  2 11  1  0  0  0  0
  3  4  1  0  0  0  0
  3 24  1  0  0  0  0
  4  5  1  0  0  0  0
  4 25  1  0  0  0  0
  4 26  1  0  0  0  0
  5 10  1  0  0  0  0
  5  6  1  0  0  0  0
  5 27  1  0  0  0  0
  6  7  1  0  0  0  0
  6 28  1  0  0  0  0
  6 29  1  0  0  0  0
  7  8  1  0  0  0  0
  7 30  1  0  0  0  0
  7 31  1  0  0  0  0
  8  9  1  0  0  0  0
  8 32  1  0  0  0  0
  8 33  1  0  0  0  0
  9 10  1  0  0  0  0
  9 34  1  0  0  0  0
  9 35  1  0  0  0  0
 11 12  1  0  0  0  0
 11 36  1  0  0  0  0
 12 21  1  0  0  0  0
 12 13  2  0  0  0  0
 13 14  1  0  0  0  0
 13 37  1  0  0  0  0
 14 15  1  0  0  0  0
 14 19  2  0  0  0  0
 15 16  1  0  0  0  0
 15 17  1  0  0  0  0
 15 18  1  0  0  0  0
 19 20  1  0  0  0  0
 19 38  1  0  0  0  0
 20 23  1  0  0  0  0
 20 21  1  0  0  0  0
 21 22  2  0  0  0  0
M  END
> <s_m_source_file>
AV-unprocessed.smi

> <i_m_source_file_index>
1756

> <i_lp_mmshare_version>
43012

> <i_f3d_flags>
0

> <s_epik_input>
Tz1jMVtuSF1bY0hdYyhDKEYpKEYpRilbY0hdYzFbTkhdQyg9TylbTkhdW0NIMl1bQ0BASF0yW0NIMl1bQ0gyXVtDSDJdW0NIMl1PMg==

> <s_epik_cmdline>
J2VwaWtfcHl0aG9uJywgJy1waCcsICc3LjAnLCAnLXRuJywgJzgnLCAnLW1hJywgJzIwMCcsICctbWV0YWxfYmluZGluZycsICctaW1hZScsICc8aW5maWxlLm1hZT4nLCAnLW9tYWUnLCAnPG91dGZpbGUubWFlPic=

> <r_lp_tautomer_probability>
1

> <r_epik_Ionization_Penalty>
0.00380944

> <r_epik_Ionization_Penalty_Charging>
0.00379057

> <r_epik_Ionization_Penalty_Neutral>
1.88732e-05

> <r_epik_State_Penalty>
-0

> <r_epik_Charging_Adjusted_Penalty>
0.00379057

> <i_epik_Tot_Q>
0

> <i_epik_Tot_abs_Q>
0

> <r_epik_Metal_State_Penalty>
0.371099

> <b_epik_Metal_Only>
0

> <s_lp_Force_Field>
OPLS_2005

> <r_lp_Energy>
19.4394

> <b_lp_Chiralities_Consistent>
1

> <s_lp_Variant>
AV-unprocessed.smi:1756-2

> <Gold.Version>
5.8.1

> <Gold.Id.Protein>
6NUR|6NUR_protein|mol2

> <Gold.PLP.Fitness>
44.0311

> <Gold.PLP.PLP>
-34.1645

> <Gold.PLP.part.hbond>
-5.8569

> <Gold.PLP.part.metal>
0.0000

> <Gold.PLP.part.buried>
-2.6082

> <Gold.PLP.part.nonpolar>
-27.0275

> <Gold.PLP.part.repulsive>
1.0176

> <Gold.PLP.ligand.clash>
0.0000

> <Gold.PLP.ligand.torsion>
0.9447

> <Gold.PLP.Chemscore.Hbond>
3.9040

> <Gold.PLP.Chemscore.CHOScore>
0.0000

> <Gold.PLP.Chemscore.Metal>
0.0000

> <Gold.Chemscore.Hbonds>
donor molecule, donor type, donor heavy atom, donor atom, acceptor molecule, acceptor atom, score
      L1  H     3    24       P1  7948  0.81
      L1  H    11    36       P1  7948  1.00
      P1  H  7989  7998       L1    10  1.00
      P1  H 10752 10764       L1     1  0.96

> <Gold.PLP.Chemscore.Internal.Correction>
0.0440

> <Gold.Rescore>
     Score         DG    S(hbond)    S(metal)    S(lipo)     H(rot)  DE(clash)    DE(int)     intcor
     17.21     -19.27       3.00        0.00      61.42       1.33       0.00       2.06       ----

> <Gold.Chemscore.Fitness>
17.2081

> <Gold.Chemscore.DG>
-19.2662

> <Gold.Chemscore.ZeroCoef>
-5.4800

> <Gold.Chemscore.Hbond>
2.9988

> <Gold.Chemscore.Metal>
0.0000

> <Gold.Chemscore.Lipo>
61.4202

> <Gold.Chemscore.Internal_Hbond>
0.0000

> <Gold.Chemscore.DEClash>
0.0000

> <Gold.Chemscore.DEInternal>
2.0581

> <Gold.Chemscore.Rot>
1.3344

> <Gold.Chemscore.Internal.Correction>
   9.000000E+99

> <Gold.Chemscore.Hbonds>
donor molecule, donor type, donor heavy atom, donor atom, acceptor molecule, acceptor atom, score
      L1  H     3    24       P1  7948  0.23
      L1  H    11    36       P1  7948  0.25
      P1  H  7989  7998       L1    10  0.94
      P1  H 10752 10764       L1     1  0.76

> <Gold.Chemscore.Hbond.Weighted>
-10.0160

> <Gold.Chemscore.Metal.Weighted>
-0.0000

> <Gold.Chemscore.Lipo.Weighted>
-7.1862

> <Gold.Chemscore.Internal_Hbond.Weighted>
0.0000

> <Gold.Chemscore.DEClash.Weighted>
0.0000

> <Gold.Chemscore.DEInternal.Weighted>
2.0581

> <Gold.Chemscore.Rot.Weighted>
3.4160

> <Gold.Chemscore.Internal.Correction.Weighted>
   9.000000E+99

> <Gold.Protein.RotatedTorsions>
[ 6907 6896 6895 6894 ] final  -78.41 input  -60.11 | X-H torsion
[ 7974 7965 7964 7962 ] final    5.30 input  175.53 | X-H torsion
[ 8008 7997 7996 7995 ] final  121.41 input   59.86 | X-H torsion
[ 10167 10162 10161 10158 ] final -137.16 input  -65.29 | X-H torsion
[ 10718 10713 10712 10709 ] final   82.05 input   66.30 | X-H torsion
[ 10763 10752 10751 10750 ] final  -25.56 input  -60.55 | X-H torsion
[ 11005 11000 10999 10996 ] final  178.99 input  -57.11 | X-H torsion

> <Gold.Protein.ActiveResidues>
 VAL166  LYS551  ARG553  GLY616  TRP617  ASP618  TYR619  PRO620  LYS621  CYS622 
 ASP623  PHE694  ASN695  SER759  ASP760  ASP761  ALA762  ILE779  LEU786  VAL792 
 PHE793  MET794  SER795  GLU796  ALA797  LYS798  CYS799  TRP800  GLU811  SER814 

> <Gold.Protein.RotatedAtoms>
  150.6973  134.4275  159.5233 H   0  0  0  0  0  0  0  0  0  0  0  0  # atno 6907 bound_to 6896
  152.2008  134.8587  160.0517 H   0  0  0  0  0  0  0  0  0  0  0  0  # atno 6908 bound_to 6896
  151.9508  133.3630  159.4036 H   0  0  0  0  0  0  0  0  0  0  0  0  # atno 6909 bound_to 6896
  146.2441  140.0405  142.8382 H   0  0  0  0  0  0  0  0  0  0  0  0  # atno 7974 bound_to 7965
  156.2685  140.2809  156.1304 H   0  0  0  0  0  0  0  0  0  0  0  0  # atno 8008 bound_to 7997
  155.1060  140.0390  157.2728 H   0  0  0  0  0  0  0  0  0  0  0  0  # atno 8009 bound_to 7997
  154.6779  140.2602  155.6945 H   0  0  0  0  0  0  0  0  0  0  0  0  # atno 8010 bound_to 7997
  139.8605  143.7083  152.2650 H   0  0  0  0  0  0  0  0  0  0  0  0  # atno 10167 bound_to 10162
  157.6848  131.0031  150.2317 H   0  0  0  0  0  0  0  0  0  0  0  0  # atno 10718 bound_to 10713
  153.7018  135.6956  153.5061 H   0  0  0  0  0  0  0  0  0  0  0  0  # atno 10763 bound_to 10752
  153.2336  135.4329  155.0622 H   0  0  0  0  0  0  0  0  0  0  0  0  # atno 10764 bound_to 10752
  154.8342  135.3490  154.6558 H   0  0  0  0  0  0  0  0  0  0  0  0  # atno 10765 bound_to 10752
  140.4012  134.6775  157.4563 H   0  0  0  0  0  0  0  0  0  0  0  0  # atno 11005 bound_to 11000
  145.1074  140.9384  143.4677 LP  0  0  0  0  0  0  0  0  0  0  0  0  # atno 17320 bound_to 7965
  145.0611  139.3105  143.5880 LP  0  0  0  0  0  0  0  0  0  0  0  0  # atno 17321 bound_to 7965
  139.7378  144.7567  151.0700 LP  0  0  0  0  0  0  0  0  0  0  0  0  # atno 17342 bound_to 10162
  140.7775  143.5009  150.9773 LP  0  0  0  0  0  0  0  0  0  0  0  0  # atno 17343 bound_to 10162
  156.2948  130.3750  149.7807 LP  0  0  0  0  0  0  0  0  0  0  0  0  # atno 17370 bound_to 10713
  156.5455  130.8319  151.3283 LP  0  0  0  0  0  0  0  0  0  0  0  0  # atno 17371 bound_to 10713
  140.0335  134.6371  155.9075 LP  0  0  0  0  0  0  0  0  0  0  0  0  # atno 17394 bound_to 11000
  141.1856  133.6555  156.5204 LP  0  0  0  0  0  0  0  0  0  0  0  0  # atno 17395 bound_to 11000

$$$$
