#       Name:                AV-unprocessed.smi:2416
#       Creating user name   scv26
#       Creation time:       Fri Mar 27 13:17:57 2020


#       File generated by GOLD software.
#

@<TRIPOS>MOLECULE
AV-unprocessed.smi:2416
    45    46     1
SMALL
NO_CHARGES


@<TRIPOS>ATOM
      1 ****        -3.5082   3.3997  -1.2314 C.3            1 S1                 0.0000
      2 ****        -2.8138   2.1754  -1.4391 O.3            1 S1                 0.0000
      3 ****        -1.3808   2.2291  -1.4826 C.3            1 S1                 0.0000
      4 ****        -0.9135   3.1924  -2.5808 C.3            1 S1                 0.0000
      5 ****        -0.8086   2.3733  -0.0596 C.3            1 S1                 0.0000
      6 ****        -0.9404   0.8573   0.0694 C.3            1 S1                 0.0000
      7 ****         0.1668   0.2625   0.8108 N.am           1 S1                 0.0000
      8 ****         0.2831  -1.0444   1.0834 C.2            1 S1                 0.0000
      9 ****        -0.5408  -1.8872   0.7271 O.2            1 S1                 0.0000
     10 ****         1.4021  -1.2962   1.7850 N.am           1 S1                 0.0000
     11 ****         1.8916  -2.5501   2.2382 C.ar           1 S1                 0.0000
     12 ****         3.0779  -2.4869   3.0041 C.ar           1 S1                 0.0000
     13 ****         3.6472  -3.6761   3.4999 C.ar           1 S1                 0.0000
     14 ****         3.0141  -4.8986   3.2140 C.ar           1 S1                 0.0000
     15 ****         3.5238  -6.0676   3.6691 F              1 S1                 0.0000
     16 ****         1.8374  -4.8754   2.4427 C.ar           1 S1                 0.0000
     17 ****         1.2902  -3.7361   1.9678 N.ar           1 S1                 0.0000
     18 ****        -0.8288   0.7653  -1.4749 C.3            1 S1                 0.0000
     19 ****        -1.7039  -0.2979  -2.1483 C.3            1 S1                 0.0000
     20 ****         0.5847   0.5738  -2.0571 C.3            1 S1                 0.0000
     21 ****        -4.5662   3.1861  -1.0800 H              1 S1                 0.0000
     22 ****        -3.4349   4.0570  -2.0976 H              1 S1                 0.0000
     23 ****        -3.1521   3.9373  -0.3532 H              1 S1                 0.0000
     24 ****         0.1682   3.1686  -2.7079 H              1 S1                 0.0000
     25 ****        -1.1665   4.2268  -2.3500 H              1 S1                 0.0000
     26 ****        -1.3610   2.9425  -3.5430 H              1 S1                 0.0000
     27 ****         0.2248   2.7246  -0.0539 H              1 S1                 0.0000
     28 ****        -1.4146   2.9353   0.6499 H              1 S1                 0.0000
     29 ****        -1.9262   0.5689   0.4417 H              1 S1                 0.0000
     30 ****         0.8861   0.8892   1.1406 H              1 S1                 0.0000
     31 ****         1.9721  -0.4972   2.0196 H              1 S1                 0.0000
     32 ****         3.5504  -1.5379   3.2133 H              1 S1                 0.0000
     33 ****         4.5525  -3.6490   4.0884 H              1 S1                 0.0000
     34 ****         1.3221  -5.7929   2.2002 H              1 S1                 0.0000
     35 ****        -1.2765  -1.2957  -2.0444 H              1 S1                 0.0000
     36 ****        -1.8231  -0.0993  -3.2138 H              1 S1                 0.0000
     37 ****        -2.7023  -0.3408  -1.7125 H              1 S1                 0.0000
     38 ****         0.9711  -0.4261  -1.8565 H              1 S1                 0.0000
     39 ****         1.3018   1.2808  -1.6400 H              1 S1                 0.0000
     40 ****         0.5923   0.7093  -3.1391 H              1 S1                 0.0000
     41 ****        -3.1265   1.7971  -2.3104 LP             1 S1                 0.0000
     42 ****        -3.0684   1.5562  -0.6963 LP             1 S1                 0.0000
     43 ****        -1.3476  -1.6087   0.2061 LP             1 S1                 0.0000
     44 ****        -0.4031  -2.8502   0.9588 LP             1 S1                 0.0000
     45 ****         0.4519  -3.7659   1.4234 LP             1 S1                 0.0000
@<TRIPOS>BOND
    1    1    2 1     
    2    1   21 1     
    3    1   22 1     
    4    1   23 1     
    5    2    3 1     
    6    3   18 1     
    7    3    4 1     
    8    3    5 1     
    9    4   24 1     
   10    4   25 1     
   11    4   26 1     
   12    5    6 1     
   13    5   27 1     
   14    5   28 1     
   15    6    7 1     
   16    6   18 1     
   17    6   29 1     
   18    7    8 am    
   19    7   30 1     
   20    8    9 2     
   21    8   10 am    
   22   10   11 1     
   23   10   31 1     
   24   11   17 ar    
   25   11   12 ar    
   26   12   13 ar    
   27   12   32 1     
   28   13   14 ar    
   29   13   33 1     
   30   14   15 1     
   31   14   16 ar    
   32   16   17 ar    
   33   16   34 1     
   34   18   19 1     
   35   18   20 1     
   36   19   35 1     
   37   19   36 1     
   38   19   37 1     
   39   20   38 1     
   40   20   39 1     
   41   20   40 1     
   42    2   41 1     
   43    2   42 1     
   44    9   43 1     
   45    9   44 1     
   46   17   45 1     
@<TRIPOS>SUBSTRUCTURE
      1 S1             1
@<TRIPOS>SET
LONE_PAIRS      STATIC     ATOMS    <user>   **** ""
5 41 42 43 44 45
DONOR_HYDROGENS      STATIC     ATOMS    <user>   **** ""
2 30 31
ATOM$BLUE        STATIC     ATOMS    COLORGROUP SYSTEM
5 41 42 43 44 45
ATOM$RED        STATIC     ATOMS    COLORGROUP SYSTEM
2 30 31
