AV-unprocessed.smi:2534|AV-procd|sdf|9975|dock3
  -GOLD-   2272014 23D 1   1.00000     0.00000
 Structure written by MMmdl.
 40 42  0  0  0  0  0  0  0  0  1 V2000
  147.7225  141.4142  154.8153 C   0  0  0  0  0  0  0  0  0  0  0  0
  149.1867  140.9551  154.8587 C   0  0  2  0  0  0  0  0  0  0  0  0
  149.2945  139.4223  154.9794 C   0  0  0  0  0  0  0  0  0  0  0  0
  150.7619  138.9640  155.0381 C   0  0  0  0  0  0  0  0  0  0  0  0
  151.5378  139.6368  156.1956 C   0  0  2  0  0  0  0  0  0  0  0  0
  152.9030  139.3122  156.0148 O   0  0  0  0  0  0  0  0  0  0  0  0
  151.1147  139.1566  157.6134 C   0  0  0  0  0  0  0  0  0  0  0  0
  152.1118  139.3805  158.6539 N   0  0  0  0  0  0  0  0  0  0  0  0
  152.9034  138.3538  159.0607 N   0  0  0  0  0  0  0  0  0  0  0  0
  153.6929  138.8547  160.0079 C   0  0  0  0  0  0  0  0  0  0  0  0
  153.4216  140.2280  160.2546 C   0  0  0  0  0  0  0  0  0  0  0  0
  153.9577  141.2404  161.1577 C   0  0  0  0  0  0  0  0  0  0  0  0
  153.4457  142.4303  161.1178 N   0  0  0  0  0  0  0  0  0  0  0  0
  152.4049  142.7488  160.2385 N   0  0  0  0  0  0  0  0  0  0  0  0
  151.9528  144.1351  160.3480 C   0  0  0  0  0  0  0  0  0  0  0  0
  151.8353  141.8749  159.3518 C   0  0  0  0  0  0  0  0  0  0  0  0
  150.9184  142.1646  158.5836 O   0  0  0  0  0  0  0  0  0  0  0  0
  152.4187  140.5112  159.3871 C   0  0  0  0  0  0  0  0  0  0  0  0
  151.4227  141.1722  156.0647 C   0  0  0  0  0  0  0  0  0  0  0  0
  149.9605  141.6494  155.9962 C   0  0  0  0  0  0  0  0  0  0  0  0
  147.1966  141.1503  155.7335 H   0  0  0  0  0  0  0  0  0  0  0  0
  147.1904  140.9533  153.9827 H   0  0  0  0  0  0  0  0  0  0  0  0
  147.6535  142.4953  154.6914 H   0  0  0  0  0  0  0  0  0  0  0  0
  149.6497  141.2480  153.9150 H   0  0  0  0  0  0  0  0  0  0  0  0
  148.7623  139.0775  155.8665 H   0  0  0  0  0  0  0  0  0  0  0  0
  148.8026  138.9495  154.1287 H   0  0  0  0  0  0  0  0  0  0  0  0
  150.8147  137.8777  155.1050 H   0  0  0  0  0  0  0  0  0  0  0  0
  151.2365  139.2194  154.0891 H   0  0  0  0  0  0  0  0  0  0  0  0
  152.9908  138.8237  155.2107 H   0  0  0  0  0  0  0  0  0  0  0  0
  150.1880  139.6444  157.9143 H   0  0  0  0  0  0  0  0  0  0  0  0
  150.8820  138.0919  157.6023 H   0  0  0  0  0  0  0  0  0  0  0  0
  154.4215  138.2121  160.4802 H   0  0  0  0  0  0  0  0  0  0  0  0
  154.7672  140.9966  161.8454 H   0  0  0  0  0  0  0  0  0  0  0  0
  151.1411  144.3907  159.6656 H   0  0  0  0  0  0  0  0  0  0  0  0
  152.7794  144.8155  160.1404 H   0  0  0  0  0  0  0  0  0  0  0  0
  151.6011  144.3338  161.3612 H   0  0  0  0  0  0  0  0  0  0  0  0
  151.9349  141.6638  156.8927 H   0  0  0  0  0  0  0  0  0  0  0  0
  151.9340  141.5008  155.1584 H   0  0  0  0  0  0  0  0  0  0  0  0
  149.9413  142.7299  155.8490 H   0  0  0  0  0  0  0  0  0  0  0  0
  149.4640  141.4671  156.9496 H   0  0  0  0  0  0  0  0  0  0  0  0
  1  2  1  0  0  0  0
  1 21  1  0  0  0  0
  1 22  1  0  0  0  0
  1 23  1  0  0  0  0
  2 20  1  0  0  0  0
  2  3  1  0  0  0  0
  2 24  1  0  0  0  0
  3  4  1  0  0  0  0
  3 25  1  0  0  0  0
  3 26  1  0  0  0  0
  4  5  1  0  0  0  0
  4 27  1  0  0  0  0
  4 28  1  0  0  0  0
  5  6  1  0  0  0  0
  5  7  1  0  0  0  0
  5 19  1  0  0  0  0
  6 29  1  0  0  0  0
  7  8  1  0  0  0  0
  7 30  1  0  0  0  0
  7 31  1  0  0  0  0
  8 18  1  0  0  0  0
  8  9  1  0  0  0  0
  9 10  2  0  0  0  0
 10 11  1  0  0  0  0
 10 32  1  0  0  0  0
 11 18  2  0  0  0  0
 11 12  1  0  0  0  0
 12 13  2  0  0  0  0
 12 33  1  0  0  0  0
 13 14  1  0  0  0  0
 14 15  1  0  0  0  0
 14 16  1  0  0  0  0
 15 34  1  0  0  0  0
 15 35  1  0  0  0  0
 15 36  1  0  0  0  0
 16 17  2  0  0  0  0
 16 18  1  0  0  0  0
 19 20  1  0  0  0  0
 19 37  1  0  0  0  0
 19 38  1  0  0  0  0
 20 39  1  0  0  0  0
 20 40  1  0  0  0  0
M  END
> <s_m_source_file>
AV-unprocessed.smi

> <i_m_source_file_index>
2534

> <i_lp_mmshare_version>
43012

> <i_f3d_flags>
0

> <s_epik_input>
W0NIMl0xW0NIMl1bQ0BIXShbQ0gzXSlbQ0gyXVtDSDJdW0NAQF0xKFtPSF0pW0NIMl1uKG5bY0hdMiljKGMyMyljKD1PKW4oW0NIM10pbltjSF0z

> <s_epik_cmdline>
J2VwaWtfcHl0aG9uJywgJy1waCcsICc3LjAnLCAnLXRuJywgJzgnLCAnLW1hJywgJzIwMCcsICctbWV0YWxfYmluZGluZycsICctaW1hZScsICc8aW5maWxlLm1hZT4nLCAnLW9tYWUnLCAnPG91dGZpbGUubWFlPic=

> <r_lp_tautomer_probability>
1

> <r_epik_Ionization_Penalty>
4.4666e-07

> <r_epik_Ionization_Penalty_Charging>
3.10141e-10

> <r_epik_Ionization_Penalty_Neutral>
4.46349e-07

> <r_epik_State_Penalty>
-0

> <r_epik_Charging_Adjusted_Penalty>
3.10141e-10

> <i_epik_Tot_Q>
0

> <i_epik_Tot_abs_Q>
0

> <r_epik_Metal_State_Penalty>
-0

> <b_epik_Metal_Only>
0

> <s_lp_Force_Field>
OPLS_2005

> <r_lp_Energy>
31.0433

> <b_lp_Chiralities_Consistent>
1

> <s_lp_Variant>
AV-unprocessed.smi:2534-2

> <Gold.Version>
5.8.1

> <Gold.Id.Protein>
6NUR|6NUR_protein|mol2

> <Gold.PLP.Fitness>
41.8761

> <Gold.PLP.PLP>
-39.9825

> <Gold.PLP.part.hbond>
-1.0000

> <Gold.PLP.part.metal>
0.0000

> <Gold.PLP.part.buried>
-4.5246

> <Gold.PLP.part.nonpolar>
-34.2498

> <Gold.PLP.part.repulsive>
0.0980

> <Gold.PLP.ligand.clash>
0.0000

> <Gold.PLP.ligand.torsion>
0.5566

> <Gold.PLP.Chemscore.Hbond>
1.0000

> <Gold.PLP.Chemscore.CHOScore>
0.0000

> <Gold.PLP.Chemscore.Metal>
0.0000

> <Gold.Chemscore.Hbonds>
donor molecule, donor type, donor heavy atom, donor atom, acceptor molecule, acceptor atom, score
      P1  H  7997  8009       L1     6  1.00

> <Gold.PLP.Chemscore.Internal.Correction>
0.0069

> <Gold.Rescore>
     Score         DG    S(hbond)    S(metal)    S(lipo)     H(rot)  DE(clash)    DE(int)     intcor
     12.87     -15.05       0.93        0.00      91.83       1.68       0.53       1.65       ----

> <Gold.Chemscore.Fitness>
12.8700

> <Gold.Chemscore.DG>
-15.0509

> <Gold.Chemscore.ZeroCoef>
-5.4800

> <Gold.Chemscore.Hbond>
0.9331

> <Gold.Chemscore.Metal>
0.0000

> <Gold.Chemscore.Lipo>
91.8323

> <Gold.Chemscore.Internal_Hbond>
0.0000

> <Gold.Chemscore.DEClash>
0.5329

> <Gold.Chemscore.DEInternal>
1.6480

> <Gold.Chemscore.Rot>
1.6758

> <Gold.Chemscore.Internal.Correction>
   9.000000E+99

> <Gold.Chemscore.Hbonds>
donor molecule, donor type, donor heavy atom, donor atom, acceptor molecule, acceptor atom, score
      P1  H  7997  8009       L1     6  0.40

> <Gold.Chemscore.Hbond.Weighted>
-3.1165

> <Gold.Chemscore.Metal.Weighted>
-0.0000

> <Gold.Chemscore.Lipo.Weighted>
-10.7444

> <Gold.Chemscore.Internal_Hbond.Weighted>
0.0000

> <Gold.Chemscore.DEClash.Weighted>
0.5329

> <Gold.Chemscore.DEInternal.Weighted>
1.6480

> <Gold.Chemscore.Rot.Weighted>
4.2899

> <Gold.Chemscore.Internal.Correction.Weighted>
   9.000000E+99

> <Gold.Protein.RotatedTorsions>
[ 6907 6896 6895 6894 ] final  -83.46 input  -60.11 | X-H torsion
[ 7974 7965 7964 7962 ] final  -21.13 input  175.53 | X-H torsion
[ 8008 7997 7996 7995 ] final -149.16 input   59.86 | X-H torsion
[ 10167 10162 10161 10158 ] final   -9.29 input  -65.29 | X-H torsion
[ 10718 10713 10712 10709 ] final  110.58 input   66.30 | X-H torsion
[ 10763 10752 10751 10750 ] final  -14.63 input  -60.55 | X-H torsion
[ 11005 11000 10999 10996 ] final -101.06 input  -57.11 | X-H torsion

> <Gold.Protein.ActiveResidues>
 VAL166  LYS551  ARG553  GLY616  TRP617  ASP618  TYR619  PRO620  LYS621  CYS622 
 ASP623  PHE694  ASN695  SER759  ASP760  ASP761  ALA762  ILE779  LEU786  VAL792 
 PHE793  MET794  SER795  GLU796  ALA797  LYS798  CYS799  TRP800  GLU811  SER814 

> <Gold.Protein.RotatedAtoms>
  150.6885  134.3509  159.4908 H   0  0  0  0  0  0  0  0  0  0  0  0  # atno 6907 bound_to 6896
  152.1350  134.9103  160.0566 H   0  0  0  0  0  0  0  0  0  0  0  0  # atno 6908 bound_to 6896
  152.0259  133.3882  159.4314 H   0  0  0  0  0  0  0  0  0  0  0  0  # atno 6909 bound_to 6896
  146.1750  140.4298  142.8517 H   0  0  0  0  0  0  0  0  0  0  0  0  # atno 7974 bound_to 7965
  155.6032  140.0664  157.2727 H   0  0  0  0  0  0  0  0  0  0  0  0  # atno 8008 bound_to 7997
  154.4273  140.1814  156.1242 H   0  0  0  0  0  0  0  0  0  0  0  0  # atno 8009 bound_to 7997
  156.0143  140.3323  155.6976 H   0  0  0  0  0  0  0  0  0  0  0  0  # atno 8010 bound_to 7997
  140.7083  143.5874  150.8929 H   0  0  0  0  0  0  0  0  0  0  0  0  # atno 10167 bound_to 10162
  157.6487  131.0935  150.6622 H   0  0  0  0  0  0  0  0  0  0  0  0  # atno 10718 bound_to 10713
  153.5311  135.7014  153.5683 H   0  0  0  0  0  0  0  0  0  0  0  0  # atno 10763 bound_to 10752
  153.3689  135.3950  155.1774 H   0  0  0  0  0  0  0  0  0  0  0  0  # atno 10764 bound_to 10752
  154.8684  135.3807  154.4808 H   0  0  0  0  0  0  0  0  0  0  0  0  # atno 10765 bound_to 10752
  141.1246  133.8448  157.1183 H   0  0  0  0  0  0  0  0  0  0  0  0  # atno 11005 bound_to 11000
  144.8222  140.6569  143.6345 LP  0  0  0  0  0  0  0  0  0  0  0  0  # atno 17320 bound_to 7965
  145.4236  139.1560  143.4060 LP  0  0  0  0  0  0  0  0  0  0  0  0  # atno 17321 bound_to 7965
  139.9600  143.6175  152.3005 LP  0  0  0  0  0  0  0  0  0  0  0  0  # atno 17342 bound_to 10162
  139.6724  144.7660  151.1758 LP  0  0  0  0  0  0  0  0  0  0  0  0  # atno 17343 bound_to 10162
  156.6936  130.4602  149.5592 LP  0  0  0  0  0  0  0  0  0  0  0  0  # atno 17370 bound_to 10713
  156.1844  130.6520  151.0989 LP  0  0  0  0  0  0  0  0  0  0  0  0  # atno 17371 bound_to 10713
  140.0232  134.9936  157.0634 LP  0  0  0  0  0  0  0  0  0  0  0  0  # atno 17394 bound_to 11000
  140.4405  134.1686  155.7173 LP  0  0  0  0  0  0  0  0  0  0  0  0  # atno 17395 bound_to 11000

$$$$
