AV-unprocessed.smi:285|AV-procd|sdf|2168|dock7
  -GOLD-   2262021533D 1   1.00000     0.00000
 Structure written by MMmdl.
 31 33  0  0  0  0  0  0  0  0  1 V2000
  150.8233  137.7222  155.2037 N   0  0  0  0  0  0  0  0  0  0  0  0
  150.5604  139.0177  155.4253 C   0  0  0  0  0  0  0  0  0  0  0  0
  149.6770  139.6428  154.6123 N   0  0  0  0  0  0  0  0  0  0  0  0
  149.3975  140.9352  154.8110 C   0  0  0  0  0  0  0  0  0  0  0  0
  149.8810  141.7615  155.7426 N   0  0  0  0  0  0  0  0  0  0  0  0
  150.7714  141.1294  156.5636 C   0  0  0  0  0  0  0  0  0  0  0  0
  151.1644  139.7622  156.4698 C   0  0  0  0  0  0  0  0  0  0  0  0
  152.0887  139.4592  157.4621 N   0  0  0  0  0  0  0  0  0  0  0  0
  152.2172  140.5940  158.0913 C   0  0  0  0  0  0  0  0  0  0  0  0
  153.4076  140.7470  159.5700 Br  0  0  0  0  0  0  0  0  0  0  0  0
  151.4713  141.6555  157.6312 N   0  0  0  0  0  0  0  0  0  0  0  0
  151.4055  143.0572  158.1437 C   0  0  1  0  0  0  0  0  0  0  0  0
  150.0025  143.4097  158.6266 C   0  0  0  0  0  0  0  0  0  0  0  0
  150.2869  144.3583  159.7863 C   0  0  2  0  0  0  0  0  0  0  0  0
  149.8418  145.6651  159.4808 O   0  0  0  0  0  0  0  0  0  0  0  0
  151.8190  144.3269  159.9633 C   0  0  1  0  0  0  0  0  0  0  0  0
  152.2637  144.2193  161.4299 C   0  0  0  0  0  0  0  0  0  0  0  0
  151.7318  143.0496  162.0146 O   0  0  0  0  0  0  0  0  0  0  0  0
  152.2254  143.1634  159.2548 O   0  0  0  0  0  0  0  0  0  0  0  0
  151.4791  137.2329  155.7959 H   0  0  0  0  0  0  0  0  0  0  0  0
  150.3643  137.2371  154.4463 H   0  0  0  0  0  0  0  0  0  0  0  0
  148.6842  141.3695  154.1263 H   0  0  0  0  0  0  0  0  0  0  0  0
  151.7653  143.7012  157.3410 H   0  0  0  0  0  0  0  0  0  0  0  0
  149.4157  143.8425  157.8151 H   0  0  0  0  0  0  0  0  0  0  0  0
  149.4936  142.5162  158.9900 H   0  0  0  0  0  0  0  0  0  0  0  0
  149.7736  144.0043  160.6814 H   0  0  0  0  0  0  0  0  0  0  0  0
  149.1939  145.6111  158.7949 H   0  0  0  0  0  0  0  0  0  0  0  0
  152.2670  145.1998  159.4828 H   0  0  0  0  0  0  0  0  0  0  0  0
  153.3500  144.1457  161.4879 H   0  0  0  0  0  0  0  0  0  0  0  0
  151.9665  145.1004  161.9998 H   0  0  0  0  0  0  0  0  0  0  0  0
  152.4469  142.5226  162.3368 H   0  0  0  0  0  0  0  0  0  0  0  0
  1  2  1  0  0  0  0
  1 20  1  0  0  0  0
  1 21  1  0  0  0  0
  2  7  1  0  0  0  0
  2  3  2  0  0  0  0
  3  4  1  0  0  0  0
  4  5  2  0  0  0  0
  4 22  1  0  0  0  0
  5  6  1  0  0  0  0
  6 11  1  0  0  0  0
  6  7  2  0  0  0  0
  7  8  1  0  0  0  0
  8  9  2  0  0  0  0
  9 10  1  0  0  0  0
  9 11  1  0  0  0  0
 11 12  1  0  0  0  0
 12 19  1  0  0  0  0
 12 13  1  0  0  0  0
 12 23  1  0  0  0  0
 13 14  1  0  0  0  0
 13 24  1  0  0  0  0
 13 25  1  0  0  0  0
 14 15  1  0  0  0  0
 14 16  1  0  0  0  0
 14 26  1  0  0  0  0
 15 27  1  0  0  0  0
 16 17  1  0  0  0  0
 16 19  1  0  0  0  0
 16 28  1  0  0  0  0
 17 18  1  0  0  0  0
 17 29  1  0  0  0  0
 17 30  1  0  0  0  0
 18 31  1  0  0  0  0
M  END
> <s_m_source_file>
AV-unprocessed.smi

> <i_m_source_file_index>
285

> <i_lp_mmshare_version>
43012

> <i_f3d_flags>
0

> <s_epik_input>
bjFbY0hdbmMoW05IMl0pYyhjMTIpbmMoQnIpbjJbQ0BASF0zW0NIMl1bQ0BASF0oW09IXSlbQ0BIXShPMylbQ0gyXVtPSF0=

> <s_epik_cmdline>
J2VwaWtfcHl0aG9uJywgJy1waCcsICc3LjAnLCAnLXRuJywgJzgnLCAnLW1hJywgJzIwMCcsICctbWV0YWxfYmluZGluZycsICctaW1hZScsICc8aW5maWxlLm1hZT4nLCAnLW9tYWUnLCAnPG91dGZpbGUubWFlPic=

> <r_lp_tautomer_probability>
1

> <r_epik_Ionization_Penalty>
0.000103242

> <r_epik_Ionization_Penalty_Charging>
0

> <r_epik_Ionization_Penalty_Neutral>
0.000103242

> <r_epik_State_Penalty>
-0

> <r_epik_Charging_Adjusted_Penalty>
0

> <i_epik_Tot_Q>
0

> <i_epik_Tot_abs_Q>
0

> <r_epik_Metal_State_Penalty>
-0

> <b_epik_Metal_Only>
0

> <s_epik_Chemistry_Notes>
This compound contains an acetal/aminal-like group ( X-CH(R)-Y where X, Y are N, S, or O) that may be acid/base labile, releasing an aldehyde.

> <s_lp_Force_Field>
OPLS_2005

> <r_lp_Energy>
33.2332

> <b_lp_Chiralities_Consistent>
1

> <s_lp_Variant>
AV-unprocessed.smi:285-4

> <Gold.Version>
5.8.1

> <Gold.Id.Protein>
6NUR|6NUR_protein|mol2

> <Gold.PLP.Fitness>
40.5669

> <Gold.PLP.PLP>
-35.1675

> <Gold.PLP.part.hbond>
-4.6175

> <Gold.PLP.part.metal>
0.0000

> <Gold.PLP.part.buried>
-5.5646

> <Gold.PLP.part.nonpolar>
-25.7720

> <Gold.PLP.part.repulsive>
0.6184

> <Gold.PLP.ligand.clash>
0.0000

> <Gold.PLP.ligand.torsion>
0.0096

> <Gold.PLP.Chemscore.Hbond>
1.8000

> <Gold.PLP.Chemscore.CHOScore>
0.0000

> <Gold.PLP.Chemscore.Metal>
0.0000

> <Gold.Chemscore.Hbonds>
donor molecule, donor type, donor heavy atom, donor atom, acceptor molecule, acceptor atom, score
      L1  H    15    27       P1  8029  1.00
      P1  H  6933  6945       L1    18  0.60

> <Gold.PLP.Chemscore.Internal.Correction>
0.0185

> <Gold.Rescore>
     Score         DG    S(hbond)    S(metal)    S(lipo)     H(rot)  DE(clash)    DE(int)     intcor
      7.70      -9.35       1.74        0.00      50.44       3.06       0.05       1.59       ----

> <Gold.Chemscore.Fitness>
7.6993

> <Gold.Chemscore.DG>
-9.3476

> <Gold.Chemscore.ZeroCoef>
-5.4800

> <Gold.Chemscore.Hbond>
1.7370

> <Gold.Chemscore.Metal>
0.0000

> <Gold.Chemscore.Lipo>
50.4391

> <Gold.Chemscore.Internal_Hbond>
0.0000

> <Gold.Chemscore.DEClash>
0.0537

> <Gold.Chemscore.DEInternal>
1.5946

> <Gold.Chemscore.Rot>
3.0607

> <Gold.Chemscore.Internal.Correction>
   9.000000E+99

> <Gold.Chemscore.Hbonds>
donor molecule, donor type, donor heavy atom, donor atom, acceptor molecule, acceptor atom, score
      L1  H    15    27       P1  8029  0.94
      P1  H  6933  6945       L1    18  0.23

> <Gold.Chemscore.Hbond.Weighted>
-5.8016

> <Gold.Chemscore.Metal.Weighted>
-0.0000

> <Gold.Chemscore.Lipo.Weighted>
-5.9014

> <Gold.Chemscore.Internal_Hbond.Weighted>
0.0000

> <Gold.Chemscore.DEClash.Weighted>
0.0537

> <Gold.Chemscore.DEInternal.Weighted>
1.5946

> <Gold.Chemscore.Rot.Weighted>
7.8354

> <Gold.Chemscore.Internal.Correction.Weighted>
   9.000000E+99

> <Gold.Protein.RotatedTorsions>
[ 6907 6896 6895 6894 ] final  174.03 input  -60.11 | X-H torsion
[ 7974 7965 7964 7962 ] final  -53.38 input  175.53 | X-H torsion
[ 8008 7997 7996 7995 ] final  -29.25 input   59.86 | X-H torsion
[ 10167 10162 10161 10158 ] final  163.39 input  -65.29 | X-H torsion
[ 10718 10713 10712 10709 ] final   52.51 input   66.30 | X-H torsion
[ 10763 10752 10751 10750 ] final  -16.41 input  -60.55 | X-H torsion
[ 11005 11000 10999 10996 ] final  -46.13 input  -57.11 | X-H torsion

> <Gold.Protein.ActiveResidues>
 VAL166  LYS551  ARG553  GLY616  TRP617  ASP618  TYR619  PRO620  LYS621  CYS622 
 ASP623  PHE694  ASN695  SER759  ASP760  ASP761  ALA762  ILE779  LEU786  VAL792 
 PHE793  MET794  SER795  GLU796  ALA797  LYS798  CYS799  TRP800  GLU811  SER814 

> <Gold.Protein.RotatedAtoms>
  151.7588  133.3332  159.3411 H   0  0  0  0  0  0  0  0  0  0  0  0  # atno 6907 bound_to 6896
  150.7506  134.6125  159.6103 H   0  0  0  0  0  0  0  0  0  0  0  0  # atno 6908 bound_to 6896
  152.3419  134.7125  160.0313 H   0  0  0  0  0  0  0  0  0  0  0  0  # atno 6909 bound_to 6896
  145.8975  140.8021  142.9760 H   0  0  0  0  0  0  0  0  0  0  0  0  # atno 7974 bound_to 7965
  154.4297  140.1823  156.1218 H   0  0  0  0  0  0  0  0  0  0  0  0  # atno 8008 bound_to 7997
  156.0137  140.3348  155.6941 H   0  0  0  0  0  0  0  0  0  0  0  0  # atno 8009 bound_to 7997
  155.6075  140.0646  157.2706 H   0  0  0  0  0  0  0  0  0  0  0  0  # atno 8010 bound_to 7997
  139.4873  144.4342  151.9033 H   0  0  0  0  0  0  0  0  0  0  0  0  # atno 10167 bound_to 10162
  157.5082  130.8483  149.8401 H   0  0  0  0  0  0  0  0  0  0  0  0  # atno 10718 bound_to 10713
  153.5581  135.7010  153.5560 H   0  0  0  0  0  0  0  0  0  0  0  0  # atno 10763 bound_to 10752
  153.3454  135.4009  155.1604 H   0  0  0  0  0  0  0  0  0  0  0  0  # atno 10764 bound_to 10752
  154.8652  135.3752  154.5097 H   0  0  0  0  0  0  0  0  0  0  0  0  # atno 10765 bound_to 10752
  141.0559  133.6726  156.3111 H   0  0  0  0  0  0  0  0  0  0  0  0  # atno 11005 bound_to 11000
  144.6734  140.1624  143.7421 LP  0  0  0  0  0  0  0  0  0  0  0  0  # atno 17320 bound_to 7965
  145.8833  139.2335  143.1592 LP  0  0  0  0  0  0  0  0  0  0  0  0  # atno 17321 bound_to 7965
  140.3791  144.2759  150.5910 LP  0  0  0  0  0  0  0  0  0  0  0  0  # atno 17342 bound_to 10162
  140.5250  143.2256  151.8330 LP  0  0  0  0  0  0  0  0  0  0  0  0  # atno 17343 bound_to 10162
  156.0272  130.3776  150.1790 LP  0  0  0  0  0  0  0  0  0  0  0  0  # atno 17370 bound_to 10713
  156.9980  130.9913  151.3398 LP  0  0  0  0  0  0  0  0  0  0  0  0  # atno 17371 bound_to 10713
  140.5964  134.5598  157.5509 LP  0  0  0  0  0  0  0  0  0  0  0  0  # atno 17394 bound_to 11000
  139.9390  134.7822  156.0728 LP  0  0  0  0  0  0  0  0  0  0  0  0  # atno 17395 bound_to 11000

$$$$
