AV-unprocessed.smi:33|AV-procd|sdf|201|dock7
  -GOLD-   2262015473D 1   1.00000     0.00000
 Structure written by MMmdl.
 67 72  0  0  0  0  0  0  0  0  1 V2000
  150.9606  142.9874  157.7841 O   0  0  0  0  0  0  0  0  0  0  0  0
  151.7343  142.1951  158.3259 C   0  0  0  0  0  0  0  0  0  0  0  0
  152.2241  141.0976  157.7170 O   0  0  0  0  0  0  0  0  0  0  0  0
  151.6845  140.6760  156.4752 C   0  0  0  0  0  0  0  0  0  0  0  0
  150.3051  140.0492  156.7114 C   0  0  2  0  0  0  0  0  0  0  0  0
  150.4034  138.9056  157.5452 O   0  0  0  0  0  0  0  0  0  0  0  0
  149.2534  138.1372  157.3796 C   0  0  2  0  0  0  0  0  0  0  0  0
  149.6377  136.6993  157.4959 N   0  0  0  0  0  0  0  0  0  0  0  0
  150.8716  136.1835  157.8250 C   0  0  0  0  0  0  0  0  0  0  0  0
  150.9420  134.8801  157.8597 N   0  0  0  0  0  0  0  0  0  0  0  0
  149.6595  134.4661  157.5233 C   0  0  0  0  0  0  0  0  0  0  0  0
  149.0387  133.1968  157.3695 C   0  0  0  0  0  0  0  0  0  0  0  0
  149.6987  132.0277  157.5453 N   0  0  0  0  0  0  0  0  0  0  0  0
  149.4785  131.3189  158.8148 C   0  0  0  0  0  0  0  0  0  0  0  0
  149.6502  130.0996  158.8690 O   0  0  0  0  0  0  0  0  0  0  0  0
  149.0012  132.0628  160.0301 C   0  0  0  0  0  0  0  0  0  0  0  0
  149.6072  133.2857  160.3929 C   0  0  0  0  0  0  0  0  0  0  0  0
  149.1531  133.9960  161.5210 C   0  0  0  0  0  0  0  0  0  0  0  0
  148.0787  133.4979  162.2825 C   0  0  0  0  0  0  0  0  0  0  0  0
  147.4517  132.2935  161.9099 C   0  0  0  0  0  0  0  0  0  0  0  0
  147.9054  131.5824  160.7822 C   0  0  0  0  0  0  0  0  0  0  0  0
  150.5815  131.5791  156.4583 C   0  0  0  0  0  0  0  0  0  0  0  0
  151.5331  130.8387  156.7144 O   0  0  0  0  0  0  0  0  0  0  0  0
  150.3653  132.0644  155.0526 C   0  0  0  0  0  0  0  0  0  0  0  0
  151.4730  132.3297  154.2177 C   0  0  0  0  0  0  0  0  0  0  0  0
  151.2755  132.7758  152.8965 C   0  0  0  0  0  0  0  0  0  0  0  0
  149.9699  132.9398  152.3954 C   0  0  0  0  0  0  0  0  0  0  0  0
  148.8614  132.6494  153.2131 C   0  0  0  0  0  0  0  0  0  0  0  0
  149.0579  132.2050  154.5347 C   0  0  0  0  0  0  0  0  0  0  0  0
  147.7246  133.1674  157.0263 N   0  0  0  0  0  0  0  0  0  0  0  0
  147.0603  134.3122  156.8437 C   0  0  0  0  0  0  0  0  0  0  0  0
  147.5101  135.5642  156.9506 N   0  0  0  0  0  0  0  0  0  0  0  0
  148.8301  135.5984  157.2960 C   0  0  0  0  0  0  0  0  0  0  0  0
  148.6795  138.4438  155.9847 C   0  0  1  0  0  0  0  0  0  0  0  0
  147.3697  138.9696  156.0587 O   0  0  0  0  0  0  0  0  0  0  0  0
  149.6345  139.5037  155.4489 C   0  0  2  0  0  0  0  0  0  0  0  0
  150.5296  138.9278  154.6446 F   0  0  0  0  0  0  0  0  0  0  0  0
  152.2269  142.3520  159.7249 C   0  0  0  0  0  0  0  0  0  0  0  0
  151.6195  143.3102  160.5700 C   0  0  0  0  0  0  0  0  0  0  0  0
  152.0656  143.4840  161.8947 C   0  0  0  0  0  0  0  0  0  0  0  0
  153.1252  142.7022  162.3904 C   0  0  0  0  0  0  0  0  0  0  0  0
  153.7383  141.7462  161.5598 C   0  0  0  0  0  0  0  0  0  0  0  0
  153.2933  141.5705  160.2350 C   0  0  0  0  0  0  0  0  0  0  0  0
  151.5904  141.5403  155.8164 H   0  0  0  0  0  0  0  0  0  0  0  0
  152.3526  139.9618  155.9911 H   0  0  0  0  0  0  0  0  0  0  0  0
  149.6377  140.7713  157.1855 H   0  0  0  0  0  0  0  0  0  0  0  0
  148.5496  138.3122  158.1950 H   0  0  0  0  0  0  0  0  0  0  0  0
  151.7248  136.8093  158.0433 H   0  0  0  0  0  0  0  0  0  0  0  0
  150.4319  133.6780  159.8154 H   0  0  0  0  0  0  0  0  0  0  0  0
  149.6286  134.9243  161.8011 H   0  0  0  0  0  0  0  0  0  0  0  0
  147.7310  134.0431  163.1475 H   0  0  0  0  0  0  0  0  0  0  0  0
  146.6212  131.9162  162.4880 H   0  0  0  0  0  0  0  0  0  0  0  0
  147.4128  130.6621  160.5022 H   0  0  0  0  0  0  0  0  0  0  0  0
  152.4795  132.2081  154.5915 H   0  0  0  0  0  0  0  0  0  0  0  0
  152.1264  132.9920  152.2675 H   0  0  0  0  0  0  0  0  0  0  0  0
  149.8189  133.2821  151.3823 H   0  0  0  0  0  0  0  0  0  0  0  0
  147.8597  132.7670  152.8267 H   0  0  0  0  0  0  0  0  0  0  0  0
  148.1995  131.9815  155.1519 H   0  0  0  0  0  0  0  0  0  0  0  0
  146.0199  134.2109  156.5722 H   0  0  0  0  0  0  0  0  0  0  0  0
  148.6697  137.5529  155.3544 H   0  0  0  0  0  0  0  0  0  0  0  0
  147.4273  139.9066  156.1660 H   0  0  0  0  0  0  0  0  0  0  0  0
  149.1439  140.2802  154.8606 H   0  0  0  0  0  0  0  0  0  0  0  0
  150.8051  143.9232  160.2113 H   0  0  0  0  0  0  0  0  0  0  0  0
  151.5944  144.2192  162.5304 H   0  0  0  0  0  0  0  0  0  0  0  0
  153.4669  142.8356  163.4061 H   0  0  0  0  0  0  0  0  0  0  0  0
  154.5523  141.1459  161.9386 H   0  0  0  0  0  0  0  0  0  0  0  0
  153.7872  140.8293  159.6239 H   0  0  0  0  0  0  0  0  0  0  0  0
  1  2  2  0  0  0  0
  2  3  1  0  0  0  0
  2 38  1  0  0  0  0
  3  4  1  0  0  0  0
  4  5  1  0  0  0  0
  4 44  1  0  0  0  0
  4 45  1  0  0  0  0
  5 36  1  0  0  0  0
  5  6  1  0  0  0  0
  5 46  1  0  0  0  0
  6  7  1  0  0  0  0
  7  8  1  0  0  0  0
  7 34  1  0  0  0  0
  7 47  1  0  0  0  0
  8 33  1  0  0  0  0
  8  9  1  0  0  0  0
  9 10  2  0  0  0  0
  9 48  1  0  0  0  0
 10 11  1  0  0  0  0
 11 33  2  0  0  0  0
 11 12  1  0  0  0  0
 12 13  1  0  0  0  0
 12 30  2  0  0  0  0
 13 14  1  0  0  0  0
 13 22  1  0  0  0  0
 14 15  2  0  0  0  0
 14 16  1  0  0  0  0
 16 21  1  0  0  0  0
 16 17  2  0  0  0  0
 17 18  1  0  0  0  0
 17 49  1  0  0  0  0
 18 19  2  0  0  0  0
 18 50  1  0  0  0  0
 19 20  1  0  0  0  0
 19 51  1  0  0  0  0
 20 21  2  0  0  0  0
 20 52  1  0  0  0  0
 21 53  1  0  0  0  0
 22 23  2  0  0  0  0
 22 24  1  0  0  0  0
 24 29  1  0  0  0  0
 24 25  2  0  0  0  0
 25 26  1  0  0  0  0
 25 54  1  0  0  0  0
 26 27  2  0  0  0  0
 26 55  1  0  0  0  0
 27 28  1  0  0  0  0
 27 56  1  0  0  0  0
 28 29  2  0  0  0  0
 28 57  1  0  0  0  0
 29 58  1  0  0  0  0
 30 31  1  0  0  0  0
 31 32  2  0  0  0  0
 31 59  1  0  0  0  0
 32 33  1  0  0  0  0
 34 35  1  0  0  0  0
 34 36  1  0  0  0  0
 34 60  1  0  0  0  0
 35 61  1  0  0  0  0
 36 37  1  0  0  0  0
 36 62  1  0  0  0  0
 38 43  1  0  0  0  0
 38 39  2  0  0  0  0
 39 40  1  0  0  0  0
 39 63  1  0  0  0  0
 40 41  2  0  0  0  0
 40 64  1  0  0  0  0
 41 42  1  0  0  0  0
 41 65  1  0  0  0  0
 42 43  2  0  0  0  0
 42 66  1  0  0  0  0
 43 67  1  0  0  0  0
M  END
> <s_m_source_file>
AV-unprocessed.smi

> <i_m_source_file_index>
33

> <i_lp_mmshare_version>
43012

> <i_f3d_flags>
0

> <s_epik_input>
W2NIXTFbY0hdW2NIXVtjSF1bY0hdYzFDKD1PKU9bQ0gyXVtDQEBIXTJPW0NASF0oW0NAQEhdKFtPSF0pW0NAQEhdMkYpbihbY0hdbjMpYyhjMzQpbltjSF1uYzROKEMoPU8pYzVbY0hdW2NIXVtjSF1bY0hdW2NIXTUpQyg9TyljNltjSF1bY0hdW2NIXVtjSF1bY0hdNg==

> <s_epik_cmdline>
J2VwaWtfcHl0aG9uJywgJy1waCcsICc3LjAnLCAnLXRuJywgJzgnLCAnLW1hJywgJzIwMCcsICctbWV0YWxfYmluZGluZycsICctaW1hZScsICc8aW5maWxlLm1hZT4nLCAnLW9tYWUnLCAnPG91dGZpbGUubWFlPic=

> <r_lp_tautomer_probability>
1

> <r_epik_Ionization_Penalty>
0.00067664

> <r_epik_Ionization_Penalty_Charging>
0

> <r_epik_Ionization_Penalty_Neutral>
0.00067664

> <r_epik_State_Penalty>
0.000428095

> <r_epik_Charging_Adjusted_Penalty>
0.000428095

> <i_epik_Tot_Q>
0

> <i_epik_Tot_abs_Q>
0

> <r_epik_Metal_State_Penalty>
-0

> <b_epik_Metal_Only>
0

> <s_epik_Chemistry_Notes>
This compound has an ester and may undergo hydrolysis at high or low pH. This compound contains an acetal/aminal-like group ( X-CH(R)-Y where X, Y are N, S, or O) that may be acid/base labile, releasing an aldehyde.

> <s_lp_Force_Field>
OPLS_2005

> <r_lp_Energy>
66.4626

> <b_lp_Chiralities_Consistent>
1

> <s_lp_Variant>
AV-unprocessed.smi:33-3

> <Gold.Version>
5.8.1

> <Gold.Id.Protein>
6NUR|6NUR_protein|mol2

> <Gold.PLP.Fitness>
60.6854

> <Gold.PLP.PLP>
-60.1381

> <Gold.PLP.part.hbond>
-1.0000

> <Gold.PLP.part.metal>
0.0000

> <Gold.PLP.part.buried>
-8.9223

> <Gold.PLP.part.nonpolar>
-49.4435

> <Gold.PLP.part.repulsive>
0.1297

> <Gold.PLP.ligand.clash>
0.0000

> <Gold.PLP.ligand.torsion>
3.5390

> <Gold.PLP.Chemscore.Hbond>
1.0000

> <Gold.PLP.Chemscore.CHOScore>
0.0000

> <Gold.PLP.Chemscore.Metal>
0.0000

> <Gold.Chemscore.Hbonds>
donor molecule, donor type, donor heavy atom, donor atom, acceptor molecule, acceptor atom, score
      P1  H  6896  6907       L1    10  0.11

> <Gold.PLP.Chemscore.Internal.Correction>
4.6253

> <Gold.Rescore>
     Score         DG    S(hbond)    S(metal)    S(lipo)     H(rot)  DE(clash)    DE(int)     intcor
     15.25     -20.25       0.98        0.00     153.50       2.52       0.01       4.99       ----

> <Gold.Chemscore.Fitness>
15.2495

> <Gold.Chemscore.DG>
-20.2512

> <Gold.Chemscore.ZeroCoef>
-5.4800

> <Gold.Chemscore.Hbond>
0.9807

> <Gold.Chemscore.Metal>
0.0000

> <Gold.Chemscore.Lipo>
153.4952

> <Gold.Chemscore.Internal_Hbond>
0.0000

> <Gold.Chemscore.DEClash>
0.0068

> <Gold.Chemscore.DEInternal>
4.9949

> <Gold.Chemscore.Rot>
2.5247

> <Gold.Chemscore.Internal.Correction>
   9.000000E+99

> <Gold.Chemscore.Hbond.Weighted>
-3.2756

> <Gold.Chemscore.Metal.Weighted>
-0.0000

> <Gold.Chemscore.Lipo.Weighted>
-17.9589

> <Gold.Chemscore.Internal_Hbond.Weighted>
0.0000

> <Gold.Chemscore.DEClash.Weighted>
0.0068

> <Gold.Chemscore.DEInternal.Weighted>
4.9949

> <Gold.Chemscore.Rot.Weighted>
6.4633

> <Gold.Chemscore.Internal.Correction.Weighted>
   9.000000E+99

> <Gold.Protein.RotatedTorsions>
[ 6907 6896 6895 6894 ] final  -91.69 input  -60.11 | X-H torsion
[ 7974 7965 7964 7962 ] final  -92.36 input  175.53 | X-H torsion
[ 8008 7997 7996 7995 ] final   20.24 input   59.86 | X-H torsion
[ 10167 10162 10161 10158 ] final  -88.26 input  -65.29 | X-H torsion
[ 10718 10713 10712 10709 ] final  -35.33 input   66.30 | X-H torsion
[ 10763 10752 10751 10750 ] final   29.86 input  -60.55 | X-H torsion
[ 11005 11000 10999 10996 ] final -130.54 input  -57.11 | X-H torsion

> <Gold.Protein.ActiveResidues>
 VAL166  LYS551  ARG553  GLY616  TRP617  ASP618  TYR619  PRO620  LYS621  CYS622 
 ASP623  PHE694  ASN695  SER759  ASP760  ASP761  ALA762  ILE779  LEU786  VAL792 
 PHE793  MET794  SER795  GLU796  ALA797  LYS798  CYS799  TRP800  GLU811  SER814 

> <Gold.Protein.RotatedAtoms>
  150.6896  134.2238  159.4406 H   0  0  0  0  0  0  0  0  0  0  0  0  # atno 6907 bound_to 6896
  152.0192  134.9830  160.0579 H   0  0  0  0  0  0  0  0  0  0  0  0  # atno 6908 bound_to 6896
  152.1413  133.4431  159.4805 H   0  0  0  0  0  0  0  0  0  0  0  0  # atno 6909 bound_to 6896
  145.4009  140.9537  143.2288 H   0  0  0  0  0  0  0  0  0  0  0  0  # atno 7974 bound_to 7965
  154.9326  140.3042  155.5160 H   0  0  0  0  0  0  0  0  0  0  0  0  # atno 8008 bound_to 7997
  156.3002  140.2351  156.4324 H   0  0  0  0  0  0  0  0  0  0  0  0  # atno 8009 bound_to 7997
  154.8222  140.0422  157.1407 H   0  0  0  0  0  0  0  0  0  0  0  0  # atno 8010 bound_to 7997
  140.3764  143.2769  151.9437 H   0  0  0  0  0  0  0  0  0  0  0  0  # atno 10167 bound_to 10162
  156.3400  130.4292  149.7796 H   0  0  0  0  0  0  0  0  0  0  0  0  # atno 10718 bound_to 10713
  153.0405  135.6478  154.0956 H   0  0  0  0  0  0  0  0  0  0  0  0  # atno 10763 bound_to 10752
  154.0663  135.2884  155.3317 H   0  0  0  0  0  0  0  0  0  0  0  0  # atno 10764 bound_to 10752
  154.6624  135.5386  153.8099 H   0  0  0  0  0  0  0  0  0  0  0  0  # atno 10765 bound_to 10752
  140.9336  134.1286  157.4213 H   0  0  0  0  0  0  0  0  0  0  0  0  # atno 11005 bound_to 11000
  144.8375  139.5527  143.6916 LP  0  0  0  0  0  0  0  0  0  0  0  0  # atno 17320 bound_to 7965
  146.2752  139.6735  142.9268 LP  0  0  0  0  0  0  0  0  0  0  0  0  # atno 17321 bound_to 7965
  139.4799  144.5859  151.7854 LP  0  0  0  0  0  0  0  0  0  0  0  0  # atno 17342 bound_to 10162
  140.4981  144.1210  150.5965 LP  0  0  0  0  0  0  0  0  0  0  0  0  # atno 17343 bound_to 10162
  156.5036  130.8140  151.3142 LP  0  0  0  0  0  0  0  0  0  0  0  0  # atno 17370 bound_to 10713
  157.7445  130.9936  150.2680 LP  0  0  0  0  0  0  0  0  0  0  0  0  # atno 17371 bound_to 10713
  139.8802  135.0013  156.6062 LP  0  0  0  0  0  0  0  0  0  0  0  0  # atno 17394 bound_to 11000
  140.7829  133.8645  155.8582 LP  0  0  0  0  0  0  0  0  0  0  0  0  # atno 17395 bound_to 11000

$$$$
