AV-unprocessed.smi:1385|AV-procd|sdf|5629|dock2
  -GOLD-   22720 5243D 1   1.00000     0.00000
 Structure written by MMmdl.
 39 40  0  0  0  0  0  0  0  0  2 V2000
  147.5484  136.6952  163.4954 C   0  0  0  0  0  0  0  0  0  0  0  0
  147.3795  136.4649  162.0326 C   0  0  0  0  0  0  0  0  0  0  0  0
  146.9920  137.4287  161.1885 N   0  0  0  0  0  0  0  0  0  0  0  0
  146.9070  136.9776  159.8786 N   0  0  0  0  0  0  0  0  0  0  0  0
  147.2372  135.6831  159.7732 C   0  0  0  0  0  0  0  0  0  0  0  0
  147.2376  134.9659  158.5474 N   0  0  0  0  0  0  0  0  0  0  0  0
  146.5006  135.1982  157.4468 C   0  0  0  0  0  0  0  0  0  0  0  0
  145.6724  136.1007  157.3207 O   0  0  0  0  0  0  0  0  0  0  0  0
  146.7782  134.3122  156.4788 N   0  0  0  0  0  0  0  0  0  0  0  0
  146.1636  134.2984  155.1544 C   0  0  2  0  0  0  0  0  0  0  0  0
  146.8315  133.2488  154.2476 C   0  0  0  0  0  0  0  0  0  0  0  0
  146.2482  133.2962  152.8261 C   0  0  0  0  0  0  0  0  0  0  0  0
  146.3847  134.6547  152.2357 N   0  3  1  0  0  0  0  0  0  0  0  0
  145.9573  134.7180  150.8140 C   0  0  0  0  0  0  0  0  0  0  0  0
  144.4503  134.5097  150.6303 C   0  0  0  0  0  0  0  0  0  0  0  0
  143.9987  134.4555  149.3754 N   0  0  0  0  0  0  0  0  0  0  0  0
  143.7057  134.3845  151.6011 O   0  0  0  0  0  0  0  0  0  0  0  0
  145.7173  135.6830  153.0746 C   0  0  0  0  0  0  0  0  0  0  0  0
  146.2821  135.6870  154.5057 C   0  0  0  0  0  0  0  0  0  0  0  0
  147.6831  134.9031  161.2812 S   0  0  0  0  0  0  0  0  0  0  0  0
  146.8772  137.4837  163.8375 H   0  0  0  0  0  0  0  0  0  0  0  0
  148.5758  136.9906  163.7089 H   0  0  0  0  0  0  0  0  0  0  0  0
  147.3232  135.7832  164.0482 H   0  0  0  0  0  0  0  0  0  0  0  0
  147.8758  134.1853  158.5047 H   0  0  0  0  0  0  0  0  0  0  0  0
  147.4700  133.6020  156.6693 H   0  0  0  0  0  0  0  0  0  0  0  0
  145.1031  134.0587  155.2562 H   0  0  0  0  0  0  0  0  0  0  0  0
  147.9077  133.4237  154.2041 H   0  0  0  0  0  0  0  0  0  0  0  0
  146.6978  132.2494  154.6633 H   0  0  0  0  0  0  0  0  0  0  0  0
  146.7621  132.5614  152.2057 H   0  0  0  0  0  0  0  0  0  0  0  0
  145.1952  133.0103  152.8446 H   0  0  0  0  0  0  0  0  0  0  0  0
  146.2709  135.6646  150.3702 H   0  0  0  0  0  0  0  0  0  0  0  0
  146.4508  133.9274  150.2468 H   0  0  0  0  0  0  0  0  0  0  0  0
  143.0141  134.3227  149.1943 H   0  0  0  0  0  0  0  0  0  0  0  0
  144.6463  134.5508  148.6057 H   0  0  0  0  0  0  0  0  0  0  0  0
  145.8611  136.6695  152.6322 H   0  0  0  0  0  0  0  0  0  0  0  0
  144.6422  135.4968  153.0940 H   0  0  0  0  0  0  0  0  0  0  0  0
  145.7531  136.4273  155.1073 H   0  0  0  0  0  0  0  0  0  0  0  0
  147.3277  135.9985  154.4811 H   0  0  0  0  0  0  0  0  0  0  0  0
  147.3697  134.8799  152.2399 H   0  0  0  0  0  0  0  0  0  0  0  0
  1  2  1  0  0  0  0
  1 21  1  0  0  0  0
  1 22  1  0  0  0  0
  1 23  1  0  0  0  0
  2 20  1  0  0  0  0
  2  3  2  0  0  0  0
  3  4  1  0  0  0  0
  4  5  2  0  0  0  0
  5  6  1  0  0  0  0
  5 20  1  0  0  0  0
  6  7  1  0  0  0  0
  6 24  1  0  0  0  0
  7  8  2  0  0  0  0
  7  9  1  0  0  0  0
  9 10  1  0  0  0  0
  9 25  1  0  0  0  0
 10 19  1  0  0  0  0
 10 11  1  0  0  0  0
 10 26  1  0  0  0  0
 11 12  1  0  0  0  0
 11 27  1  0  0  0  0
 11 28  1  0  0  0  0
 12 13  1  0  0  0  0
 12 29  1  0  0  0  0
 12 30  1  0  0  0  0
 13 14  1  0  0  0  0
 13 18  1  0  0  0  0
 13 39  1  0  0  0  0
 14 15  1  0  0  0  0
 14 31  1  0  0  0  0
 14 32  1  0  0  0  0
 15 16  1  0  0  0  0
 15 17  2  0  0  0  0
 16 33  1  0  0  0  0
 16 34  1  0  0  0  0
 18 19  1  0  0  0  0
 18 35  1  0  0  0  0
 18 36  1  0  0  0  0
 19 37  1  0  0  0  0
 19 38  1  0  0  0  0
M  CHG  1  13   1
M  END
> <s_m_source_file>
AV-unprocessed.smi

> <i_m_source_file_index>
1385

> <i_lp_mmshare_version>
43012

> <i_f3d_flags>
0

> <s_epik_input>
W0NIM11jMW5uYyhzMSlbTkhdQyg9TylbTkhdW0NIXTJbQ0gyXVtDSDJdTihbQ0gyXVtDSDJdMilbQ0gyXUMoPU8pW05IMl0=

> <s_epik_cmdline>
J2VwaWtfcHl0aG9uJywgJy1waCcsICc3LjAnLCAnLXRuJywgJzgnLCAnLW1hJywgJzIwMCcsICctbWV0YWxfYmluZGluZycsICctaW1hZScsICc8aW5maWxlLm1hZT4nLCAnLW9tYWUnLCAnPG91dGZpbGUubWFlPic=

> <r_lp_tautomer_probability>
1

> <r_epik_Ionization_Penalty>
0.866317

> <r_epik_Ionization_Penalty_Charging>
0.862349

> <r_epik_Ionization_Penalty_Neutral>
0.00396799

> <r_epik_State_Penalty>
0.898939

> <r_epik_Charging_Adjusted_Penalty>
1.76129

> <i_epik_Tot_Q>
1

> <i_epik_Tot_abs_Q>
1

> <r_epik_Metal_State_Penalty>
1.25402

> <b_epik_Metal_Only>
0

> <s_lp_Force_Field>
OPLS_2005

> <r_lp_Energy>
10.5623

> <b_lp_Chiralities_Consistent>
1

> <s_lp_Variant>
AV-unprocessed.smi:1385-2

> <Gold.Version>
5.8.1

> <Gold.Id.Protein>
6NUR|6NUR_protein|mol2

> <Gold.PLP.Fitness>
37.7126

> <Gold.PLP.PLP>
-23.1593

> <Gold.PLP.part.hbond>
-5.3303

> <Gold.PLP.part.metal>
0.0000

> <Gold.PLP.part.buried>
-2.7113

> <Gold.PLP.part.nonpolar>
-14.7568

> <Gold.PLP.part.repulsive>
0.3295

> <Gold.PLP.ligand.clash>
0.0000

> <Gold.PLP.ligand.torsion>
0.2377

> <Gold.PLP.Chemscore.Hbond>
5.0000

> <Gold.PLP.Chemscore.CHOScore>
0.0000

> <Gold.PLP.Chemscore.Metal>
0.0000

> <Gold.Chemscore.Hbonds>
donor molecule, donor type, donor heavy atom, donor atom, acceptor molecule, acceptor atom, score
      L1  H    13    39       P1  7948  1.76
      L1  H    16    33       P1 10186  1.00
      L1  H    16    34       P1  7921  1.00
      P1  H  6934  6947       L1     3  1.00

> <Gold.PLP.Chemscore.Internal.Correction>
0.0287

> <Gold.Rescore>
     Score         DG    S(hbond)    S(metal)    S(lipo)     H(rot)  DE(clash)    DE(int)     intcor
     12.59     -16.75       3.36        0.00      45.55       2.07       0.07       4.09       ----

> <Gold.Chemscore.Fitness>
12.5894

> <Gold.Chemscore.DG>
-16.7479

> <Gold.Chemscore.ZeroCoef>
-5.4800

> <Gold.Chemscore.Hbond>
3.3609

> <Gold.Chemscore.Metal>
0.0000

> <Gold.Chemscore.Lipo>
45.5480

> <Gold.Chemscore.Internal_Hbond>
0.0000

> <Gold.Chemscore.DEClash>
0.0731

> <Gold.Chemscore.DEInternal>
4.0855

> <Gold.Chemscore.Rot>
2.0650

> <Gold.Chemscore.Internal.Correction>
   9.000000E+99

> <Gold.Chemscore.Hbonds>
donor molecule, donor type, donor heavy atom, donor atom, acceptor molecule, acceptor atom, score
      L1  H    13    39       P1  7948  0.78
      L1  H    16    33       P1 10186  0.92
      L1  H    16    34       P1  7921  1.00
      P1  H  6934  6947       L1     3  0.30

> <Gold.Chemscore.Hbond.Weighted>
-11.2253

> <Gold.Chemscore.Metal.Weighted>
-0.0000

> <Gold.Chemscore.Lipo.Weighted>
-5.3291

> <Gold.Chemscore.Internal_Hbond.Weighted>
0.0000

> <Gold.Chemscore.DEClash.Weighted>
0.0731

> <Gold.Chemscore.DEInternal.Weighted>
4.0855

> <Gold.Chemscore.Rot.Weighted>
5.2864

> <Gold.Chemscore.Internal.Correction.Weighted>
   9.000000E+99

> <Gold.Protein.RotatedTorsions>
[ 6907 6896 6895 6894 ] final   69.53 input  -60.11 | X-H torsion
[ 7974 7965 7964 7962 ] final   84.81 input  175.53 | X-H torsion
[ 8008 7997 7996 7995 ] final   22.46 input   59.86 | X-H torsion
[ 10167 10162 10161 10158 ] final  146.83 input  -65.29 | X-H torsion
[ 10718 10713 10712 10709 ] final  164.26 input   66.30 | X-H torsion
[ 10763 10752 10751 10750 ] final -140.41 input  -60.55 | X-H torsion
[ 11005 11000 10999 10996 ] final   20.05 input  -57.11 | X-H torsion

> <Gold.Protein.ActiveResidues>
 VAL166  LYS551  ARG553  GLY616  TRP617  ASP618  TYR619  PRO620  LYS621  CYS622 
 ASP623  PHE694  ASN695  SER759  ASP760  ASP761  ALA762  ILE779  LEU786  VAL792 
 PHE793  MET794  SER795  GLU796  ALA797  LYS798  CYS799  TRP800  GLU811  SER814 

> <Gold.Protein.RotatedAtoms>
  152.4692  134.5001  159.9721 H   0  0  0  0  0  0  0  0  0  0  0  0  # atno 6907 bound_to 6896
  151.5032  133.3494  159.2880 H   0  0  0  0  0  0  0  0  0  0  0  0  # atno 6908 bound_to 6896
  150.8693  134.8091  159.7204 H   0  0  0  0  0  0  0  0  0  0  0  0  # atno 6909 bound_to 6896
  145.5938  139.2342  143.2284 H   0  0  0  0  0  0  0  0  0  0  0  0  # atno 7974 bound_to 7965
  154.9661  140.3084  155.5009 H   0  0  0  0  0  0  0  0  0  0  0  0  # atno 8008 bound_to 7997
  156.2971  140.2292  156.4689 H   0  0  0  0  0  0  0  0  0  0  0  0  # atno 8009 bound_to 7997
  154.7920  140.0439  157.1196 H   0  0  0  0  0  0  0  0  0  0  0  0  # atno 8010 bound_to 7997
  139.4900  144.5800  151.6889 H   0  0  0  0  0  0  0  0  0  0  0  0  # atno 10167 bound_to 10162
  157.0969  131.0432  151.2514 H   0  0  0  0  0  0  0  0  0  0  0  0  # atno 10718 bound_to 10713
  154.8579  135.3554  154.5702 H   0  0  0  0  0  0  0  0  0  0  0  0  # atno 10763 bound_to 10752
  153.6315  135.7002  153.5278 H   0  0  0  0  0  0  0  0  0  0  0  0  # atno 10764 bound_to 10752
  153.3045  135.4196  155.1241 H   0  0  0  0  0  0  0  0  0  0  0  0  # atno 10765 bound_to 10752
  140.4069  134.1659  155.7665 H   0  0  0  0  0  0  0  0  0  0  0  0  # atno 11005 bound_to 11000
  146.1627  140.6763  142.9270 LP  0  0  0  0  0  0  0  0  0  0  0  0  # atno 17320 bound_to 7965
  144.7340  140.4754  143.6917 LP  0  0  0  0  0  0  0  0  0  0  0  0  # atno 17321 bound_to 7965
  140.5405  144.0587  150.6086 LP  0  0  0  0  0  0  0  0  0  0  0  0  # atno 17342 bound_to 10162
  140.3608  143.2909  152.0386 LP  0  0  0  0  0  0  0  0  0  0  0  0  # atno 17343 bound_to 10162
  157.4674  130.7688  149.7291 LP  0  0  0  0  0  0  0  0  0  0  0  0  # atno 17370 bound_to 10713
  155.9883  130.3960  150.3123 LP  0  0  0  0  0  0  0  0  0  0  0  0  # atno 17371 bound_to 10713
  141.1836  133.8361  157.1170 LP  0  0  0  0  0  0  0  0  0  0  0  0  # atno 17394 bound_to 11000
  140.0296  134.9908  157.0753 LP  0  0  0  0  0  0  0  0  0  0  0  0  # atno 17395 bound_to 11000

$$$$
