AV-unprocessed.smi:2061|AV-procd|sdf|8383|dock10
  -GOLD-   2272011 63D 1   1.00000     0.00000
 Structure written by MMmdl.
 45 46  0  0  0  0  0  0  0  0  3 V2000
  147.5772  133.7592  162.5816 C   0  0  0  0  0  0  0  0  0  0  0  0
  147.7006  134.9113  161.6447 C   0  0  0  0  0  0  0  0  0  0  0  0
  147.8803  134.9950  160.2930 C   0  0  0  0  0  0  0  0  0  0  0  0
  147.9146  136.3965  160.0560 C   0  0  0  0  0  0  0  0  0  0  0  0
  148.0608  136.9916  158.8621 N   0  5  0  0  0  0  0  0  0  0  0  0
  149.0111  136.5648  158.0000 C   0  0  0  0  0  0  0  0  0  0  0  0
  149.8607  135.6973  158.2158 O   0  0  0  0  0  0  0  0  0  0  0  0
  148.9713  137.1773  156.8082 N   0  0  0  0  0  0  0  0  0  0  0  0
  149.8608  136.9045  155.6837 C   0  0  0  0  0  0  0  0  0  0  0  0
  150.9822  137.9644  155.5300 C   0  0  1  0  0  0  0  0  0  0  0  0
  151.7121  137.7777  154.1779 C   0  0  0  0  0  0  0  0  0  0  0  0
  150.4122  139.3364  155.7274 N   0  3  1  0  0  0  0  0  0  0  0  0
  151.4715  140.3751  155.8360 C   0  0  0  0  0  0  0  0  0  0  0  0
  150.8819  141.7576  156.1711 C   0  0  2  0  0  0  0  0  0  0  0  0
  150.3882  141.8822  157.6237 C   0  0  0  0  0  0  0  0  0  0  0  0
  149.8767  142.1023  155.2206 O   0  0  0  0  0  0  0  0  0  0  0  0
  148.8215  141.1540  155.1051 C   0  0  1  0  0  0  0  0  0  0  0  0
  147.8413  141.6711  154.0460 C   0  0  0  0  0  0  0  0  0  0  0  0
  149.3941  139.7730  154.7348 C   0  0  0  0  0  0  0  0  0  0  0  0
  147.7538  137.1006  161.1639 N   0  0  0  0  0  0  0  0  0  0  0  0
  147.6214  136.1555  162.1882 O   0  0  0  0  0  0  0  0  0  0  0  0
  146.5291  133.5363  162.7821 H   0  0  0  0  0  0  0  0  0  0  0  0
  148.0658  133.9761  163.5319 H   0  0  0  0  0  0  0  0  0  0  0  0
  148.0393  132.8658  162.1610 H   0  0  0  0  0  0  0  0  0  0  0  0
  147.9750  134.1844  159.5862 H   0  0  0  0  0  0  0  0  0  0  0  0
  148.2629  137.8840  156.6738 H   0  0  0  0  0  0  0  0  0  0  0  0
  150.3047  135.9213  155.8425 H   0  0  0  0  0  0  0  0  0  0  0  0
  149.2546  136.8153  154.7826 H   0  0  0  0  0  0  0  0  0  0  0  0
  151.7297  137.8052  156.3091 H   0  0  0  0  0  0  0  0  0  0  0  0
  152.0973  136.7643  154.0665 H   0  0  0  0  0  0  0  0  0  0  0  0
  152.5784  138.4330  154.0868 H   0  0  0  0  0  0  0  0  0  0  0  0
  151.0470  137.9669  153.3348 H   0  0  0  0  0  0  0  0  0  0  0  0
  152.2134  140.1121  156.5885 H   0  0  0  0  0  0  0  0  0  0  0  0
  152.0063  140.4327  154.8863 H   0  0  0  0  0  0  0  0  0  0  0  0
  151.6762  142.4943  156.0462 H   0  0  0  0  0  0  0  0  0  0  0  0
  151.2123  141.7430  158.3241 H   0  0  0  0  0  0  0  0  0  0  0  0
  149.6285  141.1409  157.8694 H   0  0  0  0  0  0  0  0  0  0  0  0
  149.9649  142.8700  157.8068 H   0  0  0  0  0  0  0  0  0  0  0  0
  148.2857  141.0845  156.0519 H   0  0  0  0  0  0  0  0  0  0  0  0
  147.0010  140.9880  153.9199 H   0  0  0  0  0  0  0  0  0  0  0  0
  148.3294  141.7841  153.0774 H   0  0  0  0  0  0  0  0  0  0  0  0
  147.4381  142.6433  154.3307 H   0  0  0  0  0  0  0  0  0  0  0  0
  149.8411  139.7974  153.7395 H   0  0  0  0  0  0  0  0  0  0  0  0
  148.5588  139.0741  154.7031 H   0  0  0  0  0  0  0  0  0  0  0  0
  149.9331  139.3101  156.6161 H   0  0  0  0  0  0  0  0  0  0  0  0
  1  2  1  0  0  0  0
  1 22  1  0  0  0  0
  1 23  1  0  0  0  0
  1 24  1  0  0  0  0
  2 21  1  0  0  0  0
  2  3  2  0  0  0  0
  3  4  1  0  0  0  0
  3 25  1  0  0  0  0
  4  5  1  0  0  0  0
  4 20  2  0  0  0  0
  5  6  1  0  0  0  0
  6  7  2  0  0  0  0
  6  8  1  0  0  0  0
  8  9  1  0  0  0  0
  8 26  1  0  0  0  0
  9 10  1  0  0  0  0
  9 27  1  0  0  0  0
  9 28  1  0  0  0  0
 10 11  1  0  0  0  0
 10 12  1  0  0  0  0
 10 29  1  0  0  0  0
 11 30  1  0  0  0  0
 11 31  1  0  0  0  0
 11 32  1  0  0  0  0
 12 19  1  0  0  0  0
 12 13  1  0  0  0  0
 12 45  1  0  0  0  0
 13 14  1  0  0  0  0
 13 33  1  0  0  0  0
 13 34  1  0  0  0  0
 14 15  1  0  0  0  0
 14 16  1  0  0  0  0
 14 35  1  0  0  0  0
 15 36  1  0  0  0  0
 15 37  1  0  0  0  0
 15 38  1  0  0  0  0
 16 17  1  0  0  0  0
 17 18  1  0  0  0  0
 17 19  1  0  0  0  0
 17 39  1  0  0  0  0
 18 40  1  0  0  0  0
 18 41  1  0  0  0  0
 18 42  1  0  0  0  0
 19 43  1  0  0  0  0
 19 44  1  0  0  0  0
 20 21  1  0  0  0  0
M  CHG  1   5  -1
M  CHG  1  12   1
M  END
> <s_m_source_file>
AV-unprocessed.smi

> <i_m_source_file_index>
2061

> <i_lp_mmshare_version>
43012

> <i_f3d_flags>
0

> <s_epik_input>
W0NIM11jMVtjSF1jKG5vMSlbTkhdQyg9TylbTkhdW0NIMl1bQ0BIXShbQ0gzXSlOMltDSDJdW0NAQEhdKFtDSDNdKU9bQ0BASF0oW0NIM10pW0NIMl0y

> <s_epik_cmdline>
J2VwaWtfcHl0aG9uJywgJy1waCcsICc3LjAnLCAnLXRuJywgJzgnLCAnLW1hJywgJzIwMCcsICctbWV0YWxfYmluZGluZycsICctaW1hZScsICc8aW5maWxlLm1hZT4nLCAnLW9tYWUnLCAnPG91dGZpbGUubWFlPic=

> <r_epik_Ionization_Penalty>
6.73511

> <r_epik_Ionization_Penalty_Charging>
6.73502

> <r_epik_Ionization_Penalty_Neutral>
9.50841e-05

> <r_epik_State_Penalty>
6.93549

> <r_epik_Charging_Adjusted_Penalty>
13.6705

> <i_epik_Tot_Q>
0

> <i_epik_Tot_abs_Q>
2

> <r_epik_Metal_State_Penalty>
2.87211

> <b_epik_Metal_Only>
1

> <s_lp_Force_Field>
OPLS_2005

> <r_lp_Energy>
11.2328

> <b_lp_Chiralities_Consistent>
1

> <s_lp_Variant>
AV-unprocessed.smi:2061-24

> <Gold.Version>
5.8.1

> <Gold.Id.Protein>
6NUR|6NUR_protein|mol2

> <Gold.PLP.Fitness>
40.4386

> <Gold.PLP.PLP>
-33.0407

> <Gold.PLP.part.hbond>
-3.3799

> <Gold.PLP.part.metal>
0.0000

> <Gold.PLP.part.buried>
-4.7768

> <Gold.PLP.part.nonpolar>
-27.3056

> <Gold.PLP.part.repulsive>
2.1268

> <Gold.PLP.ligand.clash>
0.0000

> <Gold.PLP.ligand.torsion>
0.6520

> <Gold.PLP.Chemscore.Hbond>
2.8720

> <Gold.PLP.Chemscore.CHOScore>
0.0000

> <Gold.PLP.Chemscore.Metal>
0.0000

> <Gold.Chemscore.Hbonds>
donor molecule, donor type, donor heavy atom, donor atom, acceptor molecule, acceptor atom, score
      P1  H  6896  6907       L1     7  0.98
      P1  H  6931  6943       L1    20  0.99
      P1  H  6934  6947       L1    20  0.85

> <Gold.PLP.Chemscore.Internal.Correction>
0.0860

> <Gold.Rescore>
     Score         DG    S(hbond)    S(metal)    S(lipo)     H(rot)  DE(clash)    DE(int)     intcor
     16.20     -18.19       2.28        0.00      77.48       1.56       1.17       0.82       ----

> <Gold.Chemscore.Fitness>
16.2026

> <Gold.Chemscore.DG>
-18.1895

> <Gold.Chemscore.ZeroCoef>
-5.4800

> <Gold.Chemscore.Hbond>
2.2831

> <Gold.Chemscore.Metal>
0.0000

> <Gold.Chemscore.Lipo>
77.4780

> <Gold.Chemscore.Internal_Hbond>
0.0000

> <Gold.Chemscore.DEClash>
1.1687

> <Gold.Chemscore.DEInternal>
0.8182

> <Gold.Chemscore.Rot>
1.5550

> <Gold.Chemscore.Internal.Correction>
   9.000000E+99

> <Gold.Chemscore.Hbonds>
donor molecule, donor type, donor heavy atom, donor atom, acceptor molecule, acceptor atom, score
      P1  H  6896  6907       L1     7  0.92
      P1  H  6931  6943       L1    20  0.28
      P1  H  6934  6947       L1    20  0.74

> <Gold.Chemscore.Hbond.Weighted>
-7.6254

> <Gold.Chemscore.Metal.Weighted>
-0.0000

> <Gold.Chemscore.Lipo.Weighted>
-9.0649

> <Gold.Chemscore.Internal_Hbond.Weighted>
0.0000

> <Gold.Chemscore.DEClash.Weighted>
1.1687

> <Gold.Chemscore.DEInternal.Weighted>
0.8182

> <Gold.Chemscore.Rot.Weighted>
3.9809

> <Gold.Chemscore.Internal.Correction.Weighted>
   9.000000E+99

> <Gold.Protein.RotatedTorsions>
[ 6907 6896 6895 6894 ] final  -76.63 input  -60.11 | X-H torsion
[ 7974 7965 7964 7962 ] final  141.25 input  175.53 | X-H torsion
[ 8008 7997 7996 7995 ] final -102.04 input   59.86 | X-H torsion
[ 10167 10162 10161 10158 ] final -127.03 input  -65.29 | X-H torsion
[ 10718 10713 10712 10709 ] final -135.48 input   66.30 | X-H torsion
[ 10763 10752 10751 10750 ] final -115.03 input  -60.55 | X-H torsion
[ 11005 11000 10999 10996 ] final    5.51 input  -57.11 | X-H torsion

> <Gold.Protein.ActiveResidues>
 VAL166  LYS551  ARG553  GLY616  TRP617  ASP618  TYR619  PRO620  LYS621  CYS622 
 ASP623  PHE694  ASN695  SER759  ASP760  ASP761  ALA762  ILE779  LEU786  VAL792 
 PHE793  MET794  SER795  GLU796  ALA797  LYS798  CYS799  TRP800  GLU811  SER814 

> <Gold.Protein.RotatedAtoms>
  150.7022  134.4543  159.5350 H   0  0  0  0  0  0  0  0  0  0  0  0  # atno 6907 bound_to 6896
  152.2230  134.8392  160.0492 H   0  0  0  0  0  0  0  0  0  0  0  0  # atno 6908 bound_to 6896
  151.9236  133.3557  159.3942 H   0  0  0  0  0  0  0  0  0  0  0  0  # atno 6909 bound_to 6896
  144.9113  139.5289  143.5707 H   0  0  0  0  0  0  0  0  0  0  0  0  # atno 7974 bound_to 7965
  154.8510  140.0431  157.1604 H   0  0  0  0  0  0  0  0  0  0  0  0  # atno 8008 bound_to 7997
  154.8943  140.2991  155.5332 H   0  0  0  0  0  0  0  0  0  0  0  0  # atno 8009 bound_to 7997
  156.2996  140.2387  156.3963 H   0  0  0  0  0  0  0  0  0  0  0  0  # atno 8010 bound_to 7997
  139.9651  143.5907  152.2432 H   0  0  0  0  0  0  0  0  0  0  0  0  # atno 10167 bound_to 10162
  156.2666  130.7241  151.1194 H   0  0  0  0  0  0  0  0  0  0  0  0  # atno 10718 bound_to 10713
  154.8465  135.4396  154.1599 H   0  0  0  0  0  0  0  0  0  0  0  0  # atno 10763 bound_to 10752
  153.2738  135.6947  153.7459 H   0  0  0  0  0  0  0  0  0  0  0  0  # atno 10764 bound_to 10752
  153.6689  135.3422  155.3123 H   0  0  0  0  0  0  0  0  0  0  0  0  # atno 10765 bound_to 10752
  140.5699  134.0112  155.8004 H   0  0  0  0  0  0  0  0  0  0  0  0  # atno 11005 bound_to 11000
  146.3160  139.7922  142.8983 LP  0  0  0  0  0  0  0  0  0  0  0  0  # atno 17320 bound_to 7965
  145.3449  141.0295  143.3371 LP  0  0  0  0  0  0  0  0  0  0  0  0  # atno 17321 bound_to 7965
  139.6524  144.7661  151.2122 LP  0  0  0  0  0  0  0  0  0  0  0  0  # atno 17342 bound_to 10162
  140.7540  143.6140  150.8577 LP  0  0  0  0  0  0  0  0  0  0  0  0  # atno 17343 bound_to 10162
  157.7269  131.0642  150.5887 LP  0  0  0  0  0  0  0  0  0  0  0  0  # atno 17370 bound_to 10713
  156.5979  130.4346  149.5909 LP  0  0  0  0  0  0  0  0  0  0  0  0  # atno 17371 bound_to 10713
  141.1063  133.9689  157.2991 LP  0  0  0  0  0  0  0  0  0  0  0  0  # atno 17394 bound_to 11000
  139.9367  135.0195  156.8578 LP  0  0  0  0  0  0  0  0  0  0  0  0  # atno 17395 bound_to 11000

$$$$
