#       Name:                AV-unprocessed.smi:2986
#       Creating user name   scv26
#       Creation time:       Fri Mar 27 16:30:24 2020


#       File generated by GOLD software.
#

@<TRIPOS>MOLECULE
AV-unprocessed.smi:2986
    50    52     1
SMALL
NO_CHARGES


@<TRIPOS>ATOM
      1 ****         0.8703   3.3645  -3.8750 C.3            1 S1                 0.0000
      2 ****         0.7599   2.7465  -2.6049 O.3            1 S1                 0.0000
      3 ****         0.3169   1.4038  -2.6913 C.3            1 S1                 0.0000
      4 ****         0.2426   0.8211  -1.2755 C.3            1 S1                 0.0000
      5 ****        -0.2158  -0.5740  -1.2771 N.pl3          1 S1                 0.0000
      6 ****         0.4900  -1.7380  -1.2531 C.2            1 S1                 0.0000
      7 ****         2.2446  -1.8972  -1.2057 S.3            1 S1                 0.0000
      8 ****         2.5896  -2.5803   0.4410 C.3            1 S1                 0.0000
      9 ****         1.9419  -1.7696   1.5634 C.2            1 S1                 0.0000
     10 ****         1.1173  -2.3108   2.2984 O.2            1 S1                 0.0000
     11 ****         2.3272  -0.4839   1.6527 N.am           1 S1                 0.0000
     12 ****         1.8569   0.5197   2.5366 C.2            1 S1                 0.0000
     13 ****         0.9615   0.3305   3.6290 C.2            1 S1                 0.0000
     14 ****         0.8399   1.5895   4.1457 C.2            1 S1                 0.0000
     15 ****         0.0713   2.1443   5.2954 C.3            1 S1                 0.0000
     16 ****         1.5922   2.4696   3.4318 O.3            1 S1                 0.0000
     17 ****         2.2416   1.7754   2.4045 N.2            1 S1                 0.0000
     18 ****        -0.4020  -2.7657  -1.2358 N.pl3          1 S1                 1.0000
     19 ****        -1.7002  -2.2531  -1.2633 C.ar           1 S1                 0.0000
     20 ****        -2.9341  -2.8965  -1.2627 C.ar           1 S1                 0.0000
     21 ****        -4.0777  -2.0717  -1.2975 C.ar           1 S1                 0.0000
     22 ****        -3.9693  -0.6660  -1.3303 C.ar           1 S1                 0.0000
     23 ****        -2.7132  -0.0242  -1.3280 C.ar           1 S1                 0.0000
     24 ****        -1.5877  -0.8466  -1.2933 C.ar           1 S1                 0.0000
     25 ****         1.2039   4.3949  -3.7533 H              1 S1                 0.0000
     26 ****        -0.0905   3.3810  -4.3912 H              1 S1                 0.0000
     27 ****         1.5967   2.8471  -4.5032 H              1 S1                 0.0000
     28 ****        -0.6629   1.3653  -3.1701 H              1 S1                 0.0000
     29 ****         1.0073   0.8193  -3.3017 H              1 S1                 0.0000
     30 ****         1.2251   0.8522  -0.8042 H              1 S1                 0.0000
     31 ****        -0.4214   1.4092  -0.6411 H              1 S1                 0.0000
     32 ****         2.2268  -3.6084   0.4757 H              1 S1                 0.0000
     33 ****         3.6684  -2.6174   0.5939 H              1 S1                 0.0000
     34 ****         3.0083  -0.1753   0.9740 H              1 S1                 0.0000
     35 ****         0.4831  -0.5673   3.9900 H              1 S1                 0.0000
     36 ****        -0.4695   1.3562   5.8195 H              1 S1                 0.0000
     37 ****        -0.6534   2.8837   4.9544 H              1 S1                 0.0000
     38 ****         0.7389   2.6277   6.0088 H              1 S1                 0.0000
     39 ****        -3.0201  -3.9730  -1.2375 H              1 S1                 0.0000
     40 ****        -5.0579  -2.5262  -1.2994 H              1 S1                 0.0000
     41 ****        -4.8681  -0.0670  -1.3576 H              1 S1                 0.0000
     42 ****        -2.6404   1.0531  -1.3540 H              1 S1                 0.0000
     43 ****        -0.1399  -3.7425  -1.2066 H              1 S1                 0.0000
     44 ****         0.1074   3.2645  -2.0519 LP             1 S1                 0.0000
     45 ****         1.6567   2.7605  -2.1625 LP             1 S1                 0.0000
     46 ****         0.8771  -3.2714   2.1584 LP             1 S1                 0.0000
     47 ****         0.6872  -1.7902   3.0359 LP             1 S1                 0.0000
     48 ****         2.2702   2.8958   4.0307 LP             1 S1                 0.0000
     49 ****         1.0026   3.1759   3.0401 LP             1 S1                 0.0000
     50 ****         2.8639   2.1505   1.7174 LP             1 S1                 0.0000
@<TRIPOS>BOND
    1    1    2 1     
    2    1   25 1     
    3    1   26 1     
    4    1   27 1     
    5    2    3 1     
    6    3    4 1     
    7    3   28 1     
    8    3   29 1     
    9    4    5 1     
   10    4   30 1     
   11    4   31 1     
   12    5   24 1     
   13    5    6 1     
   14    6    7 1     
   15    6   18 2     
   16    7    8 1     
   17    8    9 1     
   18    8   32 1     
   19    8   33 1     
   20    9   10 2     
   21    9   11 am    
   22   11   12 1     
   23   11   34 1     
   24   12   17 2     
   25   12   13 1     
   26   13   14 2     
   27   13   35 1     
   28   14   15 1     
   29   14   16 1     
   30   15   36 1     
   31   15   37 1     
   32   15   38 1     
   33   16   17 1     
   34   18   19 1     
   35   18   43 1     
   36   19   24 ar    
   37   19   20 ar    
   38   20   21 ar    
   39   20   39 1     
   40   21   22 ar    
   41   21   40 1     
   42   22   23 ar    
   43   22   41 1     
   44   23   24 ar    
   45   23   42 1     
   46    2   44 1     
   47    2   45 1     
   48   10   46 1     
   49   10   47 1     
   50   16   48 1     
   51   16   49 1     
   52   17   50 1     
@<TRIPOS>SUBSTRUCTURE
      1 S1             1
@<TRIPOS>SET
LONE_PAIRS      STATIC     ATOMS    <user>   **** ""
7 44 45 46 47 48 49 50
DONOR_HYDROGENS      STATIC     ATOMS    <user>   **** ""
2 34 43
ATOM$BLUE        STATIC     ATOMS    COLORGROUP SYSTEM
7 44 45 46 47 48 49 50
ATOM$RED        STATIC     ATOMS    COLORGROUP SYSTEM
2 34 43
