AV-unprocessed.smi:1163|AV-procd|sdf|4922|dock1
  -GOLD-   22720 3503D 1   1.00000     0.00000
 Structure written by MMmdl.
 40 41  0  0  0  0  0  0  0  0  2 V2000
  150.9199  142.0685  156.7324 C   0  0  0  0  0  0  0  0  0  0  0  0
  150.9586  141.2079  155.5993 O   0  0  0  0  0  0  0  0  0  0  0  0
  149.7626  140.7703  155.0681 C   0  0  0  0  0  0  0  0  0  0  0  0
  148.5754  141.4277  155.4476 C   0  0  0  0  0  0  0  0  0  0  0  0
  147.3512  140.9904  154.9068 C   0  0  0  0  0  0  0  0  0  0  0  0
  147.3543  139.9092  153.9939 C   0  0  0  0  0  0  0  0  0  0  0  0
  146.1857  139.3669  153.3948 N   0  0  0  0  0  0  0  0  0  0  0  0
  145.9536  138.0964  153.0230 C   0  0  0  0  0  0  0  0  0  0  0  0
  146.7396  137.1590  153.1576 O   0  0  0  0  0  0  0  0  0  0  0  0
  144.7284  137.9581  152.4971 N   0  0  0  0  0  0  0  0  0  0  0  0
  144.1703  136.7009  152.0097 C   0  0  2  0  0  0  0  0  0  0  0  0
  143.7240  135.7572  153.1255 C   0  0  0  0  0  0  0  0  0  0  0  0
  143.8870  134.3486  152.5282 C   0  0  0  0  0  0  0  0  0  0  0  0
  144.6009  134.5055  151.2371 N   0  3  2  0  0  0  0  0  0  0  0  0
  145.5625  133.4273  150.9022 C   0  0  0  0  0  0  0  0  0  0  0  0
  144.9378  132.3209  150.0343 C   0  0  0  0  0  0  0  0  0  0  0  0
  145.9101  131.6516  149.4167 F   0  0  0  0  0  0  0  0  0  0  0  0
  144.2401  131.4618  150.7765 F   0  0  0  0  0  0  0  0  0  0  0  0
  144.1368  132.8583  149.1142 F   0  0  0  0  0  0  0  0  0  0  0  0
  145.1910  135.8556  151.2483 C   0  0  0  0  0  0  0  0  0  0  0  0
  148.5940  139.3081  153.6933 C   0  0  0  0  0  0  0  0  0  0  0  0
  149.7711  139.7237  154.2061 N   0  0  0  0  0  0  0  0  0  0  0  0
  151.9380  142.3219  157.0277 H   0  0  0  0  0  0  0  0  0  0  0  0
  150.4395  141.5848  157.5843 H   0  0  0  0  0  0  0  0  0  0  0  0
  150.3987  143.0007  156.5093 H   0  0  0  0  0  0  0  0  0  0  0  0
  148.6023  142.2521  156.1447 H   0  0  0  0  0  0  0  0  0  0  0  0
  146.4399  141.4811  155.2120 H   0  0  0  0  0  0  0  0  0  0  0  0
  145.4131  140.0092  153.2964 H   0  0  0  0  0  0  0  0  0  0  0  0
  144.1440  138.7784  152.4252 H   0  0  0  0  0  0  0  0  0  0  0  0
  143.3156  136.9061  151.3615 H   0  0  0  0  0  0  0  0  0  0  0  0
  144.3751  135.8597  153.9951 H   0  0  0  0  0  0  0  0  0  0  0  0
  142.7027  135.9569  153.4518 H   0  0  0  0  0  0  0  0  0  0  0  0
  144.4439  133.7142  153.2195 H   0  0  0  0  0  0  0  0  0  0  0  0
  142.9200  133.8772  152.3501 H   0  0  0  0  0  0  0  0  0  0  0  0
  146.3895  133.8726  150.3474 H   0  0  0  0  0  0  0  0  0  0  0  0
  145.9919  133.0083  151.8133 H   0  0  0  0  0  0  0  0  0  0  0  0
  145.3688  136.2204  150.2359 H   0  0  0  0  0  0  0  0  0  0  0  0
  146.1457  135.8379  151.7781 H   0  0  0  0  0  0  0  0  0  0  0  0
  148.6467  138.4701  153.0134 H   0  0  0  0  0  0  0  0  0  0  0  0
  143.8954  134.5171  150.5141 H   0  0  0  0  0  0  0  0  0  0  0  0
  1  2  1  0  0  0  0
  1 23  1  0  0  0  0
  1 24  1  0  0  0  0
  1 25  1  0  0  0  0
  2  3  1  0  0  0  0
  3 22  1  0  0  0  0
  3  4  2  0  0  0  0
  4  5  1  0  0  0  0
  4 26  1  0  0  0  0
  5  6  2  0  0  0  0
  5 27  1  0  0  0  0
  6  7  1  0  0  0  0
  6 21  1  0  0  0  0
  7  8  1  0  0  0  0
  7 28  1  0  0  0  0
  8  9  2  0  0  0  0
  8 10  1  0  0  0  0
 10 11  1  0  0  0  0
 10 29  1  0  0  0  0
 11 20  1  0  0  0  0
 11 12  1  0  0  0  0
 11 30  1  0  0  0  0
 12 13  1  0  0  0  0
 12 31  1  0  0  0  0
 12 32  1  0  0  0  0
 13 14  1  0  0  0  0
 13 33  1  0  0  0  0
 13 34  1  0  0  0  0
 14 15  1  0  0  0  0
 14 20  1  0  0  0  0
 14 40  1  0  0  0  0
 15 16  1  0  0  0  0
 15 35  1  0  0  0  0
 15 36  1  0  0  0  0
 16 17  1  0  0  0  0
 16 18  1  0  0  0  0
 16 19  1  0  0  0  0
 20 37  1  0  0  0  0
 20 38  1  0  0  0  0
 21 22  2  0  0  0  0
 21 39  1  0  0  0  0
M  CHG  1  14   1
M  END
> <s_m_source_file>
AV-unprocessed.smi

> <i_m_source_file_index>
1163

> <i_lp_mmshare_version>
43012

> <i_f3d_flags>
0

> <s_epik_input>
W0NIM11PYzFbY0hdW2NIXWMoW2NIXW4xKVtOSF1DKD1PKVtOSF1bQ0BASF0yW0NIMl1bQ0gyXU4oW0NIMl0yKVtDSDJdQyhGKShGKUY=

> <s_epik_cmdline>
J2VwaWtfcHl0aG9uJywgJy1waCcsICc3LjAnLCAnLXRuJywgJzgnLCAnLW1hJywgJzIwMCcsICctbWV0YWxfYmluZGluZycsICctaW1hZScsICc8aW5maWxlLm1hZT4nLCAnLW9tYWUnLCAnPG91dGZpbGUubWFlPic=

> <r_lp_tautomer_probability>
1

> <r_epik_Ionization_Penalty>
1.12054

> <r_epik_Ionization_Penalty_Charging>
1.12047

> <r_epik_Ionization_Penalty_Neutral>
7.20346e-05

> <r_epik_State_Penalty>
1.17927

> <r_epik_Charging_Adjusted_Penalty>
2.29974

> <i_epik_Tot_Q>
1

> <i_epik_Tot_abs_Q>
1

> <r_epik_Metal_State_Penalty>
1.17928

> <b_epik_Metal_Only>
0

> <s_lp_Force_Field>
OPLS_2005

> <r_lp_Energy>
30.0061

> <b_lp_Chiralities_Consistent>
1

> <s_lp_Variant>
AV-unprocessed.smi:1163-3

> <Gold.Version>
5.8.1

> <Gold.Id.Protein>
6NUR|6NUR_protein|mol2

> <Gold.PLP.Fitness>
44.1984

> <Gold.PLP.PLP>
-36.8176

> <Gold.PLP.part.hbond>
-4.4499

> <Gold.PLP.part.metal>
0.0000

> <Gold.PLP.part.buried>
-1.6085

> <Gold.PLP.part.nonpolar>
-33.9007

> <Gold.PLP.part.repulsive>
3.3127

> <Gold.PLP.ligand.clash>
0.0293

> <Gold.PLP.ligand.torsion>
1.3984

> <Gold.PLP.Chemscore.Hbond>
2.0236

> <Gold.PLP.Chemscore.CHOScore>
1.2044

> <Gold.PLP.Chemscore.Metal>
0.0000

> <Gold.Chemscore.Hbonds>
donor molecule, donor type, donor heavy atom, donor atom, acceptor molecule, acceptor atom, score
      L1  H     7    28       P1 10175  0.99
      L1  H    10    29       P1 10175  1.00
      P1  H  7989  7998       L1     2  0.03
      L1  C    21    39       P1  7948  1.00
      L1  C    21    39       P1  7957  0.18

> <Gold.PLP.Chemscore.Internal.Correction>
0.5228

> <Gold.Rescore>
     Score         DG    S(hbond)    S(metal)    S(lipo)     H(rot)  DE(clash)    DE(int)     intcor
      9.82     -14.93       1.95        0.00      61.71       1.68       1.05       4.06       ----

> <Gold.Chemscore.Fitness>
9.8196

> <Gold.Chemscore.DG>
-14.9323

> <Gold.Chemscore.ZeroCoef>
-5.4800

> <Gold.Chemscore.Hbond>
1.9542

> <Gold.Chemscore.Metal>
0.0000

> <Gold.Chemscore.Lipo>
61.7138

> <Gold.Chemscore.Internal_Hbond>
0.0000

> <Gold.Chemscore.DEClash>
1.0516

> <Gold.Chemscore.DEInternal>
4.0612

> <Gold.Chemscore.Rot>
1.6778

> <Gold.Chemscore.Internal.Correction>
   9.000000E+99

> <Gold.Chemscore.Hbonds>
donor molecule, donor type, donor heavy atom, donor atom, acceptor molecule, acceptor atom, score
      L1  H     7    28       P1 10175  0.92
      L1  H    10    29       P1 10175  1.00

> <Gold.Chemscore.Hbond.Weighted>
-6.5269

> <Gold.Chemscore.Metal.Weighted>
-0.0000

> <Gold.Chemscore.Lipo.Weighted>
-7.2205

> <Gold.Chemscore.Internal_Hbond.Weighted>
0.0000

> <Gold.Chemscore.DEClash.Weighted>
1.0516

> <Gold.Chemscore.DEInternal.Weighted>
4.0612

> <Gold.Chemscore.Rot.Weighted>
4.2951

> <Gold.Chemscore.Internal.Correction.Weighted>
   9.000000E+99

> <Gold.Protein.RotatedTorsions>
[ 6907 6896 6895 6894 ] final   72.01 input  -60.11 | X-H torsion
[ 7974 7965 7964 7962 ] final   11.23 input  175.53 | X-H torsion
[ 8008 7997 7996 7995 ] final -132.53 input   59.86 | X-H torsion
[ 10167 10162 10161 10158 ] final  141.69 input  -65.29 | X-H torsion
[ 10718 10713 10712 10709 ] final  -93.61 input   66.30 | X-H torsion
[ 10763 10752 10751 10750 ] final  -18.81 input  -60.55 | X-H torsion
[ 11005 11000 10999 10996 ] final  162.53 input  -57.11 | X-H torsion

> <Gold.Protein.ActiveResidues>
 VAL166  LYS551  ARG553  GLY616  TRP617  ASP618  TYR619  PRO620  LYS621  CYS622 
 ASP623  PHE694  ASN695  SER759  ASP760  ASP761  ALA762  ILE779  LEU786  VAL792 
 PHE793  MET794  SER795  GLU796  ALA797  LYS798  CYS799  TRP800  GLU811  SER814 

> <Gold.Protein.RotatedAtoms>
  152.4843  134.4635  159.9612 H   0  0  0  0  0  0  0  0  0  0  0  0  # atno 6907 bound_to 6896
  151.4634  133.3581  159.2820 H   0  0  0  0  0  0  0  0  0  0  0  0  # atno 6908 bound_to 6896
  150.8941  134.8372  159.7374 H   0  0  0  0  0  0  0  0  0  0  0  0  # atno 6909 bound_to 6896
  146.2375  139.9516  142.8470 H   0  0  0  0  0  0  0  0  0  0  0  0  # atno 7974 bound_to 7965
  155.3305  140.0467  157.3042 H   0  0  0  0  0  0  0  0  0  0  0  0  # atno 8008 bound_to 7997
  154.5331  140.2263  155.8735 H   0  0  0  0  0  0  0  0  0  0  0  0  # atno 8009 bound_to 7997
  156.1808  140.3074  155.9151 H   0  0  0  0  0  0  0  0  0  0  0  0  # atno 8010 bound_to 7997
  139.5014  144.6155  151.6173 H   0  0  0  0  0  0  0  0  0  0  0  0  # atno 10167 bound_to 10162
  156.0016  130.5034  150.5803 H   0  0  0  0  0  0  0  0  0  0  0  0  # atno 10718 bound_to 10713
  153.5950  135.7001  153.5407 H   0  0  0  0  0  0  0  0  0  0  0  0  # atno 10763 bound_to 10752
  153.3145  135.4091  155.1364 H   0  0  0  0  0  0  0  0  0  0  0  0  # atno 10764 bound_to 10752
  154.8593  135.3680  154.5483 H   0  0  0  0  0  0  0  0  0  0  0  0  # atno 10765 bound_to 10752
  140.2267  134.8155  157.3276 H   0  0  0  0  0  0  0  0  0  0  0  0  # atno 11005 bound_to 11000
  145.1856  140.9788  143.4241 LP  0  0  0  0  0  0  0  0  0  0  0  0  # atno 17320 bound_to 7965
  144.9903  139.3696  143.6218 LP  0  0  0  0  0  0  0  0  0  0  0  0  # atno 17321 bound_to 7965
  140.5842  143.9893  150.6286 LP  0  0  0  0  0  0  0  0  0  0  0  0  # atno 17342 bound_to 10162
  140.3052  143.3234  152.0933 LP  0  0  0  0  0  0  0  0  0  0  0  0  # atno 17343 bound_to 10162
  157.3684  131.0761  151.1578 LP  0  0  0  0  0  0  0  0  0  0  0  0  # atno 17370 bound_to 10713
  157.2340  130.6538  149.5861 LP  0  0  0  0  0  0  0  0  0  0  0  0  # atno 17371 bound_to 10713
  140.1793  134.4510  155.7782 LP  0  0  0  0  0  0  0  0  0  0  0  0  # atno 17394 bound_to 11000
  141.2220  133.6976  156.7841 LP  0  0  0  0  0  0  0  0  0  0  0  0  # atno 17395 bound_to 11000

$$$$
