AV-unprocessed.smi:2083|AV-procd|sdf|8495|dock2
  -GOLD-   2272011203D 1   1.00000     0.00000
 Structure written by MMmdl.
 45 46  0  0  0  0  0  0  0  0  2 V2000
  145.3456  130.3223  151.3749 C   0  0  0  0  0  0  0  0  0  0  0  0
  145.3604  131.8120  151.3482 C   0  0  0  0  0  0  0  0  0  0  0  0
  146.3127  132.7393  151.6665 C   0  0  0  0  0  0  0  0  0  0  0  0
  145.6565  133.9724  151.4095 C   0  0  0  0  0  0  0  0  0  0  0  0
  146.3189  135.2084  151.6232 N   0  0  0  0  0  0  0  0  0  0  0  0
  145.8315  136.3018  152.2340 C   0  0  0  0  0  0  0  0  0  0  0  0
  144.6956  136.4089  152.6970 O   0  0  0  0  0  0  0  0  0  0  0  0
  146.7425  137.2858  152.2769 N   0  0  0  0  0  0  0  0  0  0  0  0
  146.5458  138.5920  152.9007 C   0  0  0  0  0  0  0  0  0  0  0  0
  147.8827  139.3239  153.1872 C   0  0  1  0  0  0  0  0  0  0  0  0
  147.7016  140.6705  153.9145 C   0  0  0  0  0  0  0  0  0  0  0  0
  148.8706  138.4718  153.9126 N   0  3  1  0  0  0  0  0  0  0  0  0
  150.2260  139.0645  154.0775 C   0  0  0  0  0  0  0  0  0  0  0  0
  151.2194  138.0132  154.5956 C   0  0  0  0  0  0  0  0  0  0  0  0
  150.7255  137.3924  155.9108 C   0  0  0  0  0  0  0  0  0  0  0  0
  149.2949  136.8391  155.7682 C   0  0  2  0  0  0  0  0  0  0  0  0
  149.2423  135.5279  154.9648 C   0  0  0  0  0  0  0  0  0  0  0  0
  148.3513  137.9157  155.1916 C   0  0  0  0  0  0  0  0  0  0  0  0
  144.4167  133.8126  150.9722 N   0  0  0  0  0  0  0  0  0  0  0  0
  144.2206  132.4271  150.9314 O   0  0  0  0  0  0  0  0  0  0  0  0
  146.3094  129.9284  151.6979 H   0  0  0  0  0  0  0  0  0  0  0  0
  145.1302  129.9204  150.3849 H   0  0  0  0  0  0  0  0  0  0  0  0
  144.5834  129.9560  152.0626 H   0  0  0  0  0  0  0  0  0  0  0  0
  147.3151  132.5605  152.0258 H   0  0  0  0  0  0  0  0  0  0  0  0
  147.2678  135.2601  151.2834 H   0  0  0  0  0  0  0  0  0  0  0  0
  147.6496  137.1088  151.8704 H   0  0  0  0  0  0  0  0  0  0  0  0
  145.8907  139.2030  152.2784 H   0  0  0  0  0  0  0  0  0  0  0  0
  146.0039  138.4202  153.8302 H   0  0  0  0  0  0  0  0  0  0  0  0
  148.3324  139.5717  152.2244 H   0  0  0  0  0  0  0  0  0  0  0  0
  147.1726  141.3906  153.2902 H   0  0  0  0  0  0  0  0  0  0  0  0
  148.6651  141.1153  154.1651 H   0  0  0  0  0  0  0  0  0  0  0  0
  147.1326  140.5623  154.8378 H   0  0  0  0  0  0  0  0  0  0  0  0
  150.5895  139.4590  153.1292 H   0  0  0  0  0  0  0  0  0  0  0  0
  150.1876  139.9000  154.7774 H   0  0  0  0  0  0  0  0  0  0  0  0
  151.3603  137.2359  153.8440 H   0  0  0  0  0  0  0  0  0  0  0  0
  152.1975  138.4709  154.7477 H   0  0  0  0  0  0  0  0  0  0  0  0
  151.4088  136.6092  156.2410 H   0  0  0  0  0  0  0  0  0  0  0  0
  150.7387  138.1554  156.6901 H   0  0  0  0  0  0  0  0  0  0  0  0
  148.9399  136.5974  156.7708 H   0  0  0  0  0  0  0  0  0  0  0  0
  149.5558  135.6698  153.9305 H   0  0  0  0  0  0  0  0  0  0  0  0
  148.2314  135.1199  154.9485 H   0  0  0  0  0  0  0  0  0  0  0  0
  149.8917  134.7719  155.4073 H   0  0  0  0  0  0  0  0  0  0  0  0
  148.2346  138.7221  155.9165 H   0  0  0  0  0  0  0  0  0  0  0  0
  147.3599  137.4864  155.0422 H   0  0  0  0  0  0  0  0  0  0  0  0
  148.9993  137.6674  153.3154 H   0  0  0  0  0  0  0  0  0  0  0  0
  1  2  1  0  0  0  0
  1 21  1  0  0  0  0
  1 22  1  0  0  0  0
  1 23  1  0  0  0  0
  2 20  1  0  0  0  0
  2  3  2  0  0  0  0
  3  4  1  0  0  0  0
  3 24  1  0  0  0  0
  4  5  1  0  0  0  0
  4 19  2  0  0  0  0
  5  6  1  0  0  0  0
  5 25  1  0  0  0  0
  6  7  2  0  0  0  0
  6  8  1  0  0  0  0
  8  9  1  0  0  0  0
  8 26  1  0  0  0  0
  9 10  1  0  0  0  0
  9 27  1  0  0  0  0
  9 28  1  0  0  0  0
 10 11  1  0  0  0  0
 10 12  1  0  0  0  0
 10 29  1  0  0  0  0
 11 30  1  0  0  0  0
 11 31  1  0  0  0  0
 11 32  1  0  0  0  0
 12 18  1  0  0  0  0
 12 13  1  0  0  0  0
 12 45  1  0  0  0  0
 13 14  1  0  0  0  0
 13 33  1  0  0  0  0
 13 34  1  0  0  0  0
 14 15  1  0  0  0  0
 14 35  1  0  0  0  0
 14 36  1  0  0  0  0
 15 16  1  0  0  0  0
 15 37  1  0  0  0  0
 15 38  1  0  0  0  0
 16 17  1  0  0  0  0
 16 18  1  0  0  0  0
 16 39  1  0  0  0  0
 17 40  1  0  0  0  0
 17 41  1  0  0  0  0
 17 42  1  0  0  0  0
 18 43  1  0  0  0  0
 18 44  1  0  0  0  0
 19 20  1  0  0  0  0
M  CHG  1  12   1
M  END
> <s_m_source_file>
AV-unprocessed.smi

> <i_m_source_file_index>
2083

> <i_lp_mmshare_version>
43012

> <i_f3d_flags>
0

> <s_epik_input>
W0NIM11jMVtjSF1jKG5vMSlbTkhdQyg9TylbTkhdW0NIMl1bQ0BIXShbQ0gzXSlOMltDSDJdW0NIMl1bQ0gyXVtDQEBIXShbQ0gzXSlbQ0gyXTI=

> <s_epik_cmdline>
J2VwaWtfcHl0aG9uJywgJy1waCcsICc3LjAnLCAnLXRuJywgJzgnLCAnLW1hJywgJzIwMCcsICctbWV0YWxfYmluZGluZycsICctaW1hZScsICc8aW5maWxlLm1hZT4nLCAnLW9tYWUnLCAnPG91dGZpbGUubWFlPic=

> <r_epik_Ionization_Penalty>
0.00216453

> <r_epik_Ionization_Penalty_Charging>
0.00212879

> <r_epik_Ionization_Penalty_Neutral>
3.57418e-05

> <r_epik_State_Penalty>
0.00146033

> <r_epik_Charging_Adjusted_Penalty>
0.00358912

> <i_epik_Tot_Q>
1

> <i_epik_Tot_abs_Q>
1

> <r_epik_Metal_State_Penalty>
0.0215827

> <b_epik_Metal_Only>
0

> <s_lp_Force_Field>
OPLS_2005

> <r_lp_Energy>
20.2755

> <b_lp_Chiralities_Consistent>
1

> <s_lp_Variant>
AV-unprocessed.smi:2083-6

> <Gold.Version>
5.8.1

> <Gold.Id.Protein>
6NUR|6NUR_protein|mol2

> <Gold.PLP.Fitness>
37.6578

> <Gold.PLP.PLP>
-27.4498

> <Gold.PLP.part.hbond>
-2.9819

> <Gold.PLP.part.metal>
0.0000

> <Gold.PLP.part.buried>
-1.7480

> <Gold.PLP.part.nonpolar>
-23.0957

> <Gold.PLP.part.repulsive>
0.5947

> <Gold.PLP.ligand.clash>
0.0000

> <Gold.PLP.ligand.torsion>
0.5846

> <Gold.PLP.Chemscore.Hbond>
3.7520

> <Gold.PLP.Chemscore.CHOScore>
0.0000

> <Gold.PLP.Chemscore.Metal>
0.0000

> <Gold.Chemscore.Hbonds>
donor molecule, donor type, donor heavy atom, donor atom, acceptor molecule, acceptor atom, score
      L1  H     5    25       P1  7948  0.74
      L1  H     8    26       P1  7948  0.99
      L1  H    12    45       P1  7948  2.00

> <Gold.PLP.Chemscore.Internal.Correction>
0.1212

> <Gold.Rescore>
     Score         DG    S(hbond)    S(metal)    S(lipo)     H(rot)  DE(clash)    DE(int)     intcor
     16.71     -18.47       2.50        0.00      73.61       1.55       1.20       0.56       ----

> <Gold.Chemscore.Fitness>
16.7089

> <Gold.Chemscore.DG>
-18.4699

> <Gold.Chemscore.ZeroCoef>
-5.4800

> <Gold.Chemscore.Hbond>
2.4968

> <Gold.Chemscore.Metal>
0.0000

> <Gold.Chemscore.Lipo>
73.6062

> <Gold.Chemscore.Internal_Hbond>
0.0000

> <Gold.Chemscore.DEClash>
1.1991

> <Gold.Chemscore.DEInternal>
0.5620

> <Gold.Chemscore.Rot>
1.5474

> <Gold.Chemscore.Internal.Correction>
   9.000000E+99

> <Gold.Chemscore.Hbonds>
donor molecule, donor type, donor heavy atom, donor atom, acceptor molecule, acceptor atom, score
      L1  H     5    25       P1  7948  0.57
      L1  H     8    26       P1  7948  0.89
      L1  H    12    45       P1  7948  0.94

> <Gold.Chemscore.Hbond.Weighted>
-8.3392

> <Gold.Chemscore.Metal.Weighted>
-0.0000

> <Gold.Chemscore.Lipo.Weighted>
-8.6119

> <Gold.Chemscore.Internal_Hbond.Weighted>
0.0000

> <Gold.Chemscore.DEClash.Weighted>
1.1991

> <Gold.Chemscore.DEInternal.Weighted>
0.5620

> <Gold.Chemscore.Rot.Weighted>
3.9612

> <Gold.Chemscore.Internal.Correction.Weighted>
   9.000000E+99

> <Gold.Protein.RotatedTorsions>
[ 6907 6896 6895 6894 ] final  161.56 input  -60.11 | X-H torsion
[ 7974 7965 7964 7962 ] final   44.00 input  175.53 | X-H torsion
[ 8008 7997 7996 7995 ] final   91.07 input   59.86 | X-H torsion
[ 10167 10162 10161 10158 ] final   77.69 input  -65.29 | X-H torsion
[ 10718 10713 10712 10709 ] final  -98.36 input   66.30 | X-H torsion
[ 10763 10752 10751 10750 ] final   83.84 input  -60.55 | X-H torsion
[ 11005 11000 10999 10996 ] final  162.16 input  -57.11 | X-H torsion

> <Gold.Protein.ActiveResidues>
 VAL166  LYS551  ARG553  GLY616  TRP617  ASP618  TYR619  PRO620  LYS621  CYS622 
 ASP623  PHE694  ASN695  SER759  ASP760  ASP761  ALA762  ILE779  LEU786  VAL792 
 PHE793  MET794  SER795  GLU796  ALA797  LYS798  CYS799  TRP800  GLU811  SER814 

> <Gold.Protein.RotatedAtoms>
  151.9538  133.3674  159.4009 H   0  0  0  0  0  0  0  0  0  0  0  0  # atno 6907 bound_to 6896
  150.6976  134.4312  159.5259 H   0  0  0  0  0  0  0  0  0  0  0  0  # atno 6908 bound_to 6896
  152.1990  134.8605  160.0560 H   0  0  0  0  0  0  0  0  0  0  0  0  # atno 6909 bound_to 6896
  146.0606  139.5123  142.9660 H   0  0  0  0  0  0  0  0  0  0  0  0  # atno 7974 bound_to 7965
  156.0195  140.3342  155.7024 H   0  0  0  0  0  0  0  0  0  0  0  0  # atno 8008 bound_to 7997
  155.6043  140.0659  157.2742 H   0  0  0  0  0  0  0  0  0  0  0  0  # atno 8009 bound_to 7997
  154.4311  140.1805  156.1193 H   0  0  0  0  0  0  0  0  0  0  0  0  # atno 8010 bound_to 7997
  139.9789  144.5841  150.7918 H   0  0  0  0  0  0  0  0  0  0  0  0  # atno 10167 bound_to 10162
  156.0106  130.5235  150.6512 H   0  0  0  0  0  0  0  0  0  0  0  0  # atno 10718 bound_to 10713
  153.1328  135.4676  154.9375 H   0  0  0  0  0  0  0  0  0  0  0  0  # atno 10763 bound_to 10752
  154.7679  135.3150  154.8251 H   0  0  0  0  0  0  0  0  0  0  0  0  # atno 10764 bound_to 10752
  153.8790  135.6896  153.4822 H   0  0  0  0  0  0  0  0  0  0  0  0  # atno 10765 bound_to 10752
  140.2230  134.8182  157.3239 H   0  0  0  0  0  0  0  0  0  0  0  0  # atno 11005 bound_to 11000
  145.6566  141.0250  143.1731 LP  0  0  0  0  0  0  0  0  0  0  0  0  # atno 17320 bound_to 7965
  144.7173  139.8152  143.7394 LP  0  0  0  0  0  0  0  0  0  0  0  0  # atno 17321 bound_to 7965
  140.7496  143.2941  151.3251 LP  0  0  0  0  0  0  0  0  0  0  0  0  # atno 17342 bound_to 10162
  139.6425  144.0513  152.2565 LP  0  0  0  0  0  0  0  0  0  0  0  0  # atno 17343 bound_to 10162
  157.4273  131.0844  151.1073 LP  0  0  0  0  0  0  0  0  0  0  0  0  # atno 17370 bound_to 10713
  157.1657  130.6245  149.5624 LP  0  0  0  0  0  0  0  0  0  0  0  0  # atno 17371 bound_to 10713
  140.1830  134.4466  155.7760 LP  0  0  0  0  0  0  0  0  0  0  0  0  # atno 17394 bound_to 11000
  141.2222  133.6992  156.7900 LP  0  0  0  0  0  0  0  0  0  0  0  0  # atno 17395 bound_to 11000

$$$$
