#       Name:                AV-unprocessed.smi:2528
#       Creating user name   scv26
#       Creation time:       Fri Mar 27 13:59:24 2020


#       File generated by GOLD software.
#

@<TRIPOS>MOLECULE
AV-unprocessed.smi:2528
    49    51     1
SMALL
NO_CHARGES


@<TRIPOS>ATOM
      1 ****        -1.0611   1.6281   1.8019 O.2            1 S1                 0.0000
      2 ****        -1.6129   0.5465   2.0079 C.2            1 S1                 0.0000
      3 ****        -0.9412  -0.6047   2.1543 N.am           1 S1                 0.0000
      4 ****         0.5116  -0.7331   2.1088 C.3            1 S1                 0.0000
      5 ****         1.0509  -0.6735   0.6685 C.3            1 S1                 0.0000
      6 ****         2.5950  -0.6991   0.6352 C.3            1 S1                 0.0000
      7 ****         3.1087  -0.7557  -0.7550 N.4            1 S1                 1.0000
      8 ****         3.0506   0.5539  -1.4604 C.3            1 S1                 0.0000
      9 ****         3.6537   0.4577  -2.8691 C.3            1 S1                 0.0000
     10 ****         2.9426  -0.6248  -3.6886 C.3            1 S1                 0.0000
     11 ****         3.0163  -1.9683  -2.9506 C.3            1 S1                 0.0000
     12 ****         2.4815  -1.8789  -1.5053 C.3            1 S1                 0.0000
     13 ****         0.9428  -1.8049  -1.4123 C.3            1 S1                 0.0000
     14 ****         0.5546  -1.8037  -0.0434 O.3            1 S1                 0.0000
     15 ****        -2.9395   0.3557   2.1146 N.am           1 S1                 0.0000
     16 ****        -3.9749   1.3241   2.0246 C.ar           1 S1                 0.0000
     17 ****        -5.2817   0.8239   2.2237 C.ar           1 S1                 0.0000
     18 ****        -6.3785   1.7050   2.1566 C.ar           1 S1                 0.0000
     19 ****        -6.1399   3.0653   1.8910 C.ar           1 S1                 0.0000
     20 ****        -4.8088   3.4807   1.7030 C.ar           1 S1                 0.0000
     21 ****        -3.7561   2.6380   1.7667 N.ar           1 S1                 0.0000
     22 ****        -1.4692  -1.4497   2.3168 H              1 S1                 0.0000
     23 ****         0.9628   0.0540   2.7155 H              1 S1                 0.0000
     24 ****         0.7887  -1.6789   2.5752 H              1 S1                 0.0000
     25 ****         0.6891   0.2389   0.1929 H              1 S1                 0.0000
     26 ****         3.0090   0.1672   1.1527 H              1 S1                 0.0000
     27 ****         2.9568  -1.5792   1.1688 H              1 S1                 0.0000
     28 ****         2.0223   0.9083  -1.5303 H              1 S1                 0.0000
     29 ****         3.5981   1.2987  -0.8818 H              1 S1                 0.0000
     30 ****         3.5735   1.4204  -3.3749 H              1 S1                 0.0000
     31 ****         4.7184   0.2303  -2.8007 H              1 S1                 0.0000
     32 ****         1.9024  -0.3429  -3.8556 H              1 S1                 0.0000
     33 ****         3.4023  -0.7125  -4.6735 H              1 S1                 0.0000
     34 ****         2.4743  -2.7332  -3.5079 H              1 S1                 0.0000
     35 ****         4.0565  -2.2963  -2.9239 H              1 S1                 0.0000
     36 ****         2.7822  -2.7990  -1.0015 H              1 S1                 0.0000
     37 ****         0.5447  -0.9235  -1.9164 H              1 S1                 0.0000
     38 ****         0.4955  -2.6732  -1.8962 H              1 S1                 0.0000
     39 ****        -3.2446  -0.5904   2.2896 H              1 S1                 0.0000
     40 ****        -5.4470  -0.2240   2.4284 H              1 S1                 0.0000
     41 ****        -7.3847   1.3424   2.3068 H              1 S1                 0.0000
     42 ****        -6.9548   3.7715   1.8321 H              1 S1                 0.0000
     43 ****        -4.5823   4.5162   1.4954 H              1 S1                 0.0000
     44 ****         4.0921  -0.9763  -0.6855 H              1 S1                 0.0000
     45 ****        -0.0644   1.6765   1.7365 LP             1 S1                 0.0000
     46 ****        -1.6097   2.4579   1.7001 LP             1 S1                 0.0000
     47 ****        -0.4442  -1.7994   0.0058 LP             1 S1                 0.0000
     48 ****         0.9060  -2.6339   0.3895 LP             1 S1                 0.0000
     49 ****        -2.8263   2.9780   1.6256 LP             1 S1                 0.0000
@<TRIPOS>BOND
    1    1    2 2     
    2    2    3 am    
    3    2   15 am    
    4    3    4 1     
    5    3   22 1     
    6    4    5 1     
    7    4   23 1     
    8    4   24 1     
    9    5   14 1     
   10    5    6 1     
   11    5   25 1     
   12    6    7 1     
   13    6   26 1     
   14    6   27 1     
   15    7   12 1     
   16    7    8 1     
   17    7   44 1     
   18    8    9 1     
   19    8   28 1     
   20    8   29 1     
   21    9   10 1     
   22    9   30 1     
   23    9   31 1     
   24   10   11 1     
   25   10   32 1     
   26   10   33 1     
   27   11   12 1     
   28   11   34 1     
   29   11   35 1     
   30   12   13 1     
   31   12   36 1     
   32   13   14 1     
   33   13   37 1     
   34   13   38 1     
   35   15   16 1     
   36   15   39 1     
   37   16   21 ar    
   38   16   17 ar    
   39   17   18 ar    
   40   17   40 1     
   41   18   19 ar    
   42   18   41 1     
   43   19   20 ar    
   44   19   42 1     
   45   20   21 ar    
   46   20   43 1     
   47    1   45 1     
   48    1   46 1     
   49   14   47 1     
   50   14   48 1     
   51   21   49 1     
@<TRIPOS>SUBSTRUCTURE
      1 S1             1
@<TRIPOS>SET
LONE_PAIRS      STATIC     ATOMS    <user>   **** ""
5 45 46 47 48 49
DONOR_HYDROGENS      STATIC     ATOMS    <user>   **** ""
3 22 44 39
ATOM$BLUE        STATIC     ATOMS    COLORGROUP SYSTEM
5 45 46 47 48 49
ATOM$RED        STATIC     ATOMS    COLORGROUP SYSTEM
3 22 44 39
