AV-unprocessed.smi:235|AV-procd|sdf|1802|dock2
  -GOLD-   2262020373D 1   1.00000     0.00000
 Structure written by MMmdl.
 54 58  0  0  0  0  0  0  0  0  1 V2000
  145.7037  133.4463  154.1073 O   0  0  0  0  0  0  0  0  0  0  0  0
  146.6915  134.1585  153.9273 C   0  0  0  0  0  0  0  0  0  0  0  0
  146.8385  134.9360  152.8417 N   0  0  0  0  0  0  0  0  0  0  0  0
  145.9129  135.0599  151.7648 C   0  0  0  0  0  0  0  0  0  0  0  0
  144.4421  135.1202  152.1163 C   0  0  0  0  0  0  0  0  0  0  0  0
  145.0075  133.8811  151.4791 C   0  0  0  0  0  0  0  0  0  0  0  0
  147.8034  134.1925  154.9965 C   0  0  1  0  0  0  0  0  0  0  0  0
  148.4576  132.8115  155.2217 C   0  0  0  0  0  0  0  0  0  0  0  0
  149.8299  132.9106  154.5601 C   0  0  0  0  0  0  0  0  0  0  0  0
  150.1851  134.3771  154.7682 C   0  0  0  0  0  0  0  0  0  0  0  0
  148.9185  135.0763  154.6335 N   0  0  0  0  0  0  0  0  0  0  0  0
  148.8919  136.3507  155.0794 C   0  0  0  0  0  0  0  0  0  0  0  0
  147.7243  136.9056  155.4961 N   0  0  0  0  0  0  0  0  0  0  0  0
  147.7071  138.1717  155.9256 C   0  0  0  0  0  0  0  0  0  0  0  0
  148.7199  139.0379  156.0167 N   0  0  0  0  0  0  0  0  0  0  0  0
  149.8915  138.4757  155.6009 C   0  0  0  0  0  0  0  0  0  0  0  0
  150.0647  137.1468  155.1262 C   0  0  0  0  0  0  0  0  0  0  0  0
  151.3952  136.9249  154.7946 N   0  0  0  0  0  0  0  0  0  0  0  0
  151.9772  138.0647  155.0518 C   0  0  0  0  0  0  0  0  0  0  0  0
  151.1476  139.0509  155.5377 N   0  0  0  0  0  0  0  0  0  0  0  0
  151.5213  140.4063  155.9008 C   0  0  0  0  0  0  0  0  0  0  0  0
  150.3522  141.1892  156.5365 C   0  0  2  0  0  0  0  0  0  0  0  0
  149.7316  141.9550  155.5211 O   0  0  0  0  0  0  0  0  0  0  0  0
  150.8064  142.1576  157.6471 C   0  0  2  0  0  0  0  0  0  0  0  0
  151.5499  143.3996  157.1506 C   0  0  0  0  0  0  0  0  0  0  0  0
  152.3874  143.8191  158.3471 C   0  0  0  0  0  0  0  0  0  0  0  0
  152.4295  142.5648  159.2226 C   0  0  0  0  0  0  0  0  0  0  0  0
  151.8104  141.5487  158.4458 O   0  0  0  0  0  0  0  0  0  0  0  0
  147.6784  135.4940  152.7796 H   0  0  0  0  0  0  0  0  0  0  0  0
  146.2219  135.6506  150.9036 H   0  0  0  0  0  0  0  0  0  0  0  0
  144.1666  135.0609  153.1678 H   0  0  0  0  0  0  0  0  0  0  0  0
  143.8056  135.7548  151.5031 H   0  0  0  0  0  0  0  0  0  0  0  0
  144.7501  133.6880  150.4398 H   0  0  0  0  0  0  0  0  0  0  0  0
  145.1105  132.9962  152.1047 H   0  0  0  0  0  0  0  0  0  0  0  0
  147.3332  134.5134  155.9277 H   0  0  0  0  0  0  0  0  0  0  0  0
  148.5839  132.6437  156.2921 H   0  0  0  0  0  0  0  0  0  0  0  0
  147.8776  131.9732  154.8333 H   0  0  0  0  0  0  0  0  0  0  0  0
  150.5638  132.2282  154.9895 H   0  0  0  0  0  0  0  0  0  0  0  0
  149.7445  132.6938  153.4943 H   0  0  0  0  0  0  0  0  0  0  0  0
  150.6074  134.5318  155.7628 H   0  0  0  0  0  0  0  0  0  0  0  0
  150.9095  134.7247  154.0309 H   0  0  0  0  0  0  0  0  0  0  0  0
  146.7432  138.5451  156.2386 H   0  0  0  0  0  0  0  0  0  0  0  0
  153.0336  138.2200  154.8875 H   0  0  0  0  0  0  0  0  0  0  0  0
  152.3633  140.3428  156.5902 H   0  0  0  0  0  0  0  0  0  0  0  0
  151.8864  140.9193  155.0097 H   0  0  0  0  0  0  0  0  0  0  0  0
  149.6237  140.4842  156.9394 H   0  0  0  0  0  0  0  0  0  0  0  0
  149.6467  142.8454  155.8256 H   0  0  0  0  0  0  0  0  0  0  0  0
  149.9652  142.4583  158.2752 H   0  0  0  0  0  0  0  0  0  0  0  0
  152.2081  143.1356  156.3214 H   0  0  0  0  0  0  0  0  0  0  0  0
  150.8782  144.1881  156.8098 H   0  0  0  0  0  0  0  0  0  0  0  0
  153.3836  144.1381  158.0393 H   0  0  0  0  0  0  0  0  0  0  0  0
  151.9209  144.6442  158.8867 H   0  0  0  0  0  0  0  0  0  0  0  0
  153.4449  142.2794  159.4979 H   0  0  0  0  0  0  0  0  0  0  0  0
  151.8576  142.7167  160.1389 H   0  0  0  0  0  0  0  0  0  0  0  0
  1  2  2  0  0  0  0
  2  3  1  0  0  0  0
  2  7  1  0  0  0  0
  3  4  1  0  0  0  0
  3 29  1  0  0  0  0
  4  6  1  0  0  0  0
  4  5  1  0  0  0  0
  4 30  1  0  0  0  0
  5  6  1  0  0  0  0
  5 31  1  0  0  0  0
  5 32  1  0  0  0  0
  6 33  1  0  0  0  0
  6 34  1  0  0  0  0
  7 11  1  0  0  0  0
  7  8  1  0  0  0  0
  7 35  1  0  0  0  0
  8  9  1  0  0  0  0
  8 36  1  0  0  0  0
  8 37  1  0  0  0  0
  9 10  1  0  0  0  0
  9 38  1  0  0  0  0
  9 39  1  0  0  0  0
 10 11  1  0  0  0  0
 10 40  1  0  0  0  0
 10 41  1  0  0  0  0
 11 12  1  0  0  0  0
 12 17  1  0  0  0  0
 12 13  2  0  0  0  0
 13 14  1  0  0  0  0
 14 15  2  0  0  0  0
 14 42  1  0  0  0  0
 15 16  1  0  0  0  0
 16 20  1  0  0  0  0
 16 17  2  0  0  0  0
 17 18  1  0  0  0  0
 18 19  2  0  0  0  0
 19 20  1  0  0  0  0
 19 43  1  0  0  0  0
 20 21  1  0  0  0  0
 21 22  1  0  0  0  0
 21 44  1  0  0  0  0
 21 45  1  0  0  0  0
 22 23  1  0  0  0  0
 22 24  1  0  0  0  0
 22 46  1  0  0  0  0
 23 47  1  0  0  0  0
 24 28  1  0  0  0  0
 24 25  1  0  0  0  0
 24 48  1  0  0  0  0
 25 26  1  0  0  0  0
 25 49  1  0  0  0  0
 25 50  1  0  0  0  0
 26 27  1  0  0  0  0
 26 51  1  0  0  0  0
 26 52  1  0  0  0  0
 27 28  1  0  0  0  0
 27 53  1  0  0  0  0
 27 54  1  0  0  0  0
M  END
> <s_m_source_file>
AV-unprocessed.smi

> <i_m_source_file_index>
235

> <i_lp_mmshare_version>
43012

> <i_f3d_flags>
0

> <s_epik_input>
W0NIMl0xW0NIMl1bQ0hdMVtOSF1DKD1PKVtDQEBIXTJbQ0gyXVtDSDJdW0NIMl1OMmMobltjSF1uMyljKGMzNCluW2NIXW40W0NIMl1bQ0BIXShbT0hdKVtDQEBIXTVbQ0gyXVtDSDJdW0NIMl1PNQ==

> <s_epik_cmdline>
J2VwaWtfcHl0aG9uJywgJy1waCcsICc3LjAnLCAnLXRuJywgJzgnLCAnLW1hJywgJzIwMCcsICctbWV0YWxfYmluZGluZycsICctaW1hZScsICc8aW5maWxlLm1hZT4nLCAnLW9tYWUnLCAnPG91dGZpbGUubWFlPic=

> <r_lp_tautomer_probability>
1

> <r_epik_Ionization_Penalty>
0.000526714

> <r_epik_Ionization_Penalty_Charging>
0

> <r_epik_Ionization_Penalty_Neutral>
0.000526714

> <r_epik_State_Penalty>
0.000272704

> <r_epik_Charging_Adjusted_Penalty>
0.000272704

> <i_epik_Tot_Q>
0

> <i_epik_Tot_abs_Q>
0

> <r_epik_Metal_State_Penalty>
-0

> <b_epik_Metal_Only>
0

> <s_lp_Force_Field>
OPLS_2005

> <r_lp_Energy>
60.5906

> <b_lp_Chiralities_Consistent>
1

> <s_lp_Variant>
AV-unprocessed.smi:235-2

> <Gold.Version>
5.8.1

> <Gold.Id.Protein>
6NUR|6NUR_protein|mol2

> <Gold.PLP.Fitness>
44.4355

> <Gold.PLP.PLP>
-38.6312

> <Gold.PLP.part.hbond>
-2.9823

> <Gold.PLP.part.metal>
0.0000

> <Gold.PLP.part.buried>
-5.5797

> <Gold.PLP.part.nonpolar>
-31.5249

> <Gold.PLP.part.repulsive>
1.7927

> <Gold.PLP.ligand.clash>
0.0011

> <Gold.PLP.ligand.torsion>
1.7200

> <Gold.PLP.Chemscore.Hbond>
2.9425

> <Gold.PLP.Chemscore.CHOScore>
0.0000

> <Gold.PLP.Chemscore.Metal>
0.0000

> <Gold.Chemscore.Hbonds>
donor molecule, donor type, donor heavy atom, donor atom, acceptor molecule, acceptor atom, score
      L1  H     3    29       P1  7948  1.00
      L1  H    23    47       P1  8028  1.00
      P1  H 10752 10763       L1    18  0.99

> <Gold.PLP.Chemscore.Internal.Correction>
0.4179

> <Gold.Rescore>
     Score         DG    S(hbond)    S(metal)    S(lipo)     H(rot)  DE(clash)    DE(int)     intcor
     10.53     -17.16       2.64        0.00      90.01       3.00       0.10       6.53       ----

> <Gold.Chemscore.Fitness>
10.5308

> <Gold.Chemscore.DG>
-17.1587

> <Gold.Chemscore.ZeroCoef>
-5.4800

> <Gold.Chemscore.Hbond>
2.6422

> <Gold.Chemscore.Metal>
0.0000

> <Gold.Chemscore.Lipo>
90.0082

> <Gold.Chemscore.Internal_Hbond>
0.0000

> <Gold.Chemscore.DEClash>
0.0981

> <Gold.Chemscore.DEInternal>
6.5298

> <Gold.Chemscore.Rot>
2.9989

> <Gold.Chemscore.Internal.Correction>
   9.000000E+99

> <Gold.Chemscore.Hbonds>
donor molecule, donor type, donor heavy atom, donor atom, acceptor molecule, acceptor atom, score
      L1  H     3    29       P1  7948  0.94
      L1  H    23    47       P1  8028  0.89
      P1  H 10752 10763       L1    18  0.46

> <Gold.Chemscore.Hbond.Weighted>
-8.8249

> <Gold.Chemscore.Metal.Weighted>
-0.0000

> <Gold.Chemscore.Lipo.Weighted>
-10.5310

> <Gold.Chemscore.Internal_Hbond.Weighted>
0.0000

> <Gold.Chemscore.DEClash.Weighted>
0.0981

> <Gold.Chemscore.DEInternal.Weighted>
6.5298

> <Gold.Chemscore.Rot.Weighted>
7.6772

> <Gold.Chemscore.Internal.Correction.Weighted>
   9.000000E+99

> <Gold.Protein.RotatedTorsions>
[ 6907 6896 6895 6894 ] final -112.27 input  -60.11 | X-H torsion
[ 7974 7965 7964 7962 ] final -112.46 input  175.53 | X-H torsion
[ 8008 7997 7996 7995 ] final  -79.95 input   59.86 | X-H torsion
[ 10167 10162 10161 10158 ] final  179.39 input  -65.29 | X-H torsion
[ 10718 10713 10712 10709 ] final  117.28 input   66.30 | X-H torsion
[ 10763 10752 10751 10750 ] final   50.13 input  -60.55 | X-H torsion
[ 11005 11000 10999 10996 ] final    7.31 input  -57.11 | X-H torsion

> <Gold.Protein.ActiveResidues>
 VAL166  LYS551  ARG553  GLY616  TRP617  ASP618  TYR619  PRO620  LYS621  CYS622 
 ASP623  PHE694  ASN695  SER759  ASP760  ASP761  ALA762  ILE779  LEU786  VAL792 
 PHE793  MET794  SER795  GLU796  ALA797  LYS798  CYS799  TRP800  GLU811  SER814 

> <Gold.Protein.RotatedAtoms>
  150.7747  133.9114  159.3370 H   0  0  0  0  0  0  0  0  0  0  0  0  # atno 6907 bound_to 6896
  151.6992  135.0931  160.0257 H   0  0  0  0  0  0  0  0  0  0  0  0  # atno 6908 bound_to 6896
  152.3778  133.6467  159.6173 H   0  0  0  0  0  0  0  0  0  0  0  0  # atno 6909 bound_to 6896
  145.1437  140.8792  143.3687 H   0  0  0  0  0  0  0  0  0  0  0  0  # atno 7974 bound_to 7965
  154.5835  140.0670  156.9138 H   0  0  0  0  0  0  0  0  0  0  0  0  # atno 8008 bound_to 7997
  155.2420  140.3345  155.4273 H   0  0  0  0  0  0  0  0  0  0  0  0  # atno 8009 bound_to 7997
  156.2206  140.1797  156.7469 H   0  0  0  0  0  0  0  0  0  0  0  0  # atno 8010 bound_to 7997
  139.5334  144.2567  152.0741 H   0  0  0  0  0  0  0  0  0  0  0  0  # atno 10167 bound_to 10162
  157.6106  131.1035  150.7593 H   0  0  0  0  0  0  0  0  0  0  0  0  # atno 10718 bound_to 10713
  152.9785  135.5889  154.4201 H   0  0  0  0  0  0  0  0  0  0  0  0  # atno 10763 bound_to 10752
  154.3827  135.2767  155.2204 H   0  0  0  0  0  0  0  0  0  0  0  0  # atno 10764 bound_to 10752
  154.4110  135.6081  153.6007 H   0  0  0  0  0  0  0  0  0  0  0  0  # atno 10765 bound_to 10752
  140.5497  134.0295  155.7932 H   0  0  0  0  0  0  0  0  0  0  0  0  # atno 11005 bound_to 11000
  145.0505  139.3186  143.5931 LP  0  0  0  0  0  0  0  0  0  0  0  0  # atno 17320 bound_to 7965
  146.3502  139.9911  142.8685 LP  0  0  0  0  0  0  0  0  0  0  0  0  # atno 17321 bound_to 7965
  140.2034  144.4635  150.6420 LP  0  0  0  0  0  0  0  0  0  0  0  0  # atno 17342 bound_to 10162
  140.6527  143.2229  151.6041 LP  0  0  0  0  0  0  0  0  0  0  0  0  # atno 17343 bound_to 10162
  156.7971  130.4909  149.5375 LP  0  0  0  0  0  0  0  0  0  0  0  0  # atno 17370 bound_to 10713
  156.1208  130.6108  151.0190 LP  0  0  0  0  0  0  0  0  0  0  0  0  # atno 17371 bound_to 10713
  141.1179  133.9510  157.2787 LP  0  0  0  0  0  0  0  0  0  0  0  0  # atno 17394 bound_to 11000
  139.9462  135.0183  156.8858 LP  0  0  0  0  0  0  0  0  0  0  0  0  # atno 17395 bound_to 11000

$$$$
