AV-unprocessed.smi:1097|AV-procd|sdf|4752|dock2
  -GOLD-   22720 3293D 1   1.00000     0.00000
 Structure written by MMmdl.
 40 41  0  0  0  0  0  0  0  0  1 V2000
  152.5023  138.2504  154.5754 C   0  0  0  0  0  0  0  0  0  0  0  0
  151.8859  137.0521  154.1378 O   0  0  0  0  0  0  0  0  0  0  0  0
  150.7354  136.7247  154.8987 C   0  0  0  0  0  0  0  0  0  0  0  0
  149.5944  137.6688  154.5113 C   0  0  0  0  0  0  0  0  0  0  0  0
  149.8841  138.9639  155.0281 O   0  0  0  0  0  0  0  0  0  0  0  0
  149.0056  139.9997  154.7703 C   0  0  0  0  0  0  0  0  0  0  0  0
  147.8748  139.7150  154.0748 N   0  0  0  0  0  0  0  0  0  0  0  0
  147.0102  140.7138  153.8043 C   0  0  0  0  0  0  0  0  0  0  0  0
  147.2215  142.0440  154.2083 C   0  0  0  0  0  0  0  0  0  0  0  0
  148.3916  142.3443  154.9290 C   0  0  0  0  0  0  0  0  0  0  0  0
  149.3137  141.3115  155.2169 C   0  0  0  0  0  0  0  0  0  0  0  0
  150.5588  141.6030  156.0082 C   0  0  0  0  0  0  0  0  0  0  0  0
  151.5160  140.8286  156.0047 O   0  0  0  0  0  0  0  0  0  0  0  0
  150.5533  142.7687  156.6747 N   0  0  0  0  0  0  0  0  0  0  0  0
  151.6535  143.2693  157.4936 C   0  0  1  0  0  0  0  0  0  0  0  0
  151.4590  144.7487  157.8624 C   0  0  0  0  0  0  0  0  0  0  0  0
  151.7306  144.7856  159.3568 C   0  0  0  0  0  0  0  0  0  0  0  0
  151.7728  145.8319  160.0022 O   0  0  0  0  0  0  0  0  0  0  0  0
  151.9122  143.5537  159.8415 N   0  0  0  0  0  0  0  0  0  0  0  0
  152.1820  143.2174  161.2328 C   0  0  0  0  0  0  0  0  0  0  0  0
  151.7576  142.5174  158.8362 C   0  0  0  0  0  0  0  0  0  0  0  0
  153.3815  138.4547  153.9645 H   0  0  0  0  0  0  0  0  0  0  0  0
  152.8253  138.1708  155.6142 H   0  0  0  0  0  0  0  0  0  0  0  0
  151.8240  139.0996  154.4837 H   0  0  0  0  0  0  0  0  0  0  0  0
  150.4424  135.6903  154.7120 H   0  0  0  0  0  0  0  0  0  0  0  0
  150.9520  136.8198  155.9639 H   0  0  0  0  0  0  0  0  0  0  0  0
  149.5023  137.7068  153.4247 H   0  0  0  0  0  0  0  0  0  0  0  0
  148.6537  137.2957  154.9198 H   0  0  0  0  0  0  0  0  0  0  0  0
  146.1228  140.4439  153.2512 H   0  0  0  0  0  0  0  0  0  0  0  0
  146.5013  142.8142  153.9748 H   0  0  0  0  0  0  0  0  0  0  0  0
  148.5683  143.3580  155.2585 H   0  0  0  0  0  0  0  0  0  0  0  0
  149.7313  143.3511  156.6067 H   0  0  0  0  0  0  0  0  0  0  0  0
  152.5928  143.1694  156.9461 H   0  0  0  0  0  0  0  0  0  0  0  0
  152.1493  145.3975  157.3228 H   0  0  0  0  0  0  0  0  0  0  0  0
  150.4413  145.0944  157.6758 H   0  0  0  0  0  0  0  0  0  0  0  0
  153.0722  143.7373  161.5887 H   0  0  0  0  0  0  0  0  0  0  0  0
  152.3450  142.1461  161.3533 H   0  0  0  0  0  0  0  0  0  0  0  0
  151.3408  143.5052  161.8644 H   0  0  0  0  0  0  0  0  0  0  0  0
  150.8559  141.9437  159.0579 H   0  0  0  0  0  0  0  0  0  0  0  0
  152.6056  141.8312  158.8440 H   0  0  0  0  0  0  0  0  0  0  0  0
  1  2  1  0  0  0  0
  1 22  1  0  0  0  0
  1 23  1  0  0  0  0
  1 24  1  0  0  0  0
  2  3  1  0  0  0  0
  3  4  1  0  0  0  0
  3 25  1  0  0  0  0
  3 26  1  0  0  0  0
  4  5  1  0  0  0  0
  4 27  1  0  0  0  0
  4 28  1  0  0  0  0
  5  6  1  0  0  0  0
  6 11  1  0  0  0  0
  6  7  2  0  0  0  0
  7  8  1  0  0  0  0
  8  9  2  0  0  0  0
  8 29  1  0  0  0  0
  9 10  1  0  0  0  0
  9 30  1  0  0  0  0
 10 11  2  0  0  0  0
 10 31  1  0  0  0  0
 11 12  1  0  0  0  0
 12 13  2  0  0  0  0
 12 14  1  0  0  0  0
 14 15  1  0  0  0  0
 14 32  1  0  0  0  0
 15 21  1  0  0  0  0
 15 16  1  0  0  0  0
 15 33  1  0  0  0  0
 16 17  1  0  0  0  0
 16 34  1  0  0  0  0
 16 35  1  0  0  0  0
 17 18  2  0  0  0  0
 17 19  1  0  0  0  0
 19 20  1  0  0  0  0
 19 21  1  0  0  0  0
 20 36  1  0  0  0  0
 20 37  1  0  0  0  0
 20 38  1  0  0  0  0
 21 39  1  0  0  0  0
 21 40  1  0  0  0  0
M  END
> <s_m_source_file>
AV-unprocessed.smi

> <i_m_source_file_index>
1097

> <i_lp_mmshare_version>
43012

> <i_f3d_flags>
0

> <s_epik_input>
W0NIM11PW0NIMl1bQ0gyXU9jMW5bY0hdW2NIXVtjSF1jMUMoPU8pW05IXVtDQEBIXTJbQ0gyXUMoPU8pTihbQ0gzXSlbQ0gyXTI=

> <s_epik_cmdline>
J2VwaWtfcHl0aG9uJywgJy1waCcsICc3LjAnLCAnLXRuJywgJzgnLCAnLW1hJywgJzIwMCcsICctbWV0YWxfYmluZGluZycsICctaW1hZScsICc8aW5maWxlLm1hZT4nLCAnLW9tYWUnLCAnPG91dGZpbGUubWFlPic=

> <r_lp_tautomer_probability>
1

> <r_epik_Ionization_Penalty>
2.30122e-06

> <r_epik_Ionization_Penalty_Charging>
0

> <r_epik_Ionization_Penalty_Neutral>
2.30122e-06

> <r_epik_State_Penalty>
-0

> <r_epik_Charging_Adjusted_Penalty>
0

> <i_epik_Tot_Q>
0

> <i_epik_Tot_abs_Q>
0

> <r_epik_Metal_State_Penalty>
-0

> <b_epik_Metal_Only>
0

> <s_lp_Force_Field>
OPLS_2005

> <r_lp_Energy>
19.8496

> <b_lp_Chiralities_Consistent>
1

> <s_lp_Variant>
AV-unprocessed.smi:1097-2

> <Gold.Version>
5.8.1

> <Gold.Id.Protein>
6NUR|6NUR_protein|mol2

> <Gold.PLP.Fitness>
48.6145

> <Gold.PLP.PLP>
-40.4017

> <Gold.PLP.part.hbond>
-3.0562

> <Gold.PLP.part.metal>
0.0000

> <Gold.PLP.part.buried>
-3.0313

> <Gold.PLP.part.nonpolar>
-35.9750

> <Gold.PLP.part.repulsive>
0.8667

> <Gold.PLP.ligand.clash>
0.0000

> <Gold.PLP.ligand.torsion>
0.3842

> <Gold.PLP.Chemscore.Hbond>
2.0000

> <Gold.PLP.Chemscore.CHOScore>
0.9717

> <Gold.PLP.Chemscore.Metal>
0.0000

> <Gold.Chemscore.Hbonds>
donor molecule, donor type, donor heavy atom, donor atom, acceptor molecule, acceptor atom, score
      L1  H    14    32       P1  8028  0.91
      P1  H 10752 10765       L1     2  1.00
      L1  C     8    29       P1 10175  0.93

> <Gold.PLP.Chemscore.Internal.Correction>
0.0660

> <Gold.Rescore>
     Score         DG    S(hbond)    S(metal)    S(lipo)     H(rot)  DE(clash)    DE(int)     intcor
     12.21     -17.10       1.74        0.00      92.18       1.95       1.57       3.32       ----

> <Gold.Chemscore.Fitness>
12.2055

> <Gold.Chemscore.DG>
-17.0966

> <Gold.Chemscore.ZeroCoef>
-5.4800

> <Gold.Chemscore.Hbond>
1.7411

> <Gold.Chemscore.Metal>
0.0000

> <Gold.Chemscore.Lipo>
92.1820

> <Gold.Chemscore.Internal_Hbond>
0.0000

> <Gold.Chemscore.DEClash>
1.5745

> <Gold.Chemscore.DEInternal>
3.3167

> <Gold.Chemscore.Rot>
1.9468

> <Gold.Chemscore.Internal.Correction>
   9.000000E+99

> <Gold.Chemscore.Hbonds>
donor molecule, donor type, donor heavy atom, donor atom, acceptor molecule, acceptor atom, score
      L1  H    14    32       P1  8028  0.90
      P1  H 10752 10765       L1     2  0.60

> <Gold.Chemscore.Hbond.Weighted>
-5.8152

> <Gold.Chemscore.Metal.Weighted>
-0.0000

> <Gold.Chemscore.Lipo.Weighted>
-10.7853

> <Gold.Chemscore.Internal_Hbond.Weighted>
0.0000

> <Gold.Chemscore.DEClash.Weighted>
1.5745

> <Gold.Chemscore.DEInternal.Weighted>
3.3167

> <Gold.Chemscore.Rot.Weighted>
4.9839

> <Gold.Chemscore.Internal.Correction.Weighted>
   9.000000E+99

> <Gold.Protein.RotatedTorsions>
[ 6907 6896 6895 6894 ] final   14.93 input  -60.11 | X-H torsion
[ 7974 7965 7964 7962 ] final  -40.44 input  175.53 | X-H torsion
[ 8008 7997 7996 7995 ] final    1.26 input   59.86 | X-H torsion
[ 10167 10162 10161 10158 ] final -122.02 input  -65.29 | X-H torsion
[ 10718 10713 10712 10709 ] final  -65.80 input   66.30 | X-H torsion
[ 10763 10752 10751 10750 ] final  151.44 input  -60.55 | X-H torsion
[ 11005 11000 10999 10996 ] final  -70.82 input  -57.11 | X-H torsion

> <Gold.Protein.ActiveResidues>
 VAL166  LYS551  ARG553  GLY616  TRP617  ASP618  TYR619  PRO620  LYS621  CYS622 
 ASP623  PHE694  ASN695  SER759  ASP760  ASP761  ALA762  ILE779  LEU786  VAL792 
 PHE793  MET794  SER795  GLU796  ALA797  LYS798  CYS799  TRP800  GLU811  SER814 

> <Gold.Protein.RotatedAtoms>
  151.8100  135.0683  160.0411 H   0  0  0  0  0  0  0  0  0  0  0  0  # atno 6907 bound_to 6896
  152.3027  133.5667  159.5637 H   0  0  0  0  0  0  0  0  0  0  0  0  # atno 6908 bound_to 6896
  150.7281  134.0184  159.3735 H   0  0  0  0  0  0  0  0  0  0  0  0  # atno 6909 bound_to 6896
  146.0304  140.6739  142.9135 H   0  0  0  0  0  0  0  0  0  0  0  0  # atno 7974 bound_to 7965
  154.6777  140.2626  155.6941 H   0  0  0  0  0  0  0  0  0  0  0  0  # atno 8008 bound_to 7997
  156.2684  140.2816  156.1232 H   0  0  0  0  0  0  0  0  0  0  0  0  # atno 8009 bound_to 7997
  155.1076  140.0375  157.2705 H   0  0  0  0  0  0  0  0  0  0  0  0  # atno 8010 bound_to 7997
  140.0187  143.5366  152.2230 H   0  0  0  0  0  0  0  0  0  0  0  0  # atno 10167 bound_to 10162
  156.0648  130.4252  150.1617 H   0  0  0  0  0  0  0  0  0  0  0  0  # atno 10718 bound_to 10713
  154.1038  135.2844  155.3246 H   0  0  0  0  0  0  0  0  0  0  0  0  # atno 10763 bound_to 10752
  154.6537  135.5360  153.7936 H   0  0  0  0  0  0  0  0  0  0  0  0  # atno 10764 bound_to 10752
  153.0369  135.6516  154.1200 H   0  0  0  0  0  0  0  0  0  0  0  0  # atno 10765 bound_to 10752
  141.1581  133.6800  156.6812 H   0  0  0  0  0  0  0  0  0  0  0  0  # atno 11005 bound_to 11000
  144.7028  140.3725  143.7142 LP  0  0  0  0  0  0  0  0  0  0  0  0  # atno 17320 bound_to 7965
  145.7050  139.1670  143.2571 LP  0  0  0  0  0  0  0  0  0  0  0  0  # atno 17321 bound_to 7965
  139.6154  144.7618  151.2857 LP  0  0  0  0  0  0  0  0  0  0  0  0  # atno 17342 bound_to 10162
  140.7351  143.6746  150.8053 LP  0  0  0  0  0  0  0  0  0  0  0  0  # atno 17343 bound_to 10162
  156.9679  130.9825  151.3465 LP  0  0  0  0  0  0  0  0  0  0  0  0  # atno 17370 bound_to 10713
  157.5683  130.8293  149.8357 LP  0  0  0  0  0  0  0  0  0  0  0  0  # atno 17371 bound_to 10713
  140.3101  134.8093  157.4169 LP  0  0  0  0  0  0  0  0  0  0  0  0  # atno 17394 bound_to 11000
  140.1186  134.5250  155.8203 LP  0  0  0  0  0  0  0  0  0  0  0  0  # atno 17395 bound_to 11000

$$$$
