#       Name:                AV-unprocessed.smi:1452
#       Creating user name   scv26
#       Creation time:       Fri Mar 27 05:59:09 2020


#       File generated by GOLD software.
#

@<TRIPOS>MOLECULE
AV-unprocessed.smi:1452
    43    45     1
SMALL
NO_CHARGES


@<TRIPOS>ATOM
      1 ****        -2.8132  -1.7729   0.0926 O.2            1 S1                 0.0000
      2 ****        -1.6467  -1.7987   0.4806 C.2            1 S1                 0.0000
      3 ****        -0.9521  -2.9548   0.5327 N.am           1 S1                 0.0000
      4 ****        -1.3275  -4.2893   0.1989 C.ar           1 S1                 0.0000
      5 ****        -0.2785  -5.2325   0.2817 C.ar           1 S1                 0.0000
      6 ****        -0.5349  -6.5864  -0.0092 C.ar           1 S1                 0.0000
      7 ****        -1.8390  -6.9660  -0.3724 C.ar           1 S1                 0.0000
      8 ****        -2.8285  -5.9681  -0.4261 C.ar           1 S1                 0.0000
      9 ****        -2.5842  -4.6697  -0.1482 N.ar           1 S1                 0.0000
     10 ****        -0.9866  -0.6965   0.8734 N.am           1 S1                 0.0000
     11 ****        -1.5087   0.6675   0.8545 C.3            1 S1                 0.0000
     12 ****        -0.9491   1.5366   1.9979 C.3            1 S1                 0.0000
     13 ****        -0.6419   2.8885   1.3459 C.3            1 S1                 0.0000
     14 ****        -0.2540   2.5142  -0.0190 N.4            1 S1                 1.0000
     15 ****        -0.1189   3.5802  -1.0319 C.3            1 S1                 0.0000
     16 ****         0.4688   2.9604  -2.3179 C.3            1 S1                 0.0000
     17 ****        -0.3328   1.7271  -2.7925 C.3            1 S1                 0.0000
     18 ****        -0.5492   0.7101  -1.6513 C.3            1 S1                 0.0000
     19 ****        -1.1654   1.4374  -0.4422 C.3            1 S1                 0.0000
     20 ****        -0.0362  -2.8737   0.9503 H              1 S1                 0.0000
     21 ****         0.7182  -4.9257   0.5653 H              1 S1                 0.0000
     22 ****         0.2558  -7.3199   0.0468 H              1 S1                 0.0000
     23 ****        -2.0751  -7.9946  -0.6018 H              1 S1                 0.0000
     24 ****        -3.8434  -6.2180  -0.6981 H              1 S1                 0.0000
     25 ****        -0.0308  -0.8142   1.1798 H              1 S1                 0.0000
     26 ****        -2.5951   0.6370   0.9580 H              1 S1                 0.0000
     27 ****        -1.6422   1.6266   2.8349 H              1 S1                 0.0000
     28 ****        -0.0235   1.1061   2.3838 H              1 S1                 0.0000
     29 ****        -1.5360   3.5134   1.3172 H              1 S1                 0.0000
     30 ****         0.1487   3.4356   1.8602 H              1 S1                 0.0000
     31 ****        -1.0892   4.0389  -1.2279 H              1 S1                 0.0000
     32 ****         0.5405   4.3637  -0.6568 H              1 S1                 0.0000
     33 ****         0.5076   3.7088  -3.1100 H              1 S1                 0.0000
     34 ****         1.5008   2.6609  -2.1302 H              1 S1                 0.0000
     35 ****        -1.3020   2.0545  -3.1708 H              1 S1                 0.0000
     36 ****         0.1767   1.2481  -3.6291 H              1 S1                 0.0000
     37 ****        -1.2052  -0.0919  -1.9908 H              1 S1                 0.0000
     38 ****         0.4012   0.2503  -1.3761 H              1 S1                 0.0000
     39 ****        -2.0946   1.9064  -0.7734 H              1 S1                 0.0000
     40 ****         0.6572   2.0879   0.0698 H              1 S1                 0.0000
     41 ****        -3.2644  -2.6188  -0.1917 LP             1 S1                 0.0000
     42 ****        -3.3107  -0.9060   0.0614 LP             1 S1                 0.0000
     43 ****        -3.3209  -3.9952  -0.1975 LP             1 S1                 0.0000
@<TRIPOS>BOND
    1    1    2 2     
    2    2    3 am    
    3    2   10 am    
    4    3    4 1     
    5    3   20 1     
    6    4    9 ar    
    7    4    5 ar    
    8    5    6 ar    
    9    5   21 1     
   10    6    7 ar    
   11    6   22 1     
   12    7    8 ar    
   13    7   23 1     
   14    8    9 ar    
   15    8   24 1     
   16   10   11 1     
   17   10   25 1     
   18   11   19 1     
   19   11   12 1     
   20   11   26 1     
   21   12   13 1     
   22   12   27 1     
   23   12   28 1     
   24   13   14 1     
   25   13   29 1     
   26   13   30 1     
   27   14   19 1     
   28   14   15 1     
   29   14   40 1     
   30   15   16 1     
   31   15   31 1     
   32   15   32 1     
   33   16   17 1     
   34   16   33 1     
   35   16   34 1     
   36   17   18 1     
   37   17   35 1     
   38   17   36 1     
   39   18   19 1     
   40   18   37 1     
   41   18   38 1     
   42   19   39 1     
   43    1   41 1     
   44    1   42 1     
   45    9   43 1     
@<TRIPOS>SUBSTRUCTURE
      1 S1             1
@<TRIPOS>SET
LONE_PAIRS      STATIC     ATOMS    <user>   **** ""
3 41 42 43
DONOR_HYDROGENS      STATIC     ATOMS    <user>   **** ""
3 20 25 40
ATOM$BLUE        STATIC     ATOMS    COLORGROUP SYSTEM
3 41 42 43
ATOM$RED        STATIC     ATOMS    COLORGROUP SYSTEM
3 20 25 40
