AV-unprocessed.smi:1789|AV-procd|sdf|7214|dock4
  -GOLD-   22720 8453D 1   1.00000     0.00000
 Structure written by MMmdl.
 34 35  0  0  0  0  0  0  0  0  1 V2000
  152.1464  131.9841  156.9208 C   0  0  0  0  0  0  0  0  0  0  0  0
  151.0827  132.8019  156.2723 C   0  0  0  0  0  0  0  0  0  0  0  0
  150.4735  132.7372  155.0504 C   0  0  0  0  0  0  0  0  0  0  0  0
  149.5537  133.8187  155.0942 C   0  0  0  0  0  0  0  0  0  0  0  0
  148.7076  134.1010  153.9912 N   0  0  0  0  0  0  0  0  0  0  0  0
  147.5438  133.5049  153.6804 C   0  0  0  0  0  0  0  0  0  0  0  0
  147.0261  132.5860  154.3162 O   0  0  0  0  0  0  0  0  0  0  0  0
  147.0050  134.0331  152.5712 N   0  0  0  0  0  0  0  0  0  0  0  0
  145.7521  133.6004  151.9591 C   0  0  2  0  0  0  0  0  0  0  0  0
  145.8753  132.1544  151.4357 C   0  0  0  0  0  0  0  0  0  0  0  0
  144.5857  131.7018  150.7327 C   0  0  0  0  0  0  0  0  0  0  0  0
  144.2040  132.6680  149.5980 C   0  0  1  0  0  0  0  0  0  0  0  0
  142.9790  132.2620  149.0255 O   0  0  0  0  0  0  0  0  0  0  0  0
  144.0767  134.1110  150.1170 C   0  0  0  0  0  0  0  0  0  0  0  0
  145.3674  134.5631  150.8197 C   0  0  0  0  0  0  0  0  0  0  0  0
  149.5997  134.4847  156.2379 N   0  0  0  0  0  0  0  0  0  0  0  0
  150.5800  133.8367  156.9986 O   0  0  0  0  0  0  0  0  0  0  0  0
  152.3516  131.0828  156.3430 H   0  0  0  0  0  0  0  0  0  0  0  0
  151.8445  131.6808  157.9234 H   0  0  0  0  0  0  0  0  0  0  0  0
  153.0729  132.5523  157.0028 H   0  0  0  0  0  0  0  0  0  0  0  0
  150.6573  132.0284  154.2567 H   0  0  0  0  0  0  0  0  0  0  0  0
  149.0236  134.8328  153.3722 H   0  0  0  0  0  0  0  0  0  0  0  0
  147.4990  134.7845  152.1124 H   0  0  0  0  0  0  0  0  0  0  0  0
  144.9593  133.6364  152.7092 H   0  0  0  0  0  0  0  0  0  0  0  0
  146.7112  132.0836  150.7384 H   0  0  0  0  0  0  0  0  0  0  0  0
  146.0999  131.4730  152.2573 H   0  0  0  0  0  0  0  0  0  0  0  0
  144.7154  130.6929  150.3393 H   0  0  0  0  0  0  0  0  0  0  0  0
  143.7774  131.6485  151.4637 H   0  0  0  0  0  0  0  0  0  0  0  0
  144.9669  132.6304  148.8192 H   0  0  0  0  0  0  0  0  0  0  0  0
  142.3506  132.9595  149.1343 H   0  0  0  0  0  0  0  0  0  0  0  0
  143.8492  134.7875  149.2924 H   0  0  0  0  0  0  0  0  0  0  0  0
  143.2418  134.1822  150.8160 H   0  0  0  0  0  0  0  0  0  0  0  0
  145.2365  135.5726  151.2112 H   0  0  0  0  0  0  0  0  0  0  0  0
  146.1764  134.6165  150.0896 H   0  0  0  0  0  0  0  0  0  0  0  0
  1  2  1  0  0  0  0
  1 18  1  0  0  0  0
  1 19  1  0  0  0  0
  1 20  1  0  0  0  0
  2 17  1  0  0  0  0
  2  3  2  0  0  0  0
  3  4  1  0  0  0  0
  3 21  1  0  0  0  0
  4  5  1  0  0  0  0
  4 16  2  0  0  0  0
  5  6  1  0  0  0  0
  5 22  1  0  0  0  0
  6  7  2  0  0  0  0
  6  8  1  0  0  0  0
  8  9  1  0  0  0  0
  8 23  1  0  0  0  0
  9 15  1  0  0  0  0
  9 10  1  0  0  0  0
  9 24  1  0  0  0  0
 10 11  1  0  0  0  0
 10 25  1  0  0  0  0
 10 26  1  0  0  0  0
 11 12  1  0  0  0  0
 11 27  1  0  0  0  0
 11 28  1  0  0  0  0
 12 13  1  0  0  0  0
 12 14  1  0  0  0  0
 12 29  1  0  0  0  0
 13 30  1  0  0  0  0
 14 15  1  0  0  0  0
 14 31  1  0  0  0  0
 14 32  1  0  0  0  0
 15 33  1  0  0  0  0
 15 34  1  0  0  0  0
 16 17  1  0  0  0  0
M  END
> <s_m_source_file>
AV-unprocessed.smi

> <i_m_source_file_index>
1789

> <i_lp_mmshare_version>
43012

> <i_f3d_flags>
0

> <s_epik_input>
W0NIM11jMVtjSF1jKG5vMSlbTkhdQyg9TylbTkhdW0NAQEhdMltDSDJdW0NIMl1bQ0BASF0oW09IXSlbQ0gyXVtDSDJdMg==

> <s_epik_cmdline>
J2VwaWtfcHl0aG9uJywgJy1waCcsICc3LjAnLCAnLXRuJywgJzgnLCAnLW1hJywgJzIwMCcsICctbWV0YWxfYmluZGluZycsICctaW1hZScsICc8aW5maWxlLm1hZT4nLCAnLW9tYWUnLCAnPG91dGZpbGUubWFlPic=

> <r_lp_tautomer_probability>
1

> <r_epik_Ionization_Penalty>
2.38512e-05

> <r_epik_Ionization_Penalty_Charging>
0

> <r_epik_Ionization_Penalty_Neutral>
2.38512e-05

> <r_epik_State_Penalty>
-0

> <r_epik_Charging_Adjusted_Penalty>
0

> <i_epik_Tot_Q>
0

> <i_epik_Tot_abs_Q>
0

> <r_epik_Metal_State_Penalty>
-0

> <b_epik_Metal_Only>
0

> <s_lp_Force_Field>
OPLS_2005

> <r_lp_Energy>
5.01305

> <b_lp_Chiralities_Consistent>
1

> <s_lp_Variant>
AV-unprocessed.smi:1789-1

> <Gold.Version>
5.8.1

> <Gold.Id.Protein>
6NUR|6NUR_protein|mol2

> <Gold.PLP.Fitness>
41.5108

> <Gold.PLP.PLP>
-30.4823

> <Gold.PLP.part.hbond>
-5.9554

> <Gold.PLP.part.metal>
0.0000

> <Gold.PLP.part.buried>
-5.1052

> <Gold.PLP.part.nonpolar>
-20.8729

> <Gold.PLP.part.repulsive>
0.0610

> <Gold.PLP.ligand.clash>
0.0000

> <Gold.PLP.ligand.torsion>
0.7773

> <Gold.PLP.Chemscore.Hbond>
4.1932

> <Gold.PLP.Chemscore.CHOScore>
0.0000

> <Gold.PLP.Chemscore.Metal>
0.0000

> <Gold.Chemscore.Hbonds>
donor molecule, donor type, donor heavy atom, donor atom, acceptor molecule, acceptor atom, score
      L1  H     5    22       P1  7948  0.90
      L1  H     8    23       P1  7948  1.00
      L1  H    13    30       P1 10186  1.00
      P1  H  6896  6909       L1    17  0.32
      P1  H 10785 10796       L1    13  0.71

> <Gold.PLP.Chemscore.Internal.Correction>
0.0035

> <Gold.Rescore>
     Score         DG    S(hbond)    S(metal)    S(lipo)     H(rot)  DE(clash)    DE(int)     intcor
     18.92     -19.75       3.34        0.00      59.22       1.49       0.07       0.75       ----

> <Gold.Chemscore.Fitness>
18.9242

> <Gold.Chemscore.DG>
-19.7466

> <Gold.Chemscore.ZeroCoef>
-5.4800

> <Gold.Chemscore.Hbond>
3.3382

> <Gold.Chemscore.Metal>
0.0000

> <Gold.Chemscore.Lipo>
59.2156

> <Gold.Chemscore.Internal_Hbond>
0.0000

> <Gold.Chemscore.DEClash>
0.0727

> <Gold.Chemscore.DEInternal>
0.7497

> <Gold.Chemscore.Rot>
1.4887

> <Gold.Chemscore.Internal.Correction>
   9.000000E+99

> <Gold.Chemscore.Hbonds>
donor molecule, donor type, donor heavy atom, donor atom, acceptor molecule, acceptor atom, score
      L1  H     5    22       P1  7948  0.17
      L1  H     8    23       P1  7948  0.76
      L1  H    13    30       P1 10186  0.94
      P1  H  6896  6909       L1    17  0.30
      P1  H 10785 10796       L1    13  0.35

> <Gold.Chemscore.Hbond.Weighted>
-11.1495

> <Gold.Chemscore.Metal.Weighted>
-0.0000

> <Gold.Chemscore.Lipo.Weighted>
-6.9282

> <Gold.Chemscore.Internal_Hbond.Weighted>
0.0000

> <Gold.Chemscore.DEClash.Weighted>
0.0727

> <Gold.Chemscore.DEInternal.Weighted>
0.7497

> <Gold.Chemscore.Rot.Weighted>
3.8111

> <Gold.Chemscore.Internal.Correction.Weighted>
   9.000000E+99

> <Gold.Protein.RotatedTorsions>
[ 6907 6896 6895 6894 ] final   -1.13 input  -60.11 | X-H torsion
[ 7974 7965 7964 7962 ] final  157.23 input  175.53 | X-H torsion
[ 8008 7997 7996 7995 ] final   72.35 input   59.86 | X-H torsion
[ 10167 10162 10161 10158 ] final  -79.25 input  -65.29 | X-H torsion
[ 10718 10713 10712 10709 ] final  -94.80 input   66.30 | X-H torsion
[ 10763 10752 10751 10750 ] final -164.34 input  -60.55 | X-H torsion
[ 11005 11000 10999 10996 ] final  -16.39 input  -57.11 | X-H torsion

> <Gold.Protein.ActiveResidues>
 VAL166  LYS551  ARG553  GLY616  TRP617  ASP618  TYR619  PRO620  LYS621  CYS622 
 ASP623  PHE694  ASN695  SER759  ASP760  ASP761  ALA762  ILE779  LEU786  VAL792 
 PHE793  MET794  SER795  GLU796  ALA797  LYS798  CYS799  TRP800  GLU811  SER814 

> <Gold.Protein.RotatedAtoms>
  151.5510  135.1067  159.9949 H   0  0  0  0  0  0  0  0  0  0  0  0  # atno 6907 bound_to 6896
  152.4491  133.7590  159.6747 H   0  0  0  0  0  0  0  0  0  0  0  0  # atno 6908 bound_to 6896
  150.8415  133.7862  159.3083 H   0  0  0  0  0  0  0  0  0  0  0  0  # atno 6909 bound_to 6896
  144.7915  139.7312  143.6219 H   0  0  0  0  0  0  0  0  0  0  0  0  # atno 7974 bound_to 7965
  155.7675  140.3485  155.5229 H   0  0  0  0  0  0  0  0  0  0  0  0  # atno 8008 bound_to 7997
  155.8854  140.1009  157.1477 H   0  0  0  0  0  0  0  0  0  0  0  0  # atno 8009 bound_to 7997
  154.4028  140.1314  156.4236 H   0  0  0  0  0  0  0  0  0  0  0  0  # atno 8010 bound_to 7997
  140.4609  143.2454  151.8349 H   0  0  0  0  0  0  0  0  0  0  0  0  # atno 10167 bound_to 10162
  156.0033  130.5082  150.5980 H   0  0  0  0  0  0  0  0  0  0  0  0  # atno 10718 bound_to 10713
  154.7038  135.2993  154.9301 H   0  0  0  0  0  0  0  0  0  0  0  0  # atno 10763 bound_to 10752
  154.0225  135.6680  153.4777 H   0  0  0  0  0  0  0  0  0  0  0  0  # atno 10764 bound_to 10752
  153.0701  135.5065  154.8197 H   0  0  0  0  0  0  0  0  0  0  0  0  # atno 10765 bound_to 10752
  140.8063  133.8175  155.9519 H   0  0  0  0  0  0  0  0  0  0  0  0  # atno 11005 bound_to 11000
  146.2169  139.5565  142.9644 LP  0  0  0  0  0  0  0  0  0  0  0  0  # atno 17320 bound_to 7965
  145.5781  141.0386  143.2137 LP  0  0  0  0  0  0  0  0  0  0  0  0  # atno 17321 bound_to 7965
  139.4806  144.5008  151.9063 LP  0  0  0  0  0  0  0  0  0  0  0  0  # atno 17342 bound_to 10162
  140.4094  144.2389  150.5889 LP  0  0  0  0  0  0  0  0  0  0  0  0  # atno 17343 bound_to 10162
  157.3834  131.0784  151.1457 LP  0  0  0  0  0  0  0  0  0  0  0  0  # atno 17370 bound_to 10713
  157.2172  130.6465  149.5797 LP  0  0  0  0  0  0  0  0  0  0  0  0  # atno 17371 bound_to 10713
  140.9243  134.2102  157.4906 LP  0  0  0  0  0  0  0  0  0  0  0  0  # atno 17394 bound_to 11000
  139.8717  134.9806  156.5081 LP  0  0  0  0  0  0  0  0  0  0  0  0  # atno 17395 bound_to 11000

$$$$
