AV-unprocessed.smi:1023|AV-procd|sdf|4462|dock10
  -GOLD-   22720 2433D 1   1.00000     0.00000
 Structure written by MMmdl.
 32 33  0  0  0  0  0  0  0  0  1 V2000
  148.6847  141.7160  154.4187 C   0  0  0  0  0  0  0  0  0  0  0  0
  147.3287  141.3330  153.8001 C   0  0  0  0  0  0  0  0  0  0  0  0
  146.3656  142.5289  153.8327 C   0  0  0  0  0  0  0  0  0  0  0  0
  146.6898  140.1023  154.4766 C   0  0  0  0  0  0  0  0  0  0  0  0
  145.7519  139.4139  153.5945 N   0  0  0  0  0  0  0  0  0  0  0  0
  145.6168  138.0825  153.4722 C   0  0  0  0  0  0  0  0  0  0  0  0
  146.2821  137.2824  154.1276 O   0  0  0  0  0  0  0  0  0  0  0  0
  144.6974  137.6521  152.5818 N   0  0  0  0  0  0  0  0  0  0  0  0
  144.2912  136.3414  152.1960 C   0  0  0  0  0  0  0  0  0  0  0  0
  143.1612  135.7429  152.5995 N   0  0  0  0  0  0  0  0  0  0  0  0
  143.0191  134.4750  152.0552 N   0  0  0  0  0  0  0  0  0  0  0  0
  144.0381  134.1507  151.2510 C   0  0  0  0  0  0  0  0  0  0  0  0
  144.1103  132.8366  150.5470 C   0  0  0  0  0  0  0  0  0  0  0  0
  145.3435  132.4455  149.7655 C   0  0  0  0  0  0  0  0  0  0  0  0
  144.0577  132.7427  149.0375 C   0  0  0  0  0  0  0  0  0  0  0  0
  145.2731  135.3946  151.0904 S   0  0  0  0  0  0  0  0  0  0  0  0
  148.5872  141.9269  155.4841 H   0  0  0  0  0  0  0  0  0  0  0  0
  149.0970  142.6045  153.9400 H   0  0  0  0  0  0  0  0  0  0  0  0
  149.4194  140.9193  154.3022 H   0  0  0  0  0  0  0  0  0  0  0  0
  147.5033  141.0861  152.7519 H   0  0  0  0  0  0  0  0  0  0  0  0
  146.1472  142.8342  154.8567 H   0  0  0  0  0  0  0  0  0  0  0  0
  145.4194  142.2853  153.3490 H   0  0  0  0  0  0  0  0  0  0  0  0
  146.7878  143.3888  153.3118 H   0  0  0  0  0  0  0  0  0  0  0  0
  147.4641  139.4242  154.8390 H   0  0  0  0  0  0  0  0  0  0  0  0
  146.1307  140.4188  155.3576 H   0  0  0  0  0  0  0  0  0  0  0  0
  145.1638  139.9982  153.0172 H   0  0  0  0  0  0  0  0  0  0  0  0
  144.1804  138.3930  152.1312 H   0  0  0  0  0  0  0  0  0  0  0  0
  143.6051  132.0637  151.1229 H   0  0  0  0  0  0  0  0  0  0  0  0
  146.1453  133.1770  149.6860 H   0  0  0  0  0  0  0  0  0  0  0  0
  145.6632  131.4070  149.8213 H   0  0  0  0  0  0  0  0  0  0  0  0
  143.5192  131.9016  148.6059 H   0  0  0  0  0  0  0  0  0  0  0  0
  144.0142  133.6667  148.4643 H   0  0  0  0  0  0  0  0  0  0  0  0
  1  2  1  0  0  0  0
  1 17  1  0  0  0  0
  1 18  1  0  0  0  0
  1 19  1  0  0  0  0
  2  3  1  0  0  0  0
  2  4  1  0  0  0  0
  2 20  1  0  0  0  0
  3 21  1  0  0  0  0
  3 22  1  0  0  0  0
  3 23  1  0  0  0  0
  4  5  1  0  0  0  0
  4 24  1  0  0  0  0
  4 25  1  0  0  0  0
  5  6  1  0  0  0  0
  5 26  1  0  0  0  0
  6  7  2  0  0  0  0
  6  8  1  0  0  0  0
  8  9  1  0  0  0  0
  8 27  1  0  0  0  0
  9 16  1  0  0  0  0
  9 10  2  0  0  0  0
 10 11  1  0  0  0  0
 11 12  2  0  0  0  0
 12 13  1  0  0  0  0
 12 16  1  0  0  0  0
 13 15  1  0  0  0  0
 13 14  1  0  0  0  0
 13 28  1  0  0  0  0
 14 15  1  0  0  0  0
 14 29  1  0  0  0  0
 14 30  1  0  0  0  0
 15 31  1  0  0  0  0
 15 32  1  0  0  0  0
M  END
> <s_m_source_file>
AV-unprocessed.smi

> <i_m_source_file_index>
1023

> <i_lp_mmshare_version>
43012

> <i_f3d_flags>
0

> <s_epik_input>
W0NIM11bQ0hdKFtDSDNdKVtDSDJdW05IXUMoPU8pW05IXWMxbm5jKHMxKVtDSF0yW0NIMl1bQ0gyXTI=

> <s_epik_cmdline>
J2VwaWtfcHl0aG9uJywgJy1waCcsICc3LjAnLCAnLXRuJywgJzgnLCAnLW1hJywgJzIwMCcsICctbWV0YWxfYmluZGluZycsICctaW1hZScsICc8aW5maWxlLm1hZT4nLCAnLW9tYWUnLCAnPG91dGZpbGUubWFlPic=

> <r_lp_tautomer_probability>
1

> <r_epik_Ionization_Penalty>
0.000943136

> <r_epik_Ionization_Penalty_Charging>
0

> <r_epik_Ionization_Penalty_Neutral>
0.000943136

> <r_epik_State_Penalty>
-0

> <r_epik_Charging_Adjusted_Penalty>
0

> <i_epik_Tot_Q>
0

> <i_epik_Tot_abs_Q>
0

> <r_epik_Metal_State_Penalty>
0.281646

> <b_epik_Metal_Only>
0

> <s_lp_Force_Field>
OPLS_2005

> <r_lp_Energy>
5.4251

> <b_lp_Chiralities_Consistent>
1

> <s_lp_Variant>
AV-unprocessed.smi:1023-1

> <Gold.Version>
5.8.1

> <Gold.Id.Protein>
6NUR|6NUR_protein|mol2

> <Gold.PLP.Fitness>
34.6821

> <Gold.PLP.PLP>
-32.1161

> <Gold.PLP.part.hbond>
-2.9750

> <Gold.PLP.part.metal>
0.0000

> <Gold.PLP.part.buried>
-4.0006

> <Gold.PLP.part.nonpolar>
-24.9325

> <Gold.PLP.part.repulsive>
0.4873

> <Gold.PLP.ligand.clash>
0.0000

> <Gold.PLP.ligand.torsion>
1.1382

> <Gold.PLP.Chemscore.Hbond>
1.5702

> <Gold.PLP.Chemscore.CHOScore>
0.0000

> <Gold.PLP.Chemscore.Metal>
0.0000

> <Gold.Chemscore.Hbonds>
donor molecule, donor type, donor heavy atom, donor atom, acceptor molecule, acceptor atom, score
      L1  H     5    26       P1 10175  1.00
      L1  H     8    27       P1 10175  0.60

> <Gold.PLP.Chemscore.Internal.Correction>
0.1320

> <Gold.Rescore>
     Score         DG    S(hbond)    S(metal)    S(lipo)     H(rot)  DE(clash)    DE(int)     intcor
     14.53     -15.72       1.73        0.00      69.27       1.42       0.06       1.13       ----

> <Gold.Chemscore.Fitness>
14.5289

> <Gold.Chemscore.DG>
-15.7233

> <Gold.Chemscore.ZeroCoef>
-5.4800

> <Gold.Chemscore.Hbond>
1.7282

> <Gold.Chemscore.Metal>
0.0000

> <Gold.Chemscore.Lipo>
69.2682

> <Gold.Chemscore.Internal_Hbond>
0.0000

> <Gold.Chemscore.DEClash>
0.0598

> <Gold.Chemscore.DEInternal>
1.1347

> <Gold.Chemscore.Rot>
1.4193

> <Gold.Chemscore.Internal.Correction>
   9.000000E+99

> <Gold.Chemscore.Hbonds>
donor molecule, donor type, donor heavy atom, donor atom, acceptor molecule, acceptor atom, score
      L1  H     5    26       P1 10175  0.96
      L1  H     8    27       P1 10175  0.59

> <Gold.Chemscore.Hbond.Weighted>
-5.7723

> <Gold.Chemscore.Metal.Weighted>
-0.0000

> <Gold.Chemscore.Lipo.Weighted>
-8.1044

> <Gold.Chemscore.Internal_Hbond.Weighted>
0.0000

> <Gold.Chemscore.DEClash.Weighted>
0.0598

> <Gold.Chemscore.DEInternal.Weighted>
1.1347

> <Gold.Chemscore.Rot.Weighted>
3.6333

> <Gold.Chemscore.Internal.Correction.Weighted>
   9.000000E+99

> <Gold.Protein.RotatedTorsions>
[ 6907 6896 6895 6894 ] final  -56.69 input  -60.11 | X-H torsion
[ 7974 7965 7964 7962 ] final -164.75 input  175.53 | X-H torsion
[ 8008 7997 7996 7995 ] final  116.44 input   59.86 | X-H torsion
[ 10167 10162 10161 10158 ] final   44.85 input  -65.29 | X-H torsion
[ 10718 10713 10712 10709 ] final  150.53 input   66.30 | X-H torsion
[ 10763 10752 10751 10750 ] final  149.88 input  -60.55 | X-H torsion
[ 11005 11000 10999 10996 ] final   71.21 input  -57.11 | X-H torsion

> <Gold.Protein.ActiveResidues>
 VAL166  LYS551  ARG553  GLY616  TRP617  ASP618  TYR619  PRO620  LYS621  CYS622 
 ASP623  PHE694  ASN695  SER759  ASP760  ASP761  ALA762  ILE779  LEU786  VAL792 
 PHE793  MET794  SER795  GLU796  ALA797  LYS798  CYS799  TRP800  GLU811  SER814 

> <Gold.Protein.RotatedAtoms>
  150.8146  134.7321  159.6718 H   0  0  0  0  0  0  0  0  0  0  0  0  # atno 6907 bound_to 6896
  152.4266  134.5854  159.9969 H   0  0  0  0  0  0  0  0  0  0  0  0  # atno 6908 bound_to 6896
  151.6054  133.3315  159.3092 H   0  0  0  0  0  0  0  0  0  0  0  0  # atno 6909 bound_to 6896
  144.7288  140.2915  143.6219 H   0  0  0  0  0  0  0  0  0  0  0  0  # atno 7974 bound_to 7965
  156.2439  140.2917  156.0523 H   0  0  0  0  0  0  0  0  0  0  0  0  # atno 8008 bound_to 7997
  155.1867  140.0405  157.2910 H   0  0  0  0  0  0  0  0  0  0  0  0  # atno 8009 bound_to 7997
  154.6222  140.2479  155.7542 H   0  0  0  0  0  0  0  0  0  0  0  0  # atno 8010 bound_to 7997
  140.3301  144.2599  150.6169 H   0  0  0  0  0  0  0  0  0  0  0  0  # atno 10167 bound_to 10162
  157.2823  131.0837  151.1523 H   0  0  0  0  0  0  0  0  0  0  0  0  # atno 10718 bound_to 10713
  154.0784  135.2861  155.3295 H   0  0  0  0  0  0  0  0  0  0  0  0  # atno 10763 bound_to 10752
  154.6700  135.5303  153.8130 H   0  0  0  0  0  0  0  0  0  0  0  0  # atno 10764 bound_to 10752
  153.0458  135.6555  154.0960 H   0  0  0  0  0  0  0  0  0  0  0  0  # atno 10765 bound_to 10752
  139.9556  134.7151  156.0762 H   0  0  0  0  0  0  0  0  0  0  0  0  # atno 11005 bound_to 11000
  145.7850  139.1905  143.2136 LP  0  0  0  0  0  0  0  0  0  0  0  0  # atno 17320 bound_to 7965
  146.0803  140.7772  142.9645 LP  0  0  0  0  0  0  0  0  0  0  0  0  # atno 17321 bound_to 7965
  140.5405  143.2224  151.8092 LP  0  0  0  0  0  0  0  0  0  0  0  0  # atno 17342 bound_to 10162
  139.4858  144.4606  151.9545 LP  0  0  0  0  0  0  0  0  0  0  0  0  # atno 17343 bound_to 10162
  157.2952  130.6815  149.6135 LP  0  0  0  0  0  0  0  0  0  0  0  0  # atno 17370 bound_to 10713
  155.9664  130.4409  150.5317 LP  0  0  0  0  0  0  0  0  0  0  0  0  # atno 17371 bound_to 10713
  141.1226  133.6608  156.3255 LP  0  0  0  0  0  0  0  0  0  0  0  0  # atno 17394 bound_to 11000
  140.5618  134.5927  157.5435 LP  0  0  0  0  0  0  0  0  0  0  0  0  # atno 17395 bound_to 11000

$$$$
