AV-unprocessed.smi:196|AV-procd|sdf|1539|dock8
  -GOLD-   2262019393D 1   1.00000     0.00000
 Structure written by MMmdl.
 47 50  0  0  0  0  0  0  0  0  1 V2000
  149.7238  141.5992  157.0329 C   0  0  0  0  0  0  0  0  0  0  0  0
  150.3892  141.0451  155.7633 C   0  0  1  0  0  0  0  0  0  0  0  0
  151.4062  140.1334  156.1702 O   0  0  0  0  0  0  0  0  0  0  0  0
  151.5545  139.1378  155.1738 C   0  0  0  0  0  0  0  0  0  0  0  0
  150.1140  138.8627  154.7706 C   0  0  0  0  0  0  0  0  0  0  0  0
  149.4802  140.2520  154.7819 C   0  0  2  0  0  0  0  0  0  0  0  0
  149.6493  140.8132  153.4911 O   0  0  0  0  0  0  0  0  0  0  0  0
  147.9626  140.2394  155.1055 C   0  0  0  0  0  0  0  0  0  0  0  0
  147.3691  138.9125  155.0431 N   0  0  0  0  0  0  0  0  0  0  0  0
  147.2205  138.0255  156.0860 C   0  0  0  0  0  0  0  0  0  0  0  0
  146.6626  136.8871  155.7752 N   0  0  0  0  0  0  0  0  0  0  0  0
  146.3954  137.0038  154.4172 C   0  0  0  0  0  0  0  0  0  0  0  0
  145.8021  136.1454  153.4538 C   0  0  0  0  0  0  0  0  0  0  0  0
  145.3799  134.8970  153.7908 N   0  0  0  0  0  0  0  0  0  0  0  0
  146.2867  133.8767  153.2763 C   0  0  0  0  0  0  0  0  0  0  0  0
  145.6461  133.3416  151.9854 C   0  0  2  0  0  0  0  0  0  0  0  0
  146.2696  133.8246  150.9101 F   0  0  0  0  0  0  0  0  0  0  0  0
  144.1940  133.8364  152.0228 C   0  0  0  0  0  0  0  0  0  0  0  0
  144.0375  134.4093  153.4419 C   0  0  2  0  0  0  0  0  0  0  0  0
  142.8511  135.3750  153.6483 C   0  0  0  0  0  0  0  0  0  0  0  0
  141.8429  134.9428  154.4098 N   0  0  0  0  0  0  0  0  0  0  0  0
  142.8572  136.5086  153.1713 O   0  0  0  0  0  0  0  0  0  0  0  0
  145.7145  136.6015  152.1752 N   0  0  0  0  0  0  0  0  0  0  0  0
  146.1561  137.8241  151.8658 C   0  0  0  0  0  0  0  0  0  0  0  0
  146.7214  138.7339  152.6621 N   0  0  0  0  0  0  0  0  0  0  0  0
  146.8271  138.2734  153.9414 C   0  0  0  0  0  0  0  0  0  0  0  0
  145.7102  132.2543  151.9338 H   0  0  0  0  0  0  0  0  0  0  0  0
  143.8443  133.5753  154.1195 H   0  0  0  0  0  0  0  0  0  0  0  0
  148.9373  142.3142  156.7916 H   0  0  0  0  0  0  0  0  0  0  0  0
  150.4552  142.1180  157.6527 H   0  0  0  0  0  0  0  0  0  0  0  0
  149.2900  140.8035  157.6389 H   0  0  0  0  0  0  0  0  0  0  0  0
  150.8777  141.8718  155.2440 H   0  0  0  0  0  0  0  0  0  0  0  0
  152.1310  139.5336  154.3364 H   0  0  0  0  0  0  0  0  0  0  0  0
  152.0623  138.2536  155.5591 H   0  0  0  0  0  0  0  0  0  0  0  0
  150.0265  138.3439  153.8147 H   0  0  0  0  0  0  0  0  0  0  0  0
  149.6528  138.2336  155.5329 H   0  0  0  0  0  0  0  0  0  0  0  0
  149.5102  140.1351  152.8478 H   0  0  0  0  0  0  0  0  0  0  0  0
  147.7828  140.6302  156.1072 H   0  0  0  0  0  0  0  0  0  0  0  0
  147.4200  140.8893  154.4177 H   0  0  0  0  0  0  0  0  0  0  0  0
  147.5472  138.2481  157.0913 H   0  0  0  0  0  0  0  0  0  0  0  0
  147.3043  134.2359  153.1072 H   0  0  0  0  0  0  0  0  0  0  0  0
  146.3549  133.0818  154.0203 H   0  0  0  0  0  0  0  0  0  0  0  0
  144.0308  134.6061  151.2667 H   0  0  0  0  0  0  0  0  0  0  0  0
  143.4864  133.0301  151.8276 H   0  0  0  0  0  0  0  0  0  0  0  0
  141.0462  135.5393  154.5780 H   0  0  0  0  0  0  0  0  0  0  0  0
  141.8847  134.0202  154.8181 H   0  0  0  0  0  0  0  0  0  0  0  0
  146.0425  138.1141  150.8318 H   0  0  0  0  0  0  0  0  0  0  0  0
  1  2  1  0  0  0  0
  1 29  1  0  0  0  0
  1 30  1  0  0  0  0
  1 31  1  0  0  0  0
  2  6  1  0  0  0  0
  2  3  1  0  0  0  0
  2 32  1  0  0  0  0
  3  4  1  0  0  0  0
  4  5  1  0  0  0  0
  4 33  1  0  0  0  0
  4 34  1  0  0  0  0
  5  6  1  0  0  0  0
  5 35  1  0  0  0  0
  5 36  1  0  0  0  0
  6  7  1  0  0  0  0
  6  8  1  0  0  0  0
  7 37  1  0  0  0  0
  8  9  1  0  0  0  0
  8 38  1  0  0  0  0
  8 39  1  0  0  0  0
  9 26  1  0  0  0  0
  9 10  1  0  0  0  0
 10 11  2  0  0  0  0
 10 40  1  0  0  0  0
 11 12  1  0  0  0  0
 12 26  2  0  0  0  0
 12 13  1  0  0  0  0
 13 14  1  0  0  0  0
 13 23  2  0  0  0  0
 14 19  1  0  0  0  0
 14 15  1  0  0  0  0
 15 16  1  0  0  0  0
 15 41  1  0  0  0  0
 15 42  1  0  0  0  0
 16 27  1  0  0  0  0
 16 17  1  0  0  0  0
 16 18  1  0  0  0  0
 18 19  1  0  0  0  0
 18 43  1  0  0  0  0
 18 44  1  0  0  0  0
 19 28  1  0  0  0  0
 19 20  1  0  0  0  0
 20 21  1  0  0  0  0
 20 22  2  0  0  0  0
 21 45  1  0  0  0  0
 21 46  1  0  0  0  0
 23 24  1  0  0  0  0
 24 25  2  0  0  0  0
 24 47  1  0  0  0  0
 25 26  1  0  0  0  0
M  END
> <s_m_source_file>
AV-unprocessed.smi

> <i_m_source_file_index>
196

> <i_lp_mmshare_version>
43012

> <i_f3d_flags>
0

> <s_epik_input>
W0NIMl0xW0NIMl1PW0NAQEhdKFtDSDNdKVtDQEBdMShbT0hdKVtDSDJdbihbY0hdbjIpYyhjMjMpbltjSF1uYzNONFtDSDJdW0NASF0oRilbQ0gyXVtDQEhdNEMoPU8pW05IMl0=

> <s_epik_cmdline>
J2VwaWtfcHl0aG9uJywgJy1waCcsICc3LjAnLCAnLXRuJywgJzgnLCAnLW1hJywgJzIwMCcsICctbWV0YWxfYmluZGluZycsICctaW1hZScsICc8aW5maWxlLm1hZT4nLCAnLW9tYWUnLCAnPG91dGZpbGUubWFlPic=

> <r_lp_tautomer_probability>
1

> <r_epik_Ionization_Penalty>
0.000857933

> <r_epik_Ionization_Penalty_Charging>
0

> <r_epik_Ionization_Penalty_Neutral>
0.000857933

> <r_epik_State_Penalty>
0.000462053

> <r_epik_Charging_Adjusted_Penalty>
0.000462053

> <i_epik_Tot_Q>
0

> <i_epik_Tot_abs_Q>
0

> <r_epik_Metal_State_Penalty>
-0

> <b_epik_Metal_Only>
0

> <s_lp_Force_Field>
OPLS_2005

> <r_lp_Energy>
50.8061

> <b_lp_Chiralities_Consistent>
1

> <s_lp_Variant>
AV-unprocessed.smi:196-12

> <Gold.Version>
5.8.1

> <Gold.Id.Protein>
6NUR|6NUR_protein|mol2

> <Gold.PLP.Fitness>
40.8486

> <Gold.PLP.PLP>
-32.5912

> <Gold.PLP.part.hbond>
-4.6499

> <Gold.PLP.part.metal>
0.0000

> <Gold.PLP.part.buried>
-4.7643

> <Gold.PLP.part.nonpolar>
-24.7180

> <Gold.PLP.part.repulsive>
0.7953

> <Gold.PLP.ligand.clash>
0.0000

> <Gold.PLP.ligand.torsion>
1.7446

> <Gold.PLP.Chemscore.Hbond>
2.9668

> <Gold.PLP.Chemscore.CHOScore>
0.9281

> <Gold.PLP.Chemscore.Metal>
0.0000

> <Gold.Chemscore.Hbonds>
donor molecule, donor type, donor heavy atom, donor atom, acceptor molecule, acceptor atom, score
      L1  H     7    37       P1  7957  0.70
      L1  H    21    46       P1 10957  0.16
      P1  H  7989  7998       L1     7  0.30
      P1  H  8011  8017       L1     7  1.00
      L1  C    24    47       P1 10171  0.88

> <Gold.PLP.Chemscore.Internal.Correction>
0.0621

> <Gold.Rescore>
     Score         DG    S(hbond)    S(metal)    S(lipo)     H(rot)  DE(clash)    DE(int)     intcor
      8.23     -12.27       2.35        0.00      57.55       3.04       0.50       3.54       ----

> <Gold.Chemscore.Fitness>
8.2300

> <Gold.Chemscore.DG>
-12.2700

> <Gold.Chemscore.ZeroCoef>
-5.4800

> <Gold.Chemscore.Hbond>
2.3479

> <Gold.Chemscore.Metal>
0.0000

> <Gold.Chemscore.Lipo>
57.5528

> <Gold.Chemscore.Internal_Hbond>
0.0000

> <Gold.Chemscore.DEClash>
0.4971

> <Gold.Chemscore.DEInternal>
3.5429

> <Gold.Chemscore.Rot>
3.0413

> <Gold.Chemscore.Internal.Correction>
   9.000000E+99

> <Gold.Chemscore.Hbonds>
donor molecule, donor type, donor heavy atom, donor atom, acceptor molecule, acceptor atom, score
      L1  H     7    37       P1  7957  0.70
      L1  H    21    46       P1 10957  0.17
      P1  H  7989  7998       L1     7  0.02
      P1  H  8011  8017       L1     7  0.29

> <Gold.Chemscore.Hbond.Weighted>
-7.8420

> <Gold.Chemscore.Metal.Weighted>
-0.0000

> <Gold.Chemscore.Lipo.Weighted>
-6.7337

> <Gold.Chemscore.Internal_Hbond.Weighted>
0.0000

> <Gold.Chemscore.DEClash.Weighted>
0.4971

> <Gold.Chemscore.DEInternal.Weighted>
3.5429

> <Gold.Chemscore.Rot.Weighted>
7.7856

> <Gold.Chemscore.Internal.Correction.Weighted>
   9.000000E+99

> <Gold.Protein.RotatedTorsions>
[ 6907 6896 6895 6894 ] final   52.49 input  -60.11 | X-H torsion
[ 7974 7965 7964 7962 ] final   23.67 input  175.53 | X-H torsion
[ 8008 7997 7996 7995 ] final   -4.97 input   59.86 | X-H torsion
[ 10167 10162 10161 10158 ] final -156.61 input  -65.29 | X-H torsion
[ 10718 10713 10712 10709 ] final   59.39 input   66.30 | X-H torsion
[ 10763 10752 10751 10750 ] final  168.35 input  -60.55 | X-H torsion
[ 11005 11000 10999 10996 ] final -133.37 input  -57.11 | X-H torsion

> <Gold.Protein.ActiveResidues>
 VAL166  LYS551  ARG553  GLY616  TRP617  ASP618  TYR619  PRO620  LYS621  CYS622 
 ASP623  PHE694  ASN695  SER759  ASP760  ASP761  ALA762  ILE779  LEU786  VAL792 
 PHE793  MET794  SER795  GLU796  ALA797  LYS798  CYS799  TRP800  GLU811  SER814 

> <Gold.Protein.RotatedAtoms>
  152.3238  134.7346  160.0306 H   0  0  0  0  0  0  0  0  0  0  0  0  # atno 6907 bound_to 6896
  151.7785  133.3342  159.3473 H   0  0  0  0  0  0  0  0  0  0  0  0  # atno 6908 bound_to 6896
  150.7385  134.5884  159.6019 H   0  0  0  0  0  0  0  0  0  0  0  0  # atno 6909 bound_to 6896
  146.1973  139.7712  142.8787 H   0  0  0  0  0  0  0  0  0  0  0  0  # atno 7974 bound_to 7965
  154.6088  140.2470  155.7696 H   0  0  0  0  0  0  0  0  0  0  0  0  # atno 8008 bound_to 7997
  156.2357  140.2951  156.0258 H   0  0  0  0  0  0  0  0  0  0  0  0  # atno 8009 bound_to 7997
  155.2087  140.0396  157.2920 H   0  0  0  0  0  0  0  0  0  0  0  0  # atno 8010 bound_to 7997
  139.6836  143.9539  152.2349 H   0  0  0  0  0  0  0  0  0  0  0  0  # atno 10167 bound_to 10162
  157.5671  130.8879  149.9206 H   0  0  0  0  0  0  0  0  0  0  0  0  # atno 10718 bound_to 10713
  154.3673  135.2753  155.2286 H   0  0  0  0  0  0  0  0  0  0  0  0  # atno 10763 bound_to 10752
  154.4449  135.5945  153.6157 H   0  0  0  0  0  0  0  0  0  0  0  0  # atno 10764 bound_to 10752
  152.9840  135.6027  154.3900 H   0  0  0  0  0  0  0  0  0  0  0  0  # atno 10765 bound_to 10752
  140.9086  134.1597  157.4406 H   0  0  0  0  0  0  0  0  0  0  0  0  # atno 11005 bound_to 11000
  145.3600  141.0324  143.3290 LP  0  0  0  0  0  0  0  0  0  0  0  0  # atno 17320 bound_to 7965
  144.8608  139.5180  143.6813 LP  0  0  0  0  0  0  0  0  0  0  0  0  # atno 17321 bound_to 7965
  139.9336  144.6726  150.8338 LP  0  0  0  0  0  0  0  0  0  0  0  0  # atno 17342 bound_to 10162
  140.7660  143.3292  151.2448 LP  0  0  0  0  0  0  0  0  0  0  0  0  # atno 17343 bound_to 10162
  156.0719  130.3684  150.0758 LP  0  0  0  0  0  0  0  0  0  0  0  0  # atno 17370 bound_to 10713
  156.8916  130.9590  151.3588 LP  0  0  0  0  0  0  0  0  0  0  0  0  # atno 17371 bound_to 10713
  139.8753  134.9927  156.5608 LP  0  0  0  0  0  0  0  0  0  0  0  0  # atno 17394 bound_to 11000
  140.8138  133.8407  155.8834 LP  0  0  0  0  0  0  0  0  0  0  0  0  # atno 17395 bound_to 11000

$$$$
