AV-unprocessed.smi:3241|AV-procd|sdf|12392|dock4
  -GOLD-   2272018263D 1   1.00000     0.00000
 Structure written by MMmdl.
 43 44  0  0  0  0  0  0  0  0  1 V2000
  153.2625  141.9324  161.9354 C   0  0  0  0  0  0  0  0  0  0  0  0
  152.4111  142.6818  160.8975 C   0  0  1  0  0  0  0  0  0  0  0  0
  152.1071  144.1146  161.3798 C   0  0  0  0  0  0  0  0  0  0  0  0
  151.2601  144.8915  160.3614 C   0  0  0  0  0  0  0  0  0  0  0  0
  151.9435  144.9198  158.9881 C   0  0  0  0  0  0  0  0  0  0  0  0
  152.2374  143.4972  158.4902 C   0  0  0  0  0  0  0  0  0  0  0  0
  153.0858  142.7005  159.5059 C   0  0  2  0  0  0  0  0  0  0  0  0
  153.2186  141.3508  159.0757 O   0  0  0  0  0  0  0  0  0  0  0  0
  152.0210  140.7520  158.6017 C   0  0  0  0  0  0  0  0  0  0  0  0
  152.3563  139.3670  158.0390 C   0  0  0  0  0  0  0  0  0  0  0  0
  152.9857  139.4765  156.7276 N   0  0  0  0  0  0  0  0  0  0  0  0
  152.1794  140.1950  155.7458 C   0  0  0  0  0  0  0  0  0  0  0  0
  151.2041  139.2556  155.0175 C   0  0  0  0  0  0  0  0  0  0  0  0
  149.9736  139.9270  154.6378 N   0  0  0  0  0  0  0  0  0  0  0  0
  149.6436  141.2571  154.7924 C   0  0  0  0  0  0  0  0  0  0  0  0
  148.3886  141.4267  154.2820 C   0  0  0  0  0  0  0  0  0  0  0  0
  148.0289  140.1258  153.8308 C   0  0  0  0  0  0  0  0  0  0  0  0
  148.9775  139.2293  154.0492 N   0  0  0  0  0  0  0  0  0  0  0  0
  154.2377  142.4034  162.0630 H   0  0  0  0  0  0  0  0  0  0  0  0
  153.4296  140.8964  161.6398 H   0  0  0  0  0  0  0  0  0  0  0  0
  152.7705  141.9174  162.9082 H   0  0  0  0  0  0  0  0  0  0  0  0
  151.4611  142.1529  160.8048 H   0  0  0  0  0  0  0  0  0  0  0  0
  151.5849  144.0826  162.3366 H   0  0  0  0  0  0  0  0  0  0  0  0
  153.0411  144.6500  161.5568 H   0  0  0  0  0  0  0  0  0  0  0  0
  150.2763  144.4287  160.2724 H   0  0  0  0  0  0  0  0  0  0  0  0
  151.0930  145.9094  160.7149 H   0  0  0  0  0  0  0  0  0  0  0  0
  151.3122  145.4427  158.2693 H   0  0  0  0  0  0  0  0  0  0  0  0
  152.8740  145.4853  159.0524 H   0  0  0  0  0  0  0  0  0  0  0  0
  151.2972  142.9738  158.3107 H   0  0  0  0  0  0  0  0  0  0  0  0
  152.7435  143.5591  157.5275 H   0  0  0  0  0  0  0  0  0  0  0  0
  154.0713  143.1604  159.6030 H   0  0  0  0  0  0  0  0  0  0  0  0
  151.2687  140.6692  159.3862 H   0  0  0  0  0  0  0  0  0  0  0  0
  151.5985  141.3708  157.8092 H   0  0  0  0  0  0  0  0  0  0  0  0
  153.0354  138.8618  158.7266 H   0  0  0  0  0  0  0  0  0  0  0  0
  151.4541  138.7566  157.9830 H   0  0  0  0  0  0  0  0  0  0  0  0
  153.2204  138.5536  156.3764 H   0  0  0  0  0  0  0  0  0  0  0  0
  151.6092  140.9787  156.2458 H   0  0  0  0  0  0  0  0  0  0  0  0
  152.8229  140.6944  155.0205 H   0  0  0  0  0  0  0  0  0  0  0  0
  151.6704  138.8218  154.1312 H   0  0  0  0  0  0  0  0  0  0  0  0
  150.9425  138.4220  155.6699 H   0  0  0  0  0  0  0  0  0  0  0  0
  150.3227  141.9637  155.2463 H   0  0  0  0  0  0  0  0  0  0  0  0
  147.8158  142.3411  154.2359 H   0  0  0  0  0  0  0  0  0  0  0  0
  147.1118  139.8080  153.3570 H   0  0  0  0  0  0  0  0  0  0  0  0
  1  2  1  0  0  0  0
  1 19  1  0  0  0  0
  1 20  1  0  0  0  0
  1 21  1  0  0  0  0
  2  7  1  0  0  0  0
  2  3  1  0  0  0  0
  2 22  1  0  0  0  0
  3  4  1  0  0  0  0
  3 23  1  0  0  0  0
  3 24  1  0  0  0  0
  4  5  1  0  0  0  0
  4 25  1  0  0  0  0
  4 26  1  0  0  0  0
  5  6  1  0  0  0  0
  5 27  1  0  0  0  0
  5 28  1  0  0  0  0
  6  7  1  0  0  0  0
  6 29  1  0  0  0  0
  6 30  1  0  0  0  0
  7  8  1  0  0  0  0
  7 31  1  0  0  0  0
  8  9  1  0  0  0  0
  9 10  1  0  0  0  0
  9 32  1  0  0  0  0
  9 33  1  0  0  0  0
 10 11  1  0  0  0  0
 10 34  1  0  0  0  0
 10 35  1  0  0  0  0
 11 12  1  0  0  0  0
 11 36  1  0  0  0  0
 12 13  1  0  0  0  0
 12 37  1  0  0  0  0
 12 38  1  0  0  0  0
 13 14  1  0  0  0  0
 13 39  1  0  0  0  0
 13 40  1  0  0  0  0
 14 18  1  0  0  0  0
 14 15  1  0  0  0  0
 15 16  2  0  0  0  0
 15 41  1  0  0  0  0
 16 17  1  0  0  0  0
 16 42  1  0  0  0  0
 17 18  2  0  0  0  0
 17 43  1  0  0  0  0
M  END
> <s_m_source_file>
AV-unprocessed.smi

> <i_m_source_file_index>
3241

> <i_lp_mmshare_version>
43012

> <i_f3d_flags>
0

> <s_epik_input>
W0NIM11bQ0BASF0xW0NIMl1bQ0gyXVtDSDJdW0NIMl1bQ0BIXTFPW0NIMl1bQ0gyXVtOSF1bQ0gyXVtDSDJdbjJbY0hdW2NIXVtjSF1uMg==

> <s_epik_cmdline>
J2VwaWtfcHl0aG9uJywgJy1waCcsICc3LjAnLCAnLXRuJywgJzgnLCAnLW1hJywgJzIwMCcsICctbWV0YWxfYmluZGluZycsICctaW1hZScsICc8aW5maWxlLm1hZT4nLCAnLW9tYWUnLCAnPG91dGZpbGUubWFlPic=

> <r_lp_tautomer_probability>
1

> <r_epik_Ionization_Penalty>
2.47055

> <r_epik_Ionization_Penalty_Charging>
0

> <r_epik_Ionization_Penalty_Neutral>
2.47055

> <r_epik_State_Penalty>
2.6322

> <r_epik_Charging_Adjusted_Penalty>
2.6322

> <i_epik_Tot_Q>
0

> <i_epik_Tot_abs_Q>
0

> <r_epik_Metal_State_Penalty>
2.63108

> <b_epik_Metal_Only>
0

> <s_lp_Force_Field>
OPLS_2005

> <r_lp_Energy>
16.4595

> <b_lp_Chiralities_Consistent>
1

> <s_lp_Variant>
AV-unprocessed.smi:3241-8

> <Gold.Version>
5.8.1

> <Gold.Id.Protein>
6NUR|6NUR_protein|mol2

> <Gold.PLP.Fitness>
51.5858

> <Gold.PLP.PLP>
-49.7051

> <Gold.PLP.part.hbond>
-1.0000

> <Gold.PLP.part.metal>
0.0000

> <Gold.PLP.part.buried>
-3.4784

> <Gold.PLP.part.nonpolar>
-44.3305

> <Gold.PLP.part.repulsive>
0.1574

> <Gold.PLP.ligand.clash>
0.0000

> <Gold.PLP.ligand.torsion>
0.5798

> <Gold.PLP.Chemscore.Hbond>
1.0000

> <Gold.PLP.Chemscore.CHOScore>
0.0000

> <Gold.PLP.Chemscore.Metal>
0.0000

> <Gold.Chemscore.Hbonds>
donor molecule, donor type, donor heavy atom, donor atom, acceptor molecule, acceptor atom, score
      P1  H  7997  8009       L1    11  0.84

> <Gold.PLP.Chemscore.Internal.Correction>
0.0402

> <Gold.Rescore>
     Score         DG    S(hbond)    S(metal)    S(lipo)     H(rot)  DE(clash)    DE(int)     intcor
     16.70     -17.37       0.27        0.00     133.12       1.79       0.07       0.59       ----

> <Gold.Chemscore.Fitness>
16.7020

> <Gold.Chemscore.DG>
-17.3663

> <Gold.Chemscore.ZeroCoef>
-5.4800

> <Gold.Chemscore.Hbond>
0.2677

> <Gold.Chemscore.Metal>
0.0000

> <Gold.Chemscore.Lipo>
133.1184

> <Gold.Chemscore.Internal_Hbond>
0.0000

> <Gold.Chemscore.DEClash>
0.0733

> <Gold.Chemscore.DEInternal>
0.5910

> <Gold.Chemscore.Rot>
1.7901

> <Gold.Chemscore.Internal.Correction>
   9.000000E+99

> <Gold.Chemscore.Hbonds>
donor molecule, donor type, donor heavy atom, donor atom, acceptor molecule, acceptor atom, score
      P1  H  7997  8009       L1    11  0.08

> <Gold.Chemscore.Hbond.Weighted>
-0.8942

> <Gold.Chemscore.Metal.Weighted>
-0.0000

> <Gold.Chemscore.Lipo.Weighted>
-15.5748

> <Gold.Chemscore.Internal_Hbond.Weighted>
0.0000

> <Gold.Chemscore.DEClash.Weighted>
0.0733

> <Gold.Chemscore.DEInternal.Weighted>
0.5910

> <Gold.Chemscore.Rot.Weighted>
4.5827

> <Gold.Chemscore.Internal.Correction.Weighted>
   9.000000E+99

> <Gold.Protein.RotatedTorsions>
[ 6907 6896 6895 6894 ] final -120.19 input  -60.11 | X-H torsion
[ 7974 7965 7964 7962 ] final -128.29 input  175.53 | X-H torsion
[ 8008 7997 7996 7995 ] final  176.03 input   59.86 | X-H torsion
[ 10167 10162 10161 10158 ] final  -16.11 input  -65.29 | X-H torsion
[ 10718 10713 10712 10709 ] final -164.12 input   66.30 | X-H torsion
[ 10763 10752 10751 10750 ] final   66.57 input  -60.55 | X-H torsion
[ 11005 11000 10999 10996 ] final -170.79 input  -57.11 | X-H torsion

> <Gold.Protein.ActiveResidues>
 VAL166  LYS551  ARG553  GLY616  TRP617  ASP618  TYR619  PRO620  LYS621  CYS622 
 ASP623  PHE694  ASN695  SER759  ASP760  ASP761  ALA762  ILE779  LEU786  VAL792 
 PHE793  MET794  SER795  GLU796  ALA797  LYS798  CYS799  TRP800  GLU811  SER814 

> <Gold.Protein.RotatedAtoms>
  150.8371  133.7996  159.3075 H   0  0  0  0  0  0  0  0  0  0  0  0  # atno 6907 bound_to 6896
  151.5708  135.1061  160.0004 H   0  0  0  0  0  0  0  0  0  0  0  0  # atno 6908 bound_to 6896
  152.4441  133.7462  159.6725 H   0  0  0  0  0  0  0  0  0  0  0  0  # atno 6909 bound_to 6896
  144.9685  140.7521  143.4685 H   0  0  0  0  0  0  0  0  0  0  0  0  # atno 7974 bound_to 7965
  156.0808  140.1394  156.9714 H   0  0  0  0  0  0  0  0  0  0  0  0  # atno 8008 bound_to 7997
  154.4584  140.0952  156.6873 H   0  0  0  0  0  0  0  0  0  0  0  0  # atno 8009 bound_to 7997
  155.5078  140.3453  155.4385 H   0  0  0  0  0  0  0  0  0  0  0  0  # atno 8010 bound_to 7997
  140.7229  143.5149  150.9704 H   0  0  0  0  0  0  0  0  0  0  0  0  # atno 10167 bound_to 10162
  156.6344  130.8943  151.2984 H   0  0  0  0  0  0  0  0  0  0  0  0  # atno 10718 bound_to 10713
  153.0146  135.5316  154.6844 H   0  0  0  0  0  0  0  0  0  0  0  0  # atno 10763 bound_to 10752
  154.5995  135.2867  155.0552 H   0  0  0  0  0  0  0  0  0  0  0  0  # atno 10764 bound_to 10752
  154.1615  135.6547  153.5039 H   0  0  0  0  0  0  0  0  0  0  0  0  # atno 10765 bound_to 10752
  140.5155  134.5760  157.5032 H   0  0  0  0  0  0  0  0  0  0  0  0  # atno 11005 bound_to 11000
  145.2594  139.1998  143.4900 LP  0  0  0  0  0  0  0  0  0  0  0  0  # atno 17320 bound_to 7965
  146.3375  140.2522  142.8599 LP  0  0  0  0  0  0  0  0  0  0  0  0  # atno 17321 bound_to 7965
  139.8865  143.7007  152.3151 LP  0  0  0  0  0  0  0  0  0  0  0  0  # atno 17342 bound_to 10162
  139.7307  144.7583  151.0806 LP  0  0  0  0  0  0  0  0  0  0  0  0  # atno 17343 bound_to 10162
  157.7190  130.9534  150.1365 LP  0  0  0  0  0  0  0  0  0  0  0  0  # atno 17370 bound_to 10713
  156.2209  130.3674  149.8557 LP  0  0  0  0  0  0  0  0  0  0  0  0  # atno 17371 bound_to 10713
  139.9635  134.7413  156.0187 LP  0  0  0  0  0  0  0  0  0  0  0  0  # atno 17394 bound_to 11000
  141.1362  133.6574  156.3601 LP  0  0  0  0  0  0  0  0  0  0  0  0  # atno 17395 bound_to 11000

$$$$
