AV-unprocessed.smi:3028|AV-procd|sdf|11519|dock3
  -GOLD-   2272016453D 1   1.00000     0.00000
 Structure written by MMmdl.
 48 49  0  0  0  0  0  0  0  0  2 V2000
  151.3307  141.6341  158.6935 C   0  0  0  0  0  0  0  0  0  0  0  0
  150.9887  141.2333  157.2877 C   0  0  0  0  0  0  0  0  0  0  0  0
  151.8660  140.7459  156.2782 C   0  0  0  0  0  0  0  0  0  0  0  0
  151.2439  140.4868  155.1400 N   0  0  0  0  0  0  0  0  0  0  0  0
  149.9503  140.7974  155.3793 N   0  0  0  0  0  0  0  0  0  0  0  0
  148.9504  140.6506  154.3273 C   0  0  2  0  0  0  0  0  0  0  0  0
  147.7483  141.5691  154.6182 C   0  0  0  0  0  0  0  0  0  0  0  0
  148.5529  139.1630  154.1281 C   0  0  1  0  0  0  0  0  0  0  0  0
  147.2642  138.9916  153.3069 C   0  0  0  0  0  0  0  0  0  0  0  0
  149.6460  138.4265  153.4521 N   0  3  0  0  0  0  0  0  0  0  0  0
  150.6999  137.9088  154.3500 C   0  0  0  0  0  0  0  0  0  0  0  0
  150.2776  136.6146  155.0570 C   0  0  0  0  0  0  0  0  0  0  0  0
  150.4115  136.5080  156.2751 O   0  0  0  0  0  0  0  0  0  0  0  0
  149.7620  135.6068  154.3331 N   0  0  0  0  0  0  0  0  0  0  0  0
  149.3001  134.3007  154.8020 C   0  0  0  0  0  0  0  0  0  0  0  0
  150.4265  133.5949  155.5720 C   0  0  0  0  0  0  0  0  0  0  0  0
  150.0272  132.1510  155.9184 C   0  0  0  0  0  0  0  0  0  0  0  0
  149.6826  131.4426  154.7327 O   0  0  0  0  0  0  0  0  0  0  0  0
  148.5589  132.0004  154.0597 C   0  0  0  0  0  0  0  0  0  0  0  0
  148.8759  133.4349  153.6061 C   0  0  0  0  0  0  0  0  0  0  0  0
  149.7697  141.2452  156.6715 C   0  0  0  0  0  0  0  0  0  0  0  0
  152.4023  141.5726  158.8844 H   0  0  0  0  0  0  0  0  0  0  0  0
  150.8373  140.9938  159.4248 H   0  0  0  0  0  0  0  0  0  0  0  0
  151.0255  142.6590  158.9048 H   0  0  0  0  0  0  0  0  0  0  0  0
  152.9309  140.5759  156.3375 H   0  0  0  0  0  0  0  0  0  0  0  0
  149.4117  141.0028  153.4032 H   0  0  0  0  0  0  0  0  0  0  0  0
  147.0626  141.6165  153.7727 H   0  0  0  0  0  0  0  0  0  0  0  0
  148.0773  142.5898  154.8169 H   0  0  0  0  0  0  0  0  0  0  0  0
  147.1847  141.2282  155.4872 H   0  0  0  0  0  0  0  0  0  0  0  0
  148.3754  138.7172  155.1086 H   0  0  0  0  0  0  0  0  0  0  0  0
  146.4005  139.4168  153.8171 H   0  0  0  0  0  0  0  0  0  0  0  0
  147.0456  137.9360  153.1420 H   0  0  0  0  0  0  0  0  0  0  0  0
  147.3466  139.4700  152.3303 H   0  0  0  0  0  0  0  0  0  0  0  0
  149.2499  137.6485  152.9444 H   0  0  0  0  0  0  0  0  0  0  0  0
  151.6000  137.7143  153.7665 H   0  0  0  0  0  0  0  0  0  0  0  0
  150.9387  138.6691  155.0949 H   0  0  0  0  0  0  0  0  0  0  0  0
  149.6825  135.7636  153.3383 H   0  0  0  0  0  0  0  0  0  0  0  0
  148.4435  134.3896  155.4694 H   0  0  0  0  0  0  0  0  0  0  0  0
  151.3361  133.5778  154.9695 H   0  0  0  0  0  0  0  0  0  0  0  0
  150.6656  134.1452  156.4829 H   0  0  0  0  0  0  0  0  0  0  0  0
  150.8582  131.6394  156.4041 H   0  0  0  0  0  0  0  0  0  0  0  0
  149.1913  132.1364  156.6195 H   0  0  0  0  0  0  0  0  0  0  0  0
  148.3220  131.3788  153.1962 H   0  0  0  0  0  0  0  0  0  0  0  0
  147.6852  131.9832  154.7130 H   0  0  0  0  0  0  0  0  0  0  0  0
  148.0069  133.8713  153.1121 H   0  0  0  0  0  0  0  0  0  0  0  0
  149.6758  133.4057  152.8646 H   0  0  0  0  0  0  0  0  0  0  0  0
  148.7984  141.5376  157.0427 H   0  0  0  0  0  0  0  0  0  0  0  0
  150.0828  139.0487  152.7870 H   0  0  0  0  0  0  0  0  0  0  0  0
  1  2  1  0  0  0  0
  1 22  1  0  0  0  0
  1 23  1  0  0  0  0
  1 24  1  0  0  0  0
  2 21  2  0  0  0  0
  2  3  1  0  0  0  0
  3  4  2  0  0  0  0
  3 25  1  0  0  0  0
  4  5  1  0  0  0  0
  5  6  1  0  0  0  0
  5 21  1  0  0  0  0
  6  7  1  0  0  0  0
  6  8  1  0  0  0  0
  6 26  1  0  0  0  0
  7 27  1  0  0  0  0
  7 28  1  0  0  0  0
  7 29  1  0  0  0  0
  8  9  1  0  0  0  0
  8 10  1  0  0  0  0
  8 30  1  0  0  0  0
  9 31  1  0  0  0  0
  9 32  1  0  0  0  0
  9 33  1  0  0  0  0
 10 11  1  0  0  0  0
 10 34  1  0  0  0  0
 10 48  1  0  0  0  0
 11 12  1  0  0  0  0
 11 35  1  0  0  0  0
 11 36  1  0  0  0  0
 12 13  2  0  0  0  0
 12 14  1  0  0  0  0
 14 15  1  0  0  0  0
 14 37  1  0  0  0  0
 15 20  1  0  0  0  0
 15 16  1  0  0  0  0
 15 38  1  0  0  0  0
 16 17  1  0  0  0  0
 16 39  1  0  0  0  0
 16 40  1  0  0  0  0
 17 18  1  0  0  0  0
 17 41  1  0  0  0  0
 17 42  1  0  0  0  0
 18 19  1  0  0  0  0
 19 20  1  0  0  0  0
 19 43  1  0  0  0  0
 19 44  1  0  0  0  0
 20 45  1  0  0  0  0
 20 46  1  0  0  0  0
 21 47  1  0  0  0  0
M  CHG  1  10   1
M  END
> <s_m_source_file>
AV-unprocessed.smi

> <i_m_source_file_index>
3028

> <i_lp_mmshare_version>
43012

> <i_f3d_flags>
0

> <s_epik_input>
W0NIM11jMVtjSF1ubihbY0hdMSlbQ0BIXShbQ0gzXSlbQ0BIXShbQ0gzXSlbTkhdW0NIMl1DKD1PKVtOSF1bQ0hdMltDSDJdW0NIMl1PW0NIMl1bQ0gyXTI=

> <s_epik_cmdline>
J2VwaWtfcHl0aG9uJywgJy1waCcsICc3LjAnLCAnLXRuJywgJzgnLCAnLW1hJywgJzIwMCcsICctbWV0YWxfYmluZGluZycsICctaW1hZScsICc8aW5maWxlLm1hZT4nLCAnLW9tYWUnLCAnPG91dGZpbGUubWFlPic=

> <r_lp_tautomer_probability>
1

> <r_epik_Ionization_Penalty>
0.151514

> <r_epik_Ionization_Penalty_Charging>
0.151494

> <r_epik_Ionization_Penalty_Neutral>
1.95502e-05

> <r_epik_State_Penalty>
0.141395

> <r_epik_Charging_Adjusted_Penalty>
0.292889

> <i_epik_Tot_Q>
1

> <i_epik_Tot_abs_Q>
1

> <r_epik_Metal_State_Penalty>
0.141632

> <b_epik_Metal_Only>
0

> <s_lp_Force_Field>
OPLS_2005

> <r_lp_Energy>
16.7547

> <b_lp_Chiralities_Consistent>
1

> <s_lp_Variant>
AV-unprocessed.smi:3028-3

> <Gold.Version>
5.8.1

> <Gold.Id.Protein>
6NUR|6NUR_protein|mol2

> <Gold.PLP.Fitness>
49.2405

> <Gold.PLP.PLP>
-38.3472

> <Gold.PLP.part.hbond>
-4.4672

> <Gold.PLP.part.metal>
0.0000

> <Gold.PLP.part.buried>
-4.5151

> <Gold.PLP.part.nonpolar>
-30.5086

> <Gold.PLP.part.repulsive>
0.2100

> <Gold.PLP.ligand.clash>
0.0000

> <Gold.PLP.ligand.torsion>
1.3335

> <Gold.PLP.Chemscore.Hbond>
4.4440

> <Gold.PLP.Chemscore.CHOScore>
0.0000

> <Gold.PLP.Chemscore.Metal>
0.0000

> <Gold.Chemscore.Hbonds>
donor molecule, donor type, donor heavy atom, donor atom, acceptor molecule, acceptor atom, score
      L1  H    10    34       P1  7948  2.00
      L1  H    10    48       P1  7957  0.78
      L1  H    14    37       P1  7948  0.65
      P1  H  7989  7998       L1     4  0.96

> <Gold.PLP.Chemscore.Internal.Correction>
0.2283

> <Gold.Rescore>
     Score         DG    S(hbond)    S(metal)    S(lipo)     H(rot)  DE(clash)    DE(int)     intcor
     17.92     -21.65       3.64        0.00      77.87       1.99       0.00       3.73       ----

> <Gold.Chemscore.Fitness>
17.9172

> <Gold.Chemscore.DG>
-21.6482

> <Gold.Chemscore.ZeroCoef>
-5.4800

> <Gold.Chemscore.Hbond>
3.6381

> <Gold.Chemscore.Metal>
0.0000

> <Gold.Chemscore.Lipo>
77.8670

> <Gold.Chemscore.Internal_Hbond>
0.0000

> <Gold.Chemscore.DEClash>
0.0004

> <Gold.Chemscore.DEInternal>
3.7306

> <Gold.Chemscore.Rot>
1.9897

> <Gold.Chemscore.Internal.Correction>
   9.000000E+99

> <Gold.Chemscore.Hbonds>
donor molecule, donor type, donor heavy atom, donor atom, acceptor molecule, acceptor atom, score
      L1  H    10    34       P1  7948  0.98
      L1  H    10    48       P1  7957  0.57
      L1  H    14    37       P1  7948  0.06
      P1  H  7989  7998       L1     4  0.69

> <Gold.Chemscore.Hbond.Weighted>
-12.1514

> <Gold.Chemscore.Metal.Weighted>
-0.0000

> <Gold.Chemscore.Lipo.Weighted>
-9.1104

> <Gold.Chemscore.Internal_Hbond.Weighted>
0.0000

> <Gold.Chemscore.DEClash.Weighted>
0.0004

> <Gold.Chemscore.DEInternal.Weighted>
3.7306

> <Gold.Chemscore.Rot.Weighted>
5.0936

> <Gold.Chemscore.Internal.Correction.Weighted>
   9.000000E+99

> <Gold.Protein.RotatedTorsions>
[ 6907 6896 6895 6894 ] final -166.46 input  -60.11 | X-H torsion
[ 7974 7965 7964 7962 ] final  110.64 input  175.53 | X-H torsion
[ 8008 7997 7996 7995 ] final -138.96 input   59.86 | X-H torsion
[ 10167 10162 10161 10158 ] final   68.40 input  -65.29 | X-H torsion
[ 10718 10713 10712 10709 ] final  -77.71 input   66.30 | X-H torsion
[ 10763 10752 10751 10750 ] final    2.45 input  -60.55 | X-H torsion
[ 11005 11000 10999 10996 ] final   78.75 input  -57.11 | X-H torsion

> <Gold.Protein.ActiveResidues>
 VAL166  LYS551  ARG553  GLY616  TRP617  ASP618  TYR619  PRO620  LYS621  CYS622 
 ASP623  PHE694  ASN695  SER759  ASP760  ASP761  ALA762  ILE779  LEU786  VAL792 
 PHE793  MET794  SER795  GLU796  ALA797  LYS798  CYS799  TRP800  GLU811  SER814 

> <Gold.Protein.RotatedAtoms>
  151.4439  133.3635  159.2785 H   0  0  0  0  0  0  0  0  0  0  0  0  # atno 6907 bound_to 6896
  150.9138  134.8557  159.7454 H   0  0  0  0  0  0  0  0  0  0  0  0  # atno 6908 bound_to 6896
  152.4946  134.4371  159.9583 H   0  0  0  0  0  0  0  0  0  0  0  0  # atno 6909 bound_to 6896
  145.2524  139.2734  143.4060 H   0  0  0  0  0  0  0  0  0  0  0  0  # atno 7974 bound_to 7965
  155.4370  140.0529  157.3013 H   0  0  0  0  0  0  0  0  0  0  0  0  # atno 8008 bound_to 7997
  154.4834  140.2091  155.9667 H   0  0  0  0  0  0  0  0  0  0  0  0  # atno 8009 bound_to 7997
  156.1240  140.3183  155.8255 H   0  0  0  0  0  0  0  0  0  0  0  0  # atno 8010 bound_to 7997
  140.0790  144.5087  150.7175 H   0  0  0  0  0  0  0  0  0  0  0  0  # atno 10167 bound_to 10162
  156.0137  130.4498  150.3387 H   0  0  0  0  0  0  0  0  0  0  0  0  # atno 10718 bound_to 10713
  153.2954  135.6952  153.7253 H   0  0  0  0  0  0  0  0  0  0  0  0  # atno 10763 bound_to 10752
  153.6188  135.3431  155.3004 H   0  0  0  0  0  0  0  0  0  0  0  0  # atno 10764 bound_to 10752
  154.8536  135.4381  154.2049 H   0  0  0  0  0  0  0  0  0  0  0  0  # atno 10765 bound_to 10752
  139.9200  134.7788  156.1689 H   0  0  0  0  0  0  0  0  0  0  0  0  # atno 11005 bound_to 11000
  146.3299  140.2918  142.8615 LP  0  0  0  0  0  0  0  0  0  0  0  0  # atno 17320 bound_to 7965
  144.9491  140.8160  143.5583 LP  0  0  0  0  0  0  0  0  0  0  0  0  # atno 17321 bound_to 7965
  140.7087  143.2488  151.4648 LP  0  0  0  0  0  0  0  0  0  0  0  0  # atno 17342 bound_to 10162
  139.5790  144.1752  152.1943 LP  0  0  0  0  0  0  0  0  0  0  0  0  # atno 17343 bound_to 10162
  157.1483  131.0314  151.2897 LP  0  0  0  0  0  0  0  0  0  0  0  0  # atno 17370 bound_to 10713
  157.4414  130.7546  149.7072 LP  0  0  0  0  0  0  0  0  0  0  0  0  # atno 17371 bound_to 10713
  141.0712  133.6796  156.2144 LP  0  0  0  0  0  0  0  0  0  0  0  0  # atno 17394 bound_to 11000
  140.6503  134.5074  157.5577 LP  0  0  0  0  0  0  0  0  0  0  0  0  # atno 17395 bound_to 11000

$$$$
