AV-unprocessed.smi:3337|AV-procd|sdf|12865|dock7
  -GOLD-   2272019263D 1   1.00000     0.00000
 Structure written by MMmdl.
 46 47  0  0  0  0  0  0  0  0  2 V2000
  144.6663  132.6889  149.8870 C   0  0  0  0  0  0  0  0  0  0  0  0
  145.6962  131.8344  150.6399 C   0  0  2  0  0  0  0  0  0  0  0  0
  145.0140  130.7140  151.4457 C   0  0  0  0  0  0  0  0  0  0  0  0
  146.0341  129.8914  152.2545 C   0  0  1  0  0  0  0  0  0  0  0  0
  146.8650  128.9372  151.3789 C   0  0  0  0  0  0  0  0  0  0  0  0
  146.9204  130.8181  153.1104 C   0  0  0  0  0  0  0  0  0  0  0  0
  147.5758  131.8696  152.2890 N   0  3  2  0  0  0  0  0  0  0  0  0
  148.5446  132.6720  153.0782 C   0  0  0  0  0  0  0  0  0  0  0  0
  147.8515  133.6805  154.0143 C   0  0  0  0  0  0  0  0  0  0  0  0
  148.7810  134.7011  154.4824 N   0  0  0  0  0  0  0  0  0  0  0  0
  149.3322  134.7363  155.7069 C   0  0  0  0  0  0  0  0  0  0  0  0
  149.0632  133.9103  156.5802 O   0  0  0  0  0  0  0  0  0  0  0  0
  150.3245  135.8817  155.9816 C   0  0  1  0  0  0  0  0  0  0  0  0
  150.3715  136.9252  154.8471 C   0  0  0  0  0  0  0  0  0  0  0  0
  150.0544  136.5108  157.2695 N   0  0  0  0  0  0  0  0  0  0  0  0
  149.8855  137.7981  157.5792 C   0  0  0  0  0  0  0  0  0  0  0  0
  149.6784  138.0186  158.8698 N   0  0  0  0  0  0  0  0  0  0  0  0
  149.7351  136.7346  159.3328 C   0  0  0  0  0  0  0  0  0  0  0  0
  149.9627  135.7932  158.4171 N   0  0  0  0  0  0  0  0  0  0  0  0
  146.5750  132.6979  151.5653 C   0  0  0  0  0  0  0  0  0  0  0  0
  143.9819  133.1859  150.5753 H   0  0  0  0  0  0  0  0  0  0  0  0
  144.0705  132.0774  149.2085 H   0  0  0  0  0  0  0  0  0  0  0  0
  145.1552  133.4593  149.2898 H   0  0  0  0  0  0  0  0  0  0  0  0
  146.3427  131.3764  149.8905 H   0  0  0  0  0  0  0  0  0  0  0  0
  144.2907  131.1556  152.1330 H   0  0  0  0  0  0  0  0  0  0  0  0
  144.4434  130.0614  150.7836 H   0  0  0  0  0  0  0  0  0  0  0  0
  145.4674  129.2594  152.9397 H   0  0  0  0  0  0  0  0  0  0  0  0
  147.4955  129.4754  150.6712 H   0  0  0  0  0  0  0  0  0  0  0  0
  146.2205  128.2684  150.8076 H   0  0  0  0  0  0  0  0  0  0  0  0
  147.5179  128.3152  151.9920 H   0  0  0  0  0  0  0  0  0  0  0  0
  146.3183  131.2968  153.8844 H   0  0  0  0  0  0  0  0  0  0  0  0
  147.6736  130.2221  153.6277 H   0  0  0  0  0  0  0  0  0  0  0  0
  149.2033  132.0088  153.6412 H   0  0  0  0  0  0  0  0  0  0  0  0
  149.1832  133.2286  152.3907 H   0  0  0  0  0  0  0  0  0  0  0  0
  147.0033  134.1493  153.5120 H   0  0  0  0  0  0  0  0  0  0  0  0
  147.4522  133.1847  154.8979 H   0  0  0  0  0  0  0  0  0  0  0  0
  149.0483  135.4159  153.8208 H   0  0  0  0  0  0  0  0  0  0  0  0
  151.3143  135.4274  156.0478 H   0  0  0  0  0  0  0  0  0  0  0  0
  150.6555  136.4671  153.8991 H   0  0  0  0  0  0  0  0  0  0  0  0
  151.1047  137.7024  155.0643 H   0  0  0  0  0  0  0  0  0  0  0  0
  149.4067  137.4136  154.7040 H   0  0  0  0  0  0  0  0  0  0  0  0
  149.9178  138.5911  156.8465 H   0  0  0  0  0  0  0  0  0  0  0  0
  149.6098  136.4870  160.3765 H   0  0  0  0  0  0  0  0  0  0  0  0
  147.0765  133.4549  150.9638 H   0  0  0  0  0  0  0  0  0  0  0  0
  145.9553  133.2317  152.2878 H   0  0  0  0  0  0  0  0  0  0  0  0
  148.1159  131.3808  151.5892 H   0  0  0  0  0  0  0  0  0  0  0  0
  1  2  1  0  0  0  0
  1 21  1  0  0  0  0
  1 22  1  0  0  0  0
  1 23  1  0  0  0  0
  2 20  1  0  0  0  0
  2  3  1  0  0  0  0
  2 24  1  0  0  0  0
  3  4  1  0  0  0  0
  3 25  1  0  0  0  0
  3 26  1  0  0  0  0
  4  5  1  0  0  0  0
  4  6  1  0  0  0  0
  4 27  1  0  0  0  0
  5 28  1  0  0  0  0
  5 29  1  0  0  0  0
  5 30  1  0  0  0  0
  6  7  1  0  0  0  0
  6 31  1  0  0  0  0
  6 32  1  0  0  0  0
  7  8  1  0  0  0  0
  7 20  1  0  0  0  0
  7 46  1  0  0  0  0
  8  9  1  0  0  0  0
  8 33  1  0  0  0  0
  8 34  1  0  0  0  0
  9 10  1  0  0  0  0
  9 35  1  0  0  0  0
  9 36  1  0  0  0  0
 10 11  1  0  0  0  0
 10 37  1  0  0  0  0
 11 12  2  0  0  0  0
 11 13  1  0  0  0  0
 13 14  1  0  0  0  0
 13 15  1  0  0  0  0
 13 38  1  0  0  0  0
 14 39  1  0  0  0  0
 14 40  1  0  0  0  0
 14 41  1  0  0  0  0
 15 19  1  0  0  0  0
 15 16  1  0  0  0  0
 16 17  2  0  0  0  0
 16 42  1  0  0  0  0
 17 18  1  0  0  0  0
 18 19  2  0  0  0  0
 18 43  1  0  0  0  0
 20 44  1  0  0  0  0
 20 45  1  0  0  0  0
M  CHG  1   7   1
M  END
> <s_m_source_file>
AV-unprocessed.smi

> <i_m_source_file_index>
3337

> <i_lp_mmshare_version>
43012

> <i_f3d_flags>
0

> <s_epik_input>
W0NIM11bQ0BASF0xW0NIMl1bQ0BASF0oW0NIM10pW0NIMl1OKFtDSDJdMSlbQ0gyXVtDSDJdW05IXUMoPU8pW0NASF0oW0NIM10pbjJbY0hdbltjSF1uMg==

> <s_epik_cmdline>
J2VwaWtfcHl0aG9uJywgJy1waCcsICc3LjAnLCAnLXRuJywgJzgnLCAnLW1hJywgJzIwMCcsICctbWV0YWxfYmluZGluZycsICctaW1hZScsICc8aW5maWxlLm1hZT4nLCAnLW9tYWUnLCAnPG91dGZpbGUubWFlPic=

> <r_lp_tautomer_probability>
1

> <r_epik_Ionization_Penalty>
0.00175613

> <r_epik_Ionization_Penalty_Charging>
0.00174812

> <r_epik_Ionization_Penalty_Neutral>
8.01354e-06

> <r_epik_State_Penalty>
0.00118332

> <r_epik_Charging_Adjusted_Penalty>
0.00293143

> <i_epik_Tot_Q>
1

> <i_epik_Tot_abs_Q>
1

> <r_epik_Metal_State_Penalty>
-0

> <b_epik_Metal_Only>
0

> <s_lp_Force_Field>
OPLS_2005

> <r_lp_Energy>
24.7209

> <b_lp_Chiralities_Consistent>
1

> <s_lp_Variant>
AV-unprocessed.smi:3337-5

> <Gold.Version>
5.8.1

> <Gold.Id.Protein>
6NUR|6NUR_protein|mol2

> <Gold.PLP.Fitness>
41.7318

> <Gold.PLP.PLP>
-33.7177

> <Gold.PLP.part.hbond>
-3.0000

> <Gold.PLP.part.metal>
0.0000

> <Gold.PLP.part.buried>
-3.9512

> <Gold.PLP.part.nonpolar>
-27.0329

> <Gold.PLP.part.repulsive>
0.0020

> <Gold.PLP.ligand.clash>
0.0000

> <Gold.PLP.ligand.torsion>
0.5463

> <Gold.PLP.Chemscore.Hbond>
2.9920

> <Gold.PLP.Chemscore.CHOScore>
0.0000

> <Gold.PLP.Chemscore.Metal>
0.0000

> <Gold.Chemscore.Hbonds>
donor molecule, donor type, donor heavy atom, donor atom, acceptor molecule, acceptor atom, score
      L1  H     7    46       P1 10747  1.00
      L1  H    10    37       P1  7948  0.82
      P1  H  6896  6909       L1    19  0.80

> <Gold.PLP.Chemscore.Internal.Correction>
0.1307

> <Gold.Rescore>
     Score         DG    S(hbond)    S(metal)    S(lipo)     H(rot)  DE(clash)    DE(int)     intcor
     14.17     -15.94       2.21        0.00      81.20       2.51       0.12       1.66       ----

> <Gold.Chemscore.Fitness>
14.1650

> <Gold.Chemscore.DG>
-15.9415

> <Gold.Chemscore.ZeroCoef>
-5.4800

> <Gold.Chemscore.Hbond>
2.2139

> <Gold.Chemscore.Metal>
0.0000

> <Gold.Chemscore.Lipo>
81.1964

> <Gold.Chemscore.Internal_Hbond>
0.0000

> <Gold.Chemscore.DEClash>
0.1214

> <Gold.Chemscore.DEInternal>
1.6550

> <Gold.Chemscore.Rot>
2.5129

> <Gold.Chemscore.Internal.Correction>
   9.000000E+99

> <Gold.Chemscore.Hbonds>
donor molecule, donor type, donor heavy atom, donor atom, acceptor molecule, acceptor atom, score
      L1  H     7    46       P1 10747  1.00
      L1  H    10    37       P1  7948  0.54
      P1  H  6896  6909       L1    19  0.11

> <Gold.Chemscore.Hbond.Weighted>
-7.3946

> <Gold.Chemscore.Metal.Weighted>
-0.0000

> <Gold.Chemscore.Lipo.Weighted>
-9.5000

> <Gold.Chemscore.Internal_Hbond.Weighted>
0.0000

> <Gold.Chemscore.DEClash.Weighted>
0.1214

> <Gold.Chemscore.DEInternal.Weighted>
1.6550

> <Gold.Chemscore.Rot.Weighted>
6.4331

> <Gold.Chemscore.Internal.Correction.Weighted>
   9.000000E+99

> <Gold.Protein.RotatedTorsions>
[ 6907 6896 6895 6894 ] final   50.53 input  -60.11 | X-H torsion
[ 7974 7965 7964 7962 ] final   92.34 input  175.53 | X-H torsion
[ 8008 7997 7996 7995 ] final  -17.54 input   59.86 | X-H torsion
[ 10167 10162 10161 10158 ] final  156.37 input  -65.29 | X-H torsion
[ 10718 10713 10712 10709 ] final  -44.69 input   66.30 | X-H torsion
[ 10763 10752 10751 10750 ] final   73.32 input  -60.55 | X-H torsion
[ 11005 11000 10999 10996 ] final    7.83 input  -57.11 | X-H torsion

> <Gold.Protein.ActiveResidues>
 VAL166  LYS551  ARG553  GLY616  TRP617  ASP618  TYR619  PRO620  LYS621  CYS622 
 ASP623  PHE694  ASN695  SER759  ASP760  ASP761  ALA762  ILE779  LEU786  VAL792 
 PHE793  MET794  SER795  GLU796  ALA797  LYS798  CYS799  TRP800  GLU811  SER814 

> <Gold.Protein.RotatedAtoms>
  152.3029  134.7590  160.0353 H   0  0  0  0  0  0  0  0  0  0  0  0  # atno 6907 bound_to 6896
  151.8097  133.3375  159.3560 H   0  0  0  0  0  0  0  0  0  0  0  0  # atno 6908 bound_to 6896
  150.7282  134.5605  159.5884 H   0  0  0  0  0  0  0  0  0  0  0  0  # atno 6909 bound_to 6896
  145.4936  139.2276  143.2816 H   0  0  0  0  0  0  0  0  0  0  0  0  # atno 7974 bound_to 7965
  154.4971  140.2140  155.9425 H   0  0  0  0  0  0  0  0  0  0  0  0  # atno 8008 bound_to 7997
  156.1384  140.3184  155.8425 H   0  0  0  0  0  0  0  0  0  0  0  0  # atno 8009 bound_to 7997
  155.4166  140.0494  157.3019 H   0  0  0  0  0  0  0  0  0  0  0  0  # atno 8010 bound_to 7997
  139.4821  144.5014  151.8162 H   0  0  0  0  0  0  0  0  0  0  0  0  # atno 10167 bound_to 10162
  156.2360  130.4176  149.8817 H   0  0  0  0  0  0  0  0  0  0  0  0  # atno 10718 bound_to 10713
  153.0514  135.5067  154.7876 H   0  0  0  0  0  0  0  0  0  0  0  0  # atno 10763 bound_to 10752
  154.6736  135.2957  154.9711 H   0  0  0  0  0  0  0  0  0  0  0  0  # atno 10764 bound_to 10752
  154.0522  135.6702  153.4854 H   0  0  0  0  0  0  0  0  0  0  0  0  # atno 10765 bound_to 10752
  140.5438  134.0348  155.7913 H   0  0  0  0  0  0  0  0  0  0  0  0  # atno 11005 bound_to 11000
  146.2269  140.5732  142.8992 LP  0  0  0  0  0  0  0  0  0  0  0  0  # atno 17320 bound_to 7965
  144.7819  140.5859  143.6599 LP  0  0  0  0  0  0  0  0  0  0  0  0  # atno 17321 bound_to 7965
  140.4508  144.1858  150.5897 LP  0  0  0  0  0  0  0  0  0  0  0  0  # atno 17342 bound_to 10162
  140.4587  143.2457  151.9250 LP  0  0  0  0  0  0  0  0  0  0  0  0  # atno 17343 bound_to 10162
  156.6415  130.8707  151.3515 LP  0  0  0  0  0  0  0  0  0  0  0  0  # atno 17370 bound_to 10713
  157.7154  130.9491  150.1238 LP  0  0  0  0  0  0  0  0  0  0  0  0  # atno 17371 bound_to 10713
  141.1211  133.9459  157.2727 LP  0  0  0  0  0  0  0  0  0  0  0  0  # atno 17394 bound_to 11000
  139.9490  135.0179  156.8938 LP  0  0  0  0  0  0  0  0  0  0  0  0  # atno 17395 bound_to 11000

$$$$
