AV-unprocessed.smi:697|AV-procd|sdf|3392|dock1
  -GOLD-   22720 0373D 1   1.00000     0.00000
 Structure written by MMmdl.
 44 45  0  0  0  0  0  0  0  0  1 V2000
  151.0603  140.5880  156.4460 C   0  0  0  0  0  0  0  0  0  0  0  0
  151.4046  139.7142  155.3788 O   0  0  0  0  0  0  0  0  0  0  0  0
  151.6842  138.3589  155.7337 C   0  0  2  0  0  0  0  0  0  0  0  0
  152.8029  138.3118  156.7863 C   0  0  0  0  0  0  0  0  0  0  0  0
  151.8161  137.4482  154.4990 C   0  0  0  0  0  0  0  0  0  0  0  0
  150.9672  136.4354  155.2641 C   0  0  2  0  0  0  0  0  0  0  0  0
  150.0457  135.7061  154.3996 N   0  0  0  0  0  0  0  0  0  0  0  0
  149.5797  134.4765  154.6562 C   0  0  0  0  0  0  0  0  0  0  0  0
  149.9126  133.8240  155.6451 O   0  0  0  0  0  0  0  0  0  0  0  0
  148.7254  134.0781  153.6958 N   0  0  0  0  0  0  0  0  0  0  0  0
  147.9817  132.8897  153.5959 C   0  0  0  0  0  0  0  0  0  0  0  0
  148.5053  131.6588  153.3552 C   0  0  0  0  0  0  0  0  0  0  0  0
  147.6750  130.4684  153.2794 C   0  0  0  0  0  0  0  0  0  0  0  0
  148.2628  129.1102  152.9288 C   0  0  0  0  0  0  0  0  0  0  0  0
  147.8012  128.6692  151.7581 F   0  0  0  0  0  0  0  0  0  0  0  0
  149.5927  129.1696  152.8584 F   0  0  0  0  0  0  0  0  0  0  0  0
  147.9369  128.2207  153.8655 F   0  0  0  0  0  0  0  0  0  0  0  0
  146.3524  130.6465  153.4535 C   0  0  0  0  0  0  0  0  0  0  0  0
  145.8088  131.9044  153.7226 N   0  0  0  0  0  0  0  0  0  0  0  0
  146.5326  133.0429  153.8072 C   0  0  0  0  0  0  0  0  0  0  0  0
  145.9772  134.1146  154.0471 O   0  0  0  0  0  0  0  0  0  0  0  0
  150.3357  137.6258  156.0311 C   0  0  0  0  0  0  0  0  0  0  0  0
  150.0000  137.3681  157.5035 C   0  0  0  0  0  0  0  0  0  0  0  0
  149.0703  138.2566  155.4146 C   0  0  0  0  0  0  0  0  0  0  0  0
  144.8093  131.9533  153.8584 H   0  0  0  0  0  0  0  0  0  0  0  0
  150.9725  141.6035  156.0598 H   0  0  0  0  0  0  0  0  0  0  0  0
  151.8197  140.5979  157.2281 H   0  0  0  0  0  0  0  0  0  0  0  0
  150.1003  140.3279  156.8910 H   0  0  0  0  0  0  0  0  0  0  0  0
  152.9461  137.3065  157.1822 H   0  0  0  0  0  0  0  0  0  0  0  0
  152.5802  138.9657  157.6295 H   0  0  0  0  0  0  0  0  0  0  0  0
  153.7638  138.6176  156.3736 H   0  0  0  0  0  0  0  0  0  0  0  0
  151.3280  137.8451  153.6068 H   0  0  0  0  0  0  0  0  0  0  0  0
  152.8311  137.1140  154.2829 H   0  0  0  0  0  0  0  0  0  0  0  0
  151.5795  135.7920  155.9002 H   0  0  0  0  0  0  0  0  0  0  0  0
  149.7299  136.1766  153.5641 H   0  0  0  0  0  0  0  0  0  0  0  0
  148.6044  134.7101  152.9175 H   0  0  0  0  0  0  0  0  0  0  0  0
  149.5661  131.5181  153.2315 H   0  0  0  0  0  0  0  0  0  0  0  0
  145.6189  129.8558  153.3962 H   0  0  0  0  0  0  0  0  0  0  0  0
  149.0800  136.7926  157.6105 H   0  0  0  0  0  0  0  0  0  0  0  0
  149.8706  138.3017  158.0516 H   0  0  0  0  0  0  0  0  0  0  0  0
  150.7818  136.8004  158.0076 H   0  0  0  0  0  0  0  0  0  0  0  0
  148.2080  137.5943  155.4975 H   0  0  0  0  0  0  0  0  0  0  0  0
  149.1952  138.4850  154.3561 H   0  0  0  0  0  0  0  0  0  0  0  0
  148.8074  139.1902  155.9128 H   0  0  0  0  0  0  0  0  0  0  0  0
  1  2  1  0  0  0  0
  1 26  1  0  0  0  0
  1 27  1  0  0  0  0
  1 28  1  0  0  0  0
  2  3  1  0  0  0  0
  3 22  1  0  0  0  0
  3  4  1  0  0  0  0
  3  5  1  0  0  0  0
  4 29  1  0  0  0  0
  4 30  1  0  0  0  0
  4 31  1  0  0  0  0
  5  6  1  0  0  0  0
  5 32  1  0  0  0  0
  5 33  1  0  0  0  0
  6  7  1  0  0  0  0
  6 22  1  0  0  0  0
  6 34  1  0  0  0  0
  7  8  1  0  0  0  0
  7 35  1  0  0  0  0
  8  9  2  0  0  0  0
  8 10  1  0  0  0  0
 10 11  1  0  0  0  0
 10 36  1  0  0  0  0
 11 20  1  0  0  0  0
 11 12  2  0  0  0  0
 12 13  1  0  0  0  0
 12 37  1  0  0  0  0
 13 14  1  0  0  0  0
 13 18  2  0  0  0  0
 14 15  1  0  0  0  0
 14 16  1  0  0  0  0
 14 17  1  0  0  0  0
 18 19  1  0  0  0  0
 18 38  1  0  0  0  0
 19 25  1  0  0  0  0
 19 20  1  0  0  0  0
 20 21  2  0  0  0  0
 22 23  1  0  0  0  0
 22 24  1  0  0  0  0
 23 39  1  0  0  0  0
 23 40  1  0  0  0  0
 23 41  1  0  0  0  0
 24 42  1  0  0  0  0
 24 43  1  0  0  0  0
 24 44  1  0  0  0  0
M  END
> <s_m_source_file>
AV-unprocessed.smi

> <i_m_source_file_index>
697

> <i_lp_mmshare_version>
43012

> <i_f3d_flags>
0

> <s_epik_input>
W0NIM11PW0NAQF0xKFtDSDNdKVtDSDJdW0NASF0oQzEoW0NIM10pW0NIM10pW05IXUMoPU8pW05IXWMyW2NIXWMoQyhGKShGKUYpW2NIXVtuSF1jMj1P

> <s_epik_cmdline>
J2VwaWtfcHl0aG9uJywgJy1waCcsICc3LjAnLCAnLXRuJywgJzgnLCAnLW1hJywgJzIwMCcsICctbWV0YWxfYmluZGluZycsICctaW1hZScsICc8aW5maWxlLm1hZT4nLCAnLW9tYWUnLCAnPG91dGZpbGUubWFlPic=

> <r_lp_tautomer_probability>
1

> <r_epik_Ionization_Penalty>
0.0036482

> <r_epik_Ionization_Penalty_Charging>
0.00362828

> <r_epik_Ionization_Penalty_Neutral>
1.99208e-05

> <r_epik_State_Penalty>
-0

> <r_epik_Charging_Adjusted_Penalty>
0.00362828

> <i_epik_Tot_Q>
0

> <i_epik_Tot_abs_Q>
0

> <r_epik_Metal_State_Penalty>
0.369362

> <b_epik_Metal_Only>
0

> <s_lp_Force_Field>
OPLS_2005

> <r_lp_Energy>
34.4916

> <b_lp_Chiralities_Consistent>
1

> <s_lp_Variant>
AV-unprocessed.smi:697-4

> <Gold.Version>
5.8.1

> <Gold.Id.Protein>
6NUR|6NUR_protein|mol2

> <Gold.PLP.Fitness>
42.9953

> <Gold.PLP.PLP>
-30.9884

> <Gold.PLP.part.hbond>
-4.3315

> <Gold.PLP.part.metal>
0.0000

> <Gold.PLP.part.buried>
-3.4960

> <Gold.PLP.part.nonpolar>
-24.2123

> <Gold.PLP.part.repulsive>
0.2185

> <Gold.PLP.ligand.clash>
0.0000

> <Gold.PLP.ligand.torsion>
1.0650

> <Gold.PLP.Chemscore.Hbond>
3.5663

> <Gold.PLP.Chemscore.CHOScore>
1.0000

> <Gold.PLP.Chemscore.Metal>
0.0000

> <Gold.Chemscore.Hbonds>
donor molecule, donor type, donor heavy atom, donor atom, acceptor molecule, acceptor atom, score
      L1  H     7    35       P1  7948  1.00
      L1  H    10    36       P1  7948  1.00
      L1  H    19    25       P1 10957  0.16
      P1  H  7989  7998       L1     2  0.54
      L1  C    18    38       P1 10956  0.50

> <Gold.PLP.Chemscore.Internal.Correction>
0.4379

> <Gold.Rescore>
     Score         DG    S(hbond)    S(metal)    S(lipo)     H(rot)  DE(clash)    DE(int)     intcor
     17.92     -18.93       2.88        0.00      61.39       1.31       0.05       0.97       ----

> <Gold.Chemscore.Fitness>
17.9171

> <Gold.Chemscore.DG>
-18.9311

> <Gold.Chemscore.ZeroCoef>
-5.4800

> <Gold.Chemscore.Hbond>
2.8780

> <Gold.Chemscore.Metal>
0.0000

> <Gold.Chemscore.Lipo>
61.3894

> <Gold.Chemscore.Internal_Hbond>
0.0000

> <Gold.Chemscore.DEClash>
0.0483

> <Gold.Chemscore.DEInternal>
0.9657

> <Gold.Chemscore.Rot>
1.3062

> <Gold.Chemscore.Internal.Correction>
   9.000000E+99

> <Gold.Chemscore.Hbonds>
donor molecule, donor type, donor heavy atom, donor atom, acceptor molecule, acceptor atom, score
      L1  H     7    35       P1  7948  0.25
      L1  H    10    36       P1  7948  0.25
      L1  H    19    25       P1 10957  0.01
      P1  H  7989  7998       L1     2  0.40

> <Gold.Chemscore.Hbond.Weighted>
-9.6126

> <Gold.Chemscore.Metal.Weighted>
-0.0000

> <Gold.Chemscore.Lipo.Weighted>
-7.1826

> <Gold.Chemscore.Internal_Hbond.Weighted>
0.0000

> <Gold.Chemscore.DEClash.Weighted>
0.0483

> <Gold.Chemscore.DEInternal.Weighted>
0.9657

> <Gold.Chemscore.Rot.Weighted>
3.3440

> <Gold.Chemscore.Internal.Correction.Weighted>
   9.000000E+99

> <Gold.Protein.RotatedTorsions>
[ 6907 6896 6895 6894 ] final   47.74 input  -60.11 | X-H torsion
[ 7974 7965 7964 7962 ] final   86.72 input  175.53 | X-H torsion
[ 8008 7997 7996 7995 ] final  -20.89 input   59.86 | X-H torsion
[ 10167 10162 10161 10158 ] final -143.33 input  -65.29 | X-H torsion
[ 10718 10713 10712 10709 ] final   19.42 input   66.30 | X-H torsion
[ 10763 10752 10751 10750 ] final  143.93 input  -60.55 | X-H torsion
[ 11005 11000 10999 10996 ] final  175.54 input  -57.11 | X-H torsion

> <Gold.Protein.ActiveResidues>
 VAL166  LYS551  ARG553  GLY616  TRP617  ASP618  TYR619  PRO620  LYS621  CYS622 
 ASP623  PHE694  ASN695  SER759  ASP760  ASP761  ALA762  ILE779  LEU786  VAL792 
 PHE793  MET794  SER795  GLU796  ALA797  LYS798  CYS799  TRP800  GLU811  SER814 

> <Gold.Protein.RotatedAtoms>
  152.2715  134.7928  160.0413 H   0  0  0  0  0  0  0  0  0  0  0  0  # atno 6907 bound_to 6896
  151.8539  133.3439  159.3690 H   0  0  0  0  0  0  0  0  0  0  0  0  # atno 6908 bound_to 6896
  150.7153  134.5200  159.5693 H   0  0  0  0  0  0  0  0  0  0  0  0  # atno 6909 bound_to 6896
  145.5685  139.2311  143.2419 H   0  0  0  0  0  0  0  0  0  0  0  0  # atno 7974 bound_to 7965
  154.4740  140.2049  155.9923 H   0  0  0  0  0  0  0  0  0  0  0  0  # atno 8008 bound_to 7997
  156.1059  140.3236  155.7975 H   0  0  0  0  0  0  0  0  0  0  0  0  # atno 8009 bound_to 7997
  155.4718  140.0532  157.2969 H   0  0  0  0  0  0  0  0  0  0  0  0  # atno 8010 bound_to 7997
  139.8004  143.7842  152.2657 H   0  0  0  0  0  0  0  0  0  0  0  0  # atno 10167 bound_to 10162
  157.1102  130.6505  149.5895 H   0  0  0  0  0  0  0  0  0  0  0  0  # atno 10718 bound_to 10713
  153.9805  135.2941  155.3420 H   0  0  0  0  0  0  0  0  0  0  0  0  # atno 10763 bound_to 10752
  154.7271  135.5084  153.8907 H   0  0  0  0  0  0  0  0  0  0  0  0  # atno 10764 bound_to 10752
  153.0856  135.6692  154.0069 H   0  0  0  0  0  0  0  0  0  0  0  0  # atno 10765 bound_to 10752
  140.3633  134.7094  157.4345 H   0  0  0  0  0  0  0  0  0  0  0  0  # atno 11005 bound_to 11000
  146.1801  140.6511  142.9193 LP  0  0  0  0  0  0  0  0  0  0  0  0  # atno 17320 bound_to 7965
  144.7449  140.5040  143.6843 LP  0  0  0  0  0  0  0  0  0  0  0  0  # atno 17321 bound_to 7965
  139.7960  144.7392  150.9890 LP  0  0  0  0  0  0  0  0  0  0  0  0  # atno 17342 bound_to 10162
  140.7820  143.4393  151.0575 LP  0  0  0  0  0  0  0  0  0  0  0  0  # atno 17343 bound_to 10162
  155.9852  130.4881  150.7021 LP  0  0  0  0  0  0  0  0  0  0  0  0  # atno 17370 bound_to 10713
  157.4566  131.0878  151.0790 LP  0  0  0  0  0  0  0  0  0  0  0  0  # atno 17371 bound_to 10713
  140.0609  134.5996  155.8750 LP  0  0  0  0  0  0  0  0  0  0  0  0  # atno 17394 bound_to 11000
  141.1977  133.6598  156.5756 LP  0  0  0  0  0  0  0  0  0  0  0  0  # atno 17395 bound_to 11000

$$$$
