#       Name:                AV-unprocessed.smi:1525
#       Creating user name   scv26
#       Creation time:       Fri Mar 27 06:28:40 2020


#       File generated by GOLD software.
#

@<TRIPOS>MOLECULE
AV-unprocessed.smi:1525
    55    57     1
SMALL
NO_CHARGES


@<TRIPOS>ATOM
      1 ****         1.5669   1.7458   0.2686 O.2            1 S1                 0.0000
      2 ****         1.0713   0.8126   0.8998 C.2            1 S1                 0.0000
      3 ****         1.7570  -0.2765   1.2755 N.am           1 S1                 0.0000
      4 ****         3.1582  -0.5410   0.9636 C.3            1 S1                 0.0000
      5 ****         3.3037  -1.4007  -0.3078 C.3            1 S1                 0.0000
      6 ****         2.8712  -0.7648  -1.5524 N.3            1 S1                 0.0000
      7 ****         3.7413   0.3377  -1.9556 C.3            1 S1                 0.0000
      8 ****         3.2660   0.9887  -3.2659 C.3            1 S1                 0.0000
      9 ****         3.1905   0.0018  -4.2899 O.3            1 S1                 0.0000
     10 ****         2.3209  -1.0743  -3.9526 C.3            1 S1                 0.0000
     11 ****         2.7948  -1.7293  -2.6434 C.3            1 S1                 0.0000
     12 ****        -0.2131   0.7304   1.2857 N.am           1 S1                 0.0000
     13 ****        -1.2854   1.6272   1.0105 C.ar           1 S1                 0.0000
     14 ****        -1.0701   3.0096   0.7856 C.ar           1 S1                 0.0000
     15 ****        -2.1648   3.8403   0.4914 C.ar           1 S1                 0.0000
     16 ****        -3.4426   3.2605   0.4359 C.ar           1 S1                 0.0000
     17 ****        -3.6682   1.9524   0.6691 N.ar           1 S1                 0.0000
     18 ****        -2.6242   1.1407   0.9686 C.ar           1 S1                 0.0000
     19 ****        -2.9257  -0.2164   1.2272 N.3            1 S1                 0.0000
     20 ****        -2.5182  -0.7746   2.5131 C.3            1 S1                 0.0000
     21 ****        -3.6288  -1.7414   2.9378 C.3            1 S1                 0.0000
     22 ****        -4.3311  -2.0813   1.6272 C.3            1 S1                 0.0000
     23 ****        -4.2216  -0.7722   0.8512 C.3            1 S1                 0.0000
     24 ****         1.2651  -0.9922   1.7898 H              1 S1                 0.0000
     25 ****         3.7336   0.3829   0.8993 H              1 S1                 0.0000
     26 ****         3.5775  -1.0888   1.8077 H              1 S1                 0.0000
     27 ****         4.3425  -1.7187  -0.4069 H              1 S1                 0.0000
     28 ****         2.7290  -2.3156  -0.1562 H              1 S1                 0.0000
     29 ****         3.7747   1.1018  -1.1802 H              1 S1                 0.0000
     30 ****         4.7632  -0.0233  -2.0814 H              1 S1                 0.0000
     31 ****         2.2906   1.4589  -3.1305 H              1 S1                 0.0000
     32 ****         3.9592   1.7714  -3.5742 H              1 S1                 0.0000
     33 ****         1.2983  -0.7072  -3.8522 H              1 S1                 0.0000
     34 ****         2.3224  -1.8022  -4.7640 H              1 S1                 0.0000
     35 ****         3.7721  -2.1880  -2.8018 H              1 S1                 0.0000
     36 ****         2.1102  -2.5357  -2.3779 H              1 S1                 0.0000
     37 ****        -0.4838  -0.1353   1.7285 H              1 S1                 0.0000
     38 ****        -0.0872   3.4509   0.8399 H              1 S1                 0.0000
     39 ****        -2.0265   4.8960   0.3099 H              1 S1                 0.0000
     40 ****        -4.3084   3.8635   0.2065 H              1 S1                 0.0000
     41 ****        -1.5844  -1.3205   2.3779 H              1 S1                 0.0000
     42 ****        -2.3536  -0.0013   3.2647 H              1 S1                 0.0000
     43 ****        -3.2491  -2.6204   3.4587 H              1 S1                 0.0000
     44 ****        -4.3258  -1.2304   3.6034 H              1 S1                 0.0000
     45 ****        -3.7878  -2.8713   1.1070 H              1 S1                 0.0000
     46 ****        -5.3617  -2.4096   1.7649 H              1 S1                 0.0000
     47 ****        -5.0327  -0.1069   1.1501 H              1 S1                 0.0000
     48 ****        -4.2873  -0.9329  -0.2251 H              1 S1                 0.0000
     49 ****         2.5320   1.7167   0.0083 LP             1 S1                 0.0000
     50 ****         1.0045   2.5331   0.0160 LP             1 S1                 0.0000
     51 ****         1.9616  -0.3944  -1.3643 LP             1 S1                 0.0000
     52 ****         4.1071  -0.3652  -4.4488 LP             1 S1                 0.0000
     53 ****         2.8549   0.4341  -5.1269 LP             1 S1                 0.0000
     54 ****        -4.5966   1.5840   0.6217 LP             1 S1                 0.0000
     55 ****        -2.2913  -0.5315   0.5212 LP             1 S1                 0.0000
@<TRIPOS>BOND
    1    1    2 2     
    2    2    3 am    
    3    2   12 am    
    4    3    4 1     
    5    3   24 1     
    6    4    5 1     
    7    4   25 1     
    8    4   26 1     
    9    5    6 1     
   10    5   27 1     
   11    5   28 1     
   12    6   11 1     
   13    6    7 1     
   14    7    8 1     
   15    7   29 1     
   16    7   30 1     
   17    8    9 1     
   18    8   31 1     
   19    8   32 1     
   20    9   10 1     
   21   10   11 1     
   22   10   33 1     
   23   10   34 1     
   24   11   35 1     
   25   11   36 1     
   26   12   13 1     
   27   12   37 1     
   28   13   18 ar    
   29   13   14 ar    
   30   14   15 ar    
   31   14   38 1     
   32   15   16 ar    
   33   15   39 1     
   34   16   17 ar    
   35   16   40 1     
   36   17   18 ar    
   37   18   19 1     
   38   19   23 1     
   39   19   20 1     
   40   20   21 1     
   41   20   41 1     
   42   20   42 1     
   43   21   22 1     
   44   21   43 1     
   45   21   44 1     
   46   22   23 1     
   47   22   45 1     
   48   22   46 1     
   49   23   47 1     
   50   23   48 1     
   51    1   49 1     
   52    1   50 1     
   53    6   51 1     
   54    9   52 1     
   55    9   53 1     
   56   17   54 1     
   57   19   55 1     
@<TRIPOS>SUBSTRUCTURE
      1 S1             1
@<TRIPOS>SET
LONE_PAIRS      STATIC     ATOMS    <user>   **** ""
7 49 50 51 52 53 54 55
DONOR_HYDROGENS      STATIC     ATOMS    <user>   **** ""
2 24 37
ATOM$BLUE        STATIC     ATOMS    COLORGROUP SYSTEM
7 49 50 51 52 53 54 55
ATOM$RED        STATIC     ATOMS    COLORGROUP SYSTEM
2 24 37
