AV-unprocessed.smi:3002|AV-procd|sdf|11436|dock4
  -GOLD-   2272016363D 1   1.00000     0.00000
 Structure written by MMmdl.
 34 35  0  0  0  0  0  0  0  0  1 V2000
  146.4409  136.7347  159.0698 C   0  0  0  0  0  0  0  0  0  0  0  0
  147.4642  135.7536  159.6773 C   0  0  1  0  0  0  0  0  0  0  0  0
  148.8825  135.9688  159.1280 C   0  0  0  0  0  0  0  0  0  0  0  0
  149.4344  135.0985  158.4537 O   0  0  0  0  0  0  0  0  0  0  0  0
  149.4652  137.1397  159.4298 N   0  0  0  0  0  0  0  0  0  0  0  0
  150.8100  137.5359  159.0259 C   0  0  0  0  0  0  0  0  0  0  0  0
  150.7914  138.6510  157.9617 C   0  0  1  0  0  0  0  0  0  0  0  0
  151.7832  139.7864  158.2798 C   0  0  0  0  0  0  0  0  0  0  0  0
  151.8889  140.6987  157.0537 C   0  0  0  0  0  0  0  0  0  0  0  0
  151.7077  139.5964  155.6024 S   0  0  0  0  0  0  0  0  0  0  0  0
  150.6359  140.1135  154.7381 O   0  0  0  0  0  0  0  0  0  0  0  0
  153.0361  139.2807  155.0560 O   0  0  0  0  0  0  0  0  0  0  0  0
  151.0931  138.1464  156.5399 C   0  0  0  0  0  0  0  0  0  0  0  0
  147.4776  135.7961  161.1341 N   0  0  0  0  0  0  0  0  0  0  0  0
  147.2916  134.8163  162.0216 C   0  0  0  0  0  0  0  0  0  0  0  0
  147.4201  135.2003  163.2839 N   0  0  0  0  0  0  0  0  0  0  0  0
  147.7199  136.5191  163.0911 C   0  0  0  0  0  0  0  0  0  0  0  0
  147.7790  136.9252  161.8231 N   0  0  0  0  0  0  0  0  0  0  0  0
  146.4145  136.6499  157.9829 H   0  0  0  0  0  0  0  0  0  0  0  0
  146.6706  137.7726  159.3136 H   0  0  0  0  0  0  0  0  0  0  0  0
  145.4362  136.5243  159.4376 H   0  0  0  0  0  0  0  0  0  0  0  0
  147.1510  134.7480  159.3912 H   0  0  0  0  0  0  0  0  0  0  0  0
  148.9439  137.7999  159.9882 H   0  0  0  0  0  0  0  0  0  0  0  0
  151.3800  137.8545  159.9004 H   0  0  0  0  0  0  0  0  0  0  0  0
  151.3162  136.6531  158.6344 H   0  0  0  0  0  0  0  0  0  0  0  0
  149.7965  139.0983  157.9431 H   0  0  0  0  0  0  0  0  0  0  0  0
  151.4860  140.3460  159.1672 H   0  0  0  0  0  0  0  0  0  0  0  0
  152.7653  139.3590  158.4866 H   0  0  0  0  0  0  0  0  0  0  0  0
  151.0696  141.4178  157.0354 H   0  0  0  0  0  0  0  0  0  0  0  0
  152.8327  141.2418  157.0023 H   0  0  0  0  0  0  0  0  0  0  0  0
  151.8839  137.3960  156.5475 H   0  0  0  0  0  0  0  0  0  0  0  0
  150.2184  137.7243  156.0446 H   0  0  0  0  0  0  0  0  0  0  0  0
  147.0605  133.7999  161.7383 H   0  0  0  0  0  0  0  0  0  0  0  0
  147.9070  137.1987  163.9095 H   0  0  0  0  0  0  0  0  0  0  0  0
  1  2  1  0  0  0  0
  1 19  1  0  0  0  0
  1 20  1  0  0  0  0
  1 21  1  0  0  0  0
  2  3  1  0  0  0  0
  2 14  1  0  0  0  0
  2 22  1  0  0  0  0
  3  4  2  0  0  0  0
  3  5  1  0  0  0  0
  5  6  1  0  0  0  0
  5 23  1  0  0  0  0
  6  7  1  0  0  0  0
  6 24  1  0  0  0  0
  6 25  1  0  0  0  0
  7 13  1  0  0  0  0
  7  8  1  0  0  0  0
  7 26  1  0  0  0  0
  8  9  1  0  0  0  0
  8 27  1  0  0  0  0
  8 28  1  0  0  0  0
  9 10  1  0  0  0  0
  9 29  1  0  0  0  0
  9 30  1  0  0  0  0
 10 11  2  0  0  0  0
 10 12  2  0  0  0  0
 10 13  1  0  0  0  0
 13 31  1  0  0  0  0
 13 32  1  0  0  0  0
 14 18  1  0  0  0  0
 14 15  1  0  0  0  0
 15 16  2  0  0  0  0
 15 33  1  0  0  0  0
 16 17  1  0  0  0  0
 17 18  2  0  0  0  0
 17 34  1  0  0  0  0
M  END
> <s_m_source_file>
AV-unprocessed.smi

> <i_m_source_file_index>
3002

> <i_lp_mmshare_version>
43012

> <i_f3d_flags>
0

> <s_epik_input>
bjFbY0hdbltjSF1uMVtDQEhdKFtDSDNdKUMoPU8pW05IXVtDSDJdW0NAQEhdKFtDSDJdMilbQ0gyXVtDSDJdUzIoPU8pPU8=

> <s_epik_cmdline>
J2VwaWtfcHl0aG9uJywgJy1waCcsICc3LjAnLCAnLXRuJywgJzgnLCAnLW1hJywgJzIwMCcsICctbWV0YWxfYmluZGluZycsICctaW1hZScsICc8aW5maWxlLm1hZT4nLCAnLW9tYWUnLCAnPG91dGZpbGUubWFlPic=

> <r_lp_tautomer_probability>
1

> <r_epik_Ionization_Penalty>
1.1748e-05

> <r_epik_Ionization_Penalty_Charging>
0

> <r_epik_Ionization_Penalty_Neutral>
1.1748e-05

> <r_epik_State_Penalty>
-0

> <r_epik_Charging_Adjusted_Penalty>
0

> <i_epik_Tot_Q>
0

> <i_epik_Tot_abs_Q>
0

> <r_epik_Metal_State_Penalty>
-0

> <b_epik_Metal_Only>
0

> <s_lp_Force_Field>
OPLS_2005

> <r_lp_Energy>
7.1985

> <b_lp_Chiralities_Consistent>
1

> <s_lp_Variant>
AV-unprocessed.smi:3002-4

> <Gold.Version>
5.8.1

> <Gold.Id.Protein>
6NUR|6NUR_protein|mol2

> <Gold.PLP.Fitness>
42.7775

> <Gold.PLP.PLP>
-31.4405

> <Gold.PLP.part.hbond>
-5.1372

> <Gold.PLP.part.metal>
0.0000

> <Gold.PLP.part.buried>
-6.8722

> <Gold.PLP.part.nonpolar>
-19.5306

> <Gold.PLP.part.repulsive>
0.3191

> <Gold.PLP.ligand.clash>
0.0000

> <Gold.PLP.ligand.torsion>
0.7860

> <Gold.PLP.Chemscore.Hbond>
4.2683

> <Gold.PLP.Chemscore.CHOScore>
0.0000

> <Gold.PLP.Chemscore.Metal>
0.0000

> <Gold.Chemscore.Hbonds>
donor molecule, donor type, donor heavy atom, donor atom, acceptor molecule, acceptor atom, score
      P1  H  6896  6907       L1     4  1.00
      P1  H  6931  6943       L1    18  1.00
      P1  H  6934  6947       L1    18  0.15
      P1  H  7989  7998       L1    11  0.95
      P1  H  7997  8010       L1    12  1.00

> <Gold.PLP.Chemscore.Internal.Correction>
0.1040

> <Gold.Rescore>
     Score         DG    S(hbond)    S(metal)    S(lipo)     H(rot)  DE(clash)    DE(int)     intcor
     13.40     -15.38       3.87        0.00      26.52       2.39       0.06       1.91       ----

> <Gold.Chemscore.Fitness>
13.4044

> <Gold.Chemscore.DG>
-15.3768

> <Gold.Chemscore.ZeroCoef>
-5.4800

> <Gold.Chemscore.Hbond>
3.8694

> <Gold.Chemscore.Metal>
0.0000

> <Gold.Chemscore.Lipo>
26.5236

> <Gold.Chemscore.Internal_Hbond>
0.0000

> <Gold.Chemscore.DEClash>
0.0575

> <Gold.Chemscore.DEInternal>
1.9150

> <Gold.Chemscore.Rot>
2.3946

> <Gold.Chemscore.Internal.Correction>
   9.000000E+99

> <Gold.Chemscore.Hbonds>
donor molecule, donor type, donor heavy atom, donor atom, acceptor molecule, acceptor atom, score
      P1  H  6896  6907       L1     4  0.60
      P1  H  6931  6943       L1    18  0.30
      P1  H  6934  6947       L1    18  0.14
      P1  H  7989  7998       L1    11  0.22
      P1  H  7997  8010       L1    12  0.95

> <Gold.Chemscore.Hbond.Weighted>
-12.9237

> <Gold.Chemscore.Metal.Weighted>
-0.0000

> <Gold.Chemscore.Lipo.Weighted>
-3.1033

> <Gold.Chemscore.Internal_Hbond.Weighted>
0.0000

> <Gold.Chemscore.DEClash.Weighted>
0.0575

> <Gold.Chemscore.DEInternal.Weighted>
1.9150

> <Gold.Chemscore.Rot.Weighted>
6.1301

> <Gold.Chemscore.Internal.Correction.Weighted>
   9.000000E+99

> <Gold.Protein.RotatedTorsions>
[ 6907 6896 6895 6894 ] final  -84.52 input  -60.11 | X-H torsion
[ 7974 7965 7964 7962 ] final   53.58 input  175.53 | X-H torsion
[ 8008 7997 7996 7995 ] final  113.65 input   59.86 | X-H torsion
[ 10167 10162 10161 10158 ] final  135.85 input  -65.29 | X-H torsion
[ 10718 10713 10712 10709 ] final  141.79 input   66.30 | X-H torsion
[ 10763 10752 10751 10750 ] final  101.90 input  -60.55 | X-H torsion
[ 11005 11000 10999 10996 ] final   38.45 input  -57.11 | X-H torsion

> <Gold.Protein.ActiveResidues>
 VAL166  LYS551  ARG553  GLY616  TRP617  ASP618  TYR619  PRO620  LYS621  CYS622 
 ASP623  PHE694  ASN695  SER759  ASP760  ASP761  ALA762  ILE779  LEU786  VAL792 
 PHE793  MET794  SER795  GLU796  ALA797  LYS798  CYS799  TRP800  GLU811  SER814 

> <Gold.Protein.RotatedAtoms>
  150.6876  134.3345  159.4841 H   0  0  0  0  0  0  0  0  0  0  0  0  # atno 6907 bound_to 6896
  152.1206  134.9206  160.0572 H   0  0  0  0  0  0  0  0  0  0  0  0  # atno 6908 bound_to 6896
  152.0413  133.3944  159.4375 H   0  0  0  0  0  0  0  0  0  0  0  0  # atno 6909 bound_to 6896
  145.9697  139.4137  143.0198 H   0  0  0  0  0  0  0  0  0  0  0  0  # atno 7974 bound_to 7965
  156.2272  140.2975  156.0096 H   0  0  0  0  0  0  0  0  0  0  0  0  # atno 8008 bound_to 7997
  155.2325  140.0419  157.2981 H   0  0  0  0  0  0  0  0  0  0  0  0  # atno 8009 bound_to 7997
  154.5934  140.2407  155.7897 H   0  0  0  0  0  0  0  0  0  0  0  0  # atno 8010 bound_to 7997
  139.5202  144.6496  151.5342 H   0  0  0  0  0  0  0  0  0  0  0  0  # atno 10167 bound_to 10162
  157.3879  131.1001  151.0675 H   0  0  0  0  0  0  0  0  0  0  0  0  # atno 10718 bound_to 10713
  153.3326  135.4029  155.1507 H   0  0  0  0  0  0  0  0  0  0  0  0  # atno 10763 bound_to 10752
  154.8626  135.3614  154.5451 H   0  0  0  0  0  0  0  0  0  0  0  0  # atno 10764 bound_to 10752
  153.5890  135.7074  153.5490 H   0  0  0  0  0  0  0  0  0  0  0  0  # atno 10765 bound_to 10752
  140.2125  134.3738  155.8042 H   0  0  0  0  0  0  0  0  0  0  0  0  # atno 11005 bound_to 11000
  145.7924  140.9808  143.1042 LP  0  0  0  0  0  0  0  0  0  0  0  0  # atno 17320 bound_to 7965
  144.6834  139.9698  143.7482 LP  0  0  0  0  0  0  0  0  0  0  0  0  # atno 17321 bound_to 7965
  140.6295  143.9104  150.6593 LP  0  0  0  0  0  0  0  0  0  0  0  0  # atno 17342 bound_to 10162
  140.2404  143.3668  152.1492 LP  0  0  0  0  0  0  0  0  0  0  0  0  # atno 17343 bound_to 10162
  157.1719  130.6271  149.5643 LP  0  0  0  0  0  0  0  0  0  0  0  0  # atno 17370 bound_to 10713
  155.9791  130.4782  150.6696 LP  0  0  0  0  0  0  0  0  0  0  0  0  # atno 17371 bound_to 10713
  141.2226  133.7151  156.8442 LP  0  0  0  0  0  0  0  0  0  0  0  0  # atno 17394 bound_to 11000
  140.1935  134.8948  157.3088 LP  0  0  0  0  0  0  0  0  0  0  0  0  # atno 17395 bound_to 11000

$$$$
