AV-unprocessed.smi:115|AV-procd|sdf|1124|dock7
  -GOLD-   2262018253D 1   1.00000     0.00000
 Structure written by MMmdl.
 55 57  0  0  0  0  0  0  0  0  1 V2000
  144.7211  135.6169  151.6677 C   0  0  0  0  0  0  0  0  0  0  0  0
  144.8301  136.1240  152.9865 O   0  0  0  0  0  0  0  0  0  0  0  0
  146.1748  136.1978  153.4331 C   0  0  0  0  0  0  0  0  0  0  0  0
  146.2998  137.3315  154.4717 C   0  0  1  0  0  0  0  0  0  0  0  0
  145.7322  136.9730  155.8559 C   0  0  0  0  0  0  0  0  0  0  0  0
  147.6557  137.8979  154.5629 N   0  0  0  0  0  0  0  0  0  0  0  0
  147.9712  139.2144  154.2290 C   0  0  0  0  0  0  0  0  0  0  0  0
  146.9636  140.2093  153.7446 C   0  0  0  0  0  0  0  0  0  0  0  0
  149.3091  139.3868  154.4176 C   0  0  0  0  0  0  0  0  0  0  0  0
  149.8595  138.1696  154.8989 C   0  0  0  0  0  0  0  0  0  0  0  0
  151.2820  137.8756  155.2115 C   0  0  0  0  0  0  0  0  0  0  0  0
  151.7265  136.7329  155.3299 O   0  0  0  0  0  0  0  0  0  0  0  0
  152.1998  139.1026  155.3690 C   0  0  0  0  0  0  0  0  0  0  0  0
  152.2030  139.6417  156.7240 N   0  0  0  0  0  0  0  0  0  0  0  0
  152.7994  138.8580  157.7426 C   0  0  0  0  0  0  0  0  0  0  0  0
  153.3179  137.7645  157.5098 O   0  0  0  0  0  0  0  0  0  0  0  0
  152.7464  139.4542  159.0719 C   0  0  0  0  0  0  0  0  0  0  0  0
  153.2254  138.7715  160.1259 F   0  0  0  0  0  0  0  0  0  0  0  0
  152.2073  140.6767  159.2671 C   0  0  0  0  0  0  0  0  0  0  0  0
  151.6970  141.4564  158.2415 N   0  0  0  0  0  0  0  0  0  0  0  0
  151.0210  142.7842  158.5169 C   0  0  2  0  0  0  0  0  0  0  0  0
  151.6103  143.9656  157.7258 C   0  0  0  0  0  0  0  0  0  0  0  0
  152.3919  144.7118  158.7899 C   0  0  0  0  0  0  0  0  0  0  0  0
  151.5753  144.4112  160.0406 C   0  0  0  0  0  0  0  0  0  0  0  0
  151.1725  143.0576  159.8779 O   0  0  0  0  0  0  0  0  0  0  0  0
  151.6360  140.9229  156.9333 C   0  0  0  0  0  0  0  0  0  0  0  0
  151.1204  141.5593  156.0113 O   0  0  0  0  0  0  0  0  0  0  0  0
  148.8245  137.2689  155.0204 C   0  0  0  0  0  0  0  0  0  0  0  0
  148.8371  135.8535  155.5287 C   0  0  0  0  0  0  0  0  0  0  0  0
  143.6715  135.5748  151.3773 H   0  0  0  0  0  0  0  0  0  0  0  0
  145.1309  134.6084  151.5968 H   0  0  0  0  0  0  0  0  0  0  0  0
  145.2419  136.2576  150.9548 H   0  0  0  0  0  0  0  0  0  0  0  0
  146.4658  135.2335  153.8471 H   0  0  0  0  0  0  0  0  0  0  0  0
  146.8240  136.4026  152.5798 H   0  0  0  0  0  0  0  0  0  0  0  0
  145.6538  138.1165  154.0827 H   0  0  0  0  0  0  0  0  0  0  0  0
  144.6899  136.6625  155.7785 H   0  0  0  0  0  0  0  0  0  0  0  0
  145.7658  137.8347  156.5231 H   0  0  0  0  0  0  0  0  0  0  0  0
  146.2764  136.1637  156.3383 H   0  0  0  0  0  0  0  0  0  0  0  0
  147.4137  141.1965  153.6384 H   0  0  0  0  0  0  0  0  0  0  0  0
  146.1330  140.3001  154.4453 H   0  0  0  0  0  0  0  0  0  0  0  0
  146.5658  139.9215  152.7711 H   0  0  0  0  0  0  0  0  0  0  0  0
  149.8420  140.3054  154.2200 H   0  0  0  0  0  0  0  0  0  0  0  0
  153.2271  138.8598  155.0942 H   0  0  0  0  0  0  0  0  0  0  0  0
  151.9020  139.9032  154.6899 H   0  0  0  0  0  0  0  0  0  0  0  0
  152.1787  141.0429  160.2808 H   0  0  0  0  0  0  0  0  0  0  0  0
  149.9684  142.6516  158.2633 H   0  0  0  0  0  0  0  0  0  0  0  0
  152.1921  143.6594  156.8564 H   0  0  0  0  0  0  0  0  0  0  0  0
  150.7830  144.5837  157.3744 H   0  0  0  0  0  0  0  0  0  0  0  0
  153.3970  144.3023  158.8916 H   0  0  0  0  0  0  0  0  0  0  0  0
  152.4789  145.7792  158.5851 H   0  0  0  0  0  0  0  0  0  0  0  0
  152.1429  144.5537  160.9604 H   0  0  0  0  0  0  0  0  0  0  0  0
  150.6889  145.0460  160.0829 H   0  0  0  0  0  0  0  0  0  0  0  0
  149.6131  135.7029  156.2776 H   0  0  0  0  0  0  0  0  0  0  0  0
  149.0151  135.1507  154.7146 H   0  0  0  0  0  0  0  0  0  0  0  0
  147.9095  135.5797  156.0225 H   0  0  0  0  0  0  0  0  0  0  0  0
  1  2  1  0  0  0  0
  1 30  1  0  0  0  0
  1 31  1  0  0  0  0
  1 32  1  0  0  0  0
  2  3  1  0  0  0  0
  3  4  1  0  0  0  0
  3 33  1  0  0  0  0
  3 34  1  0  0  0  0
  4  5  1  0  0  0  0
  4  6  1  0  0  0  0
  4 35  1  0  0  0  0
  5 36  1  0  0  0  0
  5 37  1  0  0  0  0
  5 38  1  0  0  0  0
  6 28  1  0  0  0  0
  6  7  1  0  0  0  0
  7  8  1  0  0  0  0
  7  9  2  0  0  0  0
  8 39  1  0  0  0  0
  8 40  1  0  0  0  0
  8 41  1  0  0  0  0
  9 10  1  0  0  0  0
  9 42  1  0  0  0  0
 10 11  1  0  0  0  0
 10 28  2  0  0  0  0
 11 12  2  0  0  0  0
 11 13  1  0  0  0  0
 13 14  1  0  0  0  0
 13 43  1  0  0  0  0
 13 44  1  0  0  0  0
 14 26  1  0  0  0  0
 14 15  1  0  0  0  0
 15 16  2  0  0  0  0
 15 17  1  0  0  0  0
 17 18  1  0  0  0  0
 17 19  2  0  0  0  0
 19 20  1  0  0  0  0
 19 45  1  0  0  0  0
 20 21  1  0  0  0  0
 20 26  1  0  0  0  0
 21 25  1  0  0  0  0
 21 22  1  0  0  0  0
 21 46  1  0  0  0  0
 22 23  1  0  0  0  0
 22 47  1  0  0  0  0
 22 48  1  0  0  0  0
 23 24  1  0  0  0  0
 23 49  1  0  0  0  0
 23 50  1  0  0  0  0
 24 25  1  0  0  0  0
 24 51  1  0  0  0  0
 24 52  1  0  0  0  0
 26 27  2  0  0  0  0
 28 29  1  0  0  0  0
 29 53  1  0  0  0  0
 29 54  1  0  0  0  0
 29 55  1  0  0  0  0
M  END
> <s_m_source_file>
AV-unprocessed.smi

> <i_m_source_file_index>
115

> <i_lp_mmshare_version>
43012

> <i_f3d_flags>
0

> <s_epik_input>
W0NIM11PW0NIMl1bQ0BIXShbQ0gzXSluMWMoW0NIM10pW2NIXWMoYzFbQ0gzXSlDKD1PKVtDSDJdbjJjKD1PKWMoRilbY0hdbihjMj1PKVtDQEBIXTNbQ0gyXVtDSDJdW0NIMl1PMw==

> <s_epik_cmdline>
J2VwaWtfcHl0aG9uJywgJy1waCcsICc3LjAnLCAnLXRuJywgJzgnLCAnLW1hJywgJzIwMCcsICctbWV0YWxfYmluZGluZycsICctaW1hZScsICc8aW5maWxlLm1hZT4nLCAnLW9tYWUnLCAnPG91dGZpbGUubWFlPic=

> <r_lp_tautomer_probability>
1

> <r_epik_Ionization_Penalty>
5.02611e-09

> <r_epik_Ionization_Penalty_Charging>
5.01743e-09

> <r_epik_Ionization_Penalty_Neutral>
8.68114e-12

> <r_epik_State_Penalty>
-0

> <r_epik_Charging_Adjusted_Penalty>
5.01743e-09

> <i_epik_Tot_Q>
0

> <i_epik_Tot_abs_Q>
0

> <r_epik_Metal_State_Penalty>
-0

> <b_epik_Metal_Only>
0

> <s_epik_Chemistry_Notes>
This compound contains an acetal/aminal-like group ( X-CH(R)-Y where X, Y are N, S, or O) that may be acid/base labile, releasing an aldehyde.

> <s_lp_Force_Field>
OPLS_2005

> <r_lp_Energy>
46.8154

> <b_lp_Chiralities_Consistent>
1

> <s_lp_Variant>
AV-unprocessed.smi:115-2

> <Gold.Version>
5.8.1

> <Gold.Id.Protein>
6NUR|6NUR_protein|mol2

> <Gold.PLP.Fitness>
45.8741

> <Gold.PLP.PLP>
-44.5032

> <Gold.PLP.part.hbond>
-1.8765

> <Gold.PLP.part.metal>
0.0000

> <Gold.PLP.part.buried>
-4.5176

> <Gold.PLP.part.nonpolar>
-38.2177

> <Gold.PLP.part.repulsive>
0.2722

> <Gold.PLP.ligand.clash>
0.0000

> <Gold.PLP.ligand.torsion>
1.0216

> <Gold.PLP.Chemscore.Hbond>
1.0000

> <Gold.PLP.Chemscore.CHOScore>
0.0000

> <Gold.PLP.Chemscore.Metal>
0.0000

> <Gold.Chemscore.Hbonds>
donor molecule, donor type, donor heavy atom, donor atom, acceptor molecule, acceptor atom, score
      P1  H 10752 10764       L1    12  1.00

> <Gold.PLP.Chemscore.Internal.Correction>
0.4142

> <Gold.Rescore>
     Score         DG    S(hbond)    S(metal)    S(lipo)     H(rot)  DE(clash)    DE(int)     intcor
     11.19     -14.48       1.01        0.00      96.13       2.19       0.02       3.26       ----

> <Gold.Chemscore.Fitness>
11.1875

> <Gold.Chemscore.DG>
-14.4752

> <Gold.Chemscore.ZeroCoef>
-5.4800

> <Gold.Chemscore.Hbond>
1.0070

> <Gold.Chemscore.Metal>
0.0000

> <Gold.Chemscore.Lipo>
96.1346

> <Gold.Chemscore.Internal_Hbond>
0.0000

> <Gold.Chemscore.DEClash>
0.0242

> <Gold.Chemscore.DEInternal>
3.2635

> <Gold.Chemscore.Rot>
2.1938

> <Gold.Chemscore.Internal.Correction>
   9.000000E+99

> <Gold.Chemscore.Hbonds>
donor molecule, donor type, donor heavy atom, donor atom, acceptor molecule, acceptor atom, score
      P1  H 10752 10764       L1    12  0.99

> <Gold.Chemscore.Hbond.Weighted>
-3.3635

> <Gold.Chemscore.Metal.Weighted>
-0.0000

> <Gold.Chemscore.Lipo.Weighted>
-11.2478

> <Gold.Chemscore.Internal_Hbond.Weighted>
0.0000

> <Gold.Chemscore.DEClash.Weighted>
0.0242

> <Gold.Chemscore.DEInternal.Weighted>
3.2635

> <Gold.Chemscore.Rot.Weighted>
5.6160

> <Gold.Chemscore.Internal.Correction.Weighted>
   9.000000E+99

> <Gold.Protein.RotatedTorsions>
[ 6907 6896 6895 6894 ] final -163.24 input  -60.11 | X-H torsion
[ 7974 7965 7964 7962 ] final  -73.15 input  175.53 | X-H torsion
[ 8008 7997 7996 7995 ] final   25.07 input   59.86 | X-H torsion
[ 10167 10162 10161 10158 ] final -110.20 input  -65.29 | X-H torsion
[ 10718 10713 10712 10709 ] final   65.14 input   66.30 | X-H torsion
[ 10763 10752 10751 10750 ] final  -62.69 input  -60.55 | X-H torsion
[ 11005 11000 10999 10996 ] final -162.36 input  -57.11 | X-H torsion

> <Gold.Protein.ActiveResidues>
 VAL166  LYS551  ARG553  GLY616  TRP617  ASP618  TYR619  PRO620  LYS621  CYS622 
 ASP623  PHE694  ASN695  SER759  ASP760  ASP761  ALA762  ILE779  LEU786  VAL792 
 PHE793  MET794  SER795  GLU796  ALA797  LYS798  CYS799  TRP800  GLU811  SER814 

> <Gold.Protein.RotatedAtoms>
  151.3929  133.3783  159.2722 H   0  0  0  0  0  0  0  0  0  0  0  0  # atno 6907 bound_to 6896
  150.9491  134.8894  159.7671 H   0  0  0  0  0  0  0  0  0  0  0  0  # atno 6908 bound_to 6896
  152.5104  134.3883  159.9427 H   0  0  0  0  0  0  0  0  0  0  0  0  # atno 6909 bound_to 6896
  145.6559  140.9268  143.0959 H   0  0  0  0  0  0  0  0  0  0  0  0  # atno 7974 bound_to 7965
  155.0060  140.3131  155.4848 H   0  0  0  0  0  0  0  0  0  0  0  0  # atno 8008 bound_to 7997
  156.2917  140.2223  156.5113 H   0  0  0  0  0  0  0  0  0  0  0  0  # atno 8009 bound_to 7997
  154.7577  140.0461  157.0935 H   0  0  0  0  0  0  0  0  0  0  0  0  # atno 8010 bound_to 7997
  140.1471  143.4230  152.1521 H   0  0  0  0  0  0  0  0  0  0  0  0  # atno 10167 bound_to 10162
  157.6086  130.9198  149.9938 H   0  0  0  0  0  0  0  0  0  0  0  0  # atno 10718 bound_to 10713
  154.3037  135.6229  153.5435 H   0  0  0  0  0  0  0  0  0  0  0  0  # atno 10763 bound_to 10752
  152.9837  135.5684  154.5256 H   0  0  0  0  0  0  0  0  0  0  0  0  # atno 10764 bound_to 10752
  154.4891  135.2866  155.1487 H   0  0  0  0  0  0  0  0  0  0  0  0  # atno 10765 bound_to 10752
  140.6101  134.4858  157.5214 H   0  0  0  0  0  0  0  0  0  0  0  0  # atno 11005 bound_to 11000
  144.7106  139.8387  143.7416 LP  0  0  0  0  0  0  0  0  0  0  0  0  # atno 17320 bound_to 7965
  146.1165  139.4177  143.0255 LP  0  0  0  0  0  0  0  0  0  0  0  0  # atno 17321 bound_to 7965
  139.5444  144.7285  151.4631 LP  0  0  0  0  0  0  0  0  0  0  0  0  # atno 17342 bound_to 10162
  140.6725  143.8262  150.7017 LP  0  0  0  0  0  0  0  0  0  0  0  0  # atno 17343 bound_to 10162
  156.1181  130.3647  149.9934 LP  0  0  0  0  0  0  0  0  0  0  0  0  # atno 17370 bound_to 10713
  156.8019  130.9294  151.3646 LP  0  0  0  0  0  0  0  0  0  0  0  0  # atno 17371 bound_to 10713
  139.9196  134.8176  156.1255 LP  0  0  0  0  0  0  0  0  0  0  0  0  # atno 17394 bound_to 11000
  141.0814  133.6753  156.2343 LP  0  0  0  0  0  0  0  0  0  0  0  0  # atno 17395 bound_to 11000

$$$$
