AV-unprocessed.smi:1444|AV-procd|sdf|5881|dock7
  -GOLD-   22720 5563D 1   1.00000     0.00000
 Structure written by MMmdl.
 43 44  0  0  0  0  0  0  0  0  1 V2000
  153.8196  143.5591  163.2923 C   0  0  0  0  0  0  0  0  0  0  0  0
  153.1433  142.7363  162.3478 O   0  0  0  0  0  0  0  0  0  0  0  0
  152.7126  143.3061  161.1644 C   0  0  0  0  0  0  0  0  0  0  0  0
  152.3739  144.6199  161.1690 N   0  0  0  0  0  0  0  0  0  0  0  0
  151.9597  145.1810  160.0148 C   0  0  0  0  0  0  0  0  0  0  0  0
  151.8677  144.4716  158.8040 C   0  0  0  0  0  0  0  0  0  0  0  0
  152.2180  143.1085  158.7963 C   0  0  0  0  0  0  0  0  0  0  0  0
  152.6427  142.5002  160.0034 C   0  0  0  0  0  0  0  0  0  0  0  0
  153.0336  141.1360  160.1182 N   0  0  0  0  0  0  0  0  0  0  0  0
  152.9441  140.1433  159.2162 C   0  0  0  0  0  0  0  0  0  0  0  0
  152.4818  140.2465  158.0806 O   0  0  0  0  0  0  0  0  0  0  0  0
  153.4251  138.9959  159.7169 N   0  0  0  0  0  0  0  0  0  0  0  0
  153.4893  137.7185  159.0101 C   0  0  2  0  0  0  0  0  0  0  0  0
  152.0543  137.1819  158.8875 C   0  0  0  0  0  0  0  0  0  0  0  0
  154.4796  136.7875  159.7532 C   0  0  0  0  0  0  0  0  0  0  0  0
  154.0250  136.2265  161.0292 N   0  0  0  0  0  0  0  0  0  0  0  0
  154.2694  137.1212  162.1611 C   0  0  0  0  0  0  0  0  0  0  0  0
  153.8146  136.5029  163.4950 C   0  0  0  0  0  0  0  0  0  0  0  0
  154.4778  135.2598  163.6961 O   0  0  0  0  0  0  0  0  0  0  0  0
  154.2417  134.3382  162.6377 C   0  0  0  0  0  0  0  0  0  0  0  0
  154.6951  134.9577  161.3043 C   0  0  0  0  0  0  0  0  0  0  0  0
  154.0997  142.9592  164.1580 H   0  0  0  0  0  0  0  0  0  0  0  0
  153.1817  144.3707  163.6450 H   0  0  0  0  0  0  0  0  0  0  0  0
  154.7347  143.9787  162.8721 H   0  0  0  0  0  0  0  0  0  0  0  0
  151.6993  146.2282  160.0568 H   0  0  0  0  0  0  0  0  0  0  0  0
  151.5395  144.9629  157.8999 H   0  0  0  0  0  0  0  0  0  0  0  0
  152.1629  142.5702  157.8641 H   0  0  0  0  0  0  0  0  0  0  0  0
  153.3900  140.8729  161.0253 H   0  0  0  0  0  0  0  0  0  0  0  0
  153.7804  139.0060  160.6618 H   0  0  0  0  0  0  0  0  0  0  0  0
  153.8637  137.8988  158.0006 H   0  0  0  0  0  0  0  0  0  0  0  0
  151.9840  136.3923  158.1416 H   0  0  0  0  0  0  0  0  0  0  0  0
  151.3705  137.9664  158.5605 H   0  0  0  0  0  0  0  0  0  0  0  0
  151.6862  136.7964  159.8389 H   0  0  0  0  0  0  0  0  0  0  0  0
  154.6800  135.9559  159.0756 H   0  0  0  0  0  0  0  0  0  0  0  0
  155.4432  137.2829  159.8818 H   0  0  0  0  0  0  0  0  0  0  0  0
  155.3328  137.3577  162.2221 H   0  0  0  0  0  0  0  0  0  0  0  0
  153.7536  138.0671  162.0312 H   0  0  0  0  0  0  0  0  0  0  0  0
  154.0521  137.1707  164.3233 H   0  0  0  0  0  0  0  0  0  0  0  0
  152.7338  136.3530  163.5032 H   0  0  0  0  0  0  0  0  0  0  0  0
  154.7934  133.4194  162.8361 H   0  0  0  0  0  0  0  0  0  0  0  0
  153.1831  134.0766  162.6022 H   0  0  0  0  0  0  0  0  0  0  0  0
  154.4924  134.2500  160.4996 H   0  0  0  0  0  0  0  0  0  0  0  0
  155.7760  135.1058  161.3242 H   0  0  0  0  0  0  0  0  0  0  0  0
  1  2  1  0  0  0  0
  1 22  1  0  0  0  0
  1 23  1  0  0  0  0
  1 24  1  0  0  0  0
  2  3  1  0  0  0  0
  3  8  1  0  0  0  0
  3  4  2  0  0  0  0
  4  5  1  0  0  0  0
  5  6  2  0  0  0  0
  5 25  1  0  0  0  0
  6  7  1  0  0  0  0
  6 26  1  0  0  0  0
  7  8  2  0  0  0  0
  7 27  1  0  0  0  0
  8  9  1  0  0  0  0
  9 10  1  0  0  0  0
  9 28  1  0  0  0  0
 10 11  2  0  0  0  0
 10 12  1  0  0  0  0
 12 13  1  0  0  0  0
 12 29  1  0  0  0  0
 13 14  1  0  0  0  0
 13 15  1  0  0  0  0
 13 30  1  0  0  0  0
 14 31  1  0  0  0  0
 14 32  1  0  0  0  0
 14 33  1  0  0  0  0
 15 16  1  0  0  0  0
 15 34  1  0  0  0  0
 15 35  1  0  0  0  0
 16 21  1  0  0  0  0
 16 17  1  0  0  0  0
 17 18  1  0  0  0  0
 17 36  1  0  0  0  0
 17 37  1  0  0  0  0
 18 19  1  0  0  0  0
 18 38  1  0  0  0  0
 18 39  1  0  0  0  0
 19 20  1  0  0  0  0
 20 21  1  0  0  0  0
 20 40  1  0  0  0  0
 20 41  1  0  0  0  0
 21 42  1  0  0  0  0
 21 43  1  0  0  0  0
M  END
> <s_m_source_file>
AV-unprocessed.smi

> <i_m_source_file_index>
1444

> <i_lp_mmshare_version>
43012

> <i_f3d_flags>
0

> <s_epik_input>
W0NIM11PYzFuW2NIXVtjSF1bY0hdYzFbTkhdQyg9TylbTkhdW0NASF0oW0NIM10pW0NIMl1OMltDSDJdW0NIMl1PW0NIMl1bQ0gyXTI=

> <s_epik_cmdline>
J2VwaWtfcHl0aG9uJywgJy1waCcsICc3LjAnLCAnLXRuJywgJzgnLCAnLW1hJywgJzIwMCcsICctbWV0YWxfYmluZGluZycsICctaW1hZScsICc8aW5maWxlLm1hZT4nLCAnLW9tYWUnLCAnPG91dGZpbGUubWFlPic=

> <r_lp_tautomer_probability>
1

> <r_epik_Ionization_Penalty>
0.266086

> <r_epik_Ionization_Penalty_Charging>
0

> <r_epik_Ionization_Penalty_Neutral>
0.266086

> <r_epik_State_Penalty>
0.257924

> <r_epik_Charging_Adjusted_Penalty>
0.257924

> <i_epik_Tot_Q>
0

> <i_epik_Tot_abs_Q>
0

> <r_epik_Metal_State_Penalty>
0.25792

> <b_epik_Metal_Only>
0

> <s_lp_Force_Field>
OPLS_2005

> <r_lp_Energy>
29.2367

> <b_lp_Chiralities_Consistent>
1

> <s_lp_Variant>
AV-unprocessed.smi:1444-1

> <Gold.Version>
5.8.1

> <Gold.Id.Protein>
6NUR|6NUR_protein|mol2

> <Gold.PLP.Fitness>
43.5415

> <Gold.PLP.PLP>
-42.4825

> <Gold.PLP.part.hbond>
-1.0000

> <Gold.PLP.part.metal>
0.0000

> <Gold.PLP.part.buried>
-5.9913

> <Gold.PLP.part.nonpolar>
-34.9045

> <Gold.PLP.part.repulsive>
0.5188

> <Gold.PLP.ligand.clash>
0.0000

> <Gold.PLP.ligand.torsion>
0.9445

> <Gold.PLP.Chemscore.Hbond>
0.9600

> <Gold.PLP.Chemscore.CHOScore>
0.0000

> <Gold.PLP.Chemscore.Metal>
0.0000

> <Gold.Chemscore.Hbonds>
donor molecule, donor type, donor heavy atom, donor atom, acceptor molecule, acceptor atom, score
      P1  H  7997  8010       L1    11  0.14

> <Gold.PLP.Chemscore.Internal.Correction>
0.0680

> <Gold.Rescore>
     Score         DG    S(hbond)    S(metal)    S(lipo)     H(rot)  DE(clash)    DE(int)     intcor
     14.00     -16.54       0.94        0.00     105.23       1.72       0.62       1.93       ----

> <Gold.Chemscore.Fitness>
13.9972

> <Gold.Chemscore.DG>
-16.5427

> <Gold.Chemscore.ZeroCoef>
-5.4800

> <Gold.Chemscore.Hbond>
0.9436

> <Gold.Chemscore.Metal>
0.0000

> <Gold.Chemscore.Lipo>
105.2276

> <Gold.Chemscore.Internal_Hbond>
0.0000

> <Gold.Chemscore.DEClash>
0.6161

> <Gold.Chemscore.DEInternal>
1.9295

> <Gold.Chemscore.Rot>
1.7189

> <Gold.Chemscore.Internal.Correction>
   9.000000E+99

> <Gold.Chemscore.Hbonds>
donor molecule, donor type, donor heavy atom, donor atom, acceptor molecule, acceptor atom, score
      P1  H  7997  8010       L1    11  0.02

> <Gold.Chemscore.Hbond.Weighted>
-3.1515

> <Gold.Chemscore.Metal.Weighted>
-0.0000

> <Gold.Chemscore.Lipo.Weighted>
-12.3116

> <Gold.Chemscore.Internal_Hbond.Weighted>
0.0000

> <Gold.Chemscore.DEClash.Weighted>
0.6161

> <Gold.Chemscore.DEInternal.Weighted>
1.9295

> <Gold.Chemscore.Rot.Weighted>
4.4004

> <Gold.Chemscore.Internal.Correction.Weighted>
   9.000000E+99

> <Gold.Protein.RotatedTorsions>
[ 6907 6896 6895 6894 ] final  148.95 input  -60.11 | X-H torsion
[ 7974 7965 7964 7962 ] final -136.56 input  175.53 | X-H torsion
[ 8008 7997 7996 7995 ] final   36.70 input   59.86 | X-H torsion
[ 10167 10162 10161 10158 ] final -147.15 input  -65.29 | X-H torsion
[ 10718 10713 10712 10709 ] final  -49.05 input   66.30 | X-H torsion
[ 10763 10752 10751 10750 ] final -163.83 input  -60.55 | X-H torsion
[ 11005 11000 10999 10996 ] final  152.01 input  -57.11 | X-H torsion

> <Gold.Protein.ActiveResidues>
 VAL166  LYS551  ARG553  GLY616  TRP617  ASP618  TYR619  PRO620  LYS621  CYS622 
 ASP623  PHE694  ASN695  SER759  ASP760  ASP761  ALA762  ILE779  LEU786  VAL792 
 PHE793  MET794  SER795  GLU796  ALA797  LYS798  CYS799  TRP800  GLU811  SER814 

> <Gold.Protein.RotatedAtoms>
  152.1345  133.4427  159.4736 H   0  0  0  0  0  0  0  0  0  0  0  0  # atno 6907 bound_to 6896
  150.6881  134.2380  159.4470 H   0  0  0  0  0  0  0  0  0  0  0  0  # atno 6908 bound_to 6896
  152.0266  134.9791  160.0622 H   0  0  0  0  0  0  0  0  0  0  0  0  # atno 6909 bound_to 6896
  144.8917  140.6651  143.5141 H   0  0  0  0  0  0  0  0  0  0  0  0  # atno 7974 bound_to 7965
  155.1917  140.3308  155.4357 H   0  0  0  0  0  0  0  0  0  0  0  0  # atno 8008 bound_to 7997
  156.2440  140.1909  156.6959 H   0  0  0  0  0  0  0  0  0  0  0  0  # atno 8009 bound_to 7997
  154.6202  140.0596  156.9590 H   0  0  0  0  0  0  0  0  0  0  0  0  # atno 8010 bound_to 7997
  139.7648  143.8323  152.2614 H   0  0  0  0  0  0  0  0  0  0  0  0  # atno 10167 bound_to 10162
  156.1930  130.4153  149.9345 H   0  0  0  0  0  0  0  0  0  0  0  0  # atno 10718 bound_to 10713
  154.7085  135.3001  154.9233 H   0  0  0  0  0  0  0  0  0  0  0  0  # atno 10763 bound_to 10752
  154.0142  135.6691  153.4771 H   0  0  0  0  0  0  0  0  0  0  0  0  # atno 10764 bound_to 10752
  153.0736  135.5047  154.8270 H   0  0  0  0  0  0  0  0  0  0  0  0  # atno 10765 bound_to 10752
  140.1270  134.8827  157.2151 H   0  0  0  0  0  0  0  0  0  0  0  0  # atno 11005 bound_to 11000
  145.3772  139.1645  143.4300 LP  0  0  0  0  0  0  0  0  0  0  0  0  # atno 17320 bound_to 7965
  146.3057  140.3849  142.8688 LP  0  0  0  0  0  0  0  0  0  0  0  0  # atno 17321 bound_to 7965
  139.8340  144.7240  150.9414 LP  0  0  0  0  0  0  0  0  0  0  0  0  # atno 17342 bound_to 10162
  140.7810  143.4043  151.1096 LP  0  0  0  0  0  0  0  0  0  0  0  0  # atno 17343 bound_to 10162
  156.7079  130.8959  151.3606 LP  0  0  0  0  0  0  0  0  0  0  0  0  # atno 17370 bound_to 10713
  157.6940  130.9263  150.0593 LP  0  0  0  0  0  0  0  0  0  0  0  0  # atno 17371 bound_to 10713
  140.2891  134.3261  155.7320 LP  0  0  0  0  0  0  0  0  0  0  0  0  # atno 17394 bound_to 11000
  141.2163  133.7524  156.9477 LP  0  0  0  0  0  0  0  0  0  0  0  0  # atno 17395 bound_to 11000

$$$$
