AV-unprocessed.smi:1291|AV-procd|sdf|5392|dock7
  -GOLD-   22720 4543D 1   1.00000     0.00000
 Structure written by MMmdl.
 43 45  0  0  0  0  0  0  0  0  1 V2000
  152.6712  139.0225  156.4182 O   0  0  0  0  0  0  0  0  0  0  0  0
  151.7829  139.1152  157.5139 C   0  0  0  0  0  0  0  0  0  0  0  0
  151.8703  140.4145  158.2639 C   0  0  0  0  0  0  0  0  0  0  0  0
  152.2338  140.4925  159.5464 N   0  0  0  0  0  0  0  0  0  0  0  0
  152.1829  141.8489  159.7982 C   0  0  0  0  0  0  0  0  0  0  0  0
  152.4579  142.5748  160.9793 C   0  0  0  0  0  0  0  0  0  0  0  0
  152.3364  143.9799  160.9984 C   0  0  0  0  0  0  0  0  0  0  0  0
  151.9401  144.6776  159.8390 C   0  0  0  0  0  0  0  0  0  0  0  0
  151.6633  143.9735  158.6514 C   0  0  0  0  0  0  0  0  0  0  0  0
  151.7847  142.5707  158.6381 C   0  0  0  0  0  0  0  0  0  0  0  0
  151.5894  141.5978  157.6619 N   0  0  0  0  0  0  0  0  0  0  0  0
  151.1754  141.8289  156.2834 C   0  0  0  0  0  0  0  0  0  0  0  0
  149.7294  141.3712  155.9998 C   0  0  1  0  0  0  0  0  0  0  0  0
  148.8443  142.0436  156.8747 O   0  0  0  0  0  0  0  0  0  0  0  0
  149.3097  141.6796  154.5537 C   0  0  0  0  0  0  0  0  0  0  0  0
  148.4582  140.6470  154.0850 O   0  0  0  0  0  0  0  0  0  0  0  0
  147.3723  141.1348  153.3121 C   0  0  0  0  0  0  0  0  0  0  0  0
  146.4715  142.0812  154.0883 C   0  0  0  0  0  0  0  0  0  0  0  0
  146.2506  143.4035  153.6419 C   0  0  0  0  0  0  0  0  0  0  0  0
  145.4206  144.2719  154.3770 C   0  0  0  0  0  0  0  0  0  0  0  0
  144.8106  143.8270  155.5651 C   0  0  0  0  0  0  0  0  0  0  0  0
  145.0337  142.5133  156.0193 C   0  0  0  0  0  0  0  0  0  0  0  0
  145.8635  141.6431  155.2854 C   0  0  0  0  0  0  0  0  0  0  0  0
  146.0742  140.3831  155.7366 F   0  0  0  0  0  0  0  0  0  0  0  0
  152.8009  138.1098  156.2119 H   0  0  0  0  0  0  0  0  0  0  0  0
  150.7651  138.9855  157.1456 H   0  0  0  0  0  0  0  0  0  0  0  0
  151.9931  138.2903  158.1939 H   0  0  0  0  0  0  0  0  0  0  0  0
  152.7622  142.0491  161.8720 H   0  0  0  0  0  0  0  0  0  0  0  0
  152.5478  144.5245  161.9067 H   0  0  0  0  0  0  0  0  0  0  0  0
  151.8481  145.7536  159.8621 H   0  0  0  0  0  0  0  0  0  0  0  0
  151.3584  144.5055  157.7627 H   0  0  0  0  0  0  0  0  0  0  0  0
  151.2822  142.8924  156.0657 H   0  0  0  0  0  0  0  0  0  0  0  0
  151.8711  141.3172  155.6180 H   0  0  0  0  0  0  0  0  0  0  0  0
  149.6502  140.2991  156.1815 H   0  0  0  0  0  0  0  0  0  0  0  0
  149.0407  142.9674  156.8507 H   0  0  0  0  0  0  0  0  0  0  0  0
  148.8285  142.6570  154.4834 H   0  0  0  0  0  0  0  0  0  0  0  0
  150.1929  141.7085  153.9135 H   0  0  0  0  0  0  0  0  0  0  0  0
  147.7591  141.6579  152.4359 H   0  0  0  0  0  0  0  0  0  0  0  0
  146.7665  140.3010  152.9541 H   0  0  0  0  0  0  0  0  0  0  0  0
  146.7134  143.7631  152.7347 H   0  0  0  0  0  0  0  0  0  0  0  0
  145.2527  145.2805  154.0289 H   0  0  0  0  0  0  0  0  0  0  0  0
  144.1739  144.4931  156.1285 H   0  0  0  0  0  0  0  0  0  0  0  0
  144.5684  142.1726  156.9325 H   0  0  0  0  0  0  0  0  0  0  0  0
  1  2  1  0  0  0  0
  1 25  1  0  0  0  0
  2  3  1  0  0  0  0
  2 26  1  0  0  0  0
  2 27  1  0  0  0  0
  3 11  1  0  0  0  0
  3  4  2  0  0  0  0
  4  5  1  0  0  0  0
  5 10  2  0  0  0  0
  5  6  1  0  0  0  0
  6  7  2  0  0  0  0
  6 28  1  0  0  0  0
  7  8  1  0  0  0  0
  7 29  1  0  0  0  0
  8  9  2  0  0  0  0
  8 30  1  0  0  0  0
  9 10  1  0  0  0  0
  9 31  1  0  0  0  0
 10 11  1  0  0  0  0
 11 12  1  0  0  0  0
 12 13  1  0  0  0  0
 12 32  1  0  0  0  0
 12 33  1  0  0  0  0
 13 14  1  0  0  0  0
 13 15  1  0  0  0  0
 13 34  1  0  0  0  0
 14 35  1  0  0  0  0
 15 16  1  0  0  0  0
 15 36  1  0  0  0  0
 15 37  1  0  0  0  0
 16 17  1  0  0  0  0
 17 18  1  0  0  0  0
 17 38  1  0  0  0  0
 17 39  1  0  0  0  0
 18 23  1  0  0  0  0
 18 19  2  0  0  0  0
 19 20  1  0  0  0  0
 19 40  1  0  0  0  0
 20 21  2  0  0  0  0
 20 41  1  0  0  0  0
 21 22  1  0  0  0  0
 21 42  1  0  0  0  0
 22 23  2  0  0  0  0
 22 43  1  0  0  0  0
 23 24  1  0  0  0  0
M  END
> <s_m_source_file>
AV-unprocessed.smi

> <i_m_source_file_index>
1291

> <i_lp_mmshare_version>
43012

> <i_f3d_flags>
0

> <s_epik_input>
W2NIXTFbY0hdW2NIXVtjSF1jKGMxMiluKGMobjIpW0NIMl1bT0hdKVtDSDJdW0NASF0oW09IXSlbQ0gyXU9bQ0gyXWMzW2NIXVtjSF1bY0hdW2NIXWMzRg==

> <s_epik_cmdline>
J2VwaWtfcHl0aG9uJywgJy1waCcsICc3LjAnLCAnLXRuJywgJzgnLCAnLW1hJywgJzIwMCcsICctbWV0YWxfYmluZGluZycsICctaW1hZScsICc8aW5maWxlLm1hZT4nLCAnLW9tYWUnLCAnPG91dGZpbGUubWFlPic=

> <r_epik_Ionization_Penalty>
0.0649918

> <r_epik_Ionization_Penalty_Charging>
0

> <r_epik_Ionization_Penalty_Neutral>
0.0649918

> <r_epik_State_Penalty>
0.0565791

> <r_epik_Charging_Adjusted_Penalty>
0.0565791

> <i_epik_Tot_Q>
0

> <i_epik_Tot_abs_Q>
0

> <r_epik_Metal_State_Penalty>
5.93658e-05

> <b_epik_Metal_Only>
0

> <s_lp_Force_Field>
OPLS_2005

> <r_lp_Energy>
17.1818

> <b_lp_Chiralities_Consistent>
1

> <s_lp_Variant>
AV-unprocessed.smi:1291-2

> <Gold.Version>
5.8.1

> <Gold.Id.Protein>
6NUR|6NUR_protein|mol2

> <Gold.PLP.Fitness>
56.5122

> <Gold.PLP.PLP>
-52.0932

> <Gold.PLP.part.hbond>
-2.0000

> <Gold.PLP.part.metal>
0.0000

> <Gold.PLP.part.buried>
-8.8367

> <Gold.PLP.part.nonpolar>
-41.4352

> <Gold.PLP.part.repulsive>
0.1122

> <Gold.PLP.ligand.clash>
0.0000

> <Gold.PLP.ligand.torsion>
0.8902

> <Gold.PLP.Chemscore.Hbond>
2.0000

> <Gold.PLP.Chemscore.CHOScore>
0.0000

> <Gold.PLP.Chemscore.Metal>
0.0000

> <Gold.Chemscore.Hbonds>
donor molecule, donor type, donor heavy atom, donor atom, acceptor molecule, acceptor atom, score
      L1  H    14    35       P1  8028  0.69
      P1  H  7997  8008       L1     1  1.00

> <Gold.PLP.Chemscore.Internal.Correction>
0.1993

> <Gold.Rescore>
     Score         DG    S(hbond)    S(metal)    S(lipo)     H(rot)  DE(clash)    DE(int)     intcor
     17.39     -18.81       1.97        0.00     130.54       3.33       0.22       1.20       ----

> <Gold.Chemscore.Fitness>
17.3909

> <Gold.Chemscore.DG>
-18.8068

> <Gold.Chemscore.ZeroCoef>
-5.4800

> <Gold.Chemscore.Hbond>
1.9707

> <Gold.Chemscore.Metal>
0.0000

> <Gold.Chemscore.Lipo>
130.5414

> <Gold.Chemscore.Internal_Hbond>
0.0000

> <Gold.Chemscore.DEClash>
0.2203

> <Gold.Chemscore.DEInternal>
1.1956

> <Gold.Chemscore.Rot>
3.3316

> <Gold.Chemscore.Internal.Correction>
   9.000000E+99

> <Gold.Chemscore.Hbonds>
donor molecule, donor type, donor heavy atom, donor atom, acceptor molecule, acceptor atom, score
      L1  H    14    35       P1  8028  0.64
      P1  H  7997  8008       L1     1  0.82

> <Gold.Chemscore.Hbond.Weighted>
-6.5822

> <Gold.Chemscore.Metal.Weighted>
-0.0000

> <Gold.Chemscore.Lipo.Weighted>
-15.2733

> <Gold.Chemscore.Internal_Hbond.Weighted>
0.0000

> <Gold.Chemscore.DEClash.Weighted>
0.2203

> <Gold.Chemscore.DEInternal.Weighted>
1.1956

> <Gold.Chemscore.Rot.Weighted>
8.5288

> <Gold.Chemscore.Internal.Correction.Weighted>
   9.000000E+99

> <Gold.Protein.RotatedTorsions>
[ 6907 6896 6895 6894 ] final -179.74 input  -60.11 | X-H torsion
[ 7974 7965 7964 7962 ] final   64.69 input  175.53 | X-H torsion
[ 8008 7997 7996 7995 ] final  -52.26 input   59.86 | X-H torsion
[ 10167 10162 10161 10158 ] final   -1.48 input  -65.29 | X-H torsion
[ 10718 10713 10712 10709 ] final  156.47 input   66.30 | X-H torsion
[ 10763 10752 10751 10750 ] final    5.37 input  -60.55 | X-H torsion
[ 11005 11000 10999 10996 ] final  -44.06 input  -57.11 | X-H torsion

> <Gold.Protein.ActiveResidues>
 VAL166  LYS551  ARG553  GLY616  TRP617  ASP618  TYR619  PRO620  LYS621  CYS622 
 ASP623  PHE694  ASN695  SER759  ASP760  ASP761  ALA762  ILE779  LEU786  VAL792 
 PHE793  MET794  SER795  GLU796  ALA797  LYS798  CYS799  TRP800  GLU811  SER814 

> <Gold.Protein.RotatedAtoms>
  151.6583  133.3318  159.3167 H   0  0  0  0  0  0  0  0  0  0  0  0  # atno 6907 bound_to 6896
  150.7926  134.6966  159.6536 H   0  0  0  0  0  0  0  0  0  0  0  0  # atno 6908 bound_to 6896
  152.4008  134.6293  160.0122 H   0  0  0  0  0  0  0  0  0  0  0  0  # atno 6909 bound_to 6896
  145.8472  139.3231  143.0896 H   0  0  0  0  0  0  0  0  0  0  0  0  # atno 7974 bound_to 7965
  154.4102  140.1228  156.4962 H   0  0  0  0  0  0  0  0  0  0  0  0  # atno 8008 bound_to 7997
  155.6940  140.3495  155.4886 H   0  0  0  0  0  0  0  0  0  0  0  0  # atno 8009 bound_to 7997
  155.9444  140.1093  157.1019 H   0  0  0  0  0  0  0  0  0  0  0  0  # atno 8010 bound_to 7997
  140.6812  143.6770  150.8137 H   0  0  0  0  0  0  0  0  0  0  0  0  # atno 10167 bound_to 10162
  157.2045  131.0684  151.2006 H   0  0  0  0  0  0  0  0  0  0  0  0  # atno 10718 bound_to 10713
  153.2602  135.6922  153.7587 H   0  0  0  0  0  0  0  0  0  0  0  0  # atno 10763 bound_to 10752
  153.6649  135.3354  155.3138 H   0  0  0  0  0  0  0  0  0  0  0  0  # atno 10764 bound_to 10752
  154.8427  135.4486  154.1589 H   0  0  0  0  0  0  0  0  0  0  0  0  # atno 10765 bound_to 10752
  141.0425  133.6774  156.2820 H   0  0  0  0  0  0  0  0  0  0  0  0  # atno 11005 bound_to 11000
  145.9398  140.8987  143.0313 LP  0  0  0  0  0  0  0  0  0  0  0  0  # atno 17320 bound_to 7965
  144.6730  140.1533  143.7428 LP  0  0  0  0  0  0  0  0  0  0  0  0  # atno 17321 bound_to 7965
  140.0471  143.5287  152.2691 LP  0  0  0  0  0  0  0  0  0  0  0  0  # atno 17342 bound_to 10162
  139.6136  144.7614  151.2897 LP  0  0  0  0  0  0  0  0  0  0  0  0  # atno 17343 bound_to 10162
  157.3734  130.7193  149.6580 LP  0  0  0  0  0  0  0  0  0  0  0  0  # atno 17370 bound_to 10713
  155.9697  130.4192  150.4366 LP  0  0  0  0  0  0  0  0  0  0  0  0  # atno 17371 bound_to 10713
  140.6207  134.5364  157.5547 LP  0  0  0  0  0  0  0  0  0  0  0  0  # atno 17394 bound_to 11000
  139.9287  134.8006  156.0994 LP  0  0  0  0  0  0  0  0  0  0  0  0  # atno 17395 bound_to 11000

$$$$
