AV-unprocessed.smi:244|AV-procd|sdf|1873|dock9
  -GOLD-   2262020513D 1   1.00000     0.00000
 Structure written by MMmdl.
 56 60  0  0  0  0  0  0  0  0  1 V2000
  151.1490  144.5773  159.3159 C   0  0  0  0  0  0  0  0  0  0  0  0
  151.7781  143.3796  159.8534 N   0  0  0  0  0  0  0  0  0  0  0  0
  152.1750  143.6183  161.2405 C   0  0  0  0  0  0  0  0  0  0  0  0
  152.7486  142.3278  161.8451 C   0  0  0  0  0  0  0  0  0  0  0  0
  153.9684  141.8516  161.0351 C   0  0  1  0  0  0  0  0  0  0  0  0
  154.5334  140.6386  161.5382 O   0  0  0  0  0  0  0  0  0  0  0  0
  153.7449  139.4742  161.3055 C   0  0  0  0  0  0  0  0  0  0  0  0
  153.4771  139.3167  159.8027 C   0  0  0  0  0  0  0  0  0  0  0  0
  152.8433  140.5191  159.2780 N   0  0  0  0  0  0  0  0  0  0  0  0
  152.4076  140.3542  158.0104 C   0  0  0  0  0  0  0  0  0  0  0  0
  153.0385  139.4188  157.2594 N   0  0  0  0  0  0  0  0  0  0  0  0
  152.6438  139.1956  156.0023 C   0  0  0  0  0  0  0  0  0  0  0  0
  151.6641  139.7889  155.3167 N   0  0  0  0  0  0  0  0  0  0  0  0
  151.0336  140.7356  156.0697 C   0  0  0  0  0  0  0  0  0  0  0  0
  151.3372  141.0801  157.4165 C   0  0  0  0  0  0  0  0  0  0  0  0
  150.4826  142.0848  157.8539 N   0  0  0  0  0  0  0  0  0  0  0  0
  149.7216  142.3258  156.8210 C   0  0  0  0  0  0  0  0  0  0  0  0
  149.9872  141.5642  155.7053 N   0  0  0  0  0  0  0  0  0  0  0  0
  149.3001  141.6266  154.4247 C   0  0  0  0  0  0  0  0  0  0  0  0
  147.9083  140.9471  154.4275 C   0  0  0  0  0  0  0  0  0  0  0  0
  147.5749  140.6430  153.0836 O   0  0  0  0  0  0  0  0  0  0  0  0
  147.8875  139.6372  155.2464 C   0  0  0  0  0  0  0  0  0  0  0  0
  146.4623  139.0838  155.4224 C   0  0  0  0  0  0  0  0  0  0  0  0
  145.6183  140.0745  155.9963 O   0  0  0  0  0  0  0  0  0  0  0  0
  145.4773  141.2229  155.1693 C   0  0  0  0  0  0  0  0  0  0  0  0
  146.8420  141.9103  154.9861 C   0  0  0  0  0  0  0  0  0  0  0  0
  153.6255  141.7329  159.5330 C   0  0  1  0  0  0  0  0  0  0  0  0
  152.9413  143.0328  159.0333 C   0  0  0  0  0  0  0  0  0  0  0  0
  150.2640  144.8375  159.8973 H   0  0  0  0  0  0  0  0  0  0  0  0
  150.8310  144.4125  158.2857 H   0  0  0  0  0  0  0  0  0  0  0  0
  151.8321  145.4276  159.3322 H   0  0  0  0  0  0  0  0  0  0  0  0
  152.9080  144.4250  161.2925 H   0  0  0  0  0  0  0  0  0  0  0  0
  151.3068  143.9345  161.8200 H   0  0  0  0  0  0  0  0  0  0  0  0
  153.0360  142.4987  162.8827 H   0  0  0  0  0  0  0  0  0  0  0  0
  151.9643  141.5712  161.8603 H   0  0  0  0  0  0  0  0  0  0  0  0
  154.7430  142.6120  161.1418 H   0  0  0  0  0  0  0  0  0  0  0  0
  154.2880  138.6062  161.6793 H   0  0  0  0  0  0  0  0  0  0  0  0
  152.8112  139.5177  161.8653 H   0  0  0  0  0  0  0  0  0  0  0  0
  154.4163  139.1343  159.2788 H   0  0  0  0  0  0  0  0  0  0  0  0
  152.8377  138.4499  159.6287 H   0  0  0  0  0  0  0  0  0  0  0  0
  153.1914  138.4319  155.4700 H   0  0  0  0  0  0  0  0  0  0  0  0
  148.9432  143.0749  156.8416 H   0  0  0  0  0  0  0  0  0  0  0  0
  149.2027  142.6763  154.1451 H   0  0  0  0  0  0  0  0  0  0  0  0
  149.9436  141.1718  153.6700 H   0  0  0  0  0  0  0  0  0  0  0  0
  148.3052  140.1923  152.6878 H   0  0  0  0  0  0  0  0  0  0  0  0
  148.5200  138.8781  154.7845 H   0  0  0  0  0  0  0  0  0  0  0  0
  148.3080  139.8263  156.2350 H   0  0  0  0  0  0  0  0  0  0  0  0
  146.0510  138.7463  154.4699 H   0  0  0  0  0  0  0  0  0  0  0  0
  146.4805  138.2158  156.0818 H   0  0  0  0  0  0  0  0  0  0  0  0
  145.0439  140.9424  154.2080 H   0  0  0  0  0  0  0  0  0  0  0  0
  144.7760  141.9105  155.6423 H   0  0  0  0  0  0  0  0  0  0  0  0
  147.1695  142.2869  155.9561 H   0  0  0  0  0  0  0  0  0  0  0  0
  146.7381  142.7831  154.3401 H   0  0  0  0  0  0  0  0  0  0  0  0
  154.5657  141.6236  158.9911 H   0  0  0  0  0  0  0  0  0  0  0  0
  152.6475  142.9418  157.9872 H   0  0  0  0  0  0  0  0  0  0  0  0
  153.6596  143.8530  159.0741 H   0  0  0  0  0  0  0  0  0  0  0  0
  1  2  1  0  0  0  0
  1 29  1  0  0  0  0
  1 30  1  0  0  0  0
  1 31  1  0  0  0  0
  2 28  1  0  0  0  0
  2  3  1  0  0  0  0
  3  4  1  0  0  0  0
  3 32  1  0  0  0  0
  3 33  1  0  0  0  0
  4  5  1  0  0  0  0
  4 34  1  0  0  0  0
  4 35  1  0  0  0  0
  5 27  1  0  0  0  0
  5  6  1  0  0  0  0
  5 36  1  0  0  0  0
  6  7  1  0  0  0  0
  7  8  1  0  0  0  0
  7 37  1  0  0  0  0
  7 38  1  0  0  0  0
  8  9  1  0  0  0  0
  8 39  1  0  0  0  0
  8 40  1  0  0  0  0
  9 10  1  0  0  0  0
  9 27  1  0  0  0  0
 10 15  1  0  0  0  0
 10 11  2  0  0  0  0
 11 12  1  0  0  0  0
 12 13  2  0  0  0  0
 12 41  1  0  0  0  0
 13 14  1  0  0  0  0
 14 18  1  0  0  0  0
 14 15  2  0  0  0  0
 15 16  1  0  0  0  0
 16 17  2  0  0  0  0
 17 18  1  0  0  0  0
 17 42  1  0  0  0  0
 18 19  1  0  0  0  0
 19 20  1  0  0  0  0
 19 43  1  0  0  0  0
 19 44  1  0  0  0  0
 20 26  1  0  0  0  0
 20 21  1  0  0  0  0
 20 22  1  0  0  0  0
 21 45  1  0  0  0  0
 22 23  1  0  0  0  0
 22 46  1  0  0  0  0
 22 47  1  0  0  0  0
 23 24  1  0  0  0  0
 23 48  1  0  0  0  0
 23 49  1  0  0  0  0
 24 25  1  0  0  0  0
 25 26  1  0  0  0  0
 25 50  1  0  0  0  0
 25 51  1  0  0  0  0
 26 52  1  0  0  0  0
 26 53  1  0  0  0  0
 27 28  1  0  0  0  0
 27 54  1  0  0  0  0
 28 55  1  0  0  0  0
 28 56  1  0  0  0  0
M  END
> <s_m_source_file>
AV-unprocessed.smi

> <i_m_source_file_index>
244

> <i_lp_mmshare_version>
43012

> <i_f3d_flags>
0

> <s_epik_input>
W0NIMl0xW0NIMl1OKFtDSDNdKVtDSDJdW0NAQEhdKFtDQEhdMTIpTihbQ0gyXVtDSDJdTzIpYyhuW2NIXW4zKWMoYzM0KW5bY0hdbjRbQ0gyXUM1KFtPSF0pW0NIMl1bQ0gyXU9bQ0gyXVtDSDJdNQ==

> <s_epik_cmdline>
J2VwaWtfcHl0aG9uJywgJy1waCcsICc3LjAnLCAnLXRuJywgJzgnLCAnLW1hJywgJzIwMCcsICctbWV0YWxfYmluZGluZycsICctaW1hZScsICc8aW5maWxlLm1hZT4nLCAnLW9tYWUnLCAnPG91dGZpbGUubWFlPic=

> <r_lp_tautomer_probability>
1

> <r_epik_Ionization_Penalty>
2.27765

> <r_epik_Ionization_Penalty_Charging>
0

> <r_epik_Ionization_Penalty_Neutral>
2.27765

> <r_epik_State_Penalty>
2.4114

> <r_epik_Charging_Adjusted_Penalty>
2.4114

> <i_epik_Tot_Q>
0

> <i_epik_Tot_abs_Q>
0

> <r_epik_Metal_State_Penalty>
2.39769

> <b_epik_Metal_Only>
0

> <s_lp_Force_Field>
OPLS_2005

> <r_lp_Energy>
50.0311

> <b_lp_Chiralities_Consistent>
1

> <s_lp_Variant>
AV-unprocessed.smi:244-10

> <Gold.Version>
5.8.1

> <Gold.Id.Protein>
6NUR|6NUR_protein|mol2

> <Gold.PLP.Fitness>
54.3991

> <Gold.PLP.PLP>
-45.1121

> <Gold.PLP.part.hbond>
-3.0000

> <Gold.PLP.part.metal>
0.0000

> <Gold.PLP.part.buried>
0.4982

> <Gold.PLP.part.nonpolar>
-40.8510

> <Gold.PLP.part.repulsive>
0.1666

> <Gold.PLP.ligand.clash>
0.0000

> <Gold.PLP.ligand.torsion>
1.0614

> <Gold.PLP.Chemscore.Hbond>
2.9263

> <Gold.PLP.Chemscore.CHOScore>
0.8314

> <Gold.PLP.Chemscore.Metal>
0.0000

> <Gold.Chemscore.Hbonds>
donor molecule, donor type, donor heavy atom, donor atom, acceptor molecule, acceptor atom, score
      L1  H    21    45       P1  7957  0.96
      P1  H  7989  7998       L1    13  0.69
      P1  H  7997  8009       L1    11  0.70
      L1  C    17    42       P1  8028  0.89

> <Gold.PLP.Chemscore.Internal.Correction>
0.1370

> <Gold.Rescore>
     Score         DG    S(hbond)    S(metal)    S(lipo)     H(rot)  DE(clash)    DE(int)     intcor
     14.83     -19.65       1.89        0.00     112.13       2.06       2.42       2.40       ----

> <Gold.Chemscore.Fitness>
14.8255

> <Gold.Chemscore.DG>
-19.6453

> <Gold.Chemscore.ZeroCoef>
-5.4800

> <Gold.Chemscore.Hbond>
1.8929

> <Gold.Chemscore.Metal>
0.0000

> <Gold.Chemscore.Lipo>
112.1325

> <Gold.Chemscore.Internal_Hbond>
0.0000

> <Gold.Chemscore.DEClash>
2.4155

> <Gold.Chemscore.DEInternal>
2.4043

> <Gold.Chemscore.Rot>
2.0611

> <Gold.Chemscore.Internal.Correction>
   9.000000E+99

> <Gold.Chemscore.Hbonds>
donor molecule, donor type, donor heavy atom, donor atom, acceptor molecule, acceptor atom, score
      L1  H    21    45       P1  7957  0.89
      P1  H  7989  7998       L1    13  0.11
      P1  H  7997  8009       L1    11  0.04

> <Gold.Chemscore.Hbond.Weighted>
-6.3223

> <Gold.Chemscore.Metal.Weighted>
-0.0000

> <Gold.Chemscore.Lipo.Weighted>
-13.1195

> <Gold.Chemscore.Internal_Hbond.Weighted>
0.0000

> <Gold.Chemscore.DEClash.Weighted>
2.4155

> <Gold.Chemscore.DEInternal.Weighted>
2.4043

> <Gold.Chemscore.Rot.Weighted>
5.2765

> <Gold.Chemscore.Internal.Correction.Weighted>
   9.000000E+99

> <Gold.Protein.RotatedTorsions>
[ 6907 6896 6895 6894 ] final  110.03 input  -60.11 | X-H torsion
[ 7974 7965 7964 7962 ] final -177.63 input  175.53 | X-H torsion
[ 8008 7997 7996 7995 ] final  168.20 input   59.86 | X-H torsion
[ 10167 10162 10161 10158 ] final  -68.23 input  -65.29 | X-H torsion
[ 10718 10713 10712 10709 ] final  -58.31 input   66.30 | X-H torsion
[ 10763 10752 10751 10750 ] final    4.00 input  -60.55 | X-H torsion
[ 11005 11000 10999 10996 ] final  -86.32 input  -57.11 | X-H torsion

> <Gold.Protein.ActiveResidues>
 VAL166  LYS551  ARG553  GLY616  TRP617  ASP618  TYR619  PRO620  LYS621  CYS622 
 ASP623  PHE694  ASN695  SER759  ASP760  ASP761  ALA762  ILE779  LEU786  VAL792 
 PHE793  MET794  SER795  GLU796  ALA797  LYS798  CYS799  TRP800  GLU811  SER814 

> <Gold.Protein.RotatedAtoms>
  152.5039  133.8858  159.7368 H   0  0  0  0  0  0  0  0  0  0  0  0  # atno 6907 bound_to 6896
  150.9309  133.6759  159.2818 H   0  0  0  0  0  0  0  0  0  0  0  0  # atno 6908 bound_to 6896
  151.4104  135.0989  159.9636 H   0  0  0  0  0  0  0  0  0  0  0  0  # atno 6909 bound_to 6896
  144.7128  140.0991  143.6417 H   0  0  0  0  0  0  0  0  0  0  0  0  # atno 7974 bound_to 7965
  156.1568  140.1597  156.8680 H   0  0  0  0  0  0  0  0  0  0  0  0  # atno 8008 bound_to 7997
  154.5122  140.0798  156.8048 H   0  0  0  0  0  0  0  0  0  0  0  0  # atno 8009 bound_to 7997
  155.3788  140.3404  155.4248 H   0  0  0  0  0  0  0  0  0  0  0  0  # atno 8010 bound_to 7997
  140.5523  143.2312  151.6887 H   0  0  0  0  0  0  0  0  0  0  0  0  # atno 10167 bound_to 10162
  156.1145  130.4172  150.0559 H   0  0  0  0  0  0  0  0  0  0  0  0  # atno 10718 bound_to 10713
  153.2765  135.6937  153.7427 H   0  0  0  0  0  0  0  0  0  0  0  0  # atno 10763 bound_to 10752
  153.6431  135.3390  155.3078 H   0  0  0  0  0  0  0  0  0  0  0  0  # atno 10764 bound_to 10752
  154.8481  135.4436  154.1805 H   0  0  0  0  0  0  0  0  0  0  0  0  # atno 10765 bound_to 10752
  141.1631  133.7448  156.9144 H   0  0  0  0  0  0  0  0  0  0  0  0  # atno 11005 bound_to 11000
  145.9553  139.2762  143.1188 LP  0  0  0  0  0  0  0  0  0  0  0  0  # atno 17320 bound_to 7965
  145.9279  140.9069  143.0371 LP  0  0  0  0  0  0  0  0  0  0  0  0  # atno 17321 bound_to 7965
  139.5033  144.3797  152.0388 LP  0  0  0  0  0  0  0  0  0  0  0  0  # atno 17342 bound_to 10162
  140.2915  144.3748  150.6087 LP  0  0  0  0  0  0  0  0  0  0  0  0  # atno 17343 bound_to 10162
  156.8514  130.9460  151.3625 LP  0  0  0  0  0  0  0  0  0  0  0  0  # atno 17370 bound_to 10713
  157.6327  130.8742  149.9304 LP  0  0  0  0  0  0  0  0  0  0  0  0  # atno 17371 bound_to 10713
  140.1494  134.9240  157.2573 LP  0  0  0  0  0  0  0  0  0  0  0  0  # atno 17394 bound_to 11000
  140.2740  134.3426  155.7364 LP  0  0  0  0  0  0  0  0  0  0  0  0  # atno 17395 bound_to 11000

$$$$
