AV-unprocessed.smi:1768|AV-procd|sdf|7145|dock1
  -GOLD-   22720 8383D 1   1.00000     0.00000
 Structure written by MMmdl.
 33 34  0  0  0  0  0  0  0  0  1 V2000
  145.5128  143.7268  162.0409 C   0  0  0  0  0  0  0  0  0  0  0  0
  146.0151  143.1870  160.7454 C   0  0  0  0  0  0  0  0  0  0  0  0
  145.6287  142.0040  160.2524 N   0  0  0  0  0  0  0  0  0  0  0  0
  146.2306  141.7195  159.0346 N   0  0  0  0  0  0  0  0  0  0  0  0
  147.0566  142.6999  158.6440 C   0  0  0  0  0  0  0  0  0  0  0  0
  147.8025  142.6705  157.4361 N   0  0  0  0  0  0  0  0  0  0  0  0
  147.9837  141.6394  156.5924 C   0  0  0  0  0  0  0  0  0  0  0  0
  147.5130  140.5111  156.7379 O   0  0  0  0  0  0  0  0  0  0  0  0
  148.7532  141.9976  155.5539 N   0  0  0  0  0  0  0  0  0  0  0  0
  149.1353  141.1400  154.4340 C   0  0  2  0  0  0  0  0  0  0  0  0
  147.8647  140.7015  153.6898 C   0  0  0  0  0  0  0  0  0  0  0  0
  149.9495  139.9438  154.9636 C   0  0  1  0  0  0  0  0  0  0  0  0
  150.0769  138.7730  153.9870 C   0  0  0  0  0  0  0  0  0  0  0  0
  151.3803  138.1000  154.3918 C   0  0  0  0  0  0  0  0  0  0  0  0
  152.0498  139.1112  155.3257 C   0  0  0  0  0  0  0  0  0  0  0  0
  151.3069  140.3097  155.1608 O   0  0  0  0  0  0  0  0  0  0  0  0
  147.1673  144.0627  159.7451 S   0  0  0  0  0  0  0  0  0  0  0  0
  144.7834  143.0485  162.4849 H   0  0  0  0  0  0  0  0  0  0  0  0
  145.0371  144.6946  161.8814 H   0  0  0  0  0  0  0  0  0  0  0  0
  146.3417  143.8536  162.7376 H   0  0  0  0  0  0  0  0  0  0  0  0
  148.2487  143.5391  157.1824 H   0  0  0  0  0  0  0  0  0  0  0  0
  149.0910  142.9482  155.5247 H   0  0  0  0  0  0  0  0  0  0  0  0
  149.7596  141.6931  153.7301 H   0  0  0  0  0  0  0  0  0  0  0  0
  148.1048  140.0911  152.8193 H   0  0  0  0  0  0  0  0  0  0  0  0
  147.3018  141.5655  153.3345 H   0  0  0  0  0  0  0  0  0  0  0  0
  147.2075  140.1179  154.3352 H   0  0  0  0  0  0  0  0  0  0  0  0
  149.5397  139.5915  155.9127 H   0  0  0  0  0  0  0  0  0  0  0  0
  149.2222  138.0973  154.0298 H   0  0  0  0  0  0  0  0  0  0  0  0
  150.1624  139.1418  152.9638 H   0  0  0  0  0  0  0  0  0  0  0  0
  151.2039  137.1551  154.9068 H   0  0  0  0  0  0  0  0  0  0  0  0
  151.9962  137.8952  153.5154 H   0  0  0  0  0  0  0  0  0  0  0  0
  151.9748  138.7834  156.3638 H   0  0  0  0  0  0  0  0  0  0  0  0
  153.1034  139.2654  155.0926 H   0  0  0  0  0  0  0  0  0  0  0  0
  1  2  1  0  0  0  0
  1 18  1  0  0  0  0
  1 19  1  0  0  0  0
  1 20  1  0  0  0  0
  2 17  1  0  0  0  0
  2  3  2  0  0  0  0
  3  4  1  0  0  0  0
  4  5  2  0  0  0  0
  5  6  1  0  0  0  0
  5 17  1  0  0  0  0
  6  7  1  0  0  0  0
  6 21  1  0  0  0  0
  7  8  2  0  0  0  0
  7  9  1  0  0  0  0
  9 10  1  0  0  0  0
  9 22  1  0  0  0  0
 10 11  1  0  0  0  0
 10 12  1  0  0  0  0
 10 23  1  0  0  0  0
 11 24  1  0  0  0  0
 11 25  1  0  0  0  0
 11 26  1  0  0  0  0
 12 16  1  0  0  0  0
 12 13  1  0  0  0  0
 12 27  1  0  0  0  0
 13 14  1  0  0  0  0
 13 28  1  0  0  0  0
 13 29  1  0  0  0  0
 14 15  1  0  0  0  0
 14 30  1  0  0  0  0
 14 31  1  0  0  0  0
 15 16  1  0  0  0  0
 15 32  1  0  0  0  0
 15 33  1  0  0  0  0
M  END
> <s_m_source_file>
AV-unprocessed.smi

> <i_m_source_file_index>
1768

> <i_lp_mmshare_version>
43012

> <i_f3d_flags>
0

> <s_epik_input>
W0NIM11jMW5uYyhzMSlbTkhdQyg9TylbTkhdW0NASF0oW0NIM10pW0NAQEhdMltDSDJdW0NIMl1bQ0gyXU8y

> <s_epik_cmdline>
J2VwaWtfcHl0aG9uJywgJy1waCcsICc3LjAnLCAnLXRuJywgJzgnLCAnLW1hJywgJzIwMCcsICctbWV0YWxfYmluZGluZycsICctaW1hZScsICc8aW5maWxlLm1hZT4nLCAnLW9tYWUnLCAnPG91dGZpbGUubWFlPic=

> <r_lp_tautomer_probability>
1

> <r_epik_Ionization_Penalty>
0.000523083

> <r_epik_Ionization_Penalty_Charging>
0

> <r_epik_Ionization_Penalty_Neutral>
0.000523083

> <r_epik_State_Penalty>
-0

> <r_epik_Charging_Adjusted_Penalty>
0

> <i_epik_Tot_Q>
0

> <i_epik_Tot_abs_Q>
0

> <r_epik_Metal_State_Penalty>
0.223408

> <b_epik_Metal_Only>
0

> <s_lp_Force_Field>
OPLS_2005

> <r_lp_Energy>
16.8898

> <b_lp_Chiralities_Consistent>
1

> <s_lp_Variant>
AV-unprocessed.smi:1768-3

> <Gold.Version>
5.8.1

> <Gold.Id.Protein>
6NUR|6NUR_protein|mol2

> <Gold.PLP.Fitness>
38.2736

> <Gold.PLP.PLP>
-31.9289

> <Gold.PLP.part.hbond>
-5.3048

> <Gold.PLP.part.metal>
0.0000

> <Gold.PLP.part.buried>
-2.2900

> <Gold.PLP.part.nonpolar>
-24.2639

> <Gold.PLP.part.repulsive>
0.2280

> <Gold.PLP.ligand.clash>
0.0000

> <Gold.PLP.ligand.torsion>
0.3974

> <Gold.PLP.Chemscore.Hbond>
2.3720

> <Gold.PLP.Chemscore.CHOScore>
0.0000

> <Gold.PLP.Chemscore.Metal>
0.0000

> <Gold.Chemscore.Hbonds>
donor molecule, donor type, donor heavy atom, donor atom, acceptor molecule, acceptor atom, score
      L1  H     6    21       P1  8028  0.46
      L1  H     9    22       P1  8028  1.00
      P1  H  7989  7998       L1    16  0.90

> <Gold.PLP.Chemscore.Internal.Correction>
0.0235

> <Gold.Rescore>
     Score         DG    S(hbond)    S(metal)    S(lipo)     H(rot)  DE(clash)    DE(int)     intcor
     10.36     -12.67       0.99        0.00      61.56       1.29       0.06       2.26       ----

> <Gold.Chemscore.Fitness>
10.3615

> <Gold.Chemscore.DG>
-12.6733

> <Gold.Chemscore.ZeroCoef>
-5.4800

> <Gold.Chemscore.Hbond>
0.9874

> <Gold.Chemscore.Metal>
0.0000

> <Gold.Chemscore.Lipo>
61.5602

> <Gold.Chemscore.Internal_Hbond>
0.0000

> <Gold.Chemscore.DEClash>
0.0555

> <Gold.Chemscore.DEInternal>
2.2563

> <Gold.Chemscore.Rot>
1.2919

> <Gold.Chemscore.Internal.Correction>
   9.000000E+99

> <Gold.Chemscore.Hbonds>
donor molecule, donor type, donor heavy atom, donor atom, acceptor molecule, acceptor atom, score
      L1  H     6    21       P1  8028  0.02
      L1  H     9    22       P1  8028  0.97
      P1  H  7989  7998       L1    16  0.09

> <Gold.Chemscore.Hbond.Weighted>
-3.2979

> <Gold.Chemscore.Metal.Weighted>
-0.0000

> <Gold.Chemscore.Lipo.Weighted>
-7.2025

> <Gold.Chemscore.Internal_Hbond.Weighted>
0.0000

> <Gold.Chemscore.DEClash.Weighted>
0.0555

> <Gold.Chemscore.DEInternal.Weighted>
2.2563

> <Gold.Chemscore.Rot.Weighted>
3.3072

> <Gold.Chemscore.Internal.Correction.Weighted>
   9.000000E+99

> <Gold.Protein.RotatedTorsions>
[ 6907 6896 6895 6894 ] final  149.03 input  -60.11 | X-H torsion
[ 7974 7965 7964 7962 ] final  104.27 input  175.53 | X-H torsion
[ 8008 7997 7996 7995 ] final   48.02 input   59.86 | X-H torsion
[ 10167 10162 10161 10158 ] final  -61.45 input  -65.29 | X-H torsion
[ 10718 10713 10712 10709 ] final  -88.70 input   66.30 | X-H torsion
[ 10763 10752 10751 10750 ] final  -70.54 input  -60.55 | X-H torsion
[ 11005 11000 10999 10996 ] final   69.66 input  -57.11 | X-H torsion

> <Gold.Protein.ActiveResidues>
 VAL166  LYS551  ARG553  GLY616  TRP617  ASP618  TYR619  PRO620  LYS621  CYS622 
 ASP623  PHE694  ASN695  SER759  ASP760  ASP761  ALA762  ILE779  LEU786  VAL792 
 PHE793  MET794  SER795  GLU796  ALA797  LYS798  CYS799  TRP800  GLU811  SER814 

> <Gold.Protein.RotatedAtoms>
  152.1335  133.4421  159.4731 H   0  0  0  0  0  0  0  0  0  0  0  0  # atno 6907 bound_to 6896
  150.6880  134.2392  159.4475 H   0  0  0  0  0  0  0  0  0  0  0  0  # atno 6908 bound_to 6896
  152.0278  134.9785  160.0622 H   0  0  0  0  0  0  0  0  0  0  0  0  # atno 6909 bound_to 6896
  145.3350  139.2477  143.3640 H   0  0  0  0  0  0  0  0  0  0  0  0  # atno 7974 bound_to 7965
  155.3788  140.3427  155.4246 H   0  0  0  0  0  0  0  0  0  0  0  0  # atno 8008 bound_to 7997
  156.1622  140.1604  156.8626 H   0  0  0  0  0  0  0  0  0  0  0  0  # atno 8009 bound_to 7997
  154.5150  140.0780  156.8046 H   0  0  0  0  0  0  0  0  0  0  0  0  # atno 8010 bound_to 7997
  140.6005  143.2360  151.5940 H   0  0  0  0  0  0  0  0  0  0  0  0  # atno 10167 bound_to 10162
  155.9983  130.4845  150.5059 H   0  0  0  0  0  0  0  0  0  0  0  0  # atno 10718 bound_to 10713
  154.4191  135.5991  153.5999 H   0  0  0  0  0  0  0  0  0  0  0  0  # atno 10763 bound_to 10752
  152.9793  135.5948  154.3977 H   0  0  0  0  0  0  0  0  0  0  0  0  # atno 10764 bound_to 10752
  154.3800  135.2841  155.2195 H   0  0  0  0  0  0  0  0  0  0  0  0  # atno 10765 bound_to 10752
  139.9641  134.7011  156.0583 H   0  0  0  0  0  0  0  0  0  0  0  0  # atno 11005 bound_to 11000
  146.3030  140.3936  142.8697 LP  0  0  0  0  0  0  0  0  0  0  0  0  # atno 17320 bound_to 7965
  144.8834  140.7430  143.5972 LP  0  0  0  0  0  0  0  0  0  0  0  0  # atno 17321 bound_to 7965
  139.5287  144.2980  152.1097 LP  0  0  0  0  0  0  0  0  0  0  0  0  # atno 17342 bound_to 10162
  140.2159  144.4515  150.6364 LP  0  0  0  0  0  0  0  0  0  0  0  0  # atno 17343 bound_to 10162
  157.3038  131.0650  151.2050 LP  0  0  0  0  0  0  0  0  0  0  0  0  # atno 17370 bound_to 10713
  157.3020  130.6847  149.6169 LP  0  0  0  0  0  0  0  0  0  0  0  0  # atno 17371 bound_to 10713
  141.1320  133.6584  156.3489 LP  0  0  0  0  0  0  0  0  0  0  0  0  # atno 17394 bound_to 11000
  140.5435  134.6097  157.5387 LP  0  0  0  0  0  0  0  0  0  0  0  0  # atno 17395 bound_to 11000

$$$$
