AV-unprocessed.smi:2021|AV-procd|sdf|8182|dock9
  -GOLD-   2272010433D 1   1.00000     0.00000
 Structure written by MMmdl.
 41 42  0  0  0  0  0  0  0  0  3 V2000
  151.5710  144.7694  158.6936 C   0  0  0  0  0  0  0  0  0  0  0  0
  151.4279  143.2558  158.9130 C   0  0  0  0  0  0  0  0  0  0  0  0
  152.5201  142.7479  159.8693 C   0  0  0  0  0  0  0  0  0  0  0  0
  151.4481  142.5087  157.5616 C   0  0  0  0  0  0  0  0  0  0  0  0
  150.1014  142.3874  156.9394 N   0  3  2  0  0  0  0  0  0  0  0  0
  149.0775  141.8175  157.8489 C   0  0  0  0  0  0  0  0  0  0  0  0
  149.2137  140.2882  157.9491 C   0  0  0  0  0  0  0  0  0  0  0  0
  149.1212  139.7279  156.6471 O   0  0  0  0  0  0  0  0  0  0  0  0
  150.1735  140.1570  155.7884 C   0  0  1  0  0  0  0  0  0  0  0  0
  150.0415  139.4348  154.4363 C   0  0  0  0  0  0  0  0  0  0  0  0
  150.3616  138.0161  154.5532 N   0  0  0  0  0  0  0  0  0  0  0  0
  151.4303  137.4986  155.1748 C   0  0  0  0  0  0  0  0  0  0  0  0
  152.2390  138.2429  155.7342 O   0  0  0  0  0  0  0  0  0  0  0  0
  151.4972  136.1501  155.1066 N   0  5  0  0  0  0  0  0  0  0  0  0
  150.6309  135.3995  155.8074 C   0  0  0  0  0  0  0  0  0  0  0  0
  150.3438  135.6483  157.0951 N   0  0  0  0  0  0  0  0  0  0  0  0
  149.4250  134.7564  157.6320 N   0  0  0  0  0  0  0  0  0  0  0  0
  149.0473  133.8480  156.7328 C   0  0  0  0  0  0  0  0  0  0  0  0
  149.7848  133.9950  155.1514 S   0  0  0  0  0  0  0  0  0  0  0  0
  150.0763  141.6903  155.6270 C   0  0  0  0  0  0  0  0  0  0  0  0
  152.5236  145.0146  158.2223 H   0  0  0  0  0  0  0  0  0  0  0  0
  151.5193  145.3111  159.6386 H   0  0  0  0  0  0  0  0  0  0  0  0
  150.7750  145.1517  158.0539 H   0  0  0  0  0  0  0  0  0  0  0  0
  150.4632  143.1012  159.3948 H   0  0  0  0  0  0  0  0  0  0  0  0
  153.5149  142.8802  159.4427 H   0  0  0  0  0  0  0  0  0  0  0  0
  152.3930  141.6895  160.0975 H   0  0  0  0  0  0  0  0  0  0  0  0
  152.4917  143.2873  160.8168 H   0  0  0  0  0  0  0  0  0  0  0  0
  152.1363  142.9943  156.8699 H   0  0  0  0  0  0  0  0  0  0  0  0
  151.8548  141.5112  157.7348 H   0  0  0  0  0  0  0  0  0  0  0  0
  149.1331  142.2795  158.8350 H   0  0  0  0  0  0  0  0  0  0  0  0
  148.0917  142.0639  157.4521 H   0  0  0  0  0  0  0  0  0  0  0  0
  150.1540  140.0006  158.4216 H   0  0  0  0  0  0  0  0  0  0  0  0
  148.4119  139.8799  158.5644 H   0  0  0  0  0  0  0  0  0  0  0  0
  151.1343  139.8872  156.2293 H   0  0  0  0  0  0  0  0  0  0  0  0
  149.0462  139.5792  154.0129 H   0  0  0  0  0  0  0  0  0  0  0  0
  150.7432  139.8650  153.7215 H   0  0  0  0  0  0  0  0  0  0  0  0
  149.7258  137.3665  154.1140 H   0  0  0  0  0  0  0  0  0  0  0  0
  148.3338  133.0842  157.0034 H   0  0  0  0  0  0  0  0  0  0  0  0
  149.1351  141.9398  155.1350 H   0  0  0  0  0  0  0  0  0  0  0  0
  150.8638  142.0582  154.9710 H   0  0  0  0  0  0  0  0  0  0  0  0
  149.8108  143.3389  156.7645 H   0  0  0  0  0  0  0  0  0  0  0  0
  1  2  1  0  0  0  0
  1 21  1  0  0  0  0
  1 22  1  0  0  0  0
  1 23  1  0  0  0  0
  2  3  1  0  0  0  0
  2  4  1  0  0  0  0
  2 24  1  0  0  0  0
  3 25  1  0  0  0  0
  3 26  1  0  0  0  0
  3 27  1  0  0  0  0
  4  5  1  0  0  0  0
  4 28  1  0  0  0  0
  4 29  1  0  0  0  0
  5 20  1  0  0  0  0
  5  6  1  0  0  0  0
  5 41  1  0  0  0  0
  6  7  1  0  0  0  0
  6 30  1  0  0  0  0
  6 31  1  0  0  0  0
  7  8  1  0  0  0  0
  7 32  1  0  0  0  0
  7 33  1  0  0  0  0
  8  9  1  0  0  0  0
  9 10  1  0  0  0  0
  9 20  1  0  0  0  0
  9 34  1  0  0  0  0
 10 11  1  0  0  0  0
 10 35  1  0  0  0  0
 10 36  1  0  0  0  0
 11 12  1  0  0  0  0
 11 37  1  0  0  0  0
 12 13  2  0  0  0  0
 12 14  1  0  0  0  0
 14 15  1  0  0  0  0
 15 19  1  0  0  0  0
 15 16  2  0  0  0  0
 16 17  1  0  0  0  0
 17 18  2  0  0  0  0
 18 19  1  0  0  0  0
 18 38  1  0  0  0  0
 20 39  1  0  0  0  0
 20 40  1  0  0  0  0
M  CHG  1   5   1
M  CHG  1  14  -1
M  END
> <s_m_source_file>
AV-unprocessed.smi

> <i_m_source_file_index>
2021

> <i_lp_mmshare_version>
43012

> <i_f3d_flags>
0

> <s_epik_input>
W0NIM11bQ0hdKFtDSDNdKVtDSDJdTjFbQ0gyXVtDSDJdT1tDQEhdKFtDSDJdMSlbQ0gyXVtOSF1DKD1PKVtOSF1jMm5uW2NIXXMy

> <s_epik_cmdline>
J2VwaWtfcHl0aG9uJywgJy1waCcsICc3LjAnLCAnLXRuJywgJzgnLCAnLW1hJywgJzIwMCcsICctbWV0YWxfYmluZGluZycsICctaW1hZScsICc8aW5maWxlLm1hZT4nLCAnLW9tYWUnLCAnPG91dGZpbGUubWFlPic=

> <r_lp_tautomer_probability>
1

> <r_epik_Ionization_Penalty>
3.15762

> <r_epik_Ionization_Penalty_Charging>
3.12229

> <r_epik_Ionization_Penalty_Neutral>
0.0353298

> <r_epik_State_Penalty>
3.11266

> <r_epik_Charging_Adjusted_Penalty>
6.23495

> <i_epik_Tot_Q>
0

> <i_epik_Tot_abs_Q>
2

> <r_epik_Metal_State_Penalty>
0.541462

> <b_epik_Metal_Only>
1

> <s_lp_Force_Field>
OPLS_2005

> <r_lp_Energy>
12.8808

> <b_lp_Chiralities_Consistent>
1

> <s_lp_Variant>
AV-unprocessed.smi:2021-8

> <Gold.Version>
5.8.1

> <Gold.Id.Protein>
6NUR|6NUR_protein|mol2

> <Gold.PLP.Fitness>
44.6393

> <Gold.PLP.PLP>
-32.9764

> <Gold.PLP.part.hbond>
-3.0879

> <Gold.PLP.part.metal>
0.0000

> <Gold.PLP.part.buried>
-6.0905

> <Gold.PLP.part.nonpolar>
-24.3424

> <Gold.PLP.part.repulsive>
0.2059

> <Gold.PLP.ligand.clash>
0.0000

> <Gold.PLP.ligand.torsion>
1.5552

> <Gold.PLP.Chemscore.Hbond>
4.8800

> <Gold.PLP.Chemscore.CHOScore>
0.0000

> <Gold.PLP.Chemscore.Metal>
0.0000

> <Gold.Chemscore.Hbonds>
donor molecule, donor type, donor heavy atom, donor atom, acceptor molecule, acceptor atom, score
      L1  H     5    41       P1  8028  2.00
      P1  H  6896  6908       L1    17  0.39
      P1  H 10752 10763       L1    14  2.00

> <Gold.PLP.Chemscore.Internal.Correction>
0.1333

> <Gold.Rescore>
     Score         DG    S(hbond)    S(metal)    S(lipo)     H(rot)  DE(clash)    DE(int)     intcor
     15.39     -18.16       2.46        0.00      78.61       1.85       0.02       2.75       ----

> <Gold.Chemscore.Fitness>
15.3915

> <Gold.Chemscore.DG>
-18.1622

> <Gold.Chemscore.ZeroCoef>
-5.4800

> <Gold.Chemscore.Hbond>
2.4587

> <Gold.Chemscore.Metal>
0.0000

> <Gold.Chemscore.Lipo>
78.6109

> <Gold.Chemscore.Internal_Hbond>
0.0000

> <Gold.Chemscore.DEClash>
0.0174

> <Gold.Chemscore.DEInternal>
2.7533

> <Gold.Chemscore.Rot>
1.8466

> <Gold.Chemscore.Internal.Correction>
   9.000000E+99

> <Gold.Chemscore.Hbonds>
donor molecule, donor type, donor heavy atom, donor atom, acceptor molecule, acceptor atom, score
      L1  H     5    41       P1  8028  0.94
      P1  H  6896  6908       L1    17  0.06
      P1  H 10752 10763       L1    14  0.85

> <Gold.Chemscore.Hbond.Weighted>
-8.2119

> <Gold.Chemscore.Metal.Weighted>
-0.0000

> <Gold.Chemscore.Lipo.Weighted>
-9.1975

> <Gold.Chemscore.Internal_Hbond.Weighted>
0.0000

> <Gold.Chemscore.DEClash.Weighted>
0.0174

> <Gold.Chemscore.DEInternal.Weighted>
2.7533

> <Gold.Chemscore.Rot.Weighted>
4.7272

> <Gold.Chemscore.Internal.Correction.Weighted>
   9.000000E+99

> <Gold.Protein.RotatedTorsions>
[ 6907 6896 6895 6894 ] final  130.83 input  -60.11 | X-H torsion
[ 7974 7965 7964 7962 ] final  -91.03 input  175.53 | X-H torsion
[ 8008 7997 7996 7995 ] final -104.59 input   59.86 | X-H torsion
[ 10167 10162 10161 10158 ] final   22.67 input  -65.29 | X-H torsion
[ 10718 10713 10712 10709 ] final -101.58 input   66.30 | X-H torsion
[ 10763 10752 10751 10750 ] final   49.99 input  -60.55 | X-H torsion
[ 11005 11000 10999 10996 ] final -139.38 input  -57.11 | X-H torsion

> <Gold.Protein.ActiveResidues>
 VAL166  LYS551  ARG553  GLY616  TRP617  ASP618  TYR619  PRO620  LYS621  CYS622 
 ASP623  PHE694  ASN695  SER759  ASP760  ASP761  ALA762  ILE779  LEU786  VAL792 
 PHE793  MET794  SER795  GLU796  ALA797  LYS798  CYS799  TRP800  GLU811  SER814 

> <Gold.Protein.RotatedAtoms>
  152.3487  133.6153  159.5928 H   0  0  0  0  0  0  0  0  0  0  0  0  # atno 6907 bound_to 6896
  150.7523  133.9609  159.3524 H   0  0  0  0  0  0  0  0  0  0  0  0  # atno 6908 bound_to 6896
  151.7464  135.0843  160.0375 H   0  0  0  0  0  0  0  0  0  0  0  0  # atno 6909 bound_to 6896
  145.4186  140.9550  143.2194 H   0  0  0  0  0  0  0  0  0  0  0  0  # atno 7974 bound_to 7965
  154.8875  140.0417  157.1819 H   0  0  0  0  0  0  0  0  0  0  0  0  # atno 8008 bound_to 7997
  154.8575  140.2939  155.5539 H   0  0  0  0  0  0  0  0  0  0  0  0  # atno 8009 bound_to 7997
  156.2997  140.2453  156.3544 H   0  0  0  0  0  0  0  0  0  0  0  0  # atno 8010 bound_to 7997
  140.5330  143.9808  150.6476 H   0  0  0  0  0  0  0  0  0  0  0  0  # atno 10167 bound_to 10162
  156.0199  130.5380  150.6984 H   0  0  0  0  0  0  0  0  0  0  0  0  # atno 10718 bound_to 10713
  152.9785  135.5893  154.4180 H   0  0  0  0  0  0  0  0  0  0  0  0  # atno 10763 bound_to 10752
  154.3807  135.2767  155.2214 H   0  0  0  0  0  0  0  0  0  0  0  0  # atno 10764 bound_to 10752
  154.4129  135.6077  153.6018 H   0  0  0  0  0  0  0  0  0  0  0  0  # atno 10765 bound_to 10752
  140.8525  134.2269  157.4753 H   0  0  0  0  0  0  0  0  0  0  0  0  # atno 11005 bound_to 11000
  144.8260  139.5708  143.6965 LP  0  0  0  0  0  0  0  0  0  0  0  0  # atno 17320 bound_to 7965
  146.2668  139.6539  142.9324 LP  0  0  0  0  0  0  0  0  0  0  0  0  # atno 17321 bound_to 7965
  140.3188  143.3150  152.0805 LP  0  0  0  0  0  0  0  0  0  0  0  0  # atno 17342 bound_to 10162
  139.4961  144.6587  151.6513 LP  0  0  0  0  0  0  0  0  0  0  0  0  # atno 17343 bound_to 10162
  157.4650  131.0887  151.0705 LP  0  0  0  0  0  0  0  0  0  0  0  0  # atno 17370 bound_to 10713
  157.1181  130.6050  149.5498 LP  0  0  0  0  0  0  0  0  0  0  0  0  # atno 17371 bound_to 10713
  139.8704  134.9690  156.4651 LP  0  0  0  0  0  0  0  0  0  0  0  0  # atno 17394 bound_to 11000
  140.8774  133.7943  155.9430 LP  0  0  0  0  0  0  0  0  0  0  0  0  # atno 17395 bound_to 11000

$$$$
