#       Name:                AV-unprocessed.smi:1978
#       Creating user name   scv26
#       Creation time:       Fri Mar 27 10:18:59 2020


#       File generated by GOLD software.
#

@<TRIPOS>MOLECULE
AV-unprocessed.smi:1978
    50    51     1
SMALL
NO_CHARGES


@<TRIPOS>ATOM
      1 ****        -6.4356   5.2040   0.4573 C.3            1 S1                 0.0000
      2 ****        -5.0736   4.6280   0.6444 C.2            1 S1                 0.0000
      3 ****        -4.1925   4.0332  -0.2135 C.2            1 S1                 0.0000
      4 ****        -3.0877   3.7163   0.6235 C.2            1 S1                 0.0000
      5 ****        -1.9465   3.1246   0.2379 N.pl3          1 S1                -1.0000
      6 ****        -1.8849   1.7793   0.1118 C.2            1 S1                 0.0000
      7 ****        -2.8112   0.9844   0.2866 O.2            1 S1                 0.0000
      8 ****        -0.6712   1.3301  -0.2361 N.am           1 S1                 0.0000
      9 ****        -0.2881  -0.0676  -0.4100 C.3            1 S1                 0.0000
     10 ****         1.1930  -0.2908  -0.0290 C.3            1 S1                 0.0000
     11 ****         1.4915   0.0947   1.4368 C.3            1 S1                 0.0000
     12 ****         1.6486  -1.6791  -0.3676 N.4            1 S1                 1.0000
     13 ****         1.0125  -2.7439   0.4646 C.3            1 S1                 0.0000
     14 ****         1.2996  -4.1444  -0.0955 C.3            1 S1                 0.0000
     15 ****         2.8070  -4.3889  -0.1851 C.3            1 S1                 0.0000
     16 ****         3.4591  -3.2780  -1.0140 C.3            1 S1                 0.0000
     17 ****         3.1356  -1.8745  -0.4551 C.3            1 S1                 0.0000
     18 ****         3.8542  -0.8173  -1.3183 C.3            1 S1                 0.0000
     19 ****        -3.2758   4.0985   1.8753 N.2            1 S1                 0.0000
     20 ****        -4.5495   4.6794   1.8985 O.3            1 S1                 0.0000
     21 ****        -6.3931   6.0965  -0.1671 H              1 S1                 0.0000
     22 ****        -6.8811   5.4811   1.4131 H              1 S1                 0.0000
     23 ****        -7.0956   4.4835  -0.0258 H              1 S1                 0.0000
     24 ****        -4.3185   3.8500  -1.2699 H              1 S1                 0.0000
     25 ****         0.0508   2.0225  -0.3733 H              1 S1                 0.0000
     26 ****        -0.9396  -0.6976   0.1942 H              1 S1                 0.0000
     27 ****        -0.4567  -0.3417  -1.4521 H              1 S1                 0.0000
     28 ****         1.7333   0.4090  -0.6622 H              1 S1                 0.0000
     29 ****         1.2771   1.1481   1.6184 H              1 S1                 0.0000
     30 ****         2.5397  -0.0592   1.6914 H              1 S1                 0.0000
     31 ****         0.8862  -0.4798   2.1381 H              1 S1                 0.0000
     32 ****         1.3776  -2.6816   1.4904 H              1 S1                 0.0000
     33 ****        -0.0672  -2.6202   0.5104 H              1 S1                 0.0000
     34 ****         0.8378  -4.9017   0.5389 H              1 S1                 0.0000
     35 ****         0.8468  -4.2477  -1.0826 H              1 S1                 0.0000
     36 ****         3.2409  -4.4096   0.8156 H              1 S1                 0.0000
     37 ****         3.0064  -5.3624  -0.6341 H              1 S1                 0.0000
     38 ****         4.5384  -3.4348  -1.0348 H              1 S1                 0.0000
     39 ****         3.1189  -3.3501  -2.0481 H              1 S1                 0.0000
     40 ****         3.5473  -1.8153   0.5533 H              1 S1                 0.0000
     41 ****         4.8965  -1.0919  -1.4823 H              1 S1                 0.0000
     42 ****         3.8732   0.1609  -0.8383 H              1 S1                 0.0000
     43 ****         3.3846  -0.7140  -2.2971 H              1 S1                 0.0000
     44 ****         1.3109  -1.8324  -1.3071 H              1 S1                 0.0000
     45 ****        -1.1384   3.6805   0.0430 LP             1 S1                 0.0000
     46 ****        -3.7159   1.3205   0.5484 LP             1 S1                 0.0000
     47 ****        -2.6577   0.0035   0.1665 LP             1 S1                 0.0000
     48 ****        -2.6428   3.9948   2.6424 LP             1 S1                 0.0000
     49 ****        -5.1381   4.1752   2.5304 LP             1 S1                 0.0000
     50 ****        -4.4799   5.6317   2.1956 LP             1 S1                 0.0000
@<TRIPOS>BOND
    1    1    2 1     
    2    1   21 1     
    3    1   22 1     
    4    1   23 1     
    5    2   20 1     
    6    2    3 2     
    7    3    4 1     
    8    3   24 1     
    9    4    5 1     
   10    4   19 2     
   11    5    6 1     
   12    6    7 2     
   13    6    8 am    
   14    8    9 1     
   15    8   25 1     
   16    9   10 1     
   17    9   26 1     
   18    9   27 1     
   19   10   11 1     
   20   10   12 1     
   21   10   28 1     
   22   11   29 1     
   23   11   30 1     
   24   11   31 1     
   25   12   17 1     
   26   12   13 1     
   27   12   44 1     
   28   13   14 1     
   29   13   32 1     
   30   13   33 1     
   31   14   15 1     
   32   14   34 1     
   33   14   35 1     
   34   15   16 1     
   35   15   36 1     
   36   15   37 1     
   37   16   17 1     
   38   16   38 1     
   39   16   39 1     
   40   17   18 1     
   41   17   40 1     
   42   18   41 1     
   43   18   42 1     
   44   18   43 1     
   45   19   20 1     
   46    5   45 1     
   47    7   46 1     
   48    7   47 1     
   49   19   48 1     
   50   20   49 1     
   51   20   50 1     
@<TRIPOS>SUBSTRUCTURE
      1 S1             1
@<TRIPOS>SET
LONE_PAIRS      STATIC     ATOMS    <user>   **** ""
6 45 46 47 48 49 50
DONOR_HYDROGENS      STATIC     ATOMS    <user>   **** ""
2 25 44
ATOM$BLUE        STATIC     ATOMS    COLORGROUP SYSTEM
6 45 46 47 48 49 50
ATOM$RED        STATIC     ATOMS    COLORGROUP SYSTEM
2 25 44
