AV-unprocessed.smi:2784|AV-procd|sdf|10744|dock3
  -GOLD-   2272015183D 1   1.00000     0.00000
 Structure written by MMmdl.
 30 31  0  0  0  0  0  0  0  0  2 V2000
  153.0128  142.5948  161.9304 C   0  0  0  0  0  0  0  0  0  0  0  0
  152.7426  142.3806  160.5547 O   0  0  0  0  0  0  0  0  0  0  0  0
  152.7208  143.5775  159.7816 C   0  0  2  0  0  0  0  0  0  0  0  0
  151.6711  144.5242  160.3732 C   0  0  0  0  0  0  0  0  0  0  0  0
  150.3510  144.0226  159.7944 C   0  0  0  0  0  0  0  0  0  0  0  0
  150.6930  143.5816  158.3688 C   0  0  0  0  0  0  0  0  0  0  0  0
  152.2055  143.2836  158.3538 C   0  0  2  0  0  0  0  0  0  0  0  0
  152.4732  141.9149  157.9139 N   0  0  0  0  0  0  0  0  0  0  0  0
  151.8942  141.3024  156.8712 C   0  0  0  0  0  0  0  0  0  0  0  0
  151.0566  141.9031  156.1939 O   0  0  0  0  0  0  0  0  0  0  0  0
  152.3234  140.0350  156.6758 N   0  5  0  0  0  0  0  0  0  0  0  0
  151.8078  139.3013  155.6765 C   0  0  0  0  0  0  0  0  0  0  0  0
  150.8282  139.6691  154.8486 N   0  0  0  0  0  0  0  0  0  0  0  0
  150.6305  138.5949  153.9948 C   0  0  0  0  0  0  0  0  0  0  0  0
  151.5069  137.6071  154.3527 C   0  0  0  0  0  0  0  0  0  0  0  0
  152.2524  138.0393  155.4144 O   0  0  0  0  0  0  0  0  0  0  0  0
  152.9852  141.6426  162.4597 H   0  0  0  0  0  0  0  0  0  0  0  0
  152.2770  143.2558  162.3888 H   0  0  0  0  0  0  0  0  0  0  0  0
  154.0050  143.0257  162.0702 H   0  0  0  0  0  0  0  0  0  0  0  0
  153.7126  144.0322  159.7423 H   0  0  0  0  0  0  0  0  0  0  0  0
  151.6690  144.5475  161.4629 H   0  0  0  0  0  0  0  0  0  0  0  0
  151.8584  145.5401  160.0230 H   0  0  0  0  0  0  0  0  0  0  0  0
  150.0051  143.1626  160.3694 H   0  0  0  0  0  0  0  0  0  0  0  0
  149.5654  144.7781  159.8229 H   0  0  0  0  0  0  0  0  0  0  0  0
  150.0868  142.7261  158.0673 H   0  0  0  0  0  0  0  0  0  0  0  0
  150.4750  144.3891  157.6689 H   0  0  0  0  0  0  0  0  0  0  0  0
  152.6751  143.9795  157.6560 H   0  0  0  0  0  0  0  0  0  0  0  0
  153.1591  141.3922  158.4382 H   0  0  0  0  0  0  0  0  0  0  0  0
  149.8899  138.6179  153.2093 H   0  0  0  0  0  0  0  0  0  0  0  0
  151.7135  136.6138  153.9840 H   0  0  0  0  0  0  0  0  0  0  0  0
  1  2  1  0  0  0  0
  1 17  1  0  0  0  0
  1 18  1  0  0  0  0
  1 19  1  0  0  0  0
  2  3  1  0  0  0  0
  3  7  1  0  0  0  0
  3  4  1  0  0  0  0
  3 20  1  0  0  0  0
  4  5  1  0  0  0  0
  4 21  1  0  0  0  0
  4 22  1  0  0  0  0
  5  6  1  0  0  0  0
  5 23  1  0  0  0  0
  5 24  1  0  0  0  0
  6  7  1  0  0  0  0
  6 25  1  0  0  0  0
  6 26  1  0  0  0  0
  7  8  1  0  0  0  0
  7 27  1  0  0  0  0
  8 28  1  0  0  0  0
  8  9  1  0  0  0  0
  9 11  1  0  0  0  0
  9 10  2  0  0  0  0
 11 12  1  0  0  0  0
 12 16  1  0  0  0  0
 12 13  2  0  0  0  0
 13 14  1  0  0  0  0
 14 29  1  0  0  0  0
 14 15  2  0  0  0  0
 15 30  1  0  0  0  0
 15 16  1  0  0  0  0
M  CHG  1  11  -1
M  END
> <s_m_source_file>
AV-unprocessed.smi

> <i_m_source_file_index>
2784

> <i_lp_mmshare_version>
43012

> <i_f3d_flags>
0

> <s_epik_input>
W0NIM11PW0NAQEhdMVtDSDJdW0NIMl1bQ0gyXVtDQEhdMVtOSF1DKD1PKVtOSF1jMm5bY0hdW2NIXW8y

> <s_epik_cmdline>
J2VwaWtfcHl0aG9uJywgJy1waCcsICc3LjAnLCAnLXRuJywgJzgnLCAnLW1hJywgJzIwMCcsICctbWV0YWxfYmluZGluZycsICctaW1hZScsICc8aW5maWxlLm1hZT4nLCAnLW9tYWUnLCAnPG91dGZpbGUubWFlPic=

> <r_lp_tautomer_probability>
0.107061

> <r_epik_Ionization_Penalty>
10.8857

> <r_epik_Ionization_Penalty_Charging>
7.67908

> <r_epik_Ionization_Penalty_Neutral>
3.20665

> <r_epik_State_Penalty>
5.80296

> <r_epik_Charging_Adjusted_Penalty>
13.482

> <i_epik_Tot_Q>
-1

> <i_epik_Tot_abs_Q>
1

> <r_epik_Metal_State_Penalty>
1.73217

> <b_epik_Metal_Only>
1

> <s_lp_Force_Field>
OPLS_2005

> <r_lp_Energy>
16.6082

> <b_lp_Chiralities_Consistent>
1

> <s_lp_Variant>
AV-unprocessed.smi:2784-19

> <Gold.Version>
5.8.1

> <Gold.Id.Protein>
6NUR|6NUR_protein|mol2

> <Gold.PLP.Fitness>
40.2357

> <Gold.PLP.PLP>
-26.7947

> <Gold.PLP.part.hbond>
-2.0000

> <Gold.PLP.part.metal>
0.0000

> <Gold.PLP.part.buried>
-0.6405

> <Gold.PLP.part.nonpolar>
-23.2851

> <Gold.PLP.part.repulsive>
0.2497

> <Gold.PLP.ligand.clash>
0.0000

> <Gold.PLP.ligand.torsion>
0.2234

> <Gold.PLP.Chemscore.Hbond>
2.7350

> <Gold.PLP.Chemscore.CHOScore>
1.8890

> <Gold.PLP.Chemscore.Metal>
0.0000

> <Gold.Chemscore.Hbonds>
donor molecule, donor type, donor heavy atom, donor atom, acceptor molecule, acceptor atom, score
      P1  H  7989  7998       L1    13  0.80
      P1  H  7997  8010       L1    11  2.00
      L1  C    14    29       P1  7948  0.17
      L1  C    14    29       P1  7957  1.00
      L1  C    15    30       P1  7949  0.62

> <Gold.PLP.Chemscore.Internal.Correction>
0.0160

> <Gold.Rescore>
     Score         DG    S(hbond)    S(metal)    S(lipo)     H(rot)  DE(clash)    DE(int)     intcor
     10.01     -13.66       0.62        0.00      80.93       1.31       0.41       3.24       ----

> <Gold.Chemscore.Fitness>
10.0136

> <Gold.Chemscore.DG>
-13.6647

> <Gold.Chemscore.ZeroCoef>
-5.4800

> <Gold.Chemscore.Hbond>
0.6200

> <Gold.Chemscore.Metal>
0.0000

> <Gold.Chemscore.Lipo>
80.9310

> <Gold.Chemscore.Internal_Hbond>
0.0000

> <Gold.Chemscore.DEClash>
0.4080

> <Gold.Chemscore.DEInternal>
3.2432

> <Gold.Chemscore.Rot>
1.3106

> <Gold.Chemscore.Internal.Correction>
   9.000000E+99

> <Gold.Chemscore.Hbonds>
donor molecule, donor type, donor heavy atom, donor atom, acceptor molecule, acceptor atom, score
      P1  H  7989  7998       L1    13  0.07
      P1  H  7997  8010       L1    11  0.42

> <Gold.Chemscore.Hbond.Weighted>
-2.0708

> <Gold.Chemscore.Metal.Weighted>
-0.0000

> <Gold.Chemscore.Lipo.Weighted>
-9.4689

> <Gold.Chemscore.Internal_Hbond.Weighted>
0.0000

> <Gold.Chemscore.DEClash.Weighted>
0.4080

> <Gold.Chemscore.DEInternal.Weighted>
3.2432

> <Gold.Chemscore.Rot.Weighted>
3.3550

> <Gold.Chemscore.Internal.Correction.Weighted>
   9.000000E+99

> <Gold.Protein.RotatedTorsions>
[ 6907 6896 6895 6894 ] final  154.05 input  -60.11 | X-H torsion
[ 7974 7965 7964 7962 ] final  -36.19 input  175.53 | X-H torsion
[ 8008 7997 7996 7995 ] final   68.78 input   59.86 | X-H torsion
[ 10167 10162 10161 10158 ] final -158.43 input  -65.29 | X-H torsion
[ 10718 10713 10712 10709 ] final  -11.90 input   66.30 | X-H torsion
[ 10763 10752 10751 10750 ] final -149.62 input  -60.55 | X-H torsion
[ 11005 11000 10999 10996 ] final  167.68 input  -57.11 | X-H torsion

> <Gold.Protein.ActiveResidues>
 VAL166  LYS551  ARG553  GLY616  TRP617  ASP618  TYR619  PRO620  LYS621  CYS622 
 ASP623  PHE694  ASN695  SER759  ASP760  ASP761  ALA762  ILE779  LEU786  VAL792 
 PHE793  MET794  SER795  GLU796  ALA797  LYS798  CYS799  TRP800  GLU811  SER814 

> <Gold.Protein.RotatedAtoms>
  152.0640  133.4075  159.4429 H   0  0  0  0  0  0  0  0  0  0  0  0  # atno 6907 bound_to 6896
  150.6865  134.3168  159.4778 H   0  0  0  0  0  0  0  0  0  0  0  0  # atno 6908 bound_to 6896
  152.0992  134.9353  160.0620 H   0  0  0  0  0  0  0  0  0  0  0  0  # atno 6909 bound_to 6896
  146.0683  140.6249  142.8964 H   0  0  0  0  0  0  0  0  0  0  0  0  # atno 7974 bound_to 7965
  155.7136  140.3494  155.4984 H   0  0  0  0  0  0  0  0  0  0  0  0  # atno 8008 bound_to 7997
  155.9333  140.1088  157.1136 H   0  0  0  0  0  0  0  0  0  0  0  0  # atno 8009 bound_to 7997
  154.4089  140.1227  156.4818 H   0  0  0  0  0  0  0  0  0  0  0  0  # atno 8010 bound_to 7997
  139.6693  143.9774  152.2274 H   0  0  0  0  0  0  0  0  0  0  0  0  # atno 10167 bound_to 10162
  156.6524  130.4958  149.6058 H   0  0  0  0  0  0  0  0  0  0  0  0  # atno 10718 bound_to 10713
  154.8166  135.3304  154.7157 H   0  0  0  0  0  0  0  0  0  0  0  0  # atno 10763 bound_to 10752
  153.7797  135.6919  153.4895 H   0  0  0  0  0  0  0  0  0  0  0  0  # atno 10764 bound_to 10752
  153.1988  135.4523  155.0189 H   0  0  0  0  0  0  0  0  0  0  0  0  # atno 10765 bound_to 10752
  140.2793  134.7763  157.3744 H   0  0  0  0  0  0  0  0  0  0  0  0  # atno 11005 bound_to 11000
  144.7216  140.4390  143.7004 LP  0  0  0  0  0  0  0  0  0  0  0  0  # atno 17320 bound_to 7965
  145.6438  139.1554  143.2901 LP  0  0  0  0  0  0  0  0  0  0  0  0  # atno 17321 bound_to 7965
  139.9534  144.6605  150.8150 LP  0  0  0  0  0  0  0  0  0  0  0  0  # atno 17342 bound_to 10162
  140.7611  143.3168  151.2715 LP  0  0  0  0  0  0  0  0  0  0  0  0  # atno 17343 bound_to 10162
  156.2074  130.6658  151.1233 LP  0  0  0  0  0  0  0  0  0  0  0  0  # atno 17370 bound_to 10713
  157.7137  131.0721  150.6408 LP  0  0  0  0  0  0  0  0  0  0  0  0  # atno 17371 bound_to 10713
  140.1298  134.5110  155.8115 LP  0  0  0  0  0  0  0  0  0  0  0  0  # atno 17394 bound_to 11000
  141.2165  133.6786  156.7019 LP  0  0  0  0  0  0  0  0  0  0  0  0  # atno 17395 bound_to 11000

$$$$
