#       Name:                AV-unprocessed.smi:2016
#       Creating user name   scv26
#       Creation time:       Fri Mar 27 10:41:17 2020


#       File generated by GOLD software.
#

@<TRIPOS>MOLECULE
AV-unprocessed.smi:2016
    48    49     1
SMALL
NO_CHARGES


@<TRIPOS>ATOM
      1 ****        -4.0804  -4.4476  -1.3230 C.3            1 S1                 0.0000
      2 ****        -3.9312  -3.1634  -2.1420 C.2            1 S1                 0.0000
      3 ****        -4.0977  -3.2319  -3.3599 O.2            1 S1                 0.0000
      4 ****        -3.6203  -2.0063  -1.5092 N.am           1 S1                 0.0000
      5 ****        -3.3349  -1.8714  -0.0754 C.3            1 S1                 0.0000
      6 ****        -1.8320  -1.5958   0.1073 C.3            1 S1                 0.0000
      7 ****        -1.3867  -0.3498  -0.6941 C.3            1 S1                 0.0000
      8 ****         0.0670  -0.2201  -0.6776 N.am           1 S1                 0.0000
      9 ****         0.7894   0.2964   0.3281 C.2            1 S1                 0.0000
     10 ****         0.2884   0.7170   1.3720 O.2            1 S1                 0.0000
     11 ****         2.3104   0.3162   0.1180 C.3            1 S1                 0.0000
     12 ****         3.0156   1.2373   1.0260 N.am           1 S1                 0.0000
     13 ****         3.5909   0.6762   2.1801 C.2            1 S1                 0.0000
     14 ****         4.2536   1.4238   3.0728 C.2            1 S1                 0.0000
     15 ****         4.3695   2.8401   2.8245 C.2            1 S1                 0.0000
     16 ****         3.8226   3.4094   1.7254 C.2            1 S1                 0.0000
     17 ****         3.9372   4.9064   1.4464 C.3            1 S1                 0.0000
     18 ****         2.7282   5.4659   1.3876 F              1 S1                 0.0000
     19 ****         4.6318   5.5354   2.3956 F              1 S1                 0.0000
     20 ****         4.5523   5.1207   0.2828 F              1 S1                 0.0000
     21 ****         3.0912   2.5762   0.7492 C.2            1 S1                 0.0000
     22 ****         2.5730   3.0487  -0.2642 O.2            1 S1                 0.0000
     23 ****        -1.8822  -0.4125  -2.1553 C.3            1 S1                 0.0000
     24 ****        -3.3829  -0.7484  -2.2265 C.3            1 S1                 0.0000
     25 ****        -3.1596  -4.6732  -0.7843 H              1 S1                 0.0000
     26 ****        -4.3003  -5.2948  -1.9738 H              1 S1                 0.0000
     27 ****        -4.8982  -4.3567  -0.6076 H              1 S1                 0.0000
     28 ****        -3.9160  -1.0410   0.3286 H              1 S1                 0.0000
     29 ****        -3.6266  -2.7406   0.5121 H              1 S1                 0.0000
     30 ****        -1.6073  -1.4631   1.1661 H              1 S1                 0.0000
     31 ****        -1.2666  -2.4694  -0.2213 H              1 S1                 0.0000
     32 ****        -1.8302   0.5348  -0.2325 H              1 S1                 0.0000
     33 ****         0.5611  -0.5450  -1.4959 H              1 S1                 0.0000
     34 ****         2.6823  -0.7018   0.2421 H              1 S1                 0.0000
     35 ****         2.5283   0.5726  -0.9207 H              1 S1                 0.0000
     36 ****         3.4526  -0.3892   2.2949 H              1 S1                 0.0000
     37 ****         4.6862   0.9782   3.9565 H              1 S1                 0.0000
     38 ****         4.9065   3.4438   3.5408 H              1 S1                 0.0000
     39 ****        -1.6893   0.5363  -2.6576 H              1 S1                 0.0000
     40 ****        -1.3225  -1.1718  -2.7040 H              1 S1                 0.0000
     41 ****        -3.7051  -0.7882  -3.2678 H              1 S1                 0.0000
     42 ****        -3.9689   0.0481  -1.7654 H              1 S1                 0.0000
     43 ****        -4.3232  -4.1084  -3.7852 LP             1 S1                 0.0000
     44 ****        -4.0074  -2.4111  -3.9238 LP             1 S1                 0.0000
     45 ****        -0.7027   0.6827   1.5002 LP             1 S1                 0.0000
     46 ****         0.8729   1.0926   2.0912 LP             1 S1                 0.0000
     47 ****         2.0864   2.4515  -0.9018 LP             1 S1                 0.0000
     48 ****         2.6391   4.0292  -0.4488 LP             1 S1                 0.0000
@<TRIPOS>BOND
    1    1    2 1     
    2    1   25 1     
    3    1   26 1     
    4    1   27 1     
    5    2    3 2     
    6    2    4 am    
    7    4   24 1     
    8    4    5 1     
    9    5    6 1     
   10    5   28 1     
   11    5   29 1     
   12    6    7 1     
   13    6   30 1     
   14    6   31 1     
   15    7    8 1     
   16    7   23 1     
   17    7   32 1     
   18    8    9 am    
   19    8   33 1     
   20    9   10 2     
   21    9   11 1     
   22   11   12 1     
   23   11   34 1     
   24   11   35 1     
   25   12   21 am    
   26   12   13 1     
   27   13   14 2     
   28   13   36 1     
   29   14   15 1     
   30   14   37 1     
   31   15   16 2     
   32   15   38 1     
   33   16   17 1     
   34   16   21 1     
   35   17   18 1     
   36   17   19 1     
   37   17   20 1     
   38   21   22 2     
   39   23   24 1     
   40   23   39 1     
   41   23   40 1     
   42   24   41 1     
   43   24   42 1     
   44    3   43 1     
   45    3   44 1     
   46   10   45 1     
   47   10   46 1     
   48   22   47 1     
   49   22   48 1     
@<TRIPOS>SUBSTRUCTURE
      1 S1             1
@<TRIPOS>SET
LONE_PAIRS      STATIC     ATOMS    <user>   **** ""
6 43 44 45 46 47 48
DONOR_HYDROGENS      STATIC     ATOMS    <user>   **** ""
1 33
ATOM$BLUE        STATIC     ATOMS    COLORGROUP SYSTEM
6 43 44 45 46 47 48
ATOM$RED        STATIC     ATOMS    COLORGROUP SYSTEM
1 33
