#       Name:                AV-unprocessed.smi:3220
#       Creating user name   scv26
#       Creation time:       Fri Mar 27 18:14:03 2020


#       File generated by GOLD software.
#

@<TRIPOS>MOLECULE
AV-unprocessed.smi:3220
    38    39     1
SMALL
NO_CHARGES


@<TRIPOS>ATOM
      1 ****        -0.5339  -2.9098   2.0051 C.3            1 S1                 0.0000
      2 ****        -0.0342  -2.0484   0.8360 C.3            1 S1                 0.0000
      3 ****         1.5054  -2.0115   0.7736 C.3            1 S1                 0.0000
      4 ****         1.9976  -1.2636  -0.3706 N.pl3          1 S1                 0.0000
      5 ****         2.6047  -0.0254  -0.3877 C.2            1 S1                 0.0000
      6 ****         2.8816   0.2737  -1.6907 C.2            1 S1                 0.0000
      7 ****         2.4057  -0.8607  -2.4058 C.2            1 S1                 0.0000
      8 ****         1.8806  -1.7806  -1.6128 N.2            1 S1                 0.0000
      9 ****        -0.5581  -0.6903   0.9622 N.am           1 S1                 0.0000
     10 ****        -1.6802  -0.2243   0.3909 C.2            1 S1                 0.0000
     11 ****        -2.4446  -0.9334  -0.2638 O.2            1 S1                 0.0000
     12 ****        -2.0000   1.2669   0.6028 C.3            1 S1                 0.0000
     13 ****        -2.4856   1.9848  -0.6744 C.3            1 S1                 0.0000
     14 ****        -1.4497   3.0703  -0.9177 C.3            1 S1                 0.0000
     15 ****        -0.2354   2.5595  -0.1574 C.3            1 S1                 0.0000
     16 ****        -0.8210   1.9739   0.9950 O.3            1 S1                 0.0000
     17 ****        -0.1655  -3.9326   1.9232 H              1 S1                 0.0000
     18 ****        -1.6233  -2.9544   2.0237 H              1 S1                 0.0000
     19 ****        -0.1998  -2.5112   2.9636 H              1 S1                 0.0000
     20 ****        -0.3979  -2.4961  -0.0909 H              1 S1                 0.0000
     21 ****         1.9146  -1.5674   1.6824 H              1 S1                 0.0000
     22 ****         1.9055  -3.0247   0.7142 H              1 S1                 0.0000
     23 ****         2.7806   0.5363   0.5180 H              1 S1                 0.0000
     24 ****         3.3518   1.1667  -2.0747 H              1 S1                 0.0000
     25 ****         2.4259  -1.0422  -3.4702 H              1 S1                 0.0000
     26 ****        -0.0017  -0.0362   1.4938 H              1 S1                 0.0000
     27 ****        -2.7392   1.3492   1.4002 H              1 S1                 0.0000
     28 ****        -2.5266   1.3168  -1.5360 H              1 S1                 0.0000
     29 ****        -3.4815   2.4099  -0.5472 H              1 S1                 0.0000
     30 ****        -1.2480   3.2406  -1.9757 H              1 S1                 0.0000
     31 ****        -1.7887   4.0104  -0.4807 H              1 S1                 0.0000
     32 ****         0.2963   1.8007  -0.7333 H              1 S1                 0.0000
     33 ****         0.4660   3.3520   0.1039 H              1 S1                 0.0000
     34 ****         1.4856  -2.6612  -1.8745 LP             1 S1                 0.0000
     35 ****        -2.2414  -1.9044  -0.3896 LP             1 S1                 0.0000
     36 ****        -3.2688  -0.5383  -0.6697 LP             1 S1                 0.0000
     37 ****        -0.1729   1.3394   1.4160 LP             1 S1                 0.0000
     38 ****        -1.0607   2.6896   1.6510 LP             1 S1                 0.0000
@<TRIPOS>BOND
    1    1    2 1     
    2    1   17 1     
    3    1   18 1     
    4    1   19 1     
    5    2    3 1     
    6    2    9 1     
    7    2   20 1     
    8    3    4 1     
    9    3   21 1     
   10    3   22 1     
   11    4    8 1     
   12    4    5 1     
   13    5    6 2     
   14    5   23 1     
   15    6    7 1     
   16    6   24 1     
   17    7    8 2     
   18    7   25 1     
   19    9   10 am    
   20    9   26 1     
   21   10   11 2     
   22   10   12 1     
   23   12   16 1     
   24   12   13 1     
   25   12   27 1     
   26   13   14 1     
   27   13   28 1     
   28   13   29 1     
   29   14   15 1     
   30   14   30 1     
   31   14   31 1     
   32   15   16 1     
   33   15   32 1     
   34   15   33 1     
   35    8   34 1     
   36   11   35 1     
   37   11   36 1     
   38   16   37 1     
   39   16   38 1     
@<TRIPOS>SUBSTRUCTURE
      1 S1             1
@<TRIPOS>SET
LONE_PAIRS      STATIC     ATOMS    <user>   **** ""
5 34 35 36 37 38
DONOR_HYDROGENS      STATIC     ATOMS    <user>   **** ""
1 26
ATOM$BLUE        STATIC     ATOMS    COLORGROUP SYSTEM
5 34 35 36 37 38
ATOM$RED        STATIC     ATOMS    COLORGROUP SYSTEM
1 26
