AV-unprocessed.smi:3237|AV-procd|sdf|12366|dock7
  -GOLD-   2272018223D 1   1.00000     0.00000
 Structure written by MMmdl.
 37 39  0  0  0  0  0  0  0  0  2 V2000
  146.1723  129.4252  152.3258 C   0  0  0  0  0  0  0  0  0  0  0  0
  146.1655  130.8805  152.0051 C   0  0  0  0  0  0  0  0  0  0  0  0
  146.7321  131.9683  152.6073 C   0  0  0  0  0  0  0  0  0  0  0  0
  146.3181  133.0465  151.7721 C   0  0  0  0  0  0  0  0  0  0  0  0
  146.6429  134.4161  151.9474 N   0  0  0  0  0  0  0  0  0  0  0  0
  145.8852  135.3897  152.4792 C   0  0  0  0  0  0  0  0  0  0  0  0
  144.7448  135.2478  152.9203 O   0  0  0  0  0  0  0  0  0  0  0  0
  146.5243  136.5682  152.4616 N   0  0  0  0  0  0  0  0  0  0  0  0
  145.9618  137.8262  152.9421 C   0  0  1  0  0  0  0  0  0  0  0  0
  146.1207  138.0304  154.4485 C   0  0  0  0  0  0  0  0  0  0  0  0
  146.1877  139.5575  154.6260 C   0  0  0  0  0  0  0  0  0  0  0  0
  146.2995  140.1457  153.2701 N   0  3  1  0  0  0  0  0  0  0  0  0
  147.1874  141.3246  153.1886 C   0  0  0  0  0  0  0  0  0  0  0  0
  148.3048  141.3114  154.2041 C   0  0  0  0  0  0  0  0  0  0  0  0
  147.1120  142.2217  154.4007 C   0  0  0  0  0  0  0  0  0  0  0  0
  146.6744  139.0479  152.3625 C   0  0  0  0  0  0  0  0  0  0  0  0
  145.5804  132.6471  150.7528 N   0  0  0  0  0  0  0  0  0  0  0  0
  145.4720  131.2592  150.8979 O   0  0  0  0  0  0  0  0  0  0  0  0
  146.7973  129.2203  153.1952 H   0  0  0  0  0  0  0  0  0  0  0  0
  146.5598  128.8465  151.4872 H   0  0  0  0  0  0  0  0  0  0  0  0
  145.1638  129.0735  152.5439 H   0  0  0  0  0  0  0  0  0  0  0  0
  147.3420  131.9730  153.4980 H   0  0  0  0  0  0  0  0  0  0  0  0
  147.5499  134.6905  151.5997 H   0  0  0  0  0  0  0  0  0  0  0  0
  147.4606  136.5980  152.0844 H   0  0  0  0  0  0  0  0  0  0  0  0
  144.8998  137.8746  152.6918 H   0  0  0  0  0  0  0  0  0  0  0  0
  145.3052  137.5792  155.0151 H   0  0  0  0  0  0  0  0  0  0  0  0
  147.0530  137.5836  154.7975 H   0  0  0  0  0  0  0  0  0  0  0  0
  145.2909  139.9439  155.1113 H   0  0  0  0  0  0  0  0  0  0  0  0
  147.0432  139.8263  155.2479 H   0  0  0  0  0  0  0  0  0  0  0  0
  147.3460  141.7464  152.1975 H   0  0  0  0  0  0  0  0  0  0  0  0
  148.3927  140.4491  154.8625 H   0  0  0  0  0  0  0  0  0  0  0  0
  149.2462  141.7774  153.9207 H   0  0  0  0  0  0  0  0  0  0  0  0
  147.2695  143.2875  154.2477 H   0  0  0  0  0  0  0  0  0  0  0  0
  146.4078  141.9643  155.1897 H   0  0  0  0  0  0  0  0  0  0  0  0
  147.7567  138.9046  152.3819 H   0  0  0  0  0  0  0  0  0  0  0  0
  146.3773  139.2618  151.3352 H   0  0  0  0  0  0  0  0  0  0  0  0
  145.3698  140.4366  153.0029 H   0  0  0  0  0  0  0  0  0  0  0  0
  1  2  1  0  0  0  0
  1 19  1  0  0  0  0
  1 20  1  0  0  0  0
  1 21  1  0  0  0  0
  2 18  1  0  0  0  0
  2  3  2  0  0  0  0
  3  4  1  0  0  0  0
  3 22  1  0  0  0  0
  4  5  1  0  0  0  0
  4 17  2  0  0  0  0
  5  6  1  0  0  0  0
  5 23  1  0  0  0  0
  6  7  2  0  0  0  0
  6  8  1  0  0  0  0
  8  9  1  0  0  0  0
  8 24  1  0  0  0  0
  9 16  1  0  0  0  0
  9 10  1  0  0  0  0
  9 25  1  0  0  0  0
 10 11  1  0  0  0  0
 10 26  1  0  0  0  0
 10 27  1  0  0  0  0
 11 12  1  0  0  0  0
 11 28  1  0  0  0  0
 11 29  1  0  0  0  0
 12 13  1  0  0  0  0
 12 16  1  0  0  0  0
 12 37  1  0  0  0  0
 13 15  1  0  0  0  0
 13 14  1  0  0  0  0
 13 30  1  0  0  0  0
 14 15  1  0  0  0  0
 14 31  1  0  0  0  0
 14 32  1  0  0  0  0
 15 33  1  0  0  0  0
 15 34  1  0  0  0  0
 16 35  1  0  0  0  0
 16 36  1  0  0  0  0
 17 18  1  0  0  0  0
M  CHG  1  12   1
M  END
> <s_m_source_file>
AV-unprocessed.smi

> <i_m_source_file_index>
3237

> <i_lp_mmshare_version>
43012

> <i_f3d_flags>
0

> <s_epik_input>
W0NIM11jMVtjSF1jKG5vMSlbTkhdQyg9TylbTkhdW0NAQEhdMltDSDJdW0NIMl1OKFtDSDJdMilbQ0hdM1tDSDJdW0NIMl0z

> <s_epik_cmdline>
J2VwaWtfcHl0aG9uJywgJy1waCcsICc3LjAnLCAnLXRuJywgJzgnLCAnLW1hJywgJzIwMCcsICctbWV0YWxfYmluZGluZycsICctaW1hZScsICc8aW5maWxlLm1hZT4nLCAnLW9tYWUnLCAnPG91dGZpbGUubWFlPic=

> <r_epik_Ionization_Penalty>
0.000720579

> <r_epik_Ionization_Penalty_Charging>
0.000680516

> <r_epik_Ionization_Penalty_Neutral>
4.00628e-05

> <r_epik_State_Penalty>
0.000432256

> <r_epik_Charging_Adjusted_Penalty>
0.00111277

> <i_epik_Tot_Q>
1

> <i_epik_Tot_abs_Q>
1

> <r_epik_Metal_State_Penalty>
0.0255091

> <b_epik_Metal_Only>
0

> <s_lp_Force_Field>
OPLS_2005

> <r_lp_Energy>
35.1178

> <b_lp_Chiralities_Consistent>
1

> <s_lp_Variant>
AV-unprocessed.smi:3237-4

> <Gold.Version>
5.8.1

> <Gold.Id.Protein>
6NUR|6NUR_protein|mol2

> <Gold.PLP.Fitness>
37.7179

> <Gold.PLP.PLP>
-28.4070

> <Gold.PLP.part.hbond>
-2.8874

> <Gold.PLP.part.metal>
0.0000

> <Gold.PLP.part.buried>
-4.9357

> <Gold.PLP.part.nonpolar>
-21.2381

> <Gold.PLP.part.repulsive>
0.3599

> <Gold.PLP.ligand.clash>
0.0000

> <Gold.PLP.ligand.torsion>
1.6762

> <Gold.PLP.Chemscore.Hbond>
3.8001

> <Gold.PLP.Chemscore.CHOScore>
0.0000

> <Gold.PLP.Chemscore.Metal>
0.0000

> <Gold.Chemscore.Hbonds>
donor molecule, donor type, donor heavy atom, donor atom, acceptor molecule, acceptor atom, score
      L1  H     5    23       P1  7948  0.80
      L1  H     8    24       P1  7948  1.00
      L1  H    12    37       P1 10175  2.00

> <Gold.PLP.Chemscore.Internal.Correction>
1.2630

> <Gold.Rescore>
     Score         DG    S(hbond)    S(metal)    S(lipo)     H(rot)  DE(clash)    DE(int)     intcor
     15.97     -17.64       2.68        0.00      55.02       1.26       0.01       1.66       ----

> <Gold.Chemscore.Fitness>
15.9703

> <Gold.Chemscore.DG>
-17.6394

> <Gold.Chemscore.ZeroCoef>
-5.4800

> <Gold.Chemscore.Hbond>
2.6782

> <Gold.Chemscore.Metal>
0.0000

> <Gold.Chemscore.Lipo>
55.0239

> <Gold.Chemscore.Internal_Hbond>
0.0000

> <Gold.Chemscore.DEClash>
0.0060

> <Gold.Chemscore.DEInternal>
1.6631

> <Gold.Chemscore.Rot>
1.2593

> <Gold.Chemscore.Internal.Correction>
   9.000000E+99

> <Gold.Chemscore.Hbonds>
donor molecule, donor type, donor heavy atom, donor atom, acceptor molecule, acceptor atom, score
      L1  H     5    23       P1  7948  0.26
      L1  H     8    24       P1  7948  0.93
      L1  H    12    37       P1 10175  0.93

> <Gold.Chemscore.Hbond.Weighted>
-8.9453

> <Gold.Chemscore.Metal.Weighted>
-0.0000

> <Gold.Chemscore.Lipo.Weighted>
-6.4378

> <Gold.Chemscore.Internal_Hbond.Weighted>
0.0000

> <Gold.Chemscore.DEClash.Weighted>
0.0060

> <Gold.Chemscore.DEInternal.Weighted>
1.6631

> <Gold.Chemscore.Rot.Weighted>
3.2237

> <Gold.Chemscore.Internal.Correction.Weighted>
   9.000000E+99

> <Gold.Protein.RotatedTorsions>
[ 6907 6896 6895 6894 ] final    3.50 input  -60.11 | X-H torsion
[ 7974 7965 7964 7962 ] final   33.47 input  175.53 | X-H torsion
[ 8008 7997 7996 7995 ] final   12.74 input   59.86 | X-H torsion
[ 10167 10162 10161 10158 ] final  119.37 input  -65.29 | X-H torsion
[ 10718 10713 10712 10709 ] final   53.19 input   66.30 | X-H torsion
[ 10763 10752 10751 10750 ] final   50.04 input  -60.55 | X-H torsion
[ 11005 11000 10999 10996 ] final  102.27 input  -57.11 | X-H torsion

> <Gold.Protein.ActiveResidues>
 VAL166  LYS551  ARG553  GLY616  TRP617  ASP618  TYR619  PRO620  LYS621  CYS622 
 ASP623  PHE694  ASN695  SER759  ASP760  ASP761  ALA762  ILE779  LEU786  VAL792 
 PHE793  MET794  SER795  GLU796  ALA797  LYS798  CYS799  TRP800  GLU811  SER814 

> <Gold.Protein.RotatedAtoms>
  151.6261  135.1027  160.0111 H   0  0  0  0  0  0  0  0  0  0  0  0  # atno 6907 bound_to 6896
  152.4131  133.6991  159.6424 H   0  0  0  0  0  0  0  0  0  0  0  0  # atno 6908 bound_to 6896
  150.8021  133.8505  159.3245 H   0  0  0  0  0  0  0  0  0  0  0  0  # atno 6909 bound_to 6896
  146.1419  139.6393  142.9157 H   0  0  0  0  0  0  0  0  0  0  0  0  # atno 7974 bound_to 7965
  154.8248  140.2890  155.5762 H   0  0  0  0  0  0  0  0  0  0  0  0  # atno 8008 bound_to 7997
  156.3001  140.2543  156.3093 H   0  0  0  0  0  0  0  0  0  0  0  0  # atno 8009 bound_to 7997
  154.9297  140.0384  157.2031 H   0  0  0  0  0  0  0  0  0  0  0  0  # atno 8010 bound_to 7997
  139.6050  144.7067  151.2973 H   0  0  0  0  0  0  0  0  0  0  0  0  # atno 10167 bound_to 10162
  157.5144  130.8522  149.8476 H   0  0  0  0  0  0  0  0  0  0  0  0  # atno 10718 bound_to 10713
  152.9785  135.5892  154.4188 H   0  0  0  0  0  0  0  0  0  0  0  0  # atno 10763 bound_to 10752
  154.3815  135.2767  155.2210 H   0  0  0  0  0  0  0  0  0  0  0  0  # atno 10764 bound_to 10752
  154.4122  135.6078  153.6014 H   0  0  0  0  0  0  0  0  0  0  0  0  # atno 10765 bound_to 10752
  139.8777  134.9217  156.5033 H   0  0  0  0  0  0  0  0  0  0  0  0  # atno 11005 bound_to 11000
  145.5028  141.0437  143.2531 LP  0  0  0  0  0  0  0  0  0  0  0  0  # atno 17320 bound_to 7965
  144.7801  139.6543  143.7158 LP  0  0  0  0  0  0  0  0  0  0  0  0  # atno 17321 bound_to 7965
  140.7278  143.6952  150.7889 LP  0  0  0  0  0  0  0  0  0  0  0  0  # atno 17342 bound_to 10162
  140.0536  143.5225  152.2662 LP  0  0  0  0  0  0  0  0  0  0  0  0  # atno 17343 bound_to 10162
  156.0310  130.3764  150.1687 LP  0  0  0  0  0  0  0  0  0  0  0  0  # atno 17370 bound_to 10713
  156.9876  130.9883  151.3422 LP  0  0  0  0  0  0  0  0  0  0  0  0  # atno 17371 bound_to 10713
  140.8574  133.8086  155.9230 LP  0  0  0  0  0  0  0  0  0  0  0  0  # atno 17394 bound_to 11000
  140.9084  134.2291  157.5000 LP  0  0  0  0  0  0  0  0  0  0  0  0  # atno 17395 bound_to 11000

$$$$
