AV-unprocessed.smi:1744|AV-procd|sdf|7028|dock8
  -GOLD-   22720 8243D 1   1.00000     0.00000
 Structure written by MMmdl.
 43 44  0  0  0  0  0  0  0  0  3 V2000
  152.9287  142.4377  161.9845 C   0  0  0  0  0  0  0  0  0  0  0  0
  153.1503  141.7189  160.6480 C   0  0  0  0  0  0  0  0  0  0  0  0
  152.4995  142.4093  159.5517 N   0  0  0  0  0  0  0  0  0  0  0  0
  151.4881  141.9494  158.7319 C   0  0  0  0  0  0  0  0  0  0  0  0
  151.2195  142.9673  157.8667 C   0  0  0  0  0  0  0  0  0  0  0  0
  150.2341  142.9265  156.8488 N   0  0  0  0  0  0  0  0  0  0  0  0
  149.7075  141.8331  156.2738 C   0  0  0  0  0  0  0  0  0  0  0  0
  149.9877  140.6723  156.5716 O   0  0  0  0  0  0  0  0  0  0  0  0
  148.8244  142.1601  155.3191 N   0  0  0  0  0  0  0  0  0  0  0  0
  148.0753  141.2067  154.5005 C   0  0  2  0  0  0  0  0  0  0  0  0
  147.3830  141.8949  153.3074 C   0  0  0  0  0  0  0  0  0  0  0  0
  146.2091  142.7825  153.7563 C   0  0  0  0  0  0  0  0  0  0  0  0
  145.2238  142.0058  154.5561 N   0  3  2  0  0  0  0  0  0  0  0  0
  144.0088  142.7846  154.9027 C   0  0  0  0  0  0  0  0  0  0  0  0
  142.8982  141.8482  155.3904 C   0  0  0  0  0  0  0  0  0  0  0  0
  141.8448  141.8191  154.5521 N   0  5  0  0  0  0  0  0  0  0  0  0
  143.0481  141.2213  156.4371 O   0  0  0  0  0  0  0  0  0  0  0  0
  145.8543  141.3861  155.7493 C   0  0  0  0  0  0  0  0  0  0  0  0
  147.0269  140.4702  155.3520 C   0  0  0  0  0  0  0  0  0  0  0  0
  152.1107  144.0208  158.2176 C   0  0  0  0  0  0  0  0  0  0  0  0
  152.8806  143.6719  159.2372 N   0  0  0  0  0  0  0  0  0  0  0  0
  153.4219  141.9050  162.7977 H   0  0  0  0  0  0  0  0  0  0  0  0
  151.8671  142.5037  162.2249 H   0  0  0  0  0  0  0  0  0  0  0  0
  153.3305  143.4511  161.9597 H   0  0  0  0  0  0  0  0  0  0  0  0
  154.2164  141.6416  160.4309 H   0  0  0  0  0  0  0  0  0  0  0  0
  152.7626  140.7009  160.6993 H   0  0  0  0  0  0  0  0  0  0  0  0
  151.0583  140.9641  158.8363 H   0  0  0  0  0  0  0  0  0  0  0  0
  149.9047  143.8217  156.5188 H   0  0  0  0  0  0  0  0  0  0  0  0
  148.6548  143.1404  155.1481 H   0  0  0  0  0  0  0  0  0  0  0  0
  148.7805  140.4661  154.1184 H   0  0  0  0  0  0  0  0  0  0  0  0
  148.0988  142.4837  152.7328 H   0  0  0  0  0  0  0  0  0  0  0  0
  147.0075  141.1317  152.6244 H   0  0  0  0  0  0  0  0  0  0  0  0
  146.5753  143.6254  154.3442 H   0  0  0  0  0  0  0  0  0  0  0  0
  145.7293  143.2042  152.8727 H   0  0  0  0  0  0  0  0  0  0  0  0
  144.2264  143.4674  155.7253 H   0  0  0  0  0  0  0  0  0  0  0  0
  143.6999  143.4051  154.0585 H   0  0  0  0  0  0  0  0  0  0  0  0
  142.0187  141.8615  153.5407 H   0  0  0  0  0  0  0  0  0  0  0  0
  146.1944  142.1689  156.4287 H   0  0  0  0  0  0  0  0  0  0  0  0
  145.1133  140.7980  156.2923 H   0  0  0  0  0  0  0  0  0  0  0  0
  146.6378  139.6238  154.7840 H   0  0  0  0  0  0  0  0  0  0  0  0
  147.4921  140.0472  156.2432 H   0  0  0  0  0  0  0  0  0  0  0  0
  152.2283  145.0043  157.7881 H   0  0  0  0  0  0  0  0  0  0  0  0
  144.9046  141.2450  153.9730 H   0  0  0  0  0  0  0  0  0  0  0  0
  1  2  1  0  0  0  0
  1 22  1  0  0  0  0
  1 23  1  0  0  0  0
  1 24  1  0  0  0  0
  2  3  1  0  0  0  0
  2 25  1  0  0  0  0
  2 26  1  0  0  0  0
  3 21  1  0  0  0  0
  3  4  1  0  0  0  0
  4  5  2  0  0  0  0
  4 27  1  0  0  0  0
  5  6  1  0  0  0  0
  5 20  1  0  0  0  0
  6  7  1  0  0  0  0
  6 28  1  0  0  0  0
  7  8  2  0  0  0  0
  7  9  1  0  0  0  0
  9 10  1  0  0  0  0
  9 29  1  0  0  0  0
 10 19  1  0  0  0  0
 10 11  1  0  0  0  0
 10 30  1  0  0  0  0
 11 12  1  0  0  0  0
 11 31  1  0  0  0  0
 11 32  1  0  0  0  0
 12 13  1  0  0  0  0
 12 33  1  0  0  0  0
 12 34  1  0  0  0  0
 13 14  1  0  0  0  0
 13 18  1  0  0  0  0
 13 43  1  0  0  0  0
 14 15  1  0  0  0  0
 14 35  1  0  0  0  0
 14 36  1  0  0  0  0
 15 16  1  0  0  0  0
 15 17  2  0  0  0  0
 16 37  1  0  0  0  0
 18 19  1  0  0  0  0
 18 38  1  0  0  0  0
 18 39  1  0  0  0  0
 19 40  1  0  0  0  0
 19 41  1  0  0  0  0
 20 21  2  0  0  0  0
 20 42  1  0  0  0  0
M  CHG  1  13   1
M  CHG  1  16  -1
M  END
> <s_m_source_file>
AV-unprocessed.smi

> <i_m_source_file_index>
1744

> <i_lp_mmshare_version>
43012

> <i_f3d_flags>
0

> <s_epik_input>
W0NIM11bQ0gyXW4xW2NIXWMoW2NIXW4xKVtOSF1DKD1PKVtOSF1bQ0hdMltDSDJdW0NIMl1OKFtDSDJdW0NIMl0yKVtDSDJdQyg9TylbTkgyXQ==

> <s_epik_cmdline>
J2VwaWtfcHl0aG9uJywgJy1waCcsICc3LjAnLCAnLXRuJywgJzgnLCAnLW1hJywgJzIwMCcsICctbWV0YWxfYmluZGluZycsICctaW1hZScsICc8aW5maWxlLm1hZT4nLCAnLW9tYWUnLCAnPG91dGZpbGUubWFlPic=

> <r_lp_tautomer_probability>
1

> <r_epik_Ionization_Penalty>
5.72895

> <r_epik_Ionization_Penalty_Charging>
5.7288

> <r_epik_Ionization_Penalty_Neutral>
0.000148676

> <r_epik_State_Penalty>
6.54882

> <r_epik_Charging_Adjusted_Penalty>
12.2776

> <i_epik_Tot_Q>
0

> <i_epik_Tot_abs_Q>
2

> <r_epik_Metal_State_Penalty>
2.51309

> <b_epik_Metal_Only>
1

> <s_lp_Force_Field>
OPLS_2005

> <r_lp_Energy>
11.9421

> <b_lp_Chiralities_Consistent>
1

> <s_lp_Variant>
AV-unprocessed.smi:1744-5

> <Gold.Version>
5.8.1

> <Gold.Id.Protein>
6NUR|6NUR_protein|mol2

> <Gold.PLP.Fitness>
51.3276

> <Gold.PLP.PLP>
-38.0108

> <Gold.PLP.part.hbond>
-4.8200

> <Gold.PLP.part.metal>
0.0000

> <Gold.PLP.part.buried>
-5.0091

> <Gold.PLP.part.nonpolar>
-28.8947

> <Gold.PLP.part.repulsive>
0.2968

> <Gold.PLP.ligand.clash>
0.0000

> <Gold.PLP.ligand.torsion>
0.3274

> <Gold.PLP.Chemscore.Hbond>
4.6495

> <Gold.PLP.Chemscore.CHOScore>
0.0000

> <Gold.PLP.Chemscore.Metal>
0.0000

> <Gold.Chemscore.Hbonds>
donor molecule, donor type, donor heavy atom, donor atom, acceptor molecule, acceptor atom, score
      L1  H     6    28       P1  8028  1.00
      L1  H     9    29       P1  8028  0.98
      L1  H    13    43       P1 10175  1.85
      L1  H    16    37       P1 10174  0.95

> <Gold.PLP.Chemscore.Internal.Correction>
0.0231

> <Gold.Rescore>
     Score         DG    S(hbond)    S(metal)    S(lipo)     H(rot)  DE(clash)    DE(int)     intcor
     17.07     -20.90       3.44        0.00      81.47       2.18       1.05       2.78       ----

> <Gold.Chemscore.Fitness>
17.0740

> <Gold.Chemscore.DG>
-20.9000

> <Gold.Chemscore.ZeroCoef>
-5.4800

> <Gold.Chemscore.Hbond>
3.4362

> <Gold.Chemscore.Metal>
0.0000

> <Gold.Chemscore.Lipo>
81.4730

> <Gold.Chemscore.Internal_Hbond>
0.0000

> <Gold.Chemscore.DEClash>
1.0497

> <Gold.Chemscore.DEInternal>
2.7763

> <Gold.Chemscore.Rot>
2.1833

> <Gold.Chemscore.Internal.Correction>
   9.000000E+99

> <Gold.Chemscore.Hbonds>
donor molecule, donor type, donor heavy atom, donor atom, acceptor molecule, acceptor atom, score
      L1  H     6    28       P1  8028  0.95
      L1  H     9    29       P1  8028  0.93
      L1  H    13    43       P1 10175  0.50
      L1  H    16    37       P1 10174  0.21

> <Gold.Chemscore.Hbond.Weighted>
-11.4768

> <Gold.Chemscore.Metal.Weighted>
-0.0000

> <Gold.Chemscore.Lipo.Weighted>
-9.5323

> <Gold.Chemscore.Internal_Hbond.Weighted>
0.0000

> <Gold.Chemscore.DEClash.Weighted>
1.0497

> <Gold.Chemscore.DEInternal.Weighted>
2.7763

> <Gold.Chemscore.Rot.Weighted>
5.5892

> <Gold.Chemscore.Internal.Correction.Weighted>
   9.000000E+99

> <Gold.Protein.RotatedTorsions>
[ 6907 6896 6895 6894 ] final  155.12 input  -60.11 | X-H torsion
[ 7974 7965 7964 7962 ] final   46.35 input  175.53 | X-H torsion
[ 8008 7997 7996 7995 ] final -171.59 input   59.86 | X-H torsion
[ 10167 10162 10161 10158 ] final  -61.38 input  -65.29 | X-H torsion
[ 10718 10713 10712 10709 ] final  132.99 input   66.30 | X-H torsion
[ 10763 10752 10751 10750 ] final    0.12 input  -60.55 | X-H torsion
[ 11005 11000 10999 10996 ] final -105.61 input  -57.11 | X-H torsion

> <Gold.Protein.ActiveResidues>
 VAL166  LYS551  ARG553  GLY616  TRP617  ASP618  TYR619  PRO620  LYS621  CYS622 
 ASP623  PHE694  ASN695  SER759  ASP760  ASP761  ALA762  ILE779  LEU786  VAL792 
 PHE793  MET794  SER795  GLU796  ALA797  LYS798  CYS799  TRP800  GLU811  SER814 

> <Gold.Protein.RotatedAtoms>
  152.0487  133.4009  159.4367 H   0  0  0  0  0  0  0  0  0  0  0  0  # atno 6907 bound_to 6896
  150.6871  134.3332  159.4845 H   0  0  0  0  0  0  0  0  0  0  0  0  # atno 6908 bound_to 6896
  152.1140  134.9254  160.0616 H   0  0  0  0  0  0  0  0  0  0  0  0  # atno 6909 bound_to 6896
  146.0398  139.4865  142.9785 H   0  0  0  0  0  0  0  0  0  0  0  0  # atno 7974 bound_to 7965
  155.9336  140.1095  157.1113 H   0  0  0  0  0  0  0  0  0  0  0  0  # atno 8008 bound_to 7997
  154.4075  140.1233  156.4900 H   0  0  0  0  0  0  0  0  0  0  0  0  # atno 8009 bound_to 7997
  155.7049  140.3471  155.4951 H   0  0  0  0  0  0  0  0  0  0  0  0  # atno 8010 bound_to 7997
  140.6009  143.2361  151.5930 H   0  0  0  0  0  0  0  0  0  0  0  0  # atno 10167 bound_to 10162
  157.4817  131.1086  150.9672 H   0  0  0  0  0  0  0  0  0  0  0  0  # atno 10718 bound_to 10713
  153.3247  135.6971  153.6999 H   0  0  0  0  0  0  0  0  0  0  0  0  # atno 10763 bound_to 10752
  153.5825  135.3495  155.2881 H   0  0  0  0  0  0  0  0  0  0  0  0  # atno 10764 bound_to 10752
  154.8605  135.4298  154.2421 H   0  0  0  0  0  0  0  0  0  0  0  0  # atno 10765 bound_to 10752
  141.1045  133.8823  157.1756 H   0  0  0  0  0  0  0  0  0  0  0  0  # atno 11005 bound_to 11000
  145.6904  141.0166  143.1558 LP  0  0  0  0  0  0  0  0  0  0  0  0  # atno 17320 bound_to 7965
  144.7069  139.8526  143.7427 LP  0  0  0  0  0  0  0  0  0  0  0  0  # atno 17321 bound_to 7965
  139.5290  144.2971  152.1104 LP  0  0  0  0  0  0  0  0  0  0  0  0  # atno 17342 bound_to 10162
  140.2152  144.4523  150.6367 LP  0  0  0  0  0  0  0  0  0  0  0  0  # atno 17343 bound_to 10162
  157.0403  130.5746  149.5355 LP  0  0  0  0  0  0  0  0  0  0  0  0  # atno 17370 bound_to 10713
  156.0125  130.5218  150.8034 LP  0  0  0  0  0  0  0  0  0  0  0  0  # atno 17371 bound_to 10713
  139.9909  135.0065  156.9972 LP  0  0  0  0  0  0  0  0  0  0  0  0  # atno 17394 bound_to 11000
  140.4938  134.1166  155.7237 LP  0  0  0  0  0  0  0  0  0  0  0  0  # atno 17395 bound_to 11000

$$$$
