AV-unprocessed.smi:1914|AV-procd|sdf|7759|dock4
  -GOLD-   22720 9503D 1   1.00000     0.00000
 Structure written by MMmdl.
 44 45  0  0  0  0  0  0  0  0  2 V2000
  145.8472  132.1717  149.9207 C   0  0  0  0  0  0  0  0  0  0  0  0
  146.2056  133.1531  151.0455 C   0  0  1  0  0  0  0  0  0  0  0  0
  145.0321  133.3415  152.0214 C   0  0  0  0  0  0  0  0  0  0  0  0
  145.4275  134.3006  153.1510 C   0  0  0  0  0  0  0  0  0  0  0  0
  146.7045  133.8208  153.8586 C   0  0  0  0  0  0  0  0  0  0  0  0
  147.8214  133.6550  152.8929 N   0  3  1  0  0  0  0  0  0  0  0  0
  149.1020  133.3244  153.5679 C   0  0  0  0  0  0  0  0  0  0  0  0
  149.3923  134.2532  154.7580 C   0  0  0  0  0  0  0  0  0  0  0  0
  150.1349  135.4276  154.3223 N   0  0  0  0  0  0  0  0  0  0  0  0
  150.7179  136.3027  155.1542 C   0  0  0  0  0  0  0  0  0  0  0  0
  150.6979  136.1794  156.3794 O   0  0  0  0  0  0  0  0  0  0  0  0
  151.4471  137.4810  154.4927 C   0  0  0  0  0  0  0  0  0  0  0  0
  150.7881  138.7773  154.7256 N   0  0  0  0  0  0  0  0  0  0  0  0
  149.5161  138.9656  154.1487 C   0  0  0  0  0  0  0  0  0  0  0  0
  148.8300  140.1094  154.3007 C   0  0  0  0  0  0  0  0  0  0  0  0
  149.4287  141.1664  155.0812 C   0  0  0  0  0  0  0  0  0  0  0  0
  150.6456  140.9976  155.6355 C   0  0  0  0  0  0  0  0  0  0  0  0
  151.3997  139.7493  155.4711 C   0  0  0  0  0  0  0  0  0  0  0  0
  152.5128  139.5867  155.9723 O   0  0  0  0  0  0  0  0  0  0  0  0
  147.4674  132.7002  151.8076 C   0  0  0  0  0  0  0  0  0  0  0  0
  145.6184  131.1814  150.3158 H   0  0  0  0  0  0  0  0  0  0  0  0
  146.6707  132.0657  149.2141 H   0  0  0  0  0  0  0  0  0  0  0  0
  144.9764  132.5158  149.3616 H   0  0  0  0  0  0  0  0  0  0  0  0
  146.4195  134.1180  150.5830 H   0  0  0  0  0  0  0  0  0  0  0  0
  144.1593  133.7288  151.4947 H   0  0  0  0  0  0  0  0  0  0  0  0
  144.7397  132.3791  152.4443 H   0  0  0  0  0  0  0  0  0  0  0  0
  145.5863  135.3007  152.7454 H   0  0  0  0  0  0  0  0  0  0  0  0
  144.6122  134.3845  153.8703 H   0  0  0  0  0  0  0  0  0  0  0  0
  146.9809  134.5479  154.6232 H   0  0  0  0  0  0  0  0  0  0  0  0
  146.5202  132.8751  154.3712 H   0  0  0  0  0  0  0  0  0  0  0  0
  149.0560  132.3018  153.9456 H   0  0  0  0  0  0  0  0  0  0  0  0
  149.9188  133.3485  152.8446 H   0  0  0  0  0  0  0  0  0  0  0  0
  148.4685  134.5868  155.2311 H   0  0  0  0  0  0  0  0  0  0  0  0
  149.9688  133.7193  155.5154 H   0  0  0  0  0  0  0  0  0  0  0  0
  150.2011  135.5949  153.3286 H   0  0  0  0  0  0  0  0  0  0  0  0
  152.4717  137.4970  154.8664 H   0  0  0  0  0  0  0  0  0  0  0  0
  151.5373  137.2993  153.4199 H   0  0  0  0  0  0  0  0  0  0  0  0
  149.1405  138.1302  153.5755 H   0  0  0  0  0  0  0  0  0  0  0  0
  147.8573  140.2369  153.8489 H   0  0  0  0  0  0  0  0  0  0  0  0
  148.8985  142.0971  155.2202 H   0  0  0  0  0  0  0  0  0  0  0  0
  151.0782  141.7998  156.2154 H   0  0  0  0  0  0  0  0  0  0  0  0
  147.3143  131.7073  152.2340 H   0  0  0  0  0  0  0  0  0  0  0  0
  148.2930  132.6134  151.1021 H   0  0  0  0  0  0  0  0  0  0  0  0
  147.9519  134.5583  152.4600 H   0  0  0  0  0  0  0  0  0  0  0  0
  1  2  1  0  0  0  0
  1 21  1  0  0  0  0
  1 22  1  0  0  0  0
  1 23  1  0  0  0  0
  2 20  1  0  0  0  0
  2  3  1  0  0  0  0
  2 24  1  0  0  0  0
  3  4  1  0  0  0  0
  3 25  1  0  0  0  0
  3 26  1  0  0  0  0
  4  5  1  0  0  0  0
  4 27  1  0  0  0  0
  4 28  1  0  0  0  0
  5  6  1  0  0  0  0
  5 29  1  0  0  0  0
  5 30  1  0  0  0  0
  6  7  1  0  0  0  0
  6 20  1  0  0  0  0
  6 44  1  0  0  0  0
  7  8  1  0  0  0  0
  7 31  1  0  0  0  0
  7 32  1  0  0  0  0
  8  9  1  0  0  0  0
  8 33  1  0  0  0  0
  8 34  1  0  0  0  0
  9 10  1  0  0  0  0
  9 35  1  0  0  0  0
 10 11  2  0  0  0  0
 10 12  1  0  0  0  0
 12 13  1  0  0  0  0
 12 36  1  0  0  0  0
 12 37  1  0  0  0  0
 13 18  1  0  0  0  0
 13 14  1  0  0  0  0
 14 15  2  0  0  0  0
 14 38  1  0  0  0  0
 15 16  1  0  0  0  0
 15 39  1  0  0  0  0
 16 17  2  0  0  0  0
 16 40  1  0  0  0  0
 17 18  1  0  0  0  0
 17 41  1  0  0  0  0
 18 19  2  0  0  0  0
 20 42  1  0  0  0  0
 20 43  1  0  0  0  0
M  CHG  1   6   1
M  END
> <s_m_source_file>
AV-unprocessed.smi

> <i_m_source_file_index>
1914

> <i_lp_mmshare_version>
43012

> <i_f3d_flags>
0

> <s_epik_input>
W0NIM11bQ0BASF0xW0NIMl1bQ0gyXVtDSDJdTihbQ0gyXTEpW0NIMl1bQ0gyXVtOSF1DKD1PKVtDSDJdbjJbY0hdW2NIXVtjSF1bY0hdYzI9Tw==

> <s_epik_cmdline>
J2VwaWtfcHl0aG9uJywgJy1waCcsICc3LjAnLCAnLXRuJywgJzgnLCAnLW1hJywgJzIwMCcsICctbWV0YWxfYmluZGluZycsICctaW1hZScsICc8aW5maWxlLm1hZT4nLCAnLW9tYWUnLCAnPG91dGZpbGUubWFlPic=

> <r_lp_tautomer_probability>
1

> <r_epik_Ionization_Penalty>
0.00192477

> <r_epik_Ionization_Penalty_Charging>
0.00192469

> <r_epik_Ionization_Penalty_Neutral>
8.16761e-08

> <r_epik_State_Penalty>
0.00131115

> <r_epik_Charging_Adjusted_Penalty>
0.00323584

> <i_epik_Tot_Q>
1

> <i_epik_Tot_abs_Q>
1

> <r_epik_Metal_State_Penalty>
-0

> <b_epik_Metal_Only>
0

> <s_lp_Force_Field>
OPLS_2005

> <r_lp_Energy>
25.5857

> <b_lp_Chiralities_Consistent>
1

> <s_lp_Variant>
AV-unprocessed.smi:1914-4

> <Gold.Version>
5.8.1

> <Gold.Id.Protein>
6NUR|6NUR_protein|mol2

> <Gold.PLP.Fitness>
49.6803

> <Gold.PLP.PLP>
-38.4282

> <Gold.PLP.part.hbond>
-3.9954

> <Gold.PLP.part.metal>
0.0000

> <Gold.PLP.part.buried>
1.8395

> <Gold.PLP.part.nonpolar>
-36.1216

> <Gold.PLP.part.repulsive>
0.0776

> <Gold.PLP.ligand.clash>
0.0000

> <Gold.PLP.ligand.torsion>
0.3930

> <Gold.PLP.Chemscore.Hbond>
3.0000

> <Gold.PLP.Chemscore.CHOScore>
1.0000

> <Gold.PLP.Chemscore.Metal>
0.0000

> <Gold.Chemscore.Hbonds>
donor molecule, donor type, donor heavy atom, donor atom, acceptor molecule, acceptor atom, score
      L1  H     6    44       P1  7948  2.00
      P1  H  7997  8009       L1    19  1.00
      L1  C    14    38       P1  7948  0.98

> <Gold.PLP.Chemscore.Internal.Correction>
0.0380

> <Gold.Rescore>
     Score         DG    S(hbond)    S(metal)    S(lipo)     H(rot)  DE(clash)    DE(int)     intcor
     15.75     -16.15       1.85        0.00      79.08       1.86       0.06       0.34       ----

> <Gold.Chemscore.Fitness>
15.7524

> <Gold.Chemscore.DG>
-16.1544

> <Gold.Chemscore.ZeroCoef>
-5.4800

> <Gold.Chemscore.Hbond>
1.8503

> <Gold.Chemscore.Metal>
0.0000

> <Gold.Chemscore.Lipo>
79.0813

> <Gold.Chemscore.Internal_Hbond>
0.0000

> <Gold.Chemscore.DEClash>
0.0646

> <Gold.Chemscore.DEInternal>
0.3373

> <Gold.Chemscore.Rot>
1.8586

> <Gold.Chemscore.Internal.Correction>
   9.000000E+99

> <Gold.Chemscore.Hbonds>
donor molecule, donor type, donor heavy atom, donor atom, acceptor molecule, acceptor atom, score
      L1  H     6    44       P1  7948  0.48
      P1  H  7997  8009       L1    19  1.00

> <Gold.Chemscore.Hbond.Weighted>
-6.1800

> <Gold.Chemscore.Metal.Weighted>
-0.0000

> <Gold.Chemscore.Lipo.Weighted>
-9.2525

> <Gold.Chemscore.Internal_Hbond.Weighted>
0.0000

> <Gold.Chemscore.DEClash.Weighted>
0.0646

> <Gold.Chemscore.DEInternal.Weighted>
0.3373

> <Gold.Chemscore.Rot.Weighted>
4.7581

> <Gold.Chemscore.Internal.Correction.Weighted>
   9.000000E+99

> <Gold.Protein.RotatedTorsions>
[ 6907 6896 6895 6894 ] final -150.35 input  -60.11 | X-H torsion
[ 7974 7965 7964 7962 ] final  165.33 input  175.53 | X-H torsion
[ 8008 7997 7996 7995 ] final -156.37 input   59.86 | X-H torsion
[ 10167 10162 10161 10158 ] final   82.70 input  -65.29 | X-H torsion
[ 10718 10713 10712 10709 ] final -167.88 input   66.30 | X-H torsion
[ 10763 10752 10751 10750 ] final  -56.83 input  -60.55 | X-H torsion
[ 11005 11000 10999 10996 ] final  122.91 input  -57.11 | X-H torsion

> <Gold.Protein.ActiveResidues>
 VAL166  LYS551  ARG553  GLY616  TRP617  ASP618  TYR619  PRO620  LYS621  CYS622 
 ASP623  PHE694  ASN695  SER759  ASP760  ASP761  ALA762  ILE779  LEU786  VAL792 
 PHE793  MET794  SER795  GLU796  ALA797  LYS798  CYS799  TRP800  GLU811  SER814 

> <Gold.Protein.RotatedAtoms>
  151.1972  133.4632  159.2595 H   0  0  0  0  0  0  0  0  0  0  0  0  # atno 6907 bound_to 6896
  151.1105  135.0023  159.8501 H   0  0  0  0  0  0  0  0  0  0  0  0  # atno 6908 bound_to 6896
  152.5450  134.1892  159.8720 H   0  0  0  0  0  0  0  0  0  0  0  0  # atno 6909 bound_to 6896
  144.7507  139.8454  143.6367 H   0  0  0  0  0  0  0  0  0  0  0  0  # atno 7974 bound_to 7965
  155.7161  140.0784  157.2351 H   0  0  0  0  0  0  0  0  0  0  0  0  # atno 8008 bound_to 7997
  154.4051  140.1621  156.2404 H   0  0  0  0  0  0  0  0  0  0  0  0  # atno 8009 bound_to 7997
  155.9239  140.3396  155.6197 H   0  0  0  0  0  0  0  0  0  0  0  0  # atno 8010 bound_to 7997
  139.9260  144.6182  150.8392 H   0  0  0  0  0  0  0  0  0  0  0  0  # atno 10167 bound_to 10162
  156.6889  130.9151  151.3066 H   0  0  0  0  0  0  0  0  0  0  0  0  # atno 10718 bound_to 10713
  154.2129  135.6391  153.5120 H   0  0  0  0  0  0  0  0  0  0  0  0  # atno 10763 bound_to 10752
  152.9986  135.5478  154.6196 H   0  0  0  0  0  0  0  0  0  0  0  0  # atno 10764 bound_to 10752
  154.5637  135.2911  155.0868 H   0  0  0  0  0  0  0  0  0  0  0  0  # atno 10765 bound_to 10752
  139.9289  134.9641  156.8181 H   0  0  0  0  0  0  0  0  0  0  0  0  # atno 11005 bound_to 11000
  146.1453  139.4521  143.0083 LP  0  0  0  0  0  0  0  0  0  0  0  0  # atno 17320 bound_to 7965
  145.6954  141.0152  143.1532 LP  0  0  0  0  0  0  0  0  0  0  0  0  # atno 17321 bound_to 7965
  140.7650  143.3263  151.2508 LP  0  0  0  0  0  0  0  0  0  0  0  0  # atno 17342 bound_to 10162
  139.6822  143.9836  152.2814 LP  0  0  0  0  0  0  0  0  0  0  0  0  # atno 17343 bound_to 10162
  157.7016  130.9339  150.0803 LP  0  0  0  0  0  0  0  0  0  0  0  0  # atno 17370 bound_to 10713
  156.1812  130.3650  149.9032 LP  0  0  0  0  0  0  0  0  0  0  0  0  # atno 17371 bound_to 10713
  140.6257  133.9952  155.7638 LP  0  0  0  0  0  0  0  0  0  0  0  0  # atno 17394 bound_to 11000
  141.0865  133.9982  157.3304 LP  0  0  0  0  0  0  0  0  0  0  0  0  # atno 17395 bound_to 11000

$$$$
