AV-unprocessed.smi:171|AV-procd|sdf|1415|dock1
  -GOLD-   2262019173D 1   1.00000     0.00000
 Structure written by MMmdl.
 56 59  0  0  0  0  0  0  0  0  1 V2000
  147.1405  134.0039  162.5756 C   0  0  0  0  0  0  0  0  0  0  0  0
  147.1611  135.3230  161.7872 C   0  0  0  0  0  0  0  0  0  0  0  0
  147.3299  136.5114  162.7468 C   0  0  0  0  0  0  0  0  0  0  0  0
  145.9197  135.5260  160.8872 C   0  0  0  0  0  0  0  0  0  0  0  0
  145.7634  134.4980  159.7251 C   0  0  1  0  0  0  0  0  0  0  0  0
  144.3438  134.4017  159.1113 C   0  0  0  0  0  0  0  0  0  0  0  0
  143.3493  134.6935  159.7718 O   0  0  0  0  0  0  0  0  0  0  0  0
  144.2331  133.9846  157.8371 N   0  0  0  0  0  0  0  0  0  0  0  0
  145.3440  133.6592  156.9389 C   0  0  0  0  0  0  0  0  0  0  0  0
  146.7195  133.6319  157.6385 C   0  0  0  0  0  0  0  0  0  0  0  0
  146.7952  134.6503  158.6832 N   0  0  0  0  0  0  0  0  0  0  0  0
  147.1082  135.8800  158.1909 C   0  0  0  0  0  0  0  0  0  0  0  0
  146.2729  136.5150  157.3259 N   0  0  0  0  0  0  0  0  0  0  0  0
  146.5932  137.7163  156.8378 C   0  0  0  0  0  0  0  0  0  0  0  0
  147.6796  138.4516  157.0800 N   0  0  0  0  0  0  0  0  0  0  0  0
  148.5215  137.8221  157.9496 C   0  0  0  0  0  0  0  0  0  0  0  0
  148.3169  136.5433  158.5386 C   0  0  0  0  0  0  0  0  0  0  0  0
  149.3898  136.2226  159.3591 N   0  0  0  0  0  0  0  0  0  0  0  0
  150.1841  137.2535  159.2601 C   0  0  0  0  0  0  0  0  0  0  0  0
  149.7266  138.2786  158.4592 N   0  0  0  0  0  0  0  0  0  0  0  0
  150.3941  139.5398  158.1536 C   0  0  0  0  0  0  0  0  0  0  0  0
  151.2539  139.5581  156.8579 C   0  0  1  0  0  0  0  0  0  0  0  0
  152.6049  139.7818  157.2247 O   0  0  0  0  0  0  0  0  0  0  0  0
  151.2074  138.2184  156.1333 C   0  0  0  0  0  0  0  0  0  0  0  0
  151.5860  138.5914  154.7088 C   0  0  0  0  0  0  0  0  0  0  0  0
  150.9057  139.8182  154.5150 O   0  0  0  0  0  0  0  0  0  0  0  0
  150.8960  140.5702  155.7287 C   0  0  1  0  0  0  0  0  0  0  0  0
  149.5148  141.2387  155.7872 C   0  0  0  0  0  0  0  0  0  0  0  0
  146.2517  133.9307  163.2031 H   0  0  0  0  0  0  0  0  0  0  0  0
  148.0119  133.9219  163.2254 H   0  0  0  0  0  0  0  0  0  0  0  0
  147.1575  133.1408  161.9109 H   0  0  0  0  0  0  0  0  0  0  0  0
  148.0413  135.3080  161.1432 H   0  0  0  0  0  0  0  0  0  0  0  0
  146.4802  136.5955  163.4251 H   0  0  0  0  0  0  0  0  0  0  0  0
  147.4147  137.4518  162.2014 H   0  0  0  0  0  0  0  0  0  0  0  0
  148.2300  136.4045  163.3530 H   0  0  0  0  0  0  0  0  0  0  0  0
  145.0165  135.5588  161.4985 H   0  0  0  0  0  0  0  0  0  0  0  0
  146.0101  136.5286  160.4674 H   0  0  0  0  0  0  0  0  0  0  0  0
  145.9539  133.5123  160.1516 H   0  0  0  0  0  0  0  0  0  0  0  0
  143.3033  133.9155  157.4494 H   0  0  0  0  0  0  0  0  0  0  0  0
  145.1494  132.7087  156.4421 H   0  0  0  0  0  0  0  0  0  0  0  0
  145.3541  134.4210  156.1587 H   0  0  0  0  0  0  0  0  0  0  0  0
  146.8661  132.6592  158.1102 H   0  0  0  0  0  0  0  0  0  0  0  0
  147.5215  133.7279  156.9055 H   0  0  0  0  0  0  0  0  0  0  0  0
  145.8757  138.1506  156.1573 H   0  0  0  0  0  0  0  0  0  0  0  0
  151.1310  137.2858  159.7777 H   0  0  0  0  0  0  0  0  0  0  0  0
  149.6242  140.3104  158.0931 H   0  0  0  0  0  0  0  0  0  0  0  0
  151.0145  139.8142  159.0070 H   0  0  0  0  0  0  0  0  0  0  0  0
  152.6352  139.9754  158.1492 H   0  0  0  0  0  0  0  0  0  0  0  0
  151.8612  137.4602  156.5665 H   0  0  0  0  0  0  0  0  0  0  0  0
  150.1911  137.8216  156.1382 H   0  0  0  0  0  0  0  0  0  0  0  0
  152.6612  138.7496  154.6137 H   0  0  0  0  0  0  0  0  0  0  0  0
  151.2796  137.8419  153.9789 H   0  0  0  0  0  0  0  0  0  0  0  0
  151.6555  141.3503  155.6541 H   0  0  0  0  0  0  0  0  0  0  0  0
  149.4635  141.9820  156.5798 H   0  0  0  0  0  0  0  0  0  0  0  0
  148.7184  140.5098  155.9382 H   0  0  0  0  0  0  0  0  0  0  0  0
  149.3053  141.7653  154.8559 H   0  0  0  0  0  0  0  0  0  0  0  0
  1  2  1  0  0  0  0
  1 29  1  0  0  0  0
  1 30  1  0  0  0  0
  1 31  1  0  0  0  0
  2  3  1  0  0  0  0
  2  4  1  0  0  0  0
  2 32  1  0  0  0  0
  3 33  1  0  0  0  0
  3 34  1  0  0  0  0
  3 35  1  0  0  0  0
  4  5  1  0  0  0  0
  4 36  1  0  0  0  0
  4 37  1  0  0  0  0
  5 11  1  0  0  0  0
  5  6  1  0  0  0  0
  5 38  1  0  0  0  0
  6  7  2  0  0  0  0
  6  8  1  0  0  0  0
  8  9  1  0  0  0  0
  8 39  1  0  0  0  0
  9 10  1  0  0  0  0
  9 40  1  0  0  0  0
  9 41  1  0  0  0  0
 10 11  1  0  0  0  0
 10 42  1  0  0  0  0
 10 43  1  0  0  0  0
 11 12  1  0  0  0  0
 12 17  1  0  0  0  0
 12 13  2  0  0  0  0
 13 14  1  0  0  0  0
 14 15  2  0  0  0  0
 14 44  1  0  0  0  0
 15 16  1  0  0  0  0
 16 20  1  0  0  0  0
 16 17  2  0  0  0  0
 17 18  1  0  0  0  0
 18 19  2  0  0  0  0
 19 20  1  0  0  0  0
 19 45  1  0  0  0  0
 20 21  1  0  0  0  0
 21 22  1  0  0  0  0
 21 46  1  0  0  0  0
 21 47  1  0  0  0  0
 22 27  1  0  0  0  0
 22 23  1  0  0  0  0
 22 24  1  0  0  0  0
 23 48  1  0  0  0  0
 24 25  1  0  0  0  0
 24 49  1  0  0  0  0
 24 50  1  0  0  0  0
 25 26  1  0  0  0  0
 25 51  1  0  0  0  0
 25 52  1  0  0  0  0
 26 27  1  0  0  0  0
 27 28  1  0  0  0  0
 27 53  1  0  0  0  0
 28 54  1  0  0  0  0
 28 55  1  0  0  0  0
 28 56  1  0  0  0  0
M  END
> <s_m_source_file>
AV-unprocessed.smi

> <i_m_source_file_index>
171

> <i_lp_mmshare_version>
43012

> <i_f3d_flags>
0

> <s_epik_input>
W0NIM11bQ0hdKFtDSDNdKVtDSDJdW0NAQEhdMUMoPU8pW05IXVtDSDJdW0NIMl1OMWMobltjSF1uMiljKGMyMyluW2NIXW4zW0NIMl1bQ0BAXTQoW09IXSlbQ0gyXVtDSDJdT1tDQEhdNFtDSDNd

> <s_epik_cmdline>
J2VwaWtfcHl0aG9uJywgJy1waCcsICc3LjAnLCAnLXRuJywgJzgnLCAnLW1hJywgJzIwMCcsICctbWV0YWxfYmluZGluZycsICctaW1hZScsICc8aW5maWxlLm1hZT4nLCAnLW9tYWUnLCAnPG91dGZpbGUubWFlPic=

> <r_lp_tautomer_probability>
1

> <r_epik_Ionization_Penalty>
0.000670584

> <r_epik_Ionization_Penalty_Charging>
0

> <r_epik_Ionization_Penalty_Neutral>
0.000670584

> <r_epik_State_Penalty>
0.000304767

> <r_epik_Charging_Adjusted_Penalty>
0.000304767

> <i_epik_Tot_Q>
0

> <i_epik_Tot_abs_Q>
0

> <r_epik_Metal_State_Penalty>
-0

> <b_epik_Metal_Only>
0

> <s_lp_Force_Field>
OPLS_2005

> <r_lp_Energy>
47.4038

> <b_lp_Chiralities_Consistent>
1

> <s_lp_Variant>
AV-unprocessed.smi:171-2

> <Gold.Version>
5.8.1

> <Gold.Id.Protein>
6NUR|6NUR_protein|mol2

> <Gold.PLP.Fitness>
39.4009

> <Gold.PLP.PLP>
-33.5499

> <Gold.PLP.part.hbond>
-3.0000

> <Gold.PLP.part.metal>
0.0000

> <Gold.PLP.part.buried>
-5.7859

> <Gold.PLP.part.nonpolar>
-25.3567

> <Gold.PLP.part.repulsive>
0.0848

> <Gold.PLP.ligand.clash>
0.0000

> <Gold.PLP.ligand.torsion>
1.7831

> <Gold.PLP.Chemscore.Hbond>
3.0000

> <Gold.PLP.Chemscore.CHOScore>
0.0000

> <Gold.PLP.Chemscore.Metal>
0.0000

> <Gold.Chemscore.Hbonds>
donor molecule, donor type, donor heavy atom, donor atom, acceptor molecule, acceptor atom, score
      P1  H  6896  6907       L1    18  0.93
      P1  H  7989  7998       L1    26  1.00
      P1  H  7997  8008       L1    23  1.00

> <Gold.PLP.Chemscore.Internal.Correction>
0.4172

> <Gold.Rescore>
     Score         DG    S(hbond)    S(metal)    S(lipo)     H(rot)  DE(clash)    DE(int)     intcor
     13.77     -16.14       2.66        0.00      72.31       2.61       0.02       2.35       ----

> <Gold.Chemscore.Fitness>
13.7693

> <Gold.Chemscore.DG>
-16.1387

> <Gold.Chemscore.ZeroCoef>
-5.4800

> <Gold.Chemscore.Hbond>
2.6566

> <Gold.Chemscore.Metal>
0.0000

> <Gold.Chemscore.Lipo>
72.3132

> <Gold.Chemscore.Internal_Hbond>
0.0000

> <Gold.Chemscore.DEClash>
0.0183

> <Gold.Chemscore.DEInternal>
2.3512

> <Gold.Chemscore.Rot>
2.6074

> <Gold.Chemscore.Internal.Correction>
   9.000000E+99

> <Gold.Chemscore.Hbonds>
donor molecule, donor type, donor heavy atom, donor atom, acceptor molecule, acceptor atom, score
      P1  H  6896  6907       L1    18  0.35
      P1  H  7989  7998       L1    26  0.31
      P1  H  7997  8008       L1    23  0.68

> <Gold.Chemscore.Hbond.Weighted>
-8.8729

> <Gold.Chemscore.Metal.Weighted>
-0.0000

> <Gold.Chemscore.Lipo.Weighted>
-8.4606

> <Gold.Chemscore.Internal_Hbond.Weighted>
0.0000

> <Gold.Chemscore.DEClash.Weighted>
0.0183

> <Gold.Chemscore.DEInternal.Weighted>
2.3512

> <Gold.Chemscore.Rot.Weighted>
6.6748

> <Gold.Chemscore.Internal.Correction.Weighted>
   9.000000E+99

> <Gold.Protein.RotatedTorsions>
[ 6907 6896 6895 6894 ] final  -67.05 input  -60.11 | X-H torsion
[ 7974 7965 7964 7962 ] final -156.26 input  175.53 | X-H torsion
[ 8008 7997 7996 7995 ] final  -48.45 input   59.86 | X-H torsion
[ 10167 10162 10161 10158 ] final  -77.73 input  -65.29 | X-H torsion
[ 10718 10713 10712 10709 ] final  175.40 input   66.30 | X-H torsion
[ 10763 10752 10751 10750 ] final    7.49 input  -60.55 | X-H torsion
[ 11005 11000 10999 10996 ] final   53.37 input  -57.11 | X-H torsion

> <Gold.Protein.ActiveResidues>
 VAL166  LYS551  ARG553  GLY616  TRP617  ASP618  TYR619  PRO620  LYS621  CYS622 
 ASP623  PHE694  ASN695  SER759  ASP760  ASP761  ALA762  ILE779  LEU786  VAL792 
 PHE793  MET794  SER795  GLU796  ALA797  LYS798  CYS799  TRP800  GLU811  SER814 

> <Gold.Protein.RotatedAtoms>
  150.7431  134.5935  159.5999 H   0  0  0  0  0  0  0  0  0  0  0  0  # atno 6907 bound_to 6896
  152.3316  134.7248  160.0297 H   0  0  0  0  0  0  0  0  0  0  0  0  # atno 6908 bound_to 6896
  151.7730  133.3307  159.3486 H   0  0  0  0  0  0  0  0  0  0  0  0  # atno 6909 bound_to 6896
  144.7601  140.4135  143.5983 H   0  0  0  0  0  0  0  0  0  0  0  0  # atno 7974 bound_to 7965
  154.4029  140.1321  156.4342 H   0  0  0  0  0  0  0  0  0  0  0  0  # atno 8008 bound_to 7997
  155.7522  140.3488  155.5136 H   0  0  0  0  0  0  0  0  0  0  0  0  # atno 8009 bound_to 7997
  155.8939  140.1008  157.1389 H   0  0  0  0  0  0  0  0  0  0  0  0  # atno 8010 bound_to 7997
  140.4744  143.2418  151.8155 H   0  0  0  0  0  0  0  0  0  0  0  0  # atno 10167 bound_to 10162
  156.9355  130.9984  151.2979 H   0  0  0  0  0  0  0  0  0  0  0  0  # atno 10718 bound_to 10713
  153.2357  135.6898  153.7839 H   0  0  0  0  0  0  0  0  0  0  0  0  # atno 10763 bound_to 10752
  153.6987  135.3301  155.3220 H   0  0  0  0  0  0  0  0  0  0  0  0  # atno 10764 bound_to 10752
  154.8334  135.4562  154.1260 H   0  0  0  0  0  0  0  0  0  0  0  0  # atno 10765 bound_to 10752
  140.0773  134.5387  155.8983 H   0  0  0  0  0  0  0  0  0  0  0  0  # atno 11005 bound_to 11000
  145.6646  139.1588  143.2789 LP  0  0  0  0  0  0  0  0  0  0  0  0  # atno 17320 bound_to 7965
  146.1655  140.6724  142.9257 LP  0  0  0  0  0  0  0  0  0  0  0  0  # atno 17321 bound_to 7965
  139.4823  144.4851  151.9257 LP  0  0  0  0  0  0  0  0  0  0  0  0  # atno 17342 bound_to 10162
  140.3936  144.2583  150.5898 LP  0  0  0  0  0  0  0  0  0  0  0  0  # atno 17343 bound_to 10162
  157.5819  130.8382  149.8535 LP  0  0  0  0  0  0  0  0  0  0  0  0  # atno 17370 bound_to 10713
  156.0428  130.3735  150.1393 LP  0  0  0  0  0  0  0  0  0  0  0  0  # atno 17371 bound_to 10713
  141.2034  133.6631  156.6060 LP  0  0  0  0  0  0  0  0  0  0  0  0  # atno 17394 bound_to 11000
  140.3539  134.7745  157.4486 LP  0  0  0  0  0  0  0  0  0  0  0  0  # atno 17395 bound_to 11000

$$$$
