AV-unprocessed.smi:83|AV-procd|sdf|800|dock9
  -GOLD-   2262017183D 1   1.00000     0.00000
 Structure written by MMmdl.
 56 59  0  0  0  0  0  0  0  0  1 V2000
  151.3755  137.8169  154.7591 C   0  0  0  0  0  0  0  0  0  0  0  0
  151.7591  139.2588  155.0971 C   0  0  0  0  0  0  0  0  0  0  0  0
  152.7067  139.7772  154.5071 O   0  0  0  0  0  0  0  0  0  0  0  0
  151.0436  139.9137  156.0340 N   0  0  0  0  0  0  0  0  0  0  0  0
  151.3109  141.2885  156.4473 C   0  0  0  0  0  0  0  0  0  0  0  0
  150.3102  141.5794  157.5700 C   0  0  0  0  0  0  0  0  0  0  0  0
  149.1467  140.6257  157.3007 C   0  0  1  0  0  0  0  0  0  0  0  0
  148.1402  141.2760  156.3199 C   0  0  0  0  0  0  0  0  0  0  0  0
  148.0203  140.5836  155.0356 N   0  0  0  0  0  0  0  0  0  0  0  0
  148.3990  141.3343  153.8396 C   0  0  0  0  0  0  0  0  0  0  0  0
  147.2357  139.4728  154.8946 C   0  0  0  0  0  0  0  0  0  0  0  0
  146.8932  138.7849  156.0185 N   0  0  0  0  0  0  0  0  0  0  0  0
  146.1653  137.6682  155.9509 C   0  0  0  0  0  0  0  0  0  0  0  0
  145.6767  137.0584  154.8724 N   0  0  0  0  0  0  0  0  0  0  0  0
  145.9955  137.7396  153.7368 C   0  0  0  0  0  0  0  0  0  0  0  0
  146.7525  138.9466  153.6535 C   0  0  0  0  0  0  0  0  0  0  0  0
  146.8415  139.3314  152.3185 N   0  0  0  0  0  0  0  0  0  0  0  0
  146.2036  138.4059  151.6587 C   0  0  0  0  0  0  0  0  0  0  0  0
  145.6645  137.4093  152.4346 N   0  0  0  0  0  0  0  0  0  0  0  0
  144.9111  136.2601  151.9652 C   0  0  0  0  0  0  0  0  0  0  0  0
  145.4251  135.7336  150.6116 C   0  0  2  0  0  0  0  0  0  0  0  0
  144.8022  136.4176  149.5409 O   0  0  0  0  0  0  0  0  0  0  0  0
  145.2521  134.2082  150.4608 C   0  0  2  0  0  0  0  0  0  0  0  0
  143.8146  133.6804  150.4412 C   0  0  0  0  0  0  0  0  0  0  0  0
  144.0220  132.2453  150.8704 C   0  0  0  0  0  0  0  0  0  0  0  0
  145.1240  132.3904  151.9169 C   0  0  0  0  0  0  0  0  0  0  0  0
  145.9273  133.4869  151.4890 O   0  0  0  0  0  0  0  0  0  0  0  0
  149.8778  139.3935  156.7440 C   0  0  0  0  0  0  0  0  0  0  0  0
  151.3441  137.2028  155.6593 H   0  0  0  0  0  0  0  0  0  0  0  0
  152.1021  137.3757  154.0763 H   0  0  0  0  0  0  0  0  0  0  0  0
  150.3988  137.7811  154.2771 H   0  0  0  0  0  0  0  0  0  0  0  0
  152.3403  141.4192  156.7844 H   0  0  0  0  0  0  0  0  0  0  0  0
  151.1428  141.9557  155.6005 H   0  0  0  0  0  0  0  0  0  0  0  0
  150.7643  141.3335  158.5309 H   0  0  0  0  0  0  0  0  0  0  0  0
  150.0129  142.6279  157.6087 H   0  0  0  0  0  0  0  0  0  0  0  0
  148.6308  140.3796  158.2296 H   0  0  0  0  0  0  0  0  0  0  0  0
  147.1534  141.2502  156.7831 H   0  0  0  0  0  0  0  0  0  0  0  0
  148.3412  142.3355  156.2045 H   0  0  0  0  0  0  0  0  0  0  0  0
  148.8795  140.6836  153.1082 H   0  0  0  0  0  0  0  0  0  0  0  0
  149.1026  142.1305  154.0833 H   0  0  0  0  0  0  0  0  0  0  0  0
  147.5234  141.7920  153.3781 H   0  0  0  0  0  0  0  0  0  0  0  0
  145.9483  137.1926  156.8962 H   0  0  0  0  0  0  0  0  0  0  0  0
  146.1099  138.4250  150.5827 H   0  0  0  0  0  0  0  0  0  0  0  0
  144.9789  135.4783  152.7226 H   0  0  0  0  0  0  0  0  0  0  0  0
  143.8580  136.5357  151.8978 H   0  0  0  0  0  0  0  0  0  0  0  0
  146.4907  135.9548  150.5389 H   0  0  0  0  0  0  0  0  0  0  0  0
  145.0024  135.9624  148.7373 H   0  0  0  0  0  0  0  0  0  0  0  0
  145.7283  133.9029  149.5275 H   0  0  0  0  0  0  0  0  0  0  0  0
  143.1870  134.1907  151.1723 H   0  0  0  0  0  0  0  0  0  0  0  0
  143.3414  133.7717  149.4633 H   0  0  0  0  0  0  0  0  0  0  0  0
  143.1187  131.7788  151.2642 H   0  0  0  0  0  0  0  0  0  0  0  0
  144.3777  131.6494  150.0290 H   0  0  0  0  0  0  0  0  0  0  0  0
  144.6938  132.6366  152.8883 H   0  0  0  0  0  0  0  0  0  0  0  0
  145.7158  131.4818  152.0292 H   0  0  0  0  0  0  0  0  0  0  0  0
  149.2423  138.7624  156.1278 H   0  0  0  0  0  0  0  0  0  0  0  0
  150.2352  138.7722  157.5664 H   0  0  0  0  0  0  0  0  0  0  0  0
  1  2  1  0  0  0  0
  1 29  1  0  0  0  0
  1 30  1  0  0  0  0
  1 31  1  0  0  0  0
  2  3  2  0  0  0  0
  2  4  1  0  0  0  0
  4 28  1  0  0  0  0
  4  5  1  0  0  0  0
  5  6  1  0  0  0  0
  5 32  1  0  0  0  0
  5 33  1  0  0  0  0
  6  7  1  0  0  0  0
  6 34  1  0  0  0  0
  6 35  1  0  0  0  0
  7  8  1  0  0  0  0
  7 28  1  0  0  0  0
  7 36  1  0  0  0  0
  8  9  1  0  0  0  0
  8 37  1  0  0  0  0
  8 38  1  0  0  0  0
  9 10  1  0  0  0  0
  9 11  1  0  0  0  0
 10 39  1  0  0  0  0
 10 40  1  0  0  0  0
 10 41  1  0  0  0  0
 11 16  1  0  0  0  0
 11 12  2  0  0  0  0
 12 13  1  0  0  0  0
 13 14  2  0  0  0  0
 13 42  1  0  0  0  0
 14 15  1  0  0  0  0
 15 19  1  0  0  0  0
 15 16  2  0  0  0  0
 16 17  1  0  0  0  0
 17 18  2  0  0  0  0
 18 19  1  0  0  0  0
 18 43  1  0  0  0  0
 19 20  1  0  0  0  0
 20 21  1  0  0  0  0
 20 44  1  0  0  0  0
 20 45  1  0  0  0  0
 21 22  1  0  0  0  0
 21 23  1  0  0  0  0
 21 46  1  0  0  0  0
 22 47  1  0  0  0  0
 23 27  1  0  0  0  0
 23 24  1  0  0  0  0
 23 48  1  0  0  0  0
 24 25  1  0  0  0  0
 24 49  1  0  0  0  0
 24 50  1  0  0  0  0
 25 26  1  0  0  0  0
 25 51  1  0  0  0  0
 25 52  1  0  0  0  0
 26 27  1  0  0  0  0
 26 53  1  0  0  0  0
 26 54  1  0  0  0  0
 28 55  1  0  0  0  0
 28 56  1  0  0  0  0
M  END
> <s_m_source_file>
AV-unprocessed.smi

> <i_m_source_file_index>
83

> <i_lp_mmshare_version>
43012

> <i_f3d_flags>
0

> <s_epik_input>
W0NIM11DKD1PKU4xW0NIMl1bQ0gyXVtDQEhdKFtDSDJdMSlbQ0gyXU4oW0NIM10pYyhuW2NIXW4yKWMoYzIzKW5bY0hdbjNbQ0gyXVtDQEhdKFtPSF0pW0NAQEhdNFtDSDJdW0NIMl1bQ0gyXU80

> <s_epik_cmdline>
J2VwaWtfcHl0aG9uJywgJy1waCcsICc3LjAnLCAnLXRuJywgJzgnLCAnLW1hJywgJzIwMCcsICctbWV0YWxfYmluZGluZycsICctaW1hZScsICc8aW5maWxlLm1hZT4nLCAnLW9tYWUnLCAnPG91dGZpbGUubWFlPic=

> <r_lp_tautomer_probability>
1

> <r_epik_Ionization_Penalty>
0.00109752

> <r_epik_Ionization_Penalty_Charging>
0

> <r_epik_Ionization_Penalty_Neutral>
0.00109752

> <r_epik_State_Penalty>
0.000634803

> <r_epik_Charging_Adjusted_Penalty>
0.000634803

> <i_epik_Tot_Q>
0

> <i_epik_Tot_abs_Q>
0

> <r_epik_Metal_State_Penalty>
-0

> <b_epik_Metal_Only>
0

> <s_lp_Force_Field>
OPLS_2005

> <r_lp_Energy>
57.114

> <b_lp_Chiralities_Consistent>
1

> <s_lp_Variant>
AV-unprocessed.smi:83-1

> <Gold.Version>
5.8.1

> <Gold.Id.Protein>
6NUR|6NUR_protein|mol2

> <Gold.PLP.Fitness>
48.4833

> <Gold.PLP.PLP>
-42.4678

> <Gold.PLP.part.hbond>
-3.9882

> <Gold.PLP.part.metal>
0.0000

> <Gold.PLP.part.buried>
-7.0676

> <Gold.PLP.part.nonpolar>
-33.5145

> <Gold.PLP.part.repulsive>
1.0749

> <Gold.PLP.ligand.clash>
0.0000

> <Gold.PLP.ligand.torsion>
1.6984

> <Gold.PLP.Chemscore.Hbond>
2.3857

> <Gold.PLP.Chemscore.CHOScore>
0.6165

> <Gold.PLP.Chemscore.Metal>
0.0000

> <Gold.Chemscore.Hbonds>
donor molecule, donor type, donor heavy atom, donor atom, acceptor molecule, acceptor atom, score
      L1  H    22    47       P1  7921  1.00
      P1  H  7989  7998       L1     3  0.35
      P1  H  7997  8010       L1     3  0.39
      L1  C    18    43       P1 10171  0.70

> <Gold.PLP.Chemscore.Internal.Correction>
0.4057

> <Gold.Rescore>
     Score         DG    S(hbond)    S(metal)    S(lipo)     H(rot)  DE(clash)    DE(int)     intcor
     10.66     -13.48       1.83        0.00      73.22       2.62       0.10       2.71       ----

> <Gold.Chemscore.Fitness>
10.6613

> <Gold.Chemscore.DG>
-13.4761

> <Gold.Chemscore.ZeroCoef>
-5.4800

> <Gold.Chemscore.Hbond>
1.8336

> <Gold.Chemscore.Metal>
0.0000

> <Gold.Chemscore.Lipo>
73.2195

> <Gold.Chemscore.Internal_Hbond>
0.0000

> <Gold.Chemscore.DEClash>
0.1027

> <Gold.Chemscore.DEInternal>
2.7122

> <Gold.Chemscore.Rot>
2.6152

> <Gold.Chemscore.Internal.Correction>
   9.000000E+99

> <Gold.Chemscore.Hbonds>
donor molecule, donor type, donor heavy atom, donor atom, acceptor molecule, acceptor atom, score
      L1  H    22    47       P1  7921  0.96
      P1  H  7989  7998       L1     3  0.05
      P1  H  7997  8010       L1     3  0.31

> <Gold.Chemscore.Hbond.Weighted>
-6.1244

> <Gold.Chemscore.Metal.Weighted>
-0.0000

> <Gold.Chemscore.Lipo.Weighted>
-8.5667

> <Gold.Chemscore.Internal_Hbond.Weighted>
0.0000

> <Gold.Chemscore.DEClash.Weighted>
0.1027

> <Gold.Chemscore.DEInternal.Weighted>
2.7122

> <Gold.Chemscore.Rot.Weighted>
6.6949

> <Gold.Chemscore.Internal.Correction.Weighted>
   9.000000E+99

> <Gold.Protein.RotatedTorsions>
[ 6907 6896 6895 6894 ] final  -34.10 input  -60.11 | X-H torsion
[ 7974 7965 7964 7962 ] final  -83.44 input  175.53 | X-H torsion
[ 8008 7997 7996 7995 ] final  101.08 input   59.86 | X-H torsion
[ 10167 10162 10161 10158 ] final   52.57 input  -65.29 | X-H torsion
[ 10718 10713 10712 10709 ] final   48.45 input   66.30 | X-H torsion
[ 10763 10752 10751 10750 ] final   86.48 input  -60.55 | X-H torsion
[ 11005 11000 10999 10996 ] final    9.29 input  -57.11 | X-H torsion

> <Gold.Protein.ActiveResidues>
 VAL166  LYS551  ARG553  GLY616  TRP617  ASP618  TYR619  PRO620  LYS621  CYS622 
 ASP623  PHE694  ASN695  SER759  ASP760  ASP761  ALA762  ILE779  LEU786  VAL792 
 PHE793  MET794  SER795  GLU796  ALA797  LYS798  CYS799  TRP800  GLU811  SER814 

> <Gold.Protein.RotatedAtoms>
  151.0569  134.9711  159.8240 H   0  0  0  0  0  0  0  0  0  0  0  0  # atno 6907 bound_to 6896
  152.5389  134.2466  159.8892 H   0  0  0  0  0  0  0  0  0  0  0  0  # atno 6908 bound_to 6896
  151.2484  133.4320  159.2644 H   0  0  0  0  0  0  0  0  0  0  0  0  # atno 6909 bound_to 6896
  145.5199  140.9532  143.1661 H   0  0  0  0  0  0  0  0  0  0  0  0  # atno 7974 bound_to 7965
  156.1265  140.3203  155.8285 H   0  0  0  0  0  0  0  0  0  0  0  0  # atno 8008 bound_to 7997
  155.4410  140.0525  157.3027 H   0  0  0  0  0  0  0  0  0  0  0  0  # atno 8009 bound_to 7997
  154.4866  140.2075  155.9654 H   0  0  0  0  0  0  0  0  0  0  0  0  # atno 8010 bound_to 7997
  140.2499  144.3490  150.6351 H   0  0  0  0  0  0  0  0  0  0  0  0  # atno 10167 bound_to 10162
  157.4688  130.8242  149.7965 H   0  0  0  0  0  0  0  0  0  0  0  0  # atno 10718 bound_to 10713
  153.1575  135.4578  154.9725 H   0  0  0  0  0  0  0  0  0  0  0  0  # atno 10763 bound_to 10752
  154.7872  135.3208  154.7861 H   0  0  0  0  0  0  0  0  0  0  0  0  # atno 10764 bound_to 10752
  153.8356  135.6934  153.4863 H   0  0  0  0  0  0  0  0  0  0  0  0  # atno 10765 bound_to 10752
  140.5274  134.0500  155.7863 H   0  0  0  0  0  0  0  0  0  0  0  0  # atno 11005 bound_to 11000
  144.7681  139.6797  143.7206 LP  0  0  0  0  0  0  0  0  0  0  0  0  # atno 17320 bound_to 7965
  146.2112  139.5470  142.9679 LP  0  0  0  0  0  0  0  0  0  0  0  0  # atno 17321 bound_to 7965
  140.6048  143.2167  151.7001 LP  0  0  0  0  0  0  0  0  0  0  0  0  # atno 17342 bound_to 10162
  139.5049  144.3735  152.0446 LP  0  0  0  0  0  0  0  0  0  0  0  0  # atno 17343 bound_to 10162
  156.0063  130.3854  150.2419 LP  0  0  0  0  0  0  0  0  0  0  0  0  # atno 17370 bound_to 10713
  157.0601  131.0087  151.3225 LP  0  0  0  0  0  0  0  0  0  0  0  0  # atno 17371 bound_to 10713
  141.1300  133.9317  157.2554 LP  0  0  0  0  0  0  0  0  0  0  0  0  # atno 17394 bound_to 11000
  139.9573  135.0162  156.9163 LP  0  0  0  0  0  0  0  0  0  0  0  0  # atno 17395 bound_to 11000

$$$$
