AV-unprocessed.smi:2340|AV-procd|sdf|9350|dock1
  -GOLD-   2272012573D 1   1.00000     0.00000
 Structure written by MMmdl.
 40 41  0  0  0  0  0  0  0  0  1 V2000
  144.7126  132.2231  149.9347 C   0  0  0  0  0  0  0  0  0  0  0  0
  145.4087  132.7678  151.1420 C   0  0  0  0  0  0  0  0  0  0  0  0
  144.9616  133.7615  151.9763 C   0  0  0  0  0  0  0  0  0  0  0  0
  146.0876  134.0820  153.2663 S   0  0  0  0  0  0  0  0  0  0  0  0
  147.1442  132.8338  152.6142 C   0  0  0  0  0  0  0  0  0  0  0  0
  148.4494  132.4508  153.2442 C   0  0  2  0  0  0  0  0  0  0  0  0
  148.5689  130.9338  153.4480 C   0  0  0  0  0  0  0  0  0  0  0  0
  148.7547  133.2559  154.5223 C   0  0  0  0  0  0  0  0  0  0  0  0
  149.1327  134.6304  154.2072 N   0  0  0  0  0  0  0  0  0  0  0  0
  149.6920  135.4939  155.0643 C   0  0  0  0  0  0  0  0  0  0  0  0
  149.9921  135.2218  156.2267 O   0  0  0  0  0  0  0  0  0  0  0  0
  149.8826  136.6941  154.5013 N   0  0  0  0  0  0  0  0  0  0  0  0
  150.4601  137.8489  155.1802 C   0  0  1  0  0  0  0  0  0  0  0  0
  151.9558  137.7179  155.3943 C   0  0  0  0  0  0  0  0  0  0  0  0
  152.3949  139.1755  155.5062 C   0  0  0  0  0  0  0  0  0  0  0  0
  151.4528  139.9377  154.7564 O   0  0  0  0  0  0  0  0  0  0  0  0
  150.3895  139.1042  154.3072 C   0  0  2  0  0  0  0  0  0  0  0  0
  149.0520  139.8490  154.3890 C   0  0  0  0  0  0  0  0  0  0  0  0
  146.6513  132.2503  151.5173 N   0  0  0  0  0  0  0  0  0  0  0  0
  143.7685  132.7373  149.7529 H   0  0  0  0  0  0  0  0  0  0  0  0
  144.4924  131.1621  150.0534 H   0  0  0  0  0  0  0  0  0  0  0  0
  145.3268  132.3365  149.0412 H   0  0  0  0  0  0  0  0  0  0  0  0
  144.0408  134.3219  151.9112 H   0  0  0  0  0  0  0  0  0  0  0  0
  149.2221  132.7176  152.5218 H   0  0  0  0  0  0  0  0  0  0  0  0
  148.4440  130.4006  152.5051 H   0  0  0  0  0  0  0  0  0  0  0  0
  147.8127  130.5662  154.1425 H   0  0  0  0  0  0  0  0  0  0  0  0
  149.5466  130.6684  153.8506 H   0  0  0  0  0  0  0  0  0  0  0  0
  147.8766  133.2440  155.1709 H   0  0  0  0  0  0  0  0  0  0  0  0
  149.5652  132.7877  155.0818 H   0  0  0  0  0  0  0  0  0  0  0  0
  148.9295  134.9543  153.2730 H   0  0  0  0  0  0  0  0  0  0  0  0
  149.6012  136.8226  153.5404 H   0  0  0  0  0  0  0  0  0  0  0  0
  149.9638  138.0295  156.1360 H   0  0  0  0  0  0  0  0  0  0  0  0
  152.2136  137.1273  156.2739 H   0  0  0  0  0  0  0  0  0  0  0  0
  152.4278  137.2575  154.5249 H   0  0  0  0  0  0  0  0  0  0  0  0
  152.3534  139.5055  156.5448 H   0  0  0  0  0  0  0  0  0  0  0  0
  153.4113  139.3297  155.1434 H   0  0  0  0  0  0  0  0  0  0  0  0
  150.6032  138.8439  153.2688 H   0  0  0  0  0  0  0  0  0  0  0  0
  148.2298  139.2148  154.0569 H   0  0  0  0  0  0  0  0  0  0  0  0
  149.0631  140.7389  153.7596 H   0  0  0  0  0  0  0  0  0  0  0  0
  148.8393  140.1662  155.4103 H   0  0  0  0  0  0  0  0  0  0  0  0
  1  2  1  0  0  0  0
  1 20  1  0  0  0  0
  1 21  1  0  0  0  0
  1 22  1  0  0  0  0
  2 19  1  0  0  0  0
  2  3  2  0  0  0  0
  3  4  1  0  0  0  0
  3 23  1  0  0  0  0
  4  5  1  0  0  0  0
  5  6  1  0  0  0  0
  5 19  2  0  0  0  0
  6  7  1  0  0  0  0
  6  8  1  0  0  0  0
  6 24  1  0  0  0  0
  7 25  1  0  0  0  0
  7 26  1  0  0  0  0
  7 27  1  0  0  0  0
  8  9  1  0  0  0  0
  8 28  1  0  0  0  0
  8 29  1  0  0  0  0
  9 10  1  0  0  0  0
  9 30  1  0  0  0  0
 10 11  2  0  0  0  0
 10 12  1  0  0  0  0
 12 13  1  0  0  0  0
 12 31  1  0  0  0  0
 13 17  1  0  0  0  0
 13 14  1  0  0  0  0
 13 32  1  0  0  0  0
 14 15  1  0  0  0  0
 14 33  1  0  0  0  0
 14 34  1  0  0  0  0
 15 16  1  0  0  0  0
 15 35  1  0  0  0  0
 15 36  1  0  0  0  0
 16 17  1  0  0  0  0
 17 18  1  0  0  0  0
 17 37  1  0  0  0  0
 18 38  1  0  0  0  0
 18 39  1  0  0  0  0
 18 40  1  0  0  0  0
M  END
> <s_m_source_file>
AV-unprocessed.smi

> <i_m_source_file_index>
2340

> <i_lp_mmshare_version>
43012

> <i_f3d_flags>
0

> <s_epik_input>
W0NIM11jMVtjSF1zYyhuMSlbQ0BIXShbQ0gzXSlbQ0gyXVtOSF1DKD1PKVtOSF1bQ0BASF0yW0NIMl1bQ0gyXU9bQ0BIXTJbQ0gzXQ==

> <s_epik_cmdline>
J2VwaWtfcHl0aG9uJywgJy1waCcsICc3LjAnLCAnLXRuJywgJzgnLCAnLW1hJywgJzIwMCcsICctbWV0YWxfYmluZGluZycsICctaW1hZScsICc8aW5maWxlLm1hZT4nLCAnLW9tYWUnLCAnPG91dGZpbGUubWFlPic=

> <r_epik_Ionization_Penalty>
0.00156622

> <r_epik_Ionization_Penalty_Charging>
0

> <r_epik_Ionization_Penalty_Neutral>
0.00156622

> <r_epik_State_Penalty>
0.00101902

> <r_epik_Charging_Adjusted_Penalty>
0.00101902

> <i_epik_Tot_Q>
0

> <i_epik_Tot_abs_Q>
0

> <r_epik_Metal_State_Penalty>
-0

> <b_epik_Metal_Only>
0

> <s_lp_Force_Field>
OPLS_2005

> <r_lp_Energy>
5.83327

> <b_lp_Chiralities_Consistent>
1

> <s_lp_Variant>
AV-unprocessed.smi:2340-7

> <Gold.Version>
5.8.1

> <Gold.Id.Protein>
6NUR|6NUR_protein|mol2

> <Gold.PLP.Fitness>
42.5362

> <Gold.PLP.PLP>
-34.2372

> <Gold.PLP.part.hbond>
-2.9743

> <Gold.PLP.part.metal>
0.0000

> <Gold.PLP.part.buried>
-4.8888

> <Gold.PLP.part.nonpolar>
-27.8589

> <Gold.PLP.part.repulsive>
0.9858

> <Gold.PLP.ligand.clash>
0.0000

> <Gold.PLP.ligand.torsion>
0.4234

> <Gold.PLP.Chemscore.Hbond>
3.0000

> <Gold.PLP.Chemscore.CHOScore>
0.0000

> <Gold.PLP.Chemscore.Metal>
0.0000

> <Gold.Chemscore.Hbonds>
donor molecule, donor type, donor heavy atom, donor atom, acceptor molecule, acceptor atom, score
      L1  H     9    30       P1  7948  1.00
      L1  H    12    31       P1  7948  1.00
      P1  H  7989  7998       L1    16  1.00

> <Gold.PLP.Chemscore.Internal.Correction>
0.1458

> <Gold.Rescore>
     Score         DG    S(hbond)    S(metal)    S(lipo)     H(rot)  DE(clash)    DE(int)     intcor
     18.43     -18.97       2.55        0.00      76.11       1.53       0.00       0.55       ----

> <Gold.Chemscore.Fitness>
18.4253

> <Gold.Chemscore.DG>
-18.9727

> <Gold.Chemscore.ZeroCoef>
-5.4800

> <Gold.Chemscore.Hbond>
2.5483

> <Gold.Chemscore.Metal>
0.0000

> <Gold.Chemscore.Lipo>
76.1077

> <Gold.Chemscore.Internal_Hbond>
0.0000

> <Gold.Chemscore.DEClash>
0.0000

> <Gold.Chemscore.DEInternal>
0.5474

> <Gold.Chemscore.Rot>
1.5325

> <Gold.Chemscore.Internal.Correction>
   9.000000E+99

> <Gold.Chemscore.Hbonds>
donor molecule, donor type, donor heavy atom, donor atom, acceptor molecule, acceptor atom, score
      L1  H     9    30       P1  7948  0.25
      L1  H    12    31       P1  7948  0.73
      P1  H  7989  7998       L1    16  0.29

> <Gold.Chemscore.Hbond.Weighted>
-8.5114

> <Gold.Chemscore.Metal.Weighted>
-0.0000

> <Gold.Chemscore.Lipo.Weighted>
-8.9046

> <Gold.Chemscore.Internal_Hbond.Weighted>
0.0000

> <Gold.Chemscore.DEClash.Weighted>
0.0000

> <Gold.Chemscore.DEInternal.Weighted>
0.5474

> <Gold.Chemscore.Rot.Weighted>
3.9233

> <Gold.Chemscore.Internal.Correction.Weighted>
   9.000000E+99

> <Gold.Protein.RotatedTorsions>
[ 6907 6896 6895 6894 ] final    3.98 input  -60.11 | X-H torsion
[ 7974 7965 7964 7962 ] final  -62.60 input  175.53 | X-H torsion
[ 8008 7997 7996 7995 ] final  -72.96 input   59.86 | X-H torsion
[ 10167 10162 10161 10158 ] final -172.19 input  -65.29 | X-H torsion
[ 10718 10713 10712 10709 ] final -101.17 input   66.30 | X-H torsion
[ 10763 10752 10751 10750 ] final -140.71 input  -60.55 | X-H torsion
[ 11005 11000 10999 10996 ] final  -90.52 input  -57.11 | X-H torsion

> <Gold.Protein.ActiveResidues>
 VAL166  LYS551  ARG553  GLY616  TRP617  ASP618  TYR619  PRO620  LYS621  CYS622 
 ASP623  PHE694  ASN695  SER759  ASP760  ASP761  ALA762  ILE779  LEU786  VAL792 
 PHE793  MET794  SER795  GLU796  ALA797  LYS798  CYS799  TRP800  GLU811  SER814 

> <Gold.Protein.RotatedAtoms>
  151.6339  135.1020  160.0127 H   0  0  0  0  0  0  0  0  0  0  0  0  # atno 6907 bound_to 6896
  152.4091  133.6931  159.6390 H   0  0  0  0  0  0  0  0  0  0  0  0  # atno 6908 bound_to 6896
  150.7983  133.8573  159.3263 H   0  0  0  0  0  0  0  0  0  0  0  0  # atno 6909 bound_to 6896
  145.7894  140.8718  143.0289 H   0  0  0  0  0  0  0  0  0  0  0  0  # atno 7974 bound_to 7965
  154.5208  140.0787  156.8169 H   0  0  0  0  0  0  0  0  0  0  0  0  # atno 8008 bound_to 7997
  155.3579  140.3416  155.4222 H   0  0  0  0  0  0  0  0  0  0  0  0  # atno 8009 bound_to 7997
  156.1679  140.1610  156.8486 H   0  0  0  0  0  0  0  0  0  0  0  0  # atno 8010 bound_to 7997
  139.5759  144.1535  152.1449 H   0  0  0  0  0  0  0  0  0  0  0  0  # atno 10167 bound_to 10162
  156.0186  130.5361  150.6924 H   0  0  0  0  0  0  0  0  0  0  0  0  # atno 10718 bound_to 10713
  154.8570  135.3545  154.5751 H   0  0  0  0  0  0  0  0  0  0  0  0  # atno 10763 bound_to 10752
  153.6363  135.7000  153.5262 H   0  0  0  0  0  0  0  0  0  0  0  0  # atno 10764 bound_to 10752
  153.3008  135.4207  155.1210 H   0  0  0  0  0  0  0  0  0  0  0  0  # atno 10765 bound_to 10752
  141.1564  133.7697  156.9749 H   0  0  0  0  0  0  0  0  0  0  0  0  # atno 11005 bound_to 11000
  144.6784  140.0101  143.7484 LP  0  0  0  0  0  0  0  0  0  0  0  0  # atno 17320 bound_to 7965
  145.9993  139.3078  143.0937 LP  0  0  0  0  0  0  0  0  0  0  0  0  # atno 17321 bound_to 7965
  140.1077  144.5484  150.6946 LP  0  0  0  0  0  0  0  0  0  0  0  0  # atno 17342 bound_to 10162
  140.7041  143.2455  151.4778 LP  0  0  0  0  0  0  0  0  0  0  0  0  # atno 17343 bound_to 10162
  157.4602  131.0882  151.0753 LP  0  0  0  0  0  0  0  0  0  0  0  0  # atno 17370 bound_to 10713
  157.1243  130.6075  149.5513 LP  0  0  0  0  0  0  0  0  0  0  0  0  # atno 17371 bound_to 10713
  140.1104  134.9480  157.2057 LP  0  0  0  0  0  0  0  0  0  0  0  0  # atno 17394 bound_to 11000
  140.3201  134.2926  155.7248 LP  0  0  0  0  0  0  0  0  0  0  0  0  # atno 17395 bound_to 11000

$$$$
