#       Name:                AV-unprocessed.smi:264
#       Creating user name   scv26
#       Creation time:       Thu Mar 26 21:21:02 2020


#       File generated by GOLD software.
#

@<TRIPOS>MOLECULE
AV-unprocessed.smi:264
    63    67     1
SMALL
NO_CHARGES


@<TRIPOS>ATOM
      1 ****        -1.9788  -3.6533   4.7944 C.3            1 S1                 0.0000
      2 ****        -2.9721  -2.6918   4.1227 C.3            1 S1                 0.0000
      3 ****        -3.9620  -3.4786   3.4653 O.3            1 S1                 0.0000
      4 ****        -4.4445  -2.7589   2.3450 C.3            1 S1                 0.0000
      5 ****        -3.1725  -2.1439   1.7817 C.3            1 S1                 0.0000
      6 ****        -2.4012  -1.7374   3.0349 C.3            1 S1                 0.0000
      7 ****        -2.7925  -0.4174   3.3752 O.3            1 S1                 0.0000
      8 ****        -0.8613  -1.7467   2.8457 C.3            1 S1                 0.0000
      9 ****        -0.4060  -0.8965   1.7552 N.pl3          1 S1                 0.0000
     10 ****        -0.1671   0.4568   1.8107 C.2            1 S1                 0.0000
     11 ****         0.2367   0.9947   0.6935 N.2            1 S1                 0.0000
     12 ****         0.2955  -0.0667  -0.2048 C.ar           1 S1                 0.0000
     13 ****         0.6503  -0.2022  -1.5827 C.ar           1 S1                 0.0000
     14 ****         1.0796   0.7999  -2.3949 N.pl3          1 S1                 0.0000
     15 ****         0.3665   0.9751  -3.6560 C.3            1 S1                 0.0000
     16 ****         1.2276   1.7827  -4.6371 C.3            1 S1                 0.0000
     17 ****         1.6302   3.0150  -4.0417 O.3            1 S1                 0.0000
     18 ****         2.3761   2.8659  -2.8303 C.3            1 S1                 0.0000
     19 ****         2.6806   4.2608  -2.2959 C.3            1 S1                 0.0000
     20 ****         4.0425   4.0896  -1.6414 C.3            1 S1                 0.0000
     21 ****         4.7183   3.2505  -2.5595 O.3            1 S1                 0.0000
     22 ****         3.7934   2.2902  -3.0592 C.3            1 S1                 0.0000
     23 ****         1.5495   2.0496  -1.8093 C.3            1 S1                 0.0000
     24 ****         0.5634  -1.4452  -2.1247 N.ar           1 S1                 0.0000
     25 ****         0.1674  -2.4850  -1.3864 C.ar           1 S1                 0.0000
     26 ****        -0.1854  -2.5074  -0.1011 N.ar           1 S1                 0.0000
     27 ****        -0.1097  -1.2646   0.4540 C.ar           1 S1                 0.0000
     28 ****        -1.1953  -3.1111   5.3240 H              1 S1                 0.0000
     29 ****        -1.5073  -4.3151   4.0676 H              1 S1                 0.0000
     30 ****        -2.4890  -4.2829   5.5236 H              1 S1                 0.0000
     31 ****        -3.4758  -2.1193   4.9040 H              1 S1                 0.0000
     32 ****        -4.9501  -3.4117   1.6334 H              1 S1                 0.0000
     33 ****        -5.1453  -1.9890   2.6715 H              1 S1                 0.0000
     34 ****        -2.6265  -2.9160   1.2387 H              1 S1                 0.0000
     35 ****        -3.3601  -1.3210   1.0905 H              1 S1                 0.0000
     36 ****        -2.4096  -0.1976   4.2106 H              1 S1                 0.0000
     37 ****        -0.3625  -1.4214   3.7596 H              1 S1                 0.0000
     38 ****        -0.5074  -2.7582   2.6451 H              1 S1                 0.0000
     39 ****        -0.3084   1.0379   2.7104 H              1 S1                 0.0000
     40 ****         0.1046   0.0207  -4.1132 H              1 S1                 0.0000
     41 ****        -0.5690   1.5005  -3.4599 H              1 S1                 0.0000
     42 ****         2.0955   1.2021  -4.9503 H              1 S1                 0.0000
     43 ****         0.6573   2.0010  -5.5399 H              1 S1                 0.0000
     44 ****         2.7709   4.9684  -3.1213 H              1 S1                 0.0000
     45 ****         1.9228   4.6454  -1.6127 H              1 S1                 0.0000
     46 ****         4.5660   5.0350  -1.4989 H              1 S1                 0.0000
     47 ****         3.9563   3.5897  -0.6754 H              1 S1                 0.0000
     48 ****         3.9317   1.3429  -2.5365 H              1 S1                 0.0000
     49 ****         4.0126   2.1203  -4.1131 H              1 S1                 0.0000
     50 ****         0.6815   2.6269  -1.4879 H              1 S1                 0.0000
     51 ****         2.1557   1.8513  -0.9246 H              1 S1                 0.0000
     52 ****         0.1287  -3.4347  -1.8989 H              1 S1                 0.0000
     53 ****        -4.7159  -3.6657   4.0951 LP             1 S1                 0.0000
     54 ****        -3.5588  -4.3420   3.1622 LP             1 S1                 0.0000
     55 ****        -3.7893  -0.3663   3.4370 LP             1 S1                 0.0000
     56 ****        -2.4686   0.2211   2.6771 LP             1 S1                 0.0000
     57 ****         0.4552   1.9551   0.5208 LP             1 S1                 0.0000
     58 ****         0.8089   3.5489  -3.8404 LP             1 S1                 0.0000
     59 ****         2.1970   3.5107  -4.6998 LP             1 S1                 0.0000
     60 ****         5.4726   2.7839  -2.0978 LP             1 S1                 0.0000
     61 ****         5.0776   3.7979  -3.3153 LP             1 S1                 0.0000
     62 ****         0.7985  -1.5828  -3.0869 LP             1 S1                 0.0000
     63 ****        -0.4690  -3.3297   0.3922 LP             1 S1                 0.0000
@<TRIPOS>BOND
    1    1    2 1     
    2    1   28 1     
    3    1   29 1     
    4    1   30 1     
    5    2    6 1     
    6    2    3 1     
    7    2   31 1     
    8    3    4 1     
    9    4    5 1     
   10    4   32 1     
   11    4   33 1     
   12    5    6 1     
   13    5   34 1     
   14    5   35 1     
   15    6    7 1     
   16    6    8 1     
   17    7   36 1     
   18    8    9 1     
   19    8   37 1     
   20    8   38 1     
   21    9   27 1     
   22    9   10 1     
   23   10   11 2     
   24   10   39 1     
   25   11   12 1     
   26   12   27 ar    
   27   12   13 ar    
   28   13   14 1     
   29   13   24 ar    
   30   14   23 1     
   31   14   15 1     
   32   15   16 1     
   33   15   40 1     
   34   15   41 1     
   35   16   17 1     
   36   16   42 1     
   37   16   43 1     
   38   17   18 1     
   39   18   22 1     
   40   18   19 1     
   41   18   23 1     
   42   19   20 1     
   43   19   44 1     
   44   19   45 1     
   45   20   21 1     
   46   20   46 1     
   47   20   47 1     
   48   21   22 1     
   49   22   48 1     
   50   22   49 1     
   51   23   50 1     
   52   23   51 1     
   53   24   25 ar    
   54   25   26 ar    
   55   25   52 1     
   56   26   27 ar    
   57    3   53 1     
   58    3   54 1     
   59    7   55 1     
   60    7   56 1     
   61   11   57 1     
   62   17   58 1     
   63   17   59 1     
   64   21   60 1     
   65   21   61 1     
   66   24   62 1     
   67   26   63 1     
@<TRIPOS>SUBSTRUCTURE
      1 S1             1
@<TRIPOS>SET
LONE_PAIRS      STATIC     ATOMS    <user>   **** ""
11 53 54 55 56 57 58 59 60 61 62 63
DONOR_HYDROGENS      STATIC     ATOMS    <user>   **** ""
1 36
ATOM$BLUE        STATIC     ATOMS    COLORGROUP SYSTEM
11 53 54 55 56 57 58 59 60 61 62 63
ATOM$RED        STATIC     ATOMS    COLORGROUP SYSTEM
1 36
