AV-unprocessed.smi:1817|AV-procd|sdf|7368|dock10
  -GOLD-   22720 9 33D 1   1.00000     0.00000
 Structure written by MMmdl.
 43 44  0  0  0  0  0  0  0  0  2 V2000
  151.3089  140.6044  156.1364 C   0  0  0  0  0  0  0  0  0  0  0  0
  150.5395  141.8464  156.6082 C   0  0  0  0  0  0  0  0  0  0  0  0
  149.1917  141.9534  155.9961 N   0  3  0  0  0  0  0  0  0  0  0  0
  148.1960  141.0947  156.6832 C   0  0  0  0  0  0  0  0  0  0  0  0
  146.8040  141.2582  156.0382 C   0  0  0  0  0  0  0  0  0  0  0  0
  146.8150  140.8793  154.6180 N   0  0  0  0  0  0  0  0  0  0  0  0
  147.0759  139.4501  154.3348 C   0  0  2  0  0  0  0  0  0  0  0  0
  147.0775  139.1966  152.8086 C   0  0  0  0  0  0  0  0  0  0  0  0
  146.0474  138.5157  155.0308 C   0  0  0  0  0  0  0  0  0  0  0  0
  144.7105  138.6357  154.4568 N   0  0  0  0  0  0  0  0  0  0  0  0
  143.7103  137.7684  154.6721 C   0  0  0  0  0  0  0  0  0  0  0  0
  143.8161  136.7838  155.4049 O   0  0  0  0  0  0  0  0  0  0  0  0
  142.6064  138.1137  153.9868 N   0  0  0  0  0  0  0  0  0  0  0  0
  141.3638  137.4294  153.9206 C   0  0  0  0  0  0  0  0  0  0  0  0
  141.1681  136.1938  154.4074 N   0  0  0  0  0  0  0  0  0  0  0  0
  139.8649  135.7573  154.2078 N   0  0  0  0  0  0  0  0  0  0  0  0
  139.1307  136.6789  153.5782 C   0  0  0  0  0  0  0  0  0  0  0  0
  139.9591  138.1710  153.1682 S   0  0  0  0  0  0  0  0  0  0  0  0
  147.7468  141.8116  153.9648 C   0  0  0  0  0  0  0  0  0  0  0  0
  149.1803  141.6989  154.5323 C   0  0  0  0  0  0  0  0  0  0  0  0
  152.3258  140.6134  156.5291 H   0  0  0  0  0  0  0  0  0  0  0  0
  151.3764  140.5712  155.0486 H   0  0  0  0  0  0  0  0  0  0  0  0
  150.8416  139.6803  156.4755 H   0  0  0  0  0  0  0  0  0  0  0  0
  150.4581  141.8571  157.6961 H   0  0  0  0  0  0  0  0  0  0  0  0
  151.1232  142.7259  156.3335 H   0  0  0  0  0  0  0  0  0  0  0  0
  148.5191  140.0528  156.6697 H   0  0  0  0  0  0  0  0  0  0  0  0
  148.1374  141.3858  157.7325 H   0  0  0  0  0  0  0  0  0  0  0  0
  146.0494  140.7054  156.5941 H   0  0  0  0  0  0  0  0  0  0  0  0
  146.4923  142.3008  156.1182 H   0  0  0  0  0  0  0  0  0  0  0  0
  148.0620  139.1880  154.7132 H   0  0  0  0  0  0  0  0  0  0  0  0
  147.1698  138.1366  152.5737 H   0  0  0  0  0  0  0  0  0  0  0  0
  147.9167  139.6782  152.3089 H   0  0  0  0  0  0  0  0  0  0  0  0
  146.1562  139.5531  152.3468 H   0  0  0  0  0  0  0  0  0  0  0  0
  146.3223  137.4648  154.9505 H   0  0  0  0  0  0  0  0  0  0  0  0
  145.9900  138.7427  156.0959 H   0  0  0  0  0  0  0  0  0  0  0  0
  144.5435  139.4213  153.8446 H   0  0  0  0  0  0  0  0  0  0  0  0
  142.6660  138.9561  153.4341 H   0  0  0  0  0  0  0  0  0  0  0  0
  138.0937  136.4784  153.3533 H   0  0  0  0  0  0  0  0  0  0  0  0
  147.7526  141.6744  152.8852 H   0  0  0  0  0  0  0  0  0  0  0  0
  147.3815  142.8288  154.1144 H   0  0  0  0  0  0  0  0  0  0  0  0
  149.8078  142.4340  154.0295 H   0  0  0  0  0  0  0  0  0  0  0  0
  149.6171  140.7239  154.3147 H   0  0  0  0  0  0  0  0  0  0  0  0
  148.8814  142.9050  156.1307 H   0  0  0  0  0  0  0  0  0  0  0  0
  1  2  1  0  0  0  0
  1 21  1  0  0  0  0
  1 22  1  0  0  0  0
  1 23  1  0  0  0  0
  2  3  1  0  0  0  0
  2 24  1  0  0  0  0
  2 25  1  0  0  0  0
  3 20  1  0  0  0  0
  3  4  1  0  0  0  0
  3 43  1  0  0  0  0
  4  5  1  0  0  0  0
  4 26  1  0  0  0  0
  4 27  1  0  0  0  0
  5  6  1  0  0  0  0
  5 28  1  0  0  0  0
  5 29  1  0  0  0  0
  6  7  1  0  0  0  0
  6 19  1  0  0  0  0
  7  8  1  0  0  0  0
  7  9  1  0  0  0  0
  7 30  1  0  0  0  0
  8 31  1  0  0  0  0
  8 32  1  0  0  0  0
  8 33  1  0  0  0  0
  9 10  1  0  0  0  0
  9 34  1  0  0  0  0
  9 35  1  0  0  0  0
 10 11  1  0  0  0  0
 10 36  1  0  0  0  0
 11 12  2  0  0  0  0
 11 13  1  0  0  0  0
 13 14  1  0  0  0  0
 13 37  1  0  0  0  0
 14 18  1  0  0  0  0
 14 15  2  0  0  0  0
 15 16  1  0  0  0  0
 16 17  2  0  0  0  0
 17 18  1  0  0  0  0
 17 38  1  0  0  0  0
 19 20  1  0  0  0  0
 19 39  1  0  0  0  0
 19 40  1  0  0  0  0
 20 41  1  0  0  0  0
 20 42  1  0  0  0  0
M  CHG  1   3   1
M  END
> <s_m_source_file>
AV-unprocessed.smi

> <i_m_source_file_index>
1817

> <i_lp_mmshare_version>
43012

> <i_f3d_flags>
0

> <s_epik_input>
W0NIM11bQ0gyXU4xW0NIMl1bQ0gyXU4oW0NIMl1bQ0gyXTEpW0NASF0oW0NIM10pW0NIMl1bTkhdQyg9TylbTkhdYzJubltjSF1zMg==

> <s_epik_cmdline>
J2VwaWtfcHl0aG9uJywgJy1waCcsICc3LjAnLCAnLXRuJywgJzgnLCAnLW1hJywgJzIwMCcsICctbWV0YWxfYmluZGluZycsICctaW1hZScsICc8aW5maWxlLm1hZT4nLCAnLW9tYWUnLCAnPG91dGZpbGUubWFlPic=

> <r_lp_tautomer_probability>
1

> <r_epik_Ionization_Penalty>
0.0474318

> <r_epik_Ionization_Penalty_Charging>
0.0451959

> <r_epik_Ionization_Penalty_Neutral>
0.00223598

> <r_epik_State_Penalty>
0.165541

> <r_epik_Charging_Adjusted_Penalty>
0.210737

> <i_epik_Tot_Q>
1

> <i_epik_Tot_abs_Q>
1

> <r_epik_Metal_State_Penalty>
0.500395

> <b_epik_Metal_Only>
0

> <s_lp_Force_Field>
OPLS_2005

> <r_lp_Energy>
19.2999

> <b_lp_Chiralities_Consistent>
1

> <s_lp_Variant>
AV-unprocessed.smi:1817-1

> <Gold.Version>
5.8.1

> <Gold.Id.Protein>
6NUR|6NUR_protein|mol2

> <Gold.PLP.Fitness>
43.0669

> <Gold.PLP.PLP>
-29.8309

> <Gold.PLP.part.hbond>
-5.4787

> <Gold.PLP.part.metal>
0.0000

> <Gold.PLP.part.buried>
-1.1800

> <Gold.PLP.part.nonpolar>
-22.4364

> <Gold.PLP.part.repulsive>
0.4037

> <Gold.PLP.ligand.clash>
0.0000

> <Gold.PLP.ligand.torsion>
0.2970

> <Gold.PLP.Chemscore.Hbond>
4.5913

> <Gold.PLP.Chemscore.CHOScore>
0.0000

> <Gold.PLP.Chemscore.Metal>
0.0000

> <Gold.Chemscore.Hbonds>
donor molecule, donor type, donor heavy atom, donor atom, acceptor molecule, acceptor atom, score
      L1  H     3    43       P1  8028  2.00
      L1  H    10    36       P1 10175  1.00
      L1  H    13    37       P1 10175  1.00
      P1  H 11000 11005       L1    16  0.45

> <Gold.PLP.Chemscore.Internal.Correction>
0.0562

> <Gold.Rescore>
     Score         DG    S(hbond)    S(metal)    S(lipo)     H(rot)  DE(clash)    DE(int)     intcor
     16.11     -18.46       3.11        0.00      64.18       1.92       0.76       1.59       ----

> <Gold.Chemscore.Fitness>
16.1089

> <Gold.Chemscore.DG>
-18.4571

> <Gold.Chemscore.ZeroCoef>
-5.4800

> <Gold.Chemscore.Hbond>
3.1083

> <Gold.Chemscore.Metal>
0.0000

> <Gold.Chemscore.Lipo>
64.1837

> <Gold.Chemscore.Internal_Hbond>
0.0000

> <Gold.Chemscore.DEClash>
0.7587

> <Gold.Chemscore.DEInternal>
1.5895

> <Gold.Chemscore.Rot>
1.9196

> <Gold.Chemscore.Internal.Correction>
   9.000000E+99

> <Gold.Chemscore.Hbonds>
donor molecule, donor type, donor heavy atom, donor atom, acceptor molecule, acceptor atom, score
      L1  H     3    43       P1  8028  0.96
      L1  H    10    36       P1 10175  0.98
      L1  H    13    37       P1 10175  0.95
      P1  H 11000 11005       L1    16  0.01

> <Gold.Chemscore.Hbond.Weighted>
-10.3817

> <Gold.Chemscore.Metal.Weighted>
-0.0000

> <Gold.Chemscore.Lipo.Weighted>
-7.5095

> <Gold.Chemscore.Internal_Hbond.Weighted>
0.0000

> <Gold.Chemscore.DEClash.Weighted>
0.7587

> <Gold.Chemscore.DEInternal.Weighted>
1.5895

> <Gold.Chemscore.Rot.Weighted>
4.9141

> <Gold.Chemscore.Internal.Correction.Weighted>
   9.000000E+99

> <Gold.Protein.RotatedTorsions>
[ 6907 6896 6895 6894 ] final  172.64 input  -60.11 | X-H torsion
[ 7974 7965 7964 7962 ] final    0.37 input  175.53 | X-H torsion
[ 8008 7997 7996 7995 ] final  151.61 input   59.86 | X-H torsion
[ 10167 10162 10161 10158 ] final  126.34 input  -65.29 | X-H torsion
[ 10718 10713 10712 10709 ] final  -95.54 input   66.30 | X-H torsion
[ 10763 10752 10751 10750 ] final   16.41 input  -60.55 | X-H torsion
[ 11005 11000 10999 10996 ] final   59.33 input  -57.11 | X-H torsion

> <Gold.Protein.ActiveResidues>
 VAL166  LYS551  ARG553  GLY616  TRP617  ASP618  TYR619  PRO620  LYS621  CYS622 
 ASP623  PHE694  ASN695  SER759  ASP760  ASP761  ALA762  ILE779  LEU786  VAL792 
 PHE793  MET794  SER795  GLU796  ALA797  LYS798  CYS799  TRP800  GLU811  SER814 

> <Gold.Protein.RotatedAtoms>
  151.7811  133.3350  159.3471 H   0  0  0  0  0  0  0  0  0  0  0  0  # atno 6907 bound_to 6896
  150.7426  134.5930  159.6006 H   0  0  0  0  0  0  0  0  0  0  0  0  # atno 6908 bound_to 6896
  152.3275  134.7303  160.0349 H   0  0  0  0  0  0  0  0  0  0  0  0  # atno 6909 bound_to 6896
  146.2434  140.1148  142.8342 H   0  0  0  0  0  0  0  0  0  0  0  0  # atno 7974 bound_to 7965
  156.2666  140.2043  156.6203 H   0  0  0  0  0  0  0  0  0  0  0  0  # atno 8008 bound_to 7997
  154.6762  140.0545  157.0242 H   0  0  0  0  0  0  0  0  0  0  0  0  # atno 8009 bound_to 7997
  155.1066  140.3211  155.4535 H   0  0  0  0  0  0  0  0  0  0  0  0  # atno 8010 bound_to 7997
  139.5636  144.6897  151.3972 H   0  0  0  0  0  0  0  0  0  0  0  0  # atno 10167 bound_to 10162
  156.0045  130.5113  150.6092 H   0  0  0  0  0  0  0  0  0  0  0  0  # atno 10718 bound_to 10713
  153.1434  135.6764  153.8992 H   0  0  0  0  0  0  0  0  0  0  0  0  # atno 10763 bound_to 10752
  153.8442  135.3101  155.3429 H   0  0  0  0  0  0  0  0  0  0  0  0  # atno 10764 bound_to 10752
  154.7805  135.4891  153.9919 H   0  0  0  0  0  0  0  0  0  0  0  0  # atno 10765 bound_to 10752
  140.0312  134.6010  155.9505 H   0  0  0  0  0  0  0  0  0  0  0  0  # atno 11005 bound_to 11000
  145.0456  140.8979  143.5026 LP  0  0  0  0  0  0  0  0  0  0  0  0  # atno 17320 bound_to 7965
  145.1237  139.2677  143.5575 LP  0  0  0  0  0  0  0  0  0  0  0  0  # atno 17321 bound_to 7965
  140.6918  143.7843  150.7267 LP  0  0  0  0  0  0  0  0  0  0  0  0  # atno 17342 bound_to 10162
  140.1328  143.4511  152.2244 LP  0  0  0  0  0  0  0  0  0  0  0  0  # atno 17343 bound_to 10162
  157.3927  131.0798  151.1379 LP  0  0  0  0  0  0  0  0  0  0  0  0  # atno 17370 bound_to 10713
  157.2065  130.6418  149.5758 LP  0  0  0  0  0  0  0  0  0  0  0  0  # atno 17371 bound_to 10713
  141.1832  133.6550  156.5106 LP  0  0  0  0  0  0  0  0  0  0  0  0  # atno 17394 bound_to 11000
  140.4223  134.7176  157.4896 LP  0  0  0  0  0  0  0  0  0  0  0  0  # atno 17395 bound_to 11000

$$$$
