AV-unprocessed.smi:3208|AV-procd|sdf|12260|dock3
  -GOLD-   2272018 93D 1   1.00000     0.00000
 Structure written by MMmdl.
 30 30  0  0  0  0  0  0  0  0  1 V2000
  145.5570  143.7806  153.8333 C   0  0  0  0  0  0  0  0  0  0  0  0
  146.0131  142.7159  154.5120 C   0  0  0  0  0  0  0  0  0  0  0  0
  147.2039  141.8642  154.1188 C   0  0  0  0  0  0  0  0  0  0  0  0
  148.1688  141.7873  155.1640 O   0  0  0  0  0  0  0  0  0  0  0  0
  149.3803  141.1115  154.8358 C   0  0  2  0  0  0  0  0  0  0  0  0
  149.0158  139.6729  154.4395 C   0  0  0  0  0  0  0  0  0  0  0  0
  150.3529  141.1412  156.0266 C   0  0  0  0  0  0  0  0  0  0  0  0
  150.9426  140.1130  156.3608 O   0  0  0  0  0  0  0  0  0  0  0  0
  150.4781  142.3304  156.6446 N   0  0  0  0  0  0  0  0  0  0  0  0
  151.2836  142.6679  157.7668 C   0  0  0  0  0  0  0  0  0  0  0  0
  151.8217  141.7406  158.5984 N   0  0  0  0  0  0  0  0  0  0  0  0
  152.5765  142.1444  159.6414 C   0  0  0  0  0  0  0  0  0  0  0  0
  152.8426  143.4967  159.9202 C   0  0  0  0  0  0  0  0  0  0  0  0
  152.2922  144.4692  159.0674 C   0  0  0  0  0  0  0  0  0  0  0  0
  151.5026  144.0535  157.9763 C   0  0  0  0  0  0  0  0  0  0  0  0
  150.9627  144.9945  157.1435 O   0  0  0  0  0  0  0  0  0  0  0  0
  146.0274  144.1182  152.9215 H   0  0  0  0  0  0  0  0  0  0  0  0
  144.6985  144.3324  154.1866 H   0  0  0  0  0  0  0  0  0  0  0  0
  145.5053  142.4211  155.4185 H   0  0  0  0  0  0  0  0  0  0  0  0
  146.8413  140.8662  153.8698 H   0  0  0  0  0  0  0  0  0  0  0  0
  147.6401  142.2917  153.2157 H   0  0  0  0  0  0  0  0  0  0  0  0
  149.8402  141.5947  153.9715 H   0  0  0  0  0  0  0  0  0  0  0  0
  149.9053  139.0906  154.1968 H   0  0  0  0  0  0  0  0  0  0  0  0
  148.3692  139.6671  153.5617 H   0  0  0  0  0  0  0  0  0  0  0  0
  148.4850  139.1570  155.2406 H   0  0  0  0  0  0  0  0  0  0  0  0
  149.9229  143.0874  156.2725 H   0  0  0  0  0  0  0  0  0  0  0  0
  152.9800  141.3659  160.2717 H   0  0  0  0  0  0  0  0  0  0  0  0
  153.4521  143.7795  160.7657 H   0  0  0  0  0  0  0  0  0  0  0  0
  152.4733  145.5186  159.2489 H   0  0  0  0  0  0  0  0  0  0  0  0
  150.2331  144.6682  156.6391 H   0  0  0  0  0  0  0  0  0  0  0  0
  1  2  2  0  0  0  0
  1 17  1  0  0  0  0
  1 18  1  0  0  0  0
  2  3  1  0  0  0  0
  2 19  1  0  0  0  0
  3  4  1  0  0  0  0
  3 20  1  0  0  0  0
  3 21  1  0  0  0  0
  4  5  1  0  0  0  0
  5  6  1  0  0  0  0
  5  7  1  0  0  0  0
  5 22  1  0  0  0  0
  6 23  1  0  0  0  0
  6 24  1  0  0  0  0
  6 25  1  0  0  0  0
  7  8  2  0  0  0  0
  7  9  1  0  0  0  0
  9 10  1  0  0  0  0
  9 26  1  0  0  0  0
 10 15  1  0  0  0  0
 10 11  2  0  0  0  0
 11 12  1  0  0  0  0
 12 13  2  0  0  0  0
 12 27  1  0  0  0  0
 13 14  1  0  0  0  0
 13 28  1  0  0  0  0
 14 15  2  0  0  0  0
 14 29  1  0  0  0  0
 15 16  1  0  0  0  0
 16 30  1  0  0  0  0
M  END
> <s_m_source_file>
AV-unprocessed.smi

> <i_m_source_file_index>
3208

> <i_lp_mmshare_version>
43012

> <i_f3d_flags>
0

> <s_epik_input>
W0NIMl09W0NIXVtDSDJdT1tDQEhdKFtDSDNdKUMoPU8pW05IXWMxbltjSF1bY0hdW2NIXWMxW09IXQ==

> <s_epik_cmdline>
J2VwaWtfcHl0aG9uJywgJy1waCcsICc3LjAnLCAnLXRuJywgJzgnLCAnLW1hJywgJzIwMCcsICctbWV0YWxfYmluZGluZycsICctaW1hZScsICc8aW5maWxlLm1hZT4nLCAnLW9tYWUnLCAnPG91dGZpbGUubWFlPic=

> <r_lp_tautomer_probability>
0.43658

> <r_epik_Ionization_Penalty>
0.0201706

> <r_epik_Ionization_Penalty_Charging>
0

> <r_epik_Ionization_Penalty_Neutral>
0.0201706

> <r_epik_State_Penalty>
0.426656

> <r_epik_Charging_Adjusted_Penalty>
0.426656

> <i_epik_Tot_Q>
0

> <i_epik_Tot_abs_Q>
0

> <r_epik_Metal_State_Penalty>
0.386934

> <b_epik_Metal_Only>
0

> <s_lp_Force_Field>
OPLS_2005

> <r_lp_Energy>
6.86977

> <b_lp_Chiralities_Consistent>
1

> <s_lp_Variant>
AV-unprocessed.smi:3208-1

> <Gold.Version>
5.8.1

> <Gold.Id.Protein>
6NUR|6NUR_protein|mol2

> <Gold.PLP.Fitness>
42.1201

> <Gold.PLP.PLP>
-36.9790

> <Gold.PLP.part.hbond>
-2.5947

> <Gold.PLP.part.metal>
0.0000

> <Gold.PLP.part.buried>
-0.6339

> <Gold.PLP.part.nonpolar>
-34.9217

> <Gold.PLP.part.repulsive>
0.7090

> <Gold.PLP.ligand.clash>
0.0000

> <Gold.PLP.ligand.torsion>
0.4488

> <Gold.PLP.Chemscore.Hbond>
2.0000

> <Gold.PLP.Chemscore.CHOScore>
0.0000

> <Gold.PLP.Chemscore.Metal>
0.0000

> <Gold.Chemscore.Hbonds>
donor molecule, donor type, donor heavy atom, donor atom, acceptor molecule, acceptor atom, score
      L1  H     9    26       P1  8028  1.00
      L1  H    16    30       P1  8028  1.00

> <Gold.PLP.Chemscore.Internal.Correction>
0.0388

> <Gold.Rescore>
     Score         DG    S(hbond)    S(metal)    S(lipo)     H(rot)  DE(clash)    DE(int)     intcor
     12.72     -15.78       1.89        0.00      83.16       2.24       1.51       1.55       ----

> <Gold.Chemscore.Fitness>
12.7175

> <Gold.Chemscore.DG>
-15.7778

> <Gold.Chemscore.ZeroCoef>
-5.4800

> <Gold.Chemscore.Hbond>
1.8904

> <Gold.Chemscore.Metal>
0.0000

> <Gold.Chemscore.Lipo>
83.1598

> <Gold.Chemscore.Internal_Hbond>
0.0000

> <Gold.Chemscore.DEClash>
1.5114

> <Gold.Chemscore.DEInternal>
1.5489

> <Gold.Chemscore.Rot>
2.2445

> <Gold.Chemscore.Internal.Correction>
   9.000000E+99

> <Gold.Chemscore.Hbonds>
donor molecule, donor type, donor heavy atom, donor atom, acceptor molecule, acceptor atom, score
      L1  H     9    26       P1  8028  0.93
      L1  H    16    30       P1  8028  0.84

> <Gold.Chemscore.Hbond.Weighted>
-6.3139

> <Gold.Chemscore.Metal.Weighted>
-0.0000

> <Gold.Chemscore.Lipo.Weighted>
-9.7297

> <Gold.Chemscore.Internal_Hbond.Weighted>
0.0000

> <Gold.Chemscore.DEClash.Weighted>
1.5114

> <Gold.Chemscore.DEInternal.Weighted>
1.5489

> <Gold.Chemscore.Rot.Weighted>
5.7458

> <Gold.Chemscore.Internal.Correction.Weighted>
   9.000000E+99

> <Gold.Protein.RotatedTorsions>
[ 6907 6896 6895 6894 ] final  -40.67 input  -60.11 | X-H torsion
[ 7974 7965 7964 7962 ] final   22.45 input  175.53 | X-H torsion
[ 8008 7997 7996 7995 ] final   17.41 input   59.86 | X-H torsion
[ 10167 10162 10161 10158 ] final  -80.71 input  -65.29 | X-H torsion
[ 10718 10713 10712 10709 ] final  131.82 input   66.30 | X-H torsion
[ 10763 10752 10751 10750 ] final   -5.18 input  -60.55 | X-H torsion
[ 11005 11000 10999 10996 ] final  161.78 input  -57.11 | X-H torsion

> <Gold.Protein.ActiveResidues>
 VAL166  LYS551  ARG553  GLY616  TRP617  ASP618  TYR619  PRO620  LYS621  CYS622 
 ASP623  PHE694  ASN695  SER759  ASP760  ASP761  ALA762  ILE779  LEU786  VAL792 
 PHE793  MET794  SER795  GLU796  ALA797  LYS798  CYS799  TRP800  GLU811  SER814 

> <Gold.Protein.RotatedAtoms>
  150.9758  134.9122  159.7814 H   0  0  0  0  0  0  0  0  0  0  0  0  # atno 6907 bound_to 6896
  152.5205  134.3478  159.9250 H   0  0  0  0  0  0  0  0  0  0  0  0  # atno 6908 bound_to 6896
  151.3487  133.3893  159.2712 H   0  0  0  0  0  0  0  0  0  0  0  0  # atno 6909 bound_to 6896
  146.2028  139.7884  142.8748 H   0  0  0  0  0  0  0  0  0  0  0  0  # atno 7974 bound_to 7965
  154.8910  140.2987  155.5371 H   0  0  0  0  0  0  0  0  0  0  0  0  # atno 8008 bound_to 7997
  156.3021  140.2424  156.3860 H   0  0  0  0  0  0  0  0  0  0  0  0  # atno 8009 bound_to 7997
  154.8618  140.0405  157.1659 H   0  0  0  0  0  0  0  0  0  0  0  0  # atno 8010 bound_to 7997
  140.4478  143.2493  151.8533 H   0  0  0  0  0  0  0  0  0  0  0  0  # atno 10167 bound_to 10162
  157.4931  131.1091  150.9530 H   0  0  0  0  0  0  0  0  0  0  0  0  # atno 10718 bound_to 10713
  153.3949  135.7003  153.6468 H   0  0  0  0  0  0  0  0  0  0  0  0  # atno 10763 bound_to 10752
  153.5025  135.3649  155.2547 H   0  0  0  0  0  0  0  0  0  0  0  0  # atno 10764 bound_to 10752
  154.8705  135.4115  154.3273 H   0  0  0  0  0  0  0  0  0  0  0  0  # atno 10765 bound_to 10752
  140.2192  134.8209  157.3203 H   0  0  0  0  0  0  0  0  0  0  0  0  # atno 11005 bound_to 11000
  145.3424  141.0290  143.3385 LP  0  0  0  0  0  0  0  0  0  0  0  0  # atno 17320 bound_to 7965
  144.8723  139.5021  143.6762 LP  0  0  0  0  0  0  0  0  0  0  0  0  # atno 17321 bound_to 7965
  139.4794  144.5155  151.8874 LP  0  0  0  0  0  0  0  0  0  0  0  0  # atno 17342 bound_to 10162
  140.4243  144.2201  150.5887 LP  0  0  0  0  0  0  0  0  0  0  0  0  # atno 17343 bound_to 10162
  157.0225  130.5679  149.5333 LP  0  0  0  0  0  0  0  0  0  0  0  0  # atno 17370 bound_to 10713
  156.0185  130.5279  150.8205 LP  0  0  0  0  0  0  0  0  0  0  0  0  # atno 17371 bound_to 10713
  140.1867  134.4422  155.7739 LP  0  0  0  0  0  0  0  0  0  0  0  0  # atno 17394 bound_to 11000
  141.2223  133.7008  156.7960 LP  0  0  0  0  0  0  0  0  0  0  0  0  # atno 17395 bound_to 11000

$$$$
