AV-unprocessed.smi:790|AV-procd|sdf|3746|dock7
  -GOLD-   22720 1173D 1   1.00000     0.00000
 Structure written by MMmdl.
 38 40  0  0  0  0  0  0  0  0  1 V2000
  148.5611  144.3149  161.4428 O   0  0  0  0  0  0  0  0  0  0  0  0
  148.2881  144.5849  160.2738 C   0  0  0  0  0  0  0  0  0  0  0  0
  149.1601  144.5977  159.2515 N   0  0  0  0  0  0  0  0  0  0  0  0
  150.5511  144.3068  159.2649 C   0  0  0  0  0  0  0  0  0  0  0  0
  151.2284  143.6790  160.3387 C   0  0  0  0  0  0  0  0  0  0  0  0
  152.6094  143.4305  160.2183 C   0  0  0  0  0  0  0  0  0  0  0  0
  153.2610  143.8124  159.0297 C   0  0  0  0  0  0  0  0  0  0  0  0
  152.6262  144.4001  157.9941 N   0  0  0  0  0  0  0  0  0  0  0  0
  151.3023  144.6341  158.1162 C   0  0  0  0  0  0  0  0  0  0  0  0
  147.0612  144.9361  159.8639 N   0  0  0  0  0  0  0  0  0  0  0  0
  145.8764  145.0271  160.7178 C   0  0  2  0  0  0  0  0  0  0  0  0
  145.5064  143.6316  161.2648 C   0  0  1  0  0  0  0  0  0  0  0  0
  144.5279  143.7965  162.4420 C   0  0  0  0  0  0  0  0  0  0  0  0
  143.2294  144.2336  161.7374 C   0  0  0  0  0  0  0  0  0  0  0  0
  143.6375  144.2620  160.2507 C   0  0  2  0  0  0  0  0  0  0  0  0
  144.5933  143.0782  160.1774 C   0  0  0  0  0  0  0  0  0  0  0  0
  144.5684  145.4732  159.9952 C   0  0  2  0  0  0  0  0  0  0  0  0
  144.7024  145.8358  158.4981 C   0  0  0  0  0  0  0  0  0  0  0  0
  145.6093  146.9045  158.3279 O   0  0  0  0  0  0  0  0  0  0  0  0
  148.7952  144.9099  158.3634 H   0  0  0  0  0  0  0  0  0  0  0  0
  150.7217  143.3718  161.2399 H   0  0  0  0  0  0  0  0  0  0  0  0
  153.1560  142.9532  161.0180 H   0  0  0  0  0  0  0  0  0  0  0  0
  154.3191  143.6360  158.9052 H   0  0  0  0  0  0  0  0  0  0  0  0
  150.8269  145.1026  157.2666 H   0  0  0  0  0  0  0  0  0  0  0  0
  146.9305  145.1500  158.8861 H   0  0  0  0  0  0  0  0  0  0  0  0
  146.0956  145.6977  161.5509 H   0  0  0  0  0  0  0  0  0  0  0  0
  146.3667  143.0063  161.5076 H   0  0  0  0  0  0  0  0  0  0  0  0
  144.3812  142.8484  162.9610 H   0  0  0  0  0  0  0  0  0  0  0  0
  144.8732  144.5280  163.1736 H   0  0  0  0  0  0  0  0  0  0  0  0
  142.4390  143.5018  161.9075 H   0  0  0  0  0  0  0  0  0  0  0  0
  142.8682  145.2005  162.0891 H   0  0  0  0  0  0  0  0  0  0  0  0
  142.7842  144.2029  159.5745 H   0  0  0  0  0  0  0  0  0  0  0  0
  145.0843  142.9707  159.2092 H   0  0  0  0  0  0  0  0  0  0  0  0
  144.1269  142.1284  160.4456 H   0  0  0  0  0  0  0  0  0  0  0  0
  144.1702  146.3517  160.5054 H   0  0  0  0  0  0  0  0  0  0  0  0
  145.0859  144.9879  157.9305 H   0  0  0  0  0  0  0  0  0  0  0  0
  143.7413  146.1112  158.0640 H   0  0  0  0  0  0  0  0  0  0  0  0
  146.3071  146.6173  157.7591 H   0  0  0  0  0  0  0  0  0  0  0  0
  1  2  2  0  0  0  0
  2  3  1  0  0  0  0
  2 10  1  0  0  0  0
  3  4  1  0  0  0  0
  3 20  1  0  0  0  0
  4  9  1  0  0  0  0
  4  5  2  0  0  0  0
  5  6  1  0  0  0  0
  5 21  1  0  0  0  0
  6  7  2  0  0  0  0
  6 22  1  0  0  0  0
  7  8  1  0  0  0  0
  7 23  1  0  0  0  0
  8  9  2  0  0  0  0
  9 24  1  0  0  0  0
 10 11  1  0  0  0  0
 10 25  1  0  0  0  0
 11 17  1  0  0  0  0
 11 12  1  0  0  0  0
 11 26  1  0  0  0  0
 12 16  1  0  0  0  0
 12 13  1  0  0  0  0
 12 27  1  0  0  0  0
 13 14  1  0  0  0  0
 13 28  1  0  0  0  0
 13 29  1  0  0  0  0
 14 15  1  0  0  0  0
 14 30  1  0  0  0  0
 14 31  1  0  0  0  0
 15 16  1  0  0  0  0
 15 17  1  0  0  0  0
 15 32  1  0  0  0  0
 16 33  1  0  0  0  0
 16 34  1  0  0  0  0
 17 18  1  0  0  0  0
 17 35  1  0  0  0  0
 18 19  1  0  0  0  0
 18 36  1  0  0  0  0
 18 37  1  0  0  0  0
 19 38  1  0  0  0  0
M  END
> <s_m_source_file>
AV-unprocessed.smi

> <i_m_source_file_index>
790

> <i_lp_mmshare_version>
43012

> <i_f3d_flags>
0

> <s_epik_input>
W0NIMl0xW0NIMl1bQ0BASF0oW0NIMl0yKVtDQEBIXShbQ0gyXVtPSF0pW0NAQEhdKFtDQEhdMTIpW05IXUMoPU8pW05IXWMzW2NIXVtjSF1bY0hdbltjSF0z

> <s_epik_cmdline>
J2VwaWtfcHl0aG9uJywgJy1waCcsICc3LjAnLCAnLXRuJywgJzgnLCAnLW1hJywgJzIwMCcsICctbWV0YWxfYmluZGluZycsICctaW1hZScsICc8aW5maWxlLm1hZT4nLCAnLW9tYWUnLCAnPG91dGZpbGUubWFlPic=

> <r_epik_Ionization_Penalty>
0.00497582

> <r_epik_Ionization_Penalty_Charging>
0

> <r_epik_Ionization_Penalty_Neutral>
0.00497582

> <r_epik_State_Penalty>
0.00358602

> <r_epik_Charging_Adjusted_Penalty>
0.00358602

> <i_epik_Tot_Q>
0

> <i_epik_Tot_abs_Q>
0

> <r_epik_Metal_State_Penalty>
-0

> <b_epik_Metal_Only>
0

> <s_lp_Force_Field>
OPLS_2005

> <r_lp_Energy>
52.0711

> <b_lp_Chiralities_Consistent>
1

> <s_lp_Variant>
AV-unprocessed.smi:790-7

> <Gold.Version>
5.8.1

> <Gold.Id.Protein>
6NUR|6NUR_protein|mol2

> <Gold.PLP.Fitness>
49.5383

> <Gold.PLP.PLP>
-35.6325

> <Gold.PLP.part.hbond>
-4.0000

> <Gold.PLP.part.metal>
0.0000

> <Gold.PLP.part.buried>
-5.9679

> <Gold.PLP.part.nonpolar>
-26.7648

> <Gold.PLP.part.repulsive>
0.4962

> <Gold.PLP.ligand.clash>
0.0000

> <Gold.PLP.ligand.torsion>
0.0493

> <Gold.PLP.Chemscore.Hbond>
3.6640

> <Gold.PLP.Chemscore.CHOScore>
1.0000

> <Gold.PLP.Chemscore.Metal>
0.0000

> <Gold.Chemscore.Hbonds>
donor molecule, donor type, donor heavy atom, donor atom, acceptor molecule, acceptor atom, score
      L1  H     3    20       P1  8029  1.00
      L1  H    10    25       P1  8029  0.86
      L1  H    19    38       P1  8029  1.00
      P1  H  6933  6944       L1     1  0.80
      L1  C     9    24       P1  8028  1.00

> <Gold.PLP.Chemscore.Internal.Correction>
0.0125

> <Gold.Rescore>
     Score         DG    S(hbond)    S(metal)    S(lipo)     H(rot)  DE(clash)    DE(int)     intcor
     22.42     -23.72       3.56        0.00      93.28       1.78       0.04       1.26       ----

> <Gold.Chemscore.Fitness>
22.4200

> <Gold.Chemscore.DG>
-23.7246

> <Gold.Chemscore.ZeroCoef>
-5.4800

> <Gold.Chemscore.Hbond>
3.5580

> <Gold.Chemscore.Metal>
0.0000

> <Gold.Chemscore.Lipo>
93.2757

> <Gold.Chemscore.Internal_Hbond>
0.0000

> <Gold.Chemscore.DEClash>
0.0402

> <Gold.Chemscore.DEInternal>
1.2643

> <Gold.Chemscore.Rot>
1.7783

> <Gold.Chemscore.Internal.Correction>
   9.000000E+99

> <Gold.Chemscore.Hbonds>
donor molecule, donor type, donor heavy atom, donor atom, acceptor molecule, acceptor atom, score
      L1  H     3    20       P1  8029  0.81
      L1  H    10    25       P1  8029  0.80
      L1  H    19    38       P1  8029  0.98
      P1  H  6933  6944       L1     1  0.31

> <Gold.Chemscore.Hbond.Weighted>
-11.8838

> <Gold.Chemscore.Metal.Weighted>
-0.0000

> <Gold.Chemscore.Lipo.Weighted>
-10.9133

> <Gold.Chemscore.Internal_Hbond.Weighted>
0.0000

> <Gold.Chemscore.DEClash.Weighted>
0.0402

> <Gold.Chemscore.DEInternal.Weighted>
1.2643

> <Gold.Chemscore.Rot.Weighted>
4.5525

> <Gold.Chemscore.Internal.Correction.Weighted>
   9.000000E+99

> <Gold.Protein.RotatedTorsions>
[ 6907 6896 6895 6894 ] final  -54.88 input  -60.11 | X-H torsion
[ 7974 7965 7964 7962 ] final  179.84 input  175.53 | X-H torsion
[ 8008 7997 7996 7995 ] final -172.04 input   59.86 | X-H torsion
[ 10167 10162 10161 10158 ] final  -83.47 input  -65.29 | X-H torsion
[ 10718 10713 10712 10709 ] final -113.25 input   66.30 | X-H torsion
[ 10763 10752 10751 10750 ] final   50.18 input  -60.55 | X-H torsion
[ 11005 11000 10999 10996 ] final  117.71 input  -57.11 | X-H torsion

> <Gold.Protein.ActiveResidues>
 VAL166  LYS551  ARG553  GLY616  TRP617  ASP618  TYR619  PRO620  LYS621  CYS622 
 ASP623  PHE694  ASN695  SER759  ASP760  ASP761  ALA762  ILE779  LEU786  VAL792 
 PHE793  MET794  SER795  GLU796  ALA797  LYS798  CYS799  TRP800  GLU811  SER814 

> <Gold.Protein.RotatedAtoms>
  150.8299  134.7547  159.6844 H   0  0  0  0  0  0  0  0  0  0  0  0  # atno 6907 bound_to 6896
  152.4405  134.5597  159.9900 H   0  0  0  0  0  0  0  0  0  0  0  0  # atno 6908 bound_to 6896
  151.5760  133.3346  159.3035 H   0  0  0  0  0  0  0  0  0  0  0  0  # atno 6909 bound_to 6896
  144.7142  140.0609  143.6432 H   0  0  0  0  0  0  0  0  0  0  0  0  # atno 7974 bound_to 7965
  155.9394  140.1106  157.1068 H   0  0  0  0  0  0  0  0  0  0  0  0  # atno 8008 bound_to 7997
  154.4086  140.1222  156.4972 H   0  0  0  0  0  0  0  0  0  0  0  0  # atno 8009 bound_to 7997
  155.6981  140.3472  155.4924 H   0  0  0  0  0  0  0  0  0  0  0  0  # atno 8010 bound_to 7997
  140.4223  143.2580  151.8873 H   0  0  0  0  0  0  0  0  0  0  0  0  # atno 10167 bound_to 10162
  156.0755  130.5963  150.8617 H   0  0  0  0  0  0  0  0  0  0  0  0  # atno 10718 bound_to 10713
  152.9785  135.5887  154.4211 H   0  0  0  0  0  0  0  0  0  0  0  0  # atno 10763 bound_to 10752
  154.3835  135.2767  155.2199 H   0  0  0  0  0  0  0  0  0  0  0  0  # atno 10764 bound_to 10752
  154.4102  135.6083  153.6003 H   0  0  0  0  0  0  0  0  0  0  0  0  # atno 10765 bound_to 10752
  139.9084  134.9613  156.7392 H   0  0  0  0  0  0  0  0  0  0  0  0  # atno 11005 bound_to 11000
  145.9865  139.2981  143.1011 LP  0  0  0  0  0  0  0  0  0  0  0  0  # atno 17320 bound_to 7965
  145.8952  140.9278  143.0531 LP  0  0  0  0  0  0  0  0  0  0  0  0  # atno 17321 bound_to 7965
  139.4783  144.5424  151.8509 LP  0  0  0  0  0  0  0  0  0  0  0  0  # atno 17342 bound_to 10162
  140.4520  144.1842  150.5898 LP  0  0  0  0  0  0  0  0  0  0  0  0  # atno 17343 bound_to 10162
  157.5848  131.0946  150.9214 LP  0  0  0  0  0  0  0  0  0  0  0  0  # atno 17370 bound_to 10713
  156.9402  130.5381  149.5280 LP  0  0  0  0  0  0  0  0  0  0  0  0  # atno 17371 bound_to 10713
  140.6863  133.9429  155.7940 LP  0  0  0  0  0  0  0  0  0  0  0  0  # atno 17394 bound_to 11000
  141.0474  134.0534  157.3827 LP  0  0  0  0  0  0  0  0  0  0  0  0  # atno 17395 bound_to 11000

$$$$
