AV-unprocessed.smi:2480|AV-procd|sdf|9769|dock4
  -GOLD-   2272013413D 1   1.00000     0.00000
 Structure written by MMmdl.
 33 34  0  0  0  0  0  0  0  0  3 V2000
  151.0128  142.5932  157.6646 O   0  0  0  0  0  0  0  0  0  0  0  0
  151.6604  141.5495  157.7101 C   0  0  0  0  0  0  0  0  0  0  0  0
  151.4726  140.4899  156.8992 N   0  0  0  0  0  0  0  0  0  0  0  0
  150.5695  140.3322  155.8094 C   0  0  0  0  0  0  0  0  0  0  0  0
  149.4556  141.1859  155.6166 C   0  0  0  0  0  0  0  0  0  0  0  0
  148.6141  140.9706  154.5092 C   0  0  0  0  0  0  0  0  0  0  0  0
  148.8062  139.9820  153.6142 N   0  0  0  0  0  0  0  0  0  0  0  0
  149.8554  139.1565  153.8065 C   0  0  0  0  0  0  0  0  0  0  0  0
  150.7624  139.2685  154.8852 C   0  0  0  0  0  0  0  0  0  0  0  0
  151.8681  138.2982  154.9998 N   0  3  0  0  0  0  0  0  0  0  0  0
  152.8896  138.6349  155.5902 O   0  0  0  0  0  0  0  0  0  0  0  0
  151.6962  137.1845  154.5163 O   0  5  0  0  0  0  0  0  0  0  0  0
  152.6494  141.3834  158.6084 N   0  0  0  0  0  0  0  0  0  0  0  0
  153.1194  142.3209  159.6317 C   0  0  2  0  0  0  0  0  0  0  0  0
  153.9010  141.5899  160.7165 C   0  0  0  0  0  0  0  0  0  0  0  0
  153.7425  141.8162  162.0317 C   0  0  0  0  0  0  0  0  0  0  0  0
  152.7720  142.8380  162.5940 C   0  0  0  0  0  0  0  0  0  0  0  0
  152.2793  143.8204  161.5169 C   0  0  0  0  0  0  0  0  0  0  0  0
  151.9160  143.0933  160.2134 C   0  0  0  0  0  0  0  0  0  0  0  0
  152.1266  139.7305  157.0235 H   0  0  0  0  0  0  0  0  0  0  0  0
  149.2252  141.9923  156.2952 H   0  0  0  0  0  0  0  0  0  0  0  0
  147.7602  141.6102  154.3399 H   0  0  0  0  0  0  0  0  0  0  0  0
  149.9667  138.3693  153.0753 H   0  0  0  0  0  0  0  0  0  0  0  0
  153.1157  140.4876  158.5961 H   0  0  0  0  0  0  0  0  0  0  0  0
  153.7969  143.0498  159.1838 H   0  0  0  0  0  0  0  0  0  0  0  0
  154.6195  140.8517  160.3907 H   0  0  0  0  0  0  0  0  0  0  0  0
  154.3163  141.2455  162.7470 H   0  0  0  0  0  0  0  0  0  0  0  0
  151.9288  142.3002  163.0289 H   0  0  0  0  0  0  0  0  0  0  0  0
  153.2531  143.3859  163.4047 H   0  0  0  0  0  0  0  0  0  0  0  0
  151.4226  144.3825  161.8894 H   0  0  0  0  0  0  0  0  0  0  0  0
  153.0606  144.5528  161.3095 H   0  0  0  0  0  0  0  0  0  0  0  0
  151.5401  143.8052  159.4778 H   0  0  0  0  0  0  0  0  0  0  0  0
  151.0958  142.4034  160.4188 H   0  0  0  0  0  0  0  0  0  0  0  0
  1  2  2  0  0  0  0
  2  3  1  0  0  0  0
  2 13  1  0  0  0  0
  3  4  1  0  0  0  0
  3 20  1  0  0  0  0
  4  9  1  0  0  0  0
  4  5  2  0  0  0  0
  5  6  1  0  0  0  0
  5 21  1  0  0  0  0
  6  7  2  0  0  0  0
  6 22  1  0  0  0  0
  7  8  1  0  0  0  0
  8  9  2  0  0  0  0
  8 23  1  0  0  0  0
  9 10  1  0  0  0  0
 10 11  2  0  0  0  0
 10 12  1  0  0  0  0
 13 14  1  0  0  0  0
 13 24  1  0  0  0  0
 14 19  1  0  0  0  0
 14 15  1  0  0  0  0
 14 25  1  0  0  0  0
 15 16  2  0  0  0  0
 15 26  1  0  0  0  0
 16 17  1  0  0  0  0
 16 27  1  0  0  0  0
 17 18  1  0  0  0  0
 17 28  1  0  0  0  0
 17 29  1  0  0  0  0
 18 19  1  0  0  0  0
 18 30  1  0  0  0  0
 18 31  1  0  0  0  0
 19 32  1  0  0  0  0
 19 33  1  0  0  0  0
M  CHG  1  10   1
M  CHG  1  12  -1
M  END
> <s_m_source_file>
AV-unprocessed.smi

> <i_m_source_file_index>
2480

> <i_lp_mmshare_version>
43012

> <i_f3d_flags>
0

> <s_epik_input>
W0NIMl0xW0NIMl1bQ0gyXVtDSF09W0NIXVtDQEhdMVtOSF1DKD1PKVtOSF1jMltjSF1bY0hdbltjSF1jMltOK10oPU8pW08tXQ==

> <s_epik_cmdline>
J2VwaWtfcHl0aG9uJywgJy1waCcsICc3LjAnLCAnLXRuJywgJzgnLCAnLW1hJywgJzIwMCcsICctbWV0YWxfYmluZGluZycsICctaW1hZScsICc8aW5maWxlLm1hZT4nLCAnLW9tYWUnLCAnPG91dGZpbGUubWFlPic=

> <r_lp_tautomer_probability>
1

> <r_epik_Ionization_Penalty>
0.000149203

> <r_epik_Ionization_Penalty_Charging>
0

> <r_epik_Ionization_Penalty_Neutral>
0.000149203

> <r_epik_State_Penalty>
-0

> <r_epik_Charging_Adjusted_Penalty>
0

> <i_epik_Tot_Q>
0

> <i_epik_Tot_abs_Q>
2

> <r_epik_Metal_State_Penalty>
-0

> <b_epik_Metal_Only>
0

> <s_lp_Force_Field>
OPLS_2005

> <r_lp_Energy>
27.2011

> <b_lp_Chiralities_Consistent>
1

> <s_lp_Variant>
AV-unprocessed.smi:2480-1

> <Gold.Version>
5.8.1

> <Gold.Id.Protein>
6NUR|6NUR_protein|mol2

> <Gold.PLP.Fitness>
46.9798

> <Gold.PLP.PLP>
-39.4261

> <Gold.PLP.part.hbond>
-2.0000

> <Gold.PLP.part.metal>
0.0000

> <Gold.PLP.part.buried>
-3.3917

> <Gold.PLP.part.nonpolar>
-37.2840

> <Gold.PLP.part.repulsive>
3.4543

> <Gold.PLP.ligand.clash>
0.0011

> <Gold.PLP.ligand.torsion>
0.6559

> <Gold.PLP.Chemscore.Hbond>
1.9913

> <Gold.PLP.Chemscore.CHOScore>
0.9612

> <Gold.PLP.Chemscore.Metal>
0.0000

> <Gold.Chemscore.Hbonds>
donor molecule, donor type, donor heavy atom, donor atom, acceptor molecule, acceptor atom, score
      P1  H  7997  8010       L1    11  0.63
      P1  H 10752 10763       L1    12  1.00
      L1  C     8    23       P1  7948  0.80
      L1  C     8    23       P1  7957  0.23

> <Gold.PLP.Chemscore.Internal.Correction>
0.0091

> <Gold.Rescore>
     Score         DG    S(hbond)    S(metal)    S(lipo)     H(rot)  DE(clash)    DE(int)     intcor
     15.70     -20.95       1.89        0.00     100.25       1.00       0.52       4.74       ----

> <Gold.Chemscore.Fitness>
15.6957

> <Gold.Chemscore.DG>
-20.9506

> <Gold.Chemscore.ZeroCoef>
-5.4800

> <Gold.Chemscore.Hbond>
1.8867

> <Gold.Chemscore.Metal>
0.0000

> <Gold.Chemscore.Lipo>
100.2483

> <Gold.Chemscore.Internal_Hbond>
0.0000

> <Gold.Chemscore.DEClash>
0.5184

> <Gold.Chemscore.DEInternal>
4.7365

> <Gold.Chemscore.Rot>
1.0000

> <Gold.Chemscore.Internal.Correction>
   9.000000E+99

> <Gold.Chemscore.Hbonds>
donor molecule, donor type, donor heavy atom, donor atom, acceptor molecule, acceptor atom, score
      P1  H  7997  8010       L1    11  0.62
      P1  H 10752 10763       L1    12  0.96

> <Gold.Chemscore.Hbond.Weighted>
-6.3016

> <Gold.Chemscore.Metal.Weighted>
-0.0000

> <Gold.Chemscore.Lipo.Weighted>
-11.7290

> <Gold.Chemscore.Internal_Hbond.Weighted>
0.0000

> <Gold.Chemscore.DEClash.Weighted>
0.5184

> <Gold.Chemscore.DEInternal.Weighted>
4.7365

> <Gold.Chemscore.Rot.Weighted>
2.5600

> <Gold.Chemscore.Internal.Correction.Weighted>
   9.000000E+99

> <Gold.Protein.RotatedTorsions>
[ 6907 6896 6895 6894 ] final   67.42 input  -60.11 | X-H torsion
[ 7974 7965 7964 7962 ] final  133.39 input  175.53 | X-H torsion
[ 8008 7997 7996 7995 ] final   90.83 input   59.86 | X-H torsion
[ 10167 10162 10161 10158 ] final -108.45 input  -65.29 | X-H torsion
[ 10718 10713 10712 10709 ] final   20.44 input   66.30 | X-H torsion
[ 10763 10752 10751 10750 ] final   44.65 input  -60.55 | X-H torsion
[ 11005 11000 10999 10996 ] final   31.22 input  -57.11 | X-H torsion

> <Gold.Protein.ActiveResidues>
 VAL166  LYS551  ARG553  GLY616  TRP617  ASP618  TYR619  PRO620  LYS621  CYS622 
 ASP623  PHE694  ASN695  SER759  ASP760  ASP761  ALA762  ILE779  LEU786  VAL792 
 PHE793  MET794  SER795  GLU796  ALA797  LYS798  CYS799  TRP800  GLU811  SER814 

> <Gold.Protein.RotatedAtoms>
  152.4551  134.5310  159.9810 H   0  0  0  0  0  0  0  0  0  0  0  0  # atno 6907 bound_to 6896
  151.5373  133.3433  159.2937 H   0  0  0  0  0  0  0  0  0  0  0  0  # atno 6908 bound_to 6896
  150.8492  134.7842  159.7058 H   0  0  0  0  0  0  0  0  0  0  0  0  # atno 6909 bound_to 6896
  144.9870  139.4445  143.5358 H   0  0  0  0  0  0  0  0  0  0  0  0  # atno 7974 bound_to 7965
  156.0166  140.3345  155.6995 H   0  0  0  0  0  0  0  0  0  0  0  0  # atno 8008 bound_to 7997
  155.6083  140.0662  157.2731 H   0  0  0  0  0  0  0  0  0  0  0  0  # atno 8009 bound_to 7997
  154.4300  140.1798  156.1233 H   0  0  0  0  0  0  0  0  0  0  0  0  # atno 8010 bound_to 7997
  140.1660  143.4081  152.1390 H   0  0  0  0  0  0  0  0  0  0  0  0  # atno 10167 bound_to 10162
  157.1246  130.6564  149.5933 H   0  0  0  0  0  0  0  0  0  0  0  0  # atno 10718 bound_to 10713
  152.9837  135.6064  154.3308 H   0  0  0  0  0  0  0  0  0  0  0  0  # atno 10763 bound_to 10752
  154.3012  135.2773  155.2612 H   0  0  0  0  0  0  0  0  0  0  0  0  # atno 10764 bound_to 10752
  154.4864  135.5904  153.6483 H   0  0  0  0  0  0  0  0  0  0  0  0  # atno 10765 bound_to 10752
  140.2862  134.2917  155.7787 H   0  0  0  0  0  0  0  0  0  0  0  0  # atno 11005 bound_to 11000
  146.3422  139.9178  142.8771 LP  0  0  0  0  0  0  0  0  0  0  0  0  # atno 17320 bound_to 7965
  145.2340  140.9984  143.3974 LP  0  0  0  0  0  0  0  0  0  0  0  0  # atno 17321 bound_to 7965
  139.5359  144.7209  151.4895 LP  0  0  0  0  0  0  0  0  0  0  0  0  # atno 17342 bound_to 10162
  140.6612  143.8494  150.6890 LP  0  0  0  0  0  0  0  0  0  0  0  0  # atno 17343 bound_to 10162
  155.9821  130.4832  150.6863 LP  0  0  0  0  0  0  0  0  0  0  0  0  # atno 17370 bound_to 10713
  157.4446  131.0865  151.0908 LP  0  0  0  0  0  0  0  0  0  0  0  0  # atno 17371 bound_to 10713
  141.2154  133.7556  156.9555 LP  0  0  0  0  0  0  0  0  0  0  0  0  # atno 17394 bound_to 11000
  140.1238  134.9400  157.2240 LP  0  0  0  0  0  0  0  0  0  0  0  0  # atno 17395 bound_to 11000

$$$$
