#       Name:                AV-unprocessed.smi:1308
#       Creating user name   scv26
#       Creation time:       Fri Mar 27 05:00:37 2020


#       File generated by GOLD software.
#

@<TRIPOS>MOLECULE
AV-unprocessed.smi:1308
    50    50     1
SMALL
NO_CHARGES


@<TRIPOS>ATOM
      1 ****        -3.5320  -2.5376  -4.7483 C.3            1 S1                 0.0000
      2 ****        -3.1343  -1.5823  -3.6429 C.2            1 S1                 0.0000
      3 ****        -2.9426  -0.3163  -3.8184 N.2            1 S1                 0.0000
      4 ****        -2.5745   0.4692  -2.7172 C.2            1 S1                 0.0000
      5 ****        -2.3671   1.9459  -3.0060 C.3            1 S1                 0.0000
      6 ****        -2.4140  -0.0715  -1.4736 C.2            1 S1                 0.0000
      7 ****        -2.0078   0.7565  -0.2547 C.3            1 S1                 0.0000
      8 ****        -0.5154   1.0706  -0.1393 C.2            1 S1                 0.0000
      9 ****        -0.1384   2.2407  -0.0859 O.2            1 S1                 0.0000
     10 ****         0.3138   0.0131  -0.1029 N.am           1 S1                 0.0000
     11 ****         1.7773   0.0291  -0.0399 C.3            1 S1                 0.0000
     12 ****         2.3881   0.6755  -1.2960 C.3            1 S1                 0.0000
     13 ****         2.3180   0.6529   1.2660 C.3            1 S1                 0.0000
     14 ****         1.8460  -0.0707   2.5426 C.3            1 S1                 0.0000
     15 ****         2.3387   0.5750   3.8542 C.3            1 S1                 0.0000
     16 ****         3.8647   0.4808   4.0247 C.3            1 S1                 0.0000
     17 ****         1.6276  -0.0490   5.0646 C.3            1 S1                 0.0000
     18 ****        -2.6324  -1.5190  -1.2857 C.2            1 S1                 0.0000
     19 ****        -2.5015  -2.1103  -0.2151 O.2            1 S1                 0.0000
     20 ****        -2.9893  -2.1962  -2.4000 N.am           1 S1                 0.0000
     21 ****        -3.1509  -3.1898  -2.3229 H              1 S1                 0.0000
     22 ****        -2.7650  -2.5542  -5.5230 H              1 S1                 0.0000
     23 ****        -4.4701  -2.2170  -5.2021 H              1 S1                 0.0000
     24 ****        -3.6628  -3.5546  -4.3754 H              1 S1                 0.0000
     25 ****        -3.0609   2.5524  -2.4238 H              1 S1                 0.0000
     26 ****        -2.5324   2.1703  -4.0604 H              1 S1                 0.0000
     27 ****        -1.3493   2.2471  -2.7583 H              1 S1                 0.0000
     28 ****        -2.5580   1.6977  -0.2731 H              1 S1                 0.0000
     29 ****        -2.3281   0.2708   0.6677 H              1 S1                 0.0000
     30 ****        -0.1140  -0.9012  -0.1389 H              1 S1                 0.0000
     31 ****         2.0776  -1.0192  -0.0477 H              1 S1                 0.0000
     32 ****         3.4714   0.5535  -1.3085 H              1 S1                 0.0000
     33 ****         2.1799   1.7444  -1.3450 H              1 S1                 0.0000
     34 ****         1.9963   0.2171  -2.2044 H              1 S1                 0.0000
     35 ****         3.4066   0.6320   1.2247 H              1 S1                 0.0000
     36 ****         2.0438   1.7067   1.3206 H              1 S1                 0.0000
     37 ****         0.7556  -0.0834   2.5553 H              1 S1                 0.0000
     38 ****         2.1580  -1.1152   2.5080 H              1 S1                 0.0000
     39 ****         2.0692   1.6317   3.8319 H              1 S1                 0.0000
     40 ****         4.2040  -0.5551   3.9998 H              1 S1                 0.0000
     41 ****         4.1779   0.9086   4.9774 H              1 S1                 0.0000
     42 ****         4.3934   1.0257   3.2432 H              1 S1                 0.0000
     43 ****         1.8486  -1.1136   5.1486 H              1 S1                 0.0000
     44 ****         0.5456   0.0608   4.9863 H              1 S1                 0.0000
     45 ****         1.9375   0.4299   5.9938 H              1 S1                 0.0000
     46 ****        -3.0547   0.0952  -4.7229 LP             1 S1                 0.0000
     47 ****        -0.8072   2.9834  -0.1180 LP             1 S1                 0.0000
     48 ****         0.8368   2.4488  -0.0104 LP             1 S1                 0.0000
     49 ****        -2.2294  -1.6062   0.6045 LP             1 S1                 0.0000
     50 ****        -2.6671  -3.0952  -0.1643 LP             1 S1                 0.0000
@<TRIPOS>BOND
    1    1    2 1     
    2    1   22 1     
    3    1   23 1     
    4    1   24 1     
    5    2   20 1     
    6    2    3 2     
    7    3    4 1     
    8    4    5 1     
    9    4    6 2     
   10    5   25 1     
   11    5   26 1     
   12    5   27 1     
   13    6    7 1     
   14    6   18 1     
   15    7    8 1     
   16    7   28 1     
   17    7   29 1     
   18    8    9 2     
   19    8   10 am    
   20   10   11 1     
   21   10   30 1     
   22   11   12 1     
   23   11   13 1     
   24   11   31 1     
   25   12   32 1     
   26   12   33 1     
   27   12   34 1     
   28   13   14 1     
   29   13   35 1     
   30   13   36 1     
   31   14   15 1     
   32   14   37 1     
   33   14   38 1     
   34   15   16 1     
   35   15   17 1     
   36   15   39 1     
   37   16   40 1     
   38   16   41 1     
   39   16   42 1     
   40   17   43 1     
   41   17   44 1     
   42   17   45 1     
   43   18   19 2     
   44   18   20 am    
   45   20   21 1     
   46    3   46 1     
   47    9   47 1     
   48    9   48 1     
   49   19   49 1     
   50   19   50 1     
@<TRIPOS>SUBSTRUCTURE
      1 S1             1
@<TRIPOS>SET
LONE_PAIRS      STATIC     ATOMS    <user>   **** ""
5 46 47 48 49 50
DONOR_HYDROGENS      STATIC     ATOMS    <user>   **** ""
2 30 21
ATOM$BLUE        STATIC     ATOMS    COLORGROUP SYSTEM
5 46 47 48 49 50
ATOM$RED        STATIC     ATOMS    COLORGROUP SYSTEM
2 30 21
