#       Name:                AV-unprocessed.smi:2368
#       Creating user name   scv26
#       Creation time:       Fri Mar 27 13:06:16 2020


#       File generated by GOLD software.
#

@<TRIPOS>MOLECULE
AV-unprocessed.smi:2368
    40    41     1
SMALL
NO_CHARGES


@<TRIPOS>ATOM
      1 ****        -5.7506   2.3183  -1.7383 C.3            1 S1                 0.0000
      2 ****        -4.5088   2.3173  -0.8662 C.ar           1 S1                 0.0000
      3 ****        -4.5420   3.1489   0.1977 N.ar           1 S1                 0.0000
      4 ****        -3.4666   3.1815   1.0105 C.ar           1 S1                 0.0000
      5 ****        -2.3148   2.3988   0.8040 C.ar           1 S1                 0.0000
      6 ****        -2.2695   1.5358  -0.3179 C.ar           1 S1                 0.0000
      7 ****        -1.1675   0.6845  -0.6161 N.am           1 S1                 0.0000
      8 ****         0.1005   0.7469  -0.1739 C.2            1 S1                 0.0000
      9 ****         0.5572   1.6114   0.5736 O.2            1 S1                 0.0000
     10 ****         0.8334  -0.2621  -0.6660 N.am           1 S1                 0.0000
     11 ****         2.2417  -0.4946  -0.3646 C.3            1 S1                 0.0000
     12 ****         2.8201  -1.5189  -1.3018 C.2            1 S1                 0.0000
     13 ****         3.2736  -2.5982  -0.6681 C.2            1 S1                 0.0000
     14 ****         3.0668  -2.5327   0.8223 C.3            1 S1                 0.0000
     15 ****         4.3690  -2.7783   1.6022 C.3            1 S1                 0.0000
     16 ****         4.1076  -2.8041   2.9895 O.3            1 S1                 0.0000
     17 ****         2.4586  -1.1219   1.0377 C.3            1 S1                 0.0000
     18 ****        -3.4013   1.4894  -1.1663 C.ar           1 S1                 0.0000
     19 ****        -3.4312   0.4437  -2.5472 Cl             1 S1                 0.0000
     20 ****         2.8080   0.4326  -0.4684 H              1 S1                 0.0000
     21 ****         2.3332  -3.2975   1.0812 H              1 S1                 0.0000
     22 ****        -6.1861   1.3197  -1.7802 H              1 S1                 0.0000
     23 ****        -5.5008   2.6291  -2.7530 H              1 S1                 0.0000
     24 ****        -6.5100   3.0009  -1.3543 H              1 S1                 0.0000
     25 ****        -3.5279   3.8481   1.8578 H              1 S1                 0.0000
     26 ****        -1.5055   2.4695   1.5135 H              1 S1                 0.0000
     27 ****        -1.3634  -0.0447  -1.2863 H              1 S1                 0.0000
     28 ****         0.3835  -0.9252  -1.2801 H              1 S1                 0.0000
     29 ****         2.8610  -1.3629  -2.3700 H              1 S1                 0.0000
     30 ****         3.7272  -3.4531  -1.1475 H              1 S1                 0.0000
     31 ****         4.8093  -3.7343   1.3171 H              1 S1                 0.0000
     32 ****         5.1070  -2.0048   1.3865 H              1 S1                 0.0000
     33 ****         4.9193  -2.9659   3.4460 H              1 S1                 0.0000
     34 ****         3.1359  -0.4903   1.6141 H              1 S1                 0.0000
     35 ****         1.5333  -1.1863   1.6120 H              1 S1                 0.0000
     36 ****        -5.3406   3.7234   0.3773 LP             1 S1                 0.0000
     37 ****        -0.0319   2.3490   0.9037 LP             1 S1                 0.0000
     38 ****         1.5173   1.5762   0.8509 LP             1 S1                 0.0000
     39 ****         3.4540  -3.5323   3.1958 LP             1 S1                 0.0000
     40 ****         3.7286  -1.9247   3.2774 LP             1 S1                 0.0000
@<TRIPOS>BOND
    1    1    2 1     
    2    1   22 1     
    3    1   23 1     
    4    1   24 1     
    5    2   18 ar    
    6    2    3 ar    
    7    3    4 ar    
    8    4    5 ar    
    9    4   25 1     
   10    5    6 ar    
   11    5   26 1     
   12    6    7 1     
   13    6   18 ar    
   14    7    8 am    
   15    7   27 1     
   16    8    9 2     
   17    8   10 am    
   18   10   11 1     
   19   10   28 1     
   20   11   20 1     
   21   11   17 1     
   22   11   12 1     
   23   12   13 2     
   24   12   29 1     
   25   13   14 1     
   26   13   30 1     
   27   14   21 1     
   28   14   15 1     
   29   14   17 1     
   30   15   16 1     
   31   15   31 1     
   32   15   32 1     
   33   16   33 1     
   34   17   34 1     
   35   17   35 1     
   36   18   19 1     
   37    3   36 1     
   38    9   37 1     
   39    9   38 1     
   40   16   39 1     
   41   16   40 1     
@<TRIPOS>SUBSTRUCTURE
      1 S1             1
@<TRIPOS>SET
LONE_PAIRS      STATIC     ATOMS    <user>   **** ""
5 36 37 38 39 40
DONOR_HYDROGENS      STATIC     ATOMS    <user>   **** ""
3 27 28 33
ATOM$BLUE        STATIC     ATOMS    COLORGROUP SYSTEM
5 36 37 38 39 40
ATOM$RED        STATIC     ATOMS    COLORGROUP SYSTEM
3 27 28 33
