AV-unprocessed.smi:284|AV-procd|sdf|2161|dock1
  -GOLD-   2262021513D 1   1.00000     0.00000
 Structure written by MMmdl.
 60 62  0  0  0  0  0  0  0  0  1 V2000
  146.7046  128.5832  153.1188 C   0  0  0  0  0  0  0  0  0  0  0  0
  147.1826  130.0183  153.2769 C   0  0  0  0  0  0  0  0  0  0  0  0
  146.5567  131.0561  152.6755 C   0  0  0  0  0  0  0  0  0  0  0  0
  146.9600  132.3746  152.7984 N   0  0  0  0  0  0  0  0  0  0  0  0
  146.2814  133.4921  152.0284 C   0  0  2  0  0  0  0  0  0  0  0  0
  144.9960  134.0238  152.6792 C   0  0  0  0  0  0  0  0  0  0  0  0
  143.9166  133.4596  151.7720 C   0  0  1  0  0  0  0  0  0  0  0  0
  142.7877  134.3094  151.7477 O   0  0  0  0  0  0  0  0  0  0  0  0
  144.6302  133.3964  150.4187 C   0  0  2  0  0  0  0  0  0  0  0  0
  144.0180  132.3736  149.4496 C   0  0  0  0  0  0  0  0  0  0  0  0
  144.6951  132.4111  148.2117 O   0  0  0  0  0  0  0  0  0  0  0  0
  145.9531  132.9985  150.7663 O   0  0  0  0  0  0  0  0  0  0  0  0
  148.1500  132.6650  153.5008 C   0  0  0  0  0  0  0  0  0  0  0  0
  148.6010  133.8121  153.5393 O   0  0  0  0  0  0  0  0  0  0  0  0
  148.8142  131.6075  154.1627 N   0  0  0  0  0  0  0  0  0  0  0  0
  150.0429  131.9125  154.9302 C   0  0  0  0  0  0  0  0  0  0  0  0
  149.8112  132.8452  156.1300 C   0  0  0  0  0  0  0  0  0  0  0  0
  150.5892  133.7712  156.3629 O   0  0  0  0  0  0  0  0  0  0  0  0
  148.7387  132.5423  156.8840 N   0  0  0  0  0  0  0  0  0  0  0  0
  148.2431  133.2085  158.0375 C   0  0  0  0  0  0  0  0  0  0  0  0
  148.3597  134.6013  158.2513 C   0  0  0  0  0  0  0  0  0  0  0  0
  147.8201  135.1926  159.4102 C   0  0  0  0  0  0  0  0  0  0  0  0
  147.1438  134.4118  160.3799 C   0  0  0  0  0  0  0  0  0  0  0  0
  146.5382  135.0240  161.6577 C   0  0  0  0  0  0  0  0  0  0  0  0
  145.4815  136.0799  161.2728 C   0  0  0  0  0  0  0  0  0  0  0  0
  147.5907  135.7175  162.5519 C   0  0  0  0  0  0  0  0  0  0  0  0
  145.8687  133.9167  162.4987 C   0  0  0  0  0  0  0  0  0  0  0  0
  147.0201  133.0221  160.1464 C   0  0  0  0  0  0  0  0  0  0  0  0
  147.5582  132.4289  158.9891 C   0  0  0  0  0  0  0  0  0  0  0  0
  148.3730  130.2640  154.0924 C   0  0  0  0  0  0  0  0  0  0  0  0
  148.9843  129.3696  154.6803 O   0  0  0  0  0  0  0  0  0  0  0  0
  145.8092  128.5181  152.5000 H   0  0  0  0  0  0  0  0  0  0  0  0
  146.4686  128.1505  154.0915 H   0  0  0  0  0  0  0  0  0  0  0  0
  147.4782  127.9736  152.6507 H   0  0  0  0  0  0  0  0  0  0  0  0
  145.7032  130.8238  152.0598 H   0  0  0  0  0  0  0  0  0  0  0  0
  147.0122  134.2973  151.9444 H   0  0  0  0  0  0  0  0  0  0  0  0
  144.8983  133.7569  153.7315 H   0  0  0  0  0  0  0  0  0  0  0  0
  145.0193  135.1128  152.6125 H   0  0  0  0  0  0  0  0  0  0  0  0
  143.6225  132.4615  152.0970 H   0  0  0  0  0  0  0  0  0  0  0  0
  142.2820  134.1180  150.9725 H   0  0  0  0  0  0  0  0  0  0  0  0
  144.6642  134.3943  149.9762 H   0  0  0  0  0  0  0  0  0  0  0  0
  144.0428  131.3668  149.8680 H   0  0  0  0  0  0  0  0  0  0  0  0
  142.9734  132.6175  149.2552 H   0  0  0  0  0  0  0  0  0  0  0  0
  145.2068  133.2047  148.1724 H   0  0  0  0  0  0  0  0  0  0  0  0
  150.5110  130.9943  155.2890 H   0  0  0  0  0  0  0  0  0  0  0  0
  150.8054  132.3601  154.2907 H   0  0  0  0  0  0  0  0  0  0  0  0
  148.2483  131.6974  156.6298 H   0  0  0  0  0  0  0  0  0  0  0  0
  148.8458  135.2424  157.5325 H   0  0  0  0  0  0  0  0  0  0  0  0
  147.9376  136.2587  159.5240 H   0  0  0  0  0  0  0  0  0  0  0  0
  145.0451  136.5456  162.1572 H   0  0  0  0  0  0  0  0  0  0  0  0
  144.6597  135.6490  160.7008 H   0  0  0  0  0  0  0  0  0  0  0  0
  145.9207  136.8742  160.6680 H   0  0  0  0  0  0  0  0  0  0  0  0
  148.0807  136.5430  162.0339 H   0  0  0  0  0  0  0  0  0  0  0  0
  148.3611  135.0201  162.8833 H   0  0  0  0  0  0  0  0  0  0  0  0
  147.1326  136.1351  163.4492 H   0  0  0  0  0  0  0  0  0  0  0  0
  145.4498  134.3185  163.4219 H   0  0  0  0  0  0  0  0  0  0  0  0
  146.5861  133.1431  162.7749 H   0  0  0  0  0  0  0  0  0  0  0  0
  145.0519  133.4309  161.9651 H   0  0  0  0  0  0  0  0  0  0  0  0
  146.5050  132.3928  160.8565 H   0  0  0  0  0  0  0  0  0  0  0  0
  147.4452  131.3653  158.8379 H   0  0  0  0  0  0  0  0  0  0  0  0
  1  2  1  0  0  0  0
  1 32  1  0  0  0  0
  1 33  1  0  0  0  0
  1 34  1  0  0  0  0
  2 30  1  0  0  0  0
  2  3  2  0  0  0  0
  3  4  1  0  0  0  0
  3 35  1  0  0  0  0
  4  5  1  0  0  0  0
  4 13  1  0  0  0  0
  5 12  1  0  0  0  0
  5  6  1  0  0  0  0
  5 36  1  0  0  0  0
  6  7  1  0  0  0  0
  6 37  1  0  0  0  0
  6 38  1  0  0  0  0
  7  8  1  0  0  0  0
  7  9  1  0  0  0  0
  7 39  1  0  0  0  0
  8 40  1  0  0  0  0
  9 10  1  0  0  0  0
  9 12  1  0  0  0  0
  9 41  1  0  0  0  0
 10 11  1  0  0  0  0
 10 42  1  0  0  0  0
 10 43  1  0  0  0  0
 11 44  1  0  0  0  0
 13 14  2  0  0  0  0
 13 15  1  0  0  0  0
 15 16  1  0  0  0  0
 15 30  1  0  0  0  0
 16 17  1  0  0  0  0
 16 45  1  0  0  0  0
 16 46  1  0  0  0  0
 17 18  2  0  0  0  0
 17 19  1  0  0  0  0
 19 20  1  0  0  0  0
 19 47  1  0  0  0  0
 20 29  1  0  0  0  0
 20 21  2  0  0  0  0
 21 22  1  0  0  0  0
 21 48  1  0  0  0  0
 22 23  2  0  0  0  0
 22 49  1  0  0  0  0
 23 24  1  0  0  0  0
 23 28  1  0  0  0  0
 24 25  1  0  0  0  0
 24 26  1  0  0  0  0
 24 27  1  0  0  0  0
 25 50  1  0  0  0  0
 25 51  1  0  0  0  0
 25 52  1  0  0  0  0
 26 53  1  0  0  0  0
 26 54  1  0  0  0  0
 26 55  1  0  0  0  0
 27 56  1  0  0  0  0
 27 57  1  0  0  0  0
 27 58  1  0  0  0  0
 28 29  2  0  0  0  0
 28 59  1  0  0  0  0
 29 60  1  0  0  0  0
 30 31  2  0  0  0  0
M  END
> <s_m_source_file>
AV-unprocessed.smi

> <i_m_source_file_index>
284

> <i_lp_mmshare_version>
43012

> <i_f3d_flags>
0

> <s_epik_input>
W09IXVtDSDJdW0NAQEhdKE8xKVtDQEhdKFtPSF0pW0NIMl1bQ0BIXTFuKFtjSF1jMltDSDNdKWMoPU8pbihjMj1PKVtDSDJdQyg9TylbTkhdYzNbY0hdW2NIXWMoQyhbQ0gzXSkoW0NIM10pW0NIM10pW2NIXVtjSF0z

> <s_epik_cmdline>
J2VwaWtfcHl0aG9uJywgJy1waCcsICc3LjAnLCAnLXRuJywgJzgnLCAnLW1hJywgJzIwMCcsICctbWV0YWxfYmluZGluZycsICctaW1hZScsICc8aW5maWxlLm1hZT4nLCAnLW9tYWUnLCAnPG91dGZpbGUubWFlPic=

> <r_lp_tautomer_probability>
1

> <r_epik_Ionization_Penalty>
4.92358e-06

> <r_epik_Ionization_Penalty_Charging>
1.29777e-07

> <r_epik_Ionization_Penalty_Neutral>
4.79381e-06

> <r_epik_State_Penalty>
-0

> <r_epik_Charging_Adjusted_Penalty>
1.29777e-07

> <i_epik_Tot_Q>
0

> <i_epik_Tot_abs_Q>
0

> <r_epik_Metal_State_Penalty>
-0

> <b_epik_Metal_Only>
0

> <s_epik_Chemistry_Notes>
This compound contains an acetal/aminal-like group ( X-CH(R)-Y where X, Y are N, S, or O) that may be acid/base labile, releasing an aldehyde.

> <s_lp_Force_Field>
OPLS_2005

> <r_lp_Energy>
40.5501

> <b_lp_Chiralities_Consistent>
1

> <s_lp_Variant>
AV-unprocessed.smi:284-5

> <Gold.Version>
5.8.1

> <Gold.Id.Protein>
6NUR|6NUR_protein|mol2

> <Gold.PLP.Fitness>
52.2454

> <Gold.PLP.PLP>
-47.9004

> <Gold.PLP.part.hbond>
-3.1357

> <Gold.PLP.part.metal>
0.0000

> <Gold.PLP.part.buried>
-6.6795

> <Gold.PLP.part.nonpolar>
-39.0840

> <Gold.PLP.part.repulsive>
1.7783

> <Gold.PLP.ligand.clash>
0.0000

> <Gold.PLP.ligand.torsion>
0.9052

> <Gold.PLP.Chemscore.Hbond>
1.9500

> <Gold.PLP.Chemscore.CHOScore>
0.0000

> <Gold.PLP.Chemscore.Metal>
0.0000

> <Gold.Chemscore.Hbonds>
donor molecule, donor type, donor heavy atom, donor atom, acceptor molecule, acceptor atom, score
      L1  H     8    40       P1 10186  0.95
      L1  H    11    44       P1  7921  0.95

> <Gold.PLP.Chemscore.Internal.Correction>
0.3054

> <Gold.Rescore>
     Score         DG    S(hbond)    S(metal)    S(lipo)     H(rot)  DE(clash)    DE(int)     intcor
     10.56     -13.37       1.27        0.00     102.68       3.27       0.87       1.94       ----

> <Gold.Chemscore.Fitness>
10.5578

> <Gold.Chemscore.DG>
-13.3674

> <Gold.Chemscore.ZeroCoef>
-5.4800

> <Gold.Chemscore.Hbond>
1.2736

> <Gold.Chemscore.Metal>
0.0000

> <Gold.Chemscore.Lipo>
102.6802

> <Gold.Chemscore.Internal_Hbond>
0.0000

> <Gold.Chemscore.DEClash>
0.8744

> <Gold.Chemscore.DEInternal>
1.9351

> <Gold.Chemscore.Rot>
3.2735

> <Gold.Chemscore.Internal.Correction>
   9.000000E+99

> <Gold.Chemscore.Hbonds>
donor molecule, donor type, donor heavy atom, donor atom, acceptor molecule, acceptor atom, score
      L1  H     8    40       P1 10186  0.21
      L1  H    11    44       P1  7921  0.21

> <Gold.Chemscore.Hbond.Weighted>
-4.2539

> <Gold.Chemscore.Metal.Weighted>
-0.0000

> <Gold.Chemscore.Lipo.Weighted>
-12.0136

> <Gold.Chemscore.Internal_Hbond.Weighted>
0.0000

> <Gold.Chemscore.DEClash.Weighted>
0.8744

> <Gold.Chemscore.DEInternal.Weighted>
1.9351

> <Gold.Chemscore.Rot.Weighted>
8.3801

> <Gold.Chemscore.Internal.Correction.Weighted>
   9.000000E+99

> <Gold.Protein.RotatedTorsions>
[ 6907 6896 6895 6894 ] final -177.55 input  -60.11 | X-H torsion
[ 7974 7965 7964 7962 ] final -151.54 input  175.53 | X-H torsion
[ 8008 7997 7996 7995 ] final -123.94 input   59.86 | X-H torsion
[ 10167 10162 10161 10158 ] final   84.89 input  -65.29 | X-H torsion
[ 10718 10713 10712 10709 ] final  -58.03 input   66.30 | X-H torsion
[ 10763 10752 10751 10750 ] final  -76.94 input  -60.55 | X-H torsion
[ 11005 11000 10999 10996 ] final   -9.47 input  -57.11 | X-H torsion

> <Gold.Protein.ActiveResidues>
 VAL166  LYS551  ARG553  GLY616  TRP617  ASP618  TYR619  PRO620  LYS621  CYS622 
 ASP623  PHE694  ASN695  SER759  ASP760  ASP761  ALA762  ILE779  LEU786  VAL792 
 PHE793  MET794  SER795  GLU796  ALA797  LYS798  CYS799  TRP800  GLU811  SER814 

> <Gold.Protein.RotatedAtoms>
  151.6227  133.3338  159.3091 H   0  0  0  0  0  0  0  0  0  0  0  0  # atno 6907 bound_to 6896
  150.8097  134.7248  159.6688 H   0  0  0  0  0  0  0  0  0  0  0  0  # atno 6908 bound_to 6896
  152.4194  134.5988  160.0046 H   0  0  0  0  0  0  0  0  0  0  0  0  # atno 6909 bound_to 6896
  144.7844  140.4784  143.5816 H   0  0  0  0  0  0  0  0  0  0  0  0  # atno 7974 bound_to 7965
  155.1887  140.0412  157.2896 H   0  0  0  0  0  0  0  0  0  0  0  0  # atno 8008 bound_to 7997
  154.6154  140.2487  155.7588 H   0  0  0  0  0  0  0  0  0  0  0  0  # atno 8009 bound_to 7997
  156.2403  140.2906  156.0436 H   0  0  0  0  0  0  0  0  0  0  0  0  # atno 8010 bound_to 7997
  139.9033  144.6316  150.8613 H   0  0  0  0  0  0  0  0  0  0  0  0  # atno 10167 bound_to 10162
  156.1166  130.4170  150.0521 H   0  0  0  0  0  0  0  0  0  0  0  0  # atno 10718 bound_to 10713
  154.5065  135.5780  153.6571 H   0  0  0  0  0  0  0  0  0  0  0  0  # atno 10763 bound_to 10752
  152.9888  135.6148  154.2935 H   0  0  0  0  0  0  0  0  0  0  0  0  # atno 10764 bound_to 10752
  154.2846  135.2850  155.2661 H   0  0  0  0  0  0  0  0  0  0  0  0  # atno 10765 bound_to 10752
  140.7345  133.8721  155.8919 H   0  0  0  0  0  0  0  0  0  0  0  0  # atno 11005 bound_to 11000
  145.5961  139.1499  143.3155 LP  0  0  0  0  0  0  0  0  0  0  0  0  # atno 17320 bound_to 7965
  146.2069  140.6085  142.9077 LP  0  0  0  0  0  0  0  0  0  0  0  0  # atno 17321 bound_to 7965
  140.7702  143.3420  151.2188 LP  0  0  0  0  0  0  0  0  0  0  0  0  # atno 17342 bound_to 10162
  139.7006  143.9540  152.2903 LP  0  0  0  0  0  0  0  0  0  0  0  0  # atno 17343 bound_to 10162
  156.8471  130.9446  151.3628 LP  0  0  0  0  0  0  0  0  0  0  0  0  # atno 17370 bound_to 10713
  157.6349  130.8759  149.9341 LP  0  0  0  0  0  0  0  0  0  0  0  0  # atno 17371 bound_to 10713
  140.9891  134.1302  157.4424 LP  0  0  0  0  0  0  0  0  0  0  0  0  # atno 17394 bound_to 11000
  139.8819  135.0035  156.6190 LP  0  0  0  0  0  0  0  0  0  0  0  0  # atno 17395 bound_to 11000

$$$$
