#       Name:                AV-unprocessed.smi:1576
#       Creating user name   scv26
#       Creation time:       Fri Mar 27 06:56:30 2020


#       File generated by GOLD software.
#

@<TRIPOS>MOLECULE
AV-unprocessed.smi:1576
    49    51     1
SMALL
NO_CHARGES


@<TRIPOS>ATOM
      1 ****        -2.1730   1.6672  -0.4100 O.2            1 S1                 0.0000
      2 ****        -2.4566   0.5640   0.0559 C.2            1 S1                 0.0000
      3 ****        -1.5713  -0.3978   0.3694 N.am           1 S1                 0.0000
      4 ****        -0.1592  -0.3861   0.2095 C.ar           1 S1                 0.0000
      5 ****         0.5300   0.4471  -0.7049 C.ar           1 S1                 0.0000
      6 ****         1.9350   0.3684  -0.7967 C.ar           1 S1                 0.0000
      7 ****         2.6500  -0.5453   0.0185 C.ar           1 S1                 0.0000
      8 ****         4.0554  -0.6962  -0.0097 N.3            1 S1                 0.0000
      9 ****         4.7194  -0.8374   1.2906 C.3            1 S1                 0.0000
     10 ****         6.1404  -1.4064   1.1402 C.3            1 S1                 0.0000
     11 ****         6.9629  -0.5839   0.1394 C.3            1 S1                 0.0000
     12 ****         6.2255  -0.5136  -1.2043 C.3            1 S1                 0.0000
     13 ****         4.8018   0.0428  -1.0305 C.3            1 S1                 0.0000
     14 ****         1.9396  -1.3298   0.8653 N.pl3          1 S1                 1.0000
     15 ****         0.5955  -1.2886   0.9849 C.ar           1 S1                 0.0000
     16 ****        -3.7106   0.1795   0.3323 N.am           1 S1                 0.0000
     17 ****        -4.9024   0.9954   0.1191 C.3            1 S1                 0.0000
     18 ****        -6.0877   0.4766   0.9541 C.3            1 S1                 0.0000
     19 ****        -7.3757   1.1266   0.4344 C.3            1 S1                 0.0000
     20 ****        -7.1194   1.3960  -1.3604 S.o2           1 S1                 0.0000
     21 ****        -7.8349   0.3605  -2.1210 O.2            1 S1                 0.0000
     22 ****        -7.3087   2.8231  -1.6605 O.2            1 S1                 0.0000
     23 ****        -5.3295   1.0034  -1.3576 C.3            1 S1                 0.0000
     24 ****        -1.9492  -1.2172   0.8222 H              1 S1                 0.0000
     25 ****         0.0105   1.1390  -1.3494 H              1 S1                 0.0000
     26 ****         2.4374   1.0221  -1.4933 H              1 S1                 0.0000
     27 ****         4.7607   0.1432   1.7665 H              1 S1                 0.0000
     28 ****         4.1598  -1.4884   1.9617 H              1 S1                 0.0000
     29 ****         6.6390  -1.4227   2.1097 H              1 S1                 0.0000
     30 ****         6.0852  -2.4425   0.8033 H              1 S1                 0.0000
     31 ****         7.1220   0.4226   0.5282 H              1 S1                 0.0000
     32 ****         7.9492  -1.0290   0.0054 H              1 S1                 0.0000
     33 ****         6.7842   0.1059  -1.9063 H              1 S1                 0.0000
     34 ****         6.1760  -1.5106  -1.6441 H              1 S1                 0.0000
     35 ****         4.2923  -0.0207  -1.9923 H              1 S1                 0.0000
     36 ****         4.8420   1.0962  -0.7506 H              1 S1                 0.0000
     37 ****         0.1685  -1.9757   1.7015 H              1 S1                 0.0000
     38 ****        -3.8540  -0.7419   0.7193 H              1 S1                 0.0000
     39 ****        -4.7030   2.0230   0.4296 H              1 S1                 0.0000
     40 ****        -6.1697  -0.6041   0.8294 H              1 S1                 0.0000
     41 ****        -5.9473   0.6643   2.0191 H              1 S1                 0.0000
     42 ****        -8.2613   0.5136   0.6021 H              1 S1                 0.0000
     43 ****        -7.5323   2.0996   0.9005 H              1 S1                 0.0000
     44 ****        -4.7842   1.7343  -1.9551 H              1 S1                 0.0000
     45 ****        -5.2054   0.0200  -1.8123 H              1 S1                 0.0000
     46 ****         2.4512  -1.9947   1.4458 H              1 S1                 0.0000
     47 ****        -1.2176   1.9059  -0.5839 LP             1 S1                 0.0000
     48 ****        -2.8979   2.3249  -0.6146 LP             1 S1                 0.0000
     49 ****         4.1126  -1.6210  -0.3858 LP             1 S1                 0.0000
@<TRIPOS>BOND
    1    1    2 2     
    2    2    3 am    
    3    2   16 am    
    4    3    4 1     
    5    3   24 1     
    6    4   15 ar    
    7    4    5 ar    
    8    5    6 ar    
    9    5   25 1     
   10    6    7 ar    
   11    6   26 1     
   12    7    8 1     
   13    7   14 ar    
   14    8   13 1     
   15    8    9 1     
   16    9   10 1     
   17    9   27 1     
   18    9   28 1     
   19   10   11 1     
   20   10   29 1     
   21   10   30 1     
   22   11   12 1     
   23   11   31 1     
   24   11   32 1     
   25   12   13 1     
   26   12   33 1     
   27   12   34 1     
   28   13   35 1     
   29   13   36 1     
   30   14   15 ar    
   31   14   46 1     
   32   15   37 1     
   33   16   17 1     
   34   16   38 1     
   35   17   23 1     
   36   17   18 1     
   37   17   39 1     
   38   18   19 1     
   39   18   40 1     
   40   18   41 1     
   41   19   20 1     
   42   19   42 1     
   43   19   43 1     
   44   20   21 2     
   45   20   22 2     
   46   20   23 1     
   47   23   44 1     
   48   23   45 1     
   49    1   47 1     
   50    1   48 1     
   51    8   49 1     
@<TRIPOS>SUBSTRUCTURE
      1 S1             1
@<TRIPOS>SET
LONE_PAIRS      STATIC     ATOMS    <user>   **** ""
5 47 48 49 21 22
DONOR_HYDROGENS      STATIC     ATOMS    <user>   **** ""
3 24 46 38
ATOM$BLUE        STATIC     ATOMS    COLORGROUP SYSTEM
5 47 48 49 21 22
ATOM$RED        STATIC     ATOMS    COLORGROUP SYSTEM
3 24 46 38
