AV-unprocessed.smi:15|AV-procd|sdf|80|dock5
  -GOLD-   2262015213D 1   1.00000     0.00000
 Structure written by MMmdl.
 53 56  0  0  0  0  0  0  0  0  1 V2000
  146.5811  132.9362  155.7276 C   0  0  0  0  0  0  0  0  0  0  0  0
  146.4261  133.1338  154.2142 C   0  0  0  0  0  0  0  0  0  0  0  0
  145.5994  134.2922  153.8753 N   0  0  0  0  0  0  0  0  0  0  0  0
  144.6692  134.2265  152.7463 C   0  0  0  0  0  0  0  0  0  0  0  0
  145.1377  133.2737  151.6301 C   0  0  1  0  0  0  0  0  0  0  0  0
  144.9458  131.7969  151.9674 C   0  0  0  0  0  0  0  0  0  0  0  0
  144.8531  131.1285  150.6039 C   0  0  0  0  0  0  0  0  0  0  0  0
  144.5918  132.2874  149.6374 C   0  0  0  0  0  0  0  0  0  0  0  0
  144.3317  133.4078  150.4694 O   0  0  0  0  0  0  0  0  0  0  0  0
  146.1377  135.5191  154.0812 C   0  0  0  0  0  0  0  0  0  0  0  0
  145.4353  136.5926  153.6369 N   0  0  0  0  0  0  0  0  0  0  0  0
  145.9247  137.8265  153.7871 C   0  0  0  0  0  0  0  0  0  0  0  0
  147.0810  138.2045  154.3347 N   0  0  0  0  0  0  0  0  0  0  0  0
  147.7967  137.1291  154.7718 C   0  0  0  0  0  0  0  0  0  0  0  0
  147.4031  135.7632  154.6908 C   0  0  0  0  0  0  0  0  0  0  0  0
  148.4004  134.9555  155.2269 N   0  0  0  0  0  0  0  0  0  0  0  0
  149.3230  135.7946  155.6100 C   0  0  0  0  0  0  0  0  0  0  0  0
  149.0475  137.1202  155.3635 N   0  0  0  0  0  0  0  0  0  0  0  0
  149.8954  138.2598  155.6747 C   0  0  0  0  0  0  0  0  0  0  0  0
  150.4357  139.0026  154.4222 C   0  0  1  0  0  0  0  0  0  0  0  0
  151.2861  138.1387  153.6915 O   0  0  0  0  0  0  0  0  0  0  0  0
  149.3470  139.5253  153.4925 C   0  0  0  0  0  0  0  0  0  0  0  0
  148.9569  140.8456  154.1497 C   0  0  0  0  0  0  0  0  0  0  0  0
  150.1374  141.3186  154.7924 O   0  0  0  0  0  0  0  0  0  0  0  0
  151.1591  140.3254  154.7411 C   0  0  1  0  0  0  0  0  0  0  0  0
  152.0116  140.3566  156.0182 C   0  0  0  0  0  0  0  0  0  0  0  0
  147.2632  132.1122  155.9376 H   0  0  0  0  0  0  0  0  0  0  0  0
  145.6310  132.6991  156.2052 H   0  0  0  0  0  0  0  0  0  0  0  0
  146.9862  133.8305  156.2021 H   0  0  0  0  0  0  0  0  0  0  0  0
  147.4207  133.2607  153.7843 H   0  0  0  0  0  0  0  0  0  0  0  0
  146.0045  132.2342  153.7663 H   0  0  0  0  0  0  0  0  0  0  0  0
  143.7006  133.8934  153.1172 H   0  0  0  0  0  0  0  0  0  0  0  0
  144.4951  135.2226  152.3373 H   0  0  0  0  0  0  0  0  0  0  0  0
  146.1821  133.4530  151.3702 H   0  0  0  0  0  0  0  0  0  0  0  0
  145.7534  131.3983  152.5821 H   0  0  0  0  0  0  0  0  0  0  0  0
  144.0093  131.6530  152.5079 H   0  0  0  0  0  0  0  0  0  0  0  0
  145.7812  130.6169  150.3466 H   0  0  0  0  0  0  0  0  0  0  0  0
  144.0472  130.3941  150.5835 H   0  0  0  0  0  0  0  0  0  0  0  0
  145.4760  132.4898  149.0311 H   0  0  0  0  0  0  0  0  0  0  0  0
  143.7544  132.0955  148.9662 H   0  0  0  0  0  0  0  0  0  0  0  0
  145.3024  138.6250  153.4107 H   0  0  0  0  0  0  0  0  0  0  0  0
  150.2394  135.4669  156.0790 H   0  0  0  0  0  0  0  0  0  0  0  0
  149.3256  138.9436  156.3048 H   0  0  0  0  0  0  0  0  0  0  0  0
  150.7218  137.9007  156.2892 H   0  0  0  0  0  0  0  0  0  0  0  0
  150.7749  137.7158  153.0186 H   0  0  0  0  0  0  0  0  0  0  0  0
  149.7629  139.7352  152.5054 H   0  0  0  0  0  0  0  0  0  0  0  0
  148.5035  138.8511  153.3477 H   0  0  0  0  0  0  0  0  0  0  0  0
  148.5774  141.5706  153.4295 H   0  0  0  0  0  0  0  0  0  0  0  0
  148.1871  140.6863  154.9055 H   0  0  0  0  0  0  0  0  0  0  0  0
  151.7953  140.5908  153.8943 H   0  0  0  0  0  0  0  0  0  0  0  0
  152.7749  139.5787  155.9981 H   0  0  0  0  0  0  0  0  0  0  0  0
  151.4059  140.2144  156.9132 H   0  0  0  0  0  0  0  0  0  0  0  0
  152.5194  141.3160  156.1187 H   0  0  0  0  0  0  0  0  0  0  0  0
  1  2  1  0  0  0  0
  1 27  1  0  0  0  0
  1 28  1  0  0  0  0
  1 29  1  0  0  0  0
  2  3  1  0  0  0  0
  2 30  1  0  0  0  0
  2 31  1  0  0  0  0
  3  4  1  0  0  0  0
  3 10  1  0  0  0  0
  4  5  1  0  0  0  0
  4 32  1  0  0  0  0
  4 33  1  0  0  0  0
  5  9  1  0  0  0  0
  5  6  1  0  0  0  0
  5 34  1  0  0  0  0
  6  7  1  0  0  0  0
  6 35  1  0  0  0  0
  6 36  1  0  0  0  0
  7  8  1  0  0  0  0
  7 37  1  0  0  0  0
  7 38  1  0  0  0  0
  8  9  1  0  0  0  0
  8 39  1  0  0  0  0
  8 40  1  0  0  0  0
 10 15  1  0  0  0  0
 10 11  2  0  0  0  0
 11 12  1  0  0  0  0
 12 13  2  0  0  0  0
 12 41  1  0  0  0  0
 13 14  1  0  0  0  0
 14 18  1  0  0  0  0
 14 15  2  0  0  0  0
 15 16  1  0  0  0  0
 16 17  2  0  0  0  0
 17 18  1  0  0  0  0
 17 42  1  0  0  0  0
 18 19  1  0  0  0  0
 19 20  1  0  0  0  0
 19 43  1  0  0  0  0
 19 44  1  0  0  0  0
 20 25  1  0  0  0  0
 20 21  1  0  0  0  0
 20 22  1  0  0  0  0
 21 45  1  0  0  0  0
 22 23  1  0  0  0  0
 22 46  1  0  0  0  0
 22 47  1  0  0  0  0
 23 24  1  0  0  0  0
 23 48  1  0  0  0  0
 23 49  1  0  0  0  0
 24 25  1  0  0  0  0
 25 26  1  0  0  0  0
 25 50  1  0  0  0  0
 26 51  1  0  0  0  0
 26 52  1  0  0  0  0
 26 53  1  0  0  0  0
M  END
> <s_m_source_file>
AV-unprocessed.smi

> <i_m_source_file_index>
15

> <i_lp_mmshare_version>
43012

> <i_f3d_flags>
0

> <s_epik_input>
TzFbQ0gyXVtDSDJdW0NIMl1bQ0BIXTFbQ0gyXU4oW0NIMl1bQ0gzXSljKG5bY0hdbjIpYyhjMjMpbltjSF1uM1tDSDJdW0NAQF00KFtPSF0pW0NIMl1bQ0gyXU9bQ0BIXTRbQ0gzXQ==

> <s_epik_cmdline>
J2VwaWtfcHl0aG9uJywgJy1waCcsICc3LjAnLCAnLXRuJywgJzgnLCAnLW1hJywgJzIwMCcsICctbWV0YWxfYmluZGluZycsICctaW1hZScsICc8aW5maWxlLm1hZT4nLCAnLW9tYWUnLCAnPG91dGZpbGUubWFlPic=

> <r_lp_tautomer_probability>
1

> <r_epik_Ionization_Penalty>
0.00360814

> <r_epik_Ionization_Penalty_Charging>
0

> <r_epik_Ionization_Penalty_Neutral>
0.00360814

> <r_epik_State_Penalty>
0.00237482

> <r_epik_Charging_Adjusted_Penalty>
0.00237482

> <i_epik_Tot_Q>
0

> <i_epik_Tot_abs_Q>
0

> <r_epik_Metal_State_Penalty>
-0

> <b_epik_Metal_Only>
0

> <s_lp_Force_Field>
OPLS_2005

> <r_lp_Energy>
45.9982

> <b_lp_Chiralities_Consistent>
1

> <s_lp_Variant>
AV-unprocessed.smi:15-2

> <Gold.Version>
5.8.1

> <Gold.Id.Protein>
6NUR|6NUR_protein|mol2

> <Gold.PLP.Fitness>
38.5933

> <Gold.PLP.PLP>
-33.3837

> <Gold.PLP.part.hbond>
-2.5586

> <Gold.PLP.part.metal>
0.0000

> <Gold.PLP.part.buried>
-1.4737

> <Gold.PLP.part.nonpolar>
-29.8673

> <Gold.PLP.part.repulsive>
0.4455

> <Gold.PLP.ligand.clash>
0.0000

> <Gold.PLP.ligand.torsion>
0.7178

> <Gold.PLP.Chemscore.Hbond>
1.9120

> <Gold.PLP.Chemscore.CHOScore>
0.0000

> <Gold.PLP.Chemscore.Metal>
0.0000

> <Gold.Chemscore.Hbonds>
donor molecule, donor type, donor heavy atom, donor atom, acceptor molecule, acceptor atom, score
      L1  H    21    45       P1  7949  0.14
      L1  C    12    41       P1 10175  0.76

> <Gold.PLP.Chemscore.Internal.Correction>
0.9092

> <Gold.Rescore>
     Score         DG    S(hbond)    S(metal)    S(lipo)     H(rot)  DE(clash)    DE(int)     intcor
      9.78     -15.32       1.62        0.00      91.21       2.44       2.01       3.53       ----

> <Gold.Chemscore.Fitness>
9.7836

> <Gold.Chemscore.DG>
-15.3211

> <Gold.Chemscore.ZeroCoef>
-5.4800

> <Gold.Chemscore.Hbond>
1.6239

> <Gold.Chemscore.Metal>
0.0000

> <Gold.Chemscore.Lipo>
91.2119

> <Gold.Chemscore.Internal_Hbond>
0.0000

> <Gold.Chemscore.DEClash>
2.0088

> <Gold.Chemscore.DEInternal>
3.5287

> <Gold.Chemscore.Rot>
2.4431

> <Gold.Chemscore.Internal.Correction>
   9.000000E+99

> <Gold.Chemscore.Hbonds>
donor molecule, donor type, donor heavy atom, donor atom, acceptor molecule, acceptor atom, score
      L1  H    21    45       P1  7949  0.02

> <Gold.Chemscore.Hbond.Weighted>
-5.4237

> <Gold.Chemscore.Metal.Weighted>
-0.0000

> <Gold.Chemscore.Lipo.Weighted>
-10.6718

> <Gold.Chemscore.Internal_Hbond.Weighted>
0.0000

> <Gold.Chemscore.DEClash.Weighted>
2.0088

> <Gold.Chemscore.DEInternal.Weighted>
3.5287

> <Gold.Chemscore.Rot.Weighted>
6.2544

> <Gold.Chemscore.Internal.Correction.Weighted>
   9.000000E+99

> <Gold.Protein.RotatedTorsions>
[ 6907 6896 6895 6894 ] final  -98.35 input  -60.11 | X-H torsion
[ 7974 7965 7964 7962 ] final   57.43 input  175.53 | X-H torsion
[ 8008 7997 7996 7995 ] final  -93.34 input   59.86 | X-H torsion
[ 10167 10162 10161 10158 ] final -102.72 input  -65.29 | X-H torsion
[ 10718 10713 10712 10709 ] final  138.70 input   66.30 | X-H torsion
[ 10763 10752 10751 10750 ] final  143.08 input  -60.55 | X-H torsion
[ 11005 11000 10999 10996 ] final  164.06 input  -57.11 | X-H torsion

> <Gold.Protein.ActiveResidues>
 VAL166  LYS551  ARG553  GLY616  TRP617  ASP618  TYR619  PRO620  LYS621  CYS622 
 ASP623  PHE694  ASN695  SER759  ASP760  ASP761  ALA762  ILE779  LEU786  VAL792 
 PHE793  MET794  SER795  GLU796  ALA797  LYS798  CYS799  TRP800  GLU811  SER814 

> <Gold.Protein.RotatedAtoms>
  150.7044  134.1208  159.4033 H   0  0  0  0  0  0  0  0  0  0  0  0  # atno 6907 bound_to 6896
  151.9195  135.0302  160.0530 H   0  0  0  0  0  0  0  0  0  0  0  0  # atno 6908 bound_to 6896
  152.2268  133.4991  159.5230 H   0  0  0  0  0  0  0  0  0  0  0  0  # atno 6909 bound_to 6896
  145.9291  139.3792  143.0432 H   0  0  0  0  0  0  0  0  0  0  0  0  # atno 7974 bound_to 7965
  154.7344  140.0500  157.0756 H   0  0  0  0  0  0  0  0  0  0  0  0  # atno 8008 bound_to 7997
  155.0259  140.3152  155.4757 H   0  0  0  0  0  0  0  0  0  0  0  0  # atno 8009 bound_to 7997
  156.2849  140.2158  156.5379 H   0  0  0  0  0  0  0  0  0  0  0  0  # atno 8010 bound_to 7997
  140.2277  143.3630  152.0914 H   0  0  0  0  0  0  0  0  0  0  0  0  # atno 10167 bound_to 10162
  157.4224  131.1040  151.0339 H   0  0  0  0  0  0  0  0  0  0  0  0  # atno 10718 bound_to 10713
  153.9664  135.2955  155.3430 H   0  0  0  0  0  0  0  0  0  0  0  0  # atno 10763 bound_to 10752
  154.7347  135.5052  153.9024 H   0  0  0  0  0  0  0  0  0  0  0  0  # atno 10764 bound_to 10752
  153.0921  135.6711  153.9944 H   0  0  0  0  0  0  0  0  0  0  0  0  # atno 10765 bound_to 10752
  140.2421  134.8043  157.3420 H   0  0  0  0  0  0  0  0  0  0  0  0  # atno 11005 bound_to 11000
  145.8450  140.9560  143.0779 LP  0  0  0  0  0  0  0  0  0  0  0  0  # atno 17320 bound_to 7965
  144.6762  140.0333  143.7482 LP  0  0  0  0  0  0  0  0  0  0  0  0  # atno 17321 bound_to 7965
  139.5121  144.6912  151.5755 LP  0  0  0  0  0  0  0  0  0  0  0  0  # atno 17342 bound_to 10162
  140.6209  143.9261  150.6525 LP  0  0  0  0  0  0  0  0  0  0  0  0  # atno 17343 bound_to 10162
  157.1264  130.6084  149.5518 LP  0  0  0  0  0  0  0  0  0  0  0  0  # atno 17370 bound_to 10713
  155.9885  130.4929  150.7173 LP  0  0  0  0  0  0  0  0  0  0  0  0  # atno 17371 bound_to 10713
  140.1643  134.4689  155.7873 LP  0  0  0  0  0  0  0  0  0  0  0  0  # atno 17394 bound_to 11000
  141.2209  133.6914  156.7598 LP  0  0  0  0  0  0  0  0  0  0  0  0  # atno 17395 bound_to 11000

$$$$
