AV-unprocessed.smi:35|AV-procd|sdf|277|dock1
  -GOLD-   2262016 43D 1   1.00000     0.00000
 Structure written by MMmdl.
 28 29  0  0  0  0  0  0  0  0  2 V2000
  153.4570  137.3999  156.4962 O   0  0  0  0  0  0  0  0  0  0  0  0
  152.4400  138.0745  156.3458 C   0  0  0  0  0  0  0  0  0  0  0  0
  152.4365  139.4369  156.4215 N   0  5  0  0  0  0  0  0  0  0  0  0
  151.3046  140.1812  156.2504 C   0  0  0  0  0  0  0  0  0  0  0  0
  151.2918  141.4111  156.3058 O   0  0  0  0  0  0  0  0  0  0  0  0
  150.0761  139.5164  155.9847 N   0  0  0  0  0  0  0  0  0  0  0  0
  148.8225  140.3483  155.7947 C   0  0  2  0  0  0  0  0  0  0  0  0
  147.7103  139.5069  155.6398 O   0  0  0  0  0  0  0  0  0  0  0  0
  147.0276  139.7557  154.4103 C   0  0  2  0  0  0  0  0  0  0  0  0
  147.3852  138.6428  153.4018 C   0  0  0  0  0  0  0  0  0  0  0  0
  148.7731  138.6243  153.1401 O   0  0  0  0  0  0  0  0  0  0  0  0
  147.4625  141.1806  154.0421 C   0  0  2  0  0  0  0  0  0  0  0  0
  147.3205  141.5314  152.6780 O   0  0  0  0  0  0  0  0  0  0  0  0
  148.8888  141.2759  154.5621 C   0  0  2  0  0  0  0  0  0  0  0  0
  149.8511  140.8762  153.5985 O   0  0  0  0  0  0  0  0  0  0  0  0
  150.0487  138.1341  155.9053 C   0  0  0  0  0  0  0  0  0  0  0  0
  151.1708  137.4057  156.0730 C   0  0  0  0  0  0  0  0  0  0  0  0
  150.9837  135.4382  155.9280 Br  0  0  0  0  0  0  0  0  0  0  0  0
  148.6888  140.8937  156.7307 H   0  0  0  0  0  0  0  0  0  0  0  0
  145.9549  139.7232  154.6055 H   0  0  0  0  0  0  0  0  0  0  0  0
  147.0569  137.6610  153.7402 H   0  0  0  0  0  0  0  0  0  0  0  0
  146.8862  138.8346  152.4521 H   0  0  0  0  0  0  0  0  0  0  0  0
  149.0013  137.7753  152.7938 H   0  0  0  0  0  0  0  0  0  0  0  0
  146.8507  141.8740  154.6208 H   0  0  0  0  0  0  0  0  0  0  0  0
  148.0384  141.1512  152.1959 H   0  0  0  0  0  0  0  0  0  0  0  0
  149.1323  142.2895  154.8825 H   0  0  0  0  0  0  0  0  0  0  0  0
  149.4366  140.2733  152.9997 H   0  0  0  0  0  0  0  0  0  0  0  0
  149.1247  137.6159  155.7069 H   0  0  0  0  0  0  0  0  0  0  0  0
  1  2  2  0  0  0  0
  2 17  1  0  0  0  0
  2  3  1  0  0  0  0
  3  4  1  0  0  0  0
  4  5  2  0  0  0  0
  4  6  1  0  0  0  0
  6  7  1  0  0  0  0
  6 16  1  0  0  0  0
  7 14  1  0  0  0  0
  7  8  1  0  0  0  0
  7 19  1  0  0  0  0
  8  9  1  0  0  0  0
  9 10  1  0  0  0  0
  9 12  1  0  0  0  0
  9 20  1  0  0  0  0
 10 11  1  0  0  0  0
 10 21  1  0  0  0  0
 10 22  1  0  0  0  0
 11 23  1  0  0  0  0
 12 13  1  0  0  0  0
 12 14  1  0  0  0  0
 12 24  1  0  0  0  0
 13 25  1  0  0  0  0
 14 15  1  0  0  0  0
 14 26  1  0  0  0  0
 15 27  1  0  0  0  0
 16 17  2  0  0  0  0
 16 28  1  0  0  0  0
 17 18  1  0  0  0  0
M  CHG  1   3  -1
M  END
> <s_m_source_file>
AV-unprocessed.smi

> <i_m_source_file_index>
35

> <i_lp_mmshare_version>
43012

> <i_f3d_flags>
0

> <s_epik_input>
Tz1jMVtuSF1jKD1PKW4oW2NIXWMxQnIpW0NAQEhdMk9bQ0BASF0oW0NIMl1bT0hdKVtDQEBIXShbT0hdKVtDQEhdMltPSF0=

> <s_epik_cmdline>
J2VwaWtfcHl0aG9uJywgJy1waCcsICc3LjAnLCAnLXRuJywgJzgnLCAnLW1hJywgJzIwMCcsICctbWV0YWxfYmluZGluZycsICctaW1hZScsICc8aW5maWxlLm1hZT4nLCAnLW9tYWUnLCAnPG91dGZpbGUubWFlPic=

> <r_epik_Ionization_Penalty>
1.06112

> <r_epik_Ionization_Penalty_Charging>
2.1796e-09

> <r_epik_Ionization_Penalty_Neutral>
1.06112

> <r_epik_State_Penalty>
1.11484

> <r_epik_Charging_Adjusted_Penalty>
1.11484

> <i_epik_Tot_Q>
-1

> <i_epik_Tot_abs_Q>
1

> <r_epik_Metal_State_Penalty>
0.0032876

> <b_epik_Metal_Only>
0

> <s_epik_Chemistry_Notes>
This compound contains an acetal/aminal-like group ( X-CH(R)-Y where X, Y are N, S, or O) that may be acid/base labile, releasing an aldehyde.

> <s_lp_Force_Field>
OPLS_2005

> <r_lp_Energy>
49.5496

> <b_lp_Chiralities_Consistent>
1

> <s_lp_Variant>
AV-unprocessed.smi:35-31

> <Gold.Version>
5.8.1

> <Gold.Id.Protein>
6NUR|6NUR_protein|mol2

> <Gold.PLP.Fitness>
37.6593

> <Gold.PLP.PLP>
-19.6699

> <Gold.PLP.part.hbond>
-7.0512

> <Gold.PLP.part.metal>
0.0000

> <Gold.PLP.part.buried>
2.2654

> <Gold.PLP.part.nonpolar>
-14.2103

> <Gold.PLP.part.repulsive>
0.0416

> <Gold.PLP.ligand.clash>
0.0000

> <Gold.PLP.ligand.torsion>
0.0364

> <Gold.PLP.Chemscore.Hbond>
6.0193

> <Gold.PLP.Chemscore.CHOScore>
0.0000

> <Gold.PLP.Chemscore.Metal>
0.0000

> <Gold.Chemscore.Hbonds>
donor molecule, donor type, donor heavy atom, donor atom, acceptor molecule, acceptor atom, score
      L1  H    11    23       P1  7948  1.00
      L1  H    13    25       P1  7957  0.68
      L1  H    15    27       P1  7957  0.62
      P1  H  7989  7998       L1    15  0.35
      P1  H  7997  8008       L1     3  2.00
      P1  H  8011  8017       L1    15  0.75
      P1  H 10752 10765       L1     1  0.19

> <Gold.PLP.Chemscore.Internal.Correction>
0.0043

> <Gold.Rescore>
     Score         DG    S(hbond)    S(metal)    S(lipo)     H(rot)  DE(clash)    DE(int)     intcor
     11.60     -15.87       4.61        0.00      36.44       3.63       2.05       2.22       ----

> <Gold.Chemscore.Fitness>
11.6005

> <Gold.Chemscore.DG>
-15.8721

> <Gold.Chemscore.ZeroCoef>
-5.4800

> <Gold.Chemscore.Hbond>
4.6141

> <Gold.Chemscore.Metal>
0.0000

> <Gold.Chemscore.Lipo>
36.4418

> <Gold.Chemscore.Internal_Hbond>
0.0000

> <Gold.Chemscore.DEClash>
2.0501

> <Gold.Chemscore.DEInternal>
2.2214

> <Gold.Chemscore.Rot>
3.6261

> <Gold.Chemscore.Internal.Correction>
   9.000000E+99

> <Gold.Chemscore.Hbonds>
donor molecule, donor type, donor heavy atom, donor atom, acceptor molecule, acceptor atom, score
      L1  H    11    23       P1  7948  1.00
      L1  H    13    25       P1  7957  0.69
      L1  H    15    27       P1  7957  0.62
      P1  H  7989  7998       L1    15  0.31
      P1  H  7997  8008       L1     3  0.69
      P1  H  8011  8017       L1    15  0.03
      P1  H 10752 10765       L1     1  0.17

> <Gold.Chemscore.Hbond.Weighted>
-15.4112

> <Gold.Chemscore.Metal.Weighted>
-0.0000

> <Gold.Chemscore.Lipo.Weighted>
-4.2637

> <Gold.Chemscore.Internal_Hbond.Weighted>
0.0000

> <Gold.Chemscore.DEClash.Weighted>
2.0501

> <Gold.Chemscore.DEInternal.Weighted>
2.2214

> <Gold.Chemscore.Rot.Weighted>
9.2828

> <Gold.Chemscore.Internal.Correction.Weighted>
   9.000000E+99

> <Gold.Protein.RotatedTorsions>
[ 6907 6896 6895 6894 ] final  -54.62 input  -60.11 | X-H torsion
[ 7974 7965 7964 7962 ] final  146.46 input  175.53 | X-H torsion
[ 8008 7997 7996 7995 ] final  -40.18 input   59.86 | X-H torsion
[ 10167 10162 10161 10158 ] final  170.93 input  -65.29 | X-H torsion
[ 10718 10713 10712 10709 ] final   75.48 input   66.30 | X-H torsion
[ 10763 10752 10751 10750 ] final -124.44 input  -60.55 | X-H torsion
[ 11005 11000 10999 10996 ] final   77.51 input  -57.11 | X-H torsion

> <Gold.Protein.ActiveResidues>
 VAL166  LYS551  ARG553  GLY616  TRP617  ASP618  TYR619  PRO620  LYS621  CYS622 
 ASP623  PHE694  ASN695  SER759  ASP760  ASP761  ALA762  ILE779  LEU786  VAL792 
 PHE793  MET794  SER795  GLU796  ALA797  LYS798  CYS799  TRP800  GLU811  SER814 

> <Gold.Protein.RotatedAtoms>
  150.8322  134.7580  159.6862 H   0  0  0  0  0  0  0  0  0  0  0  0  # atno 6907 bound_to 6896
  152.4424  134.5560  159.9890 H   0  0  0  0  0  0  0  0  0  0  0  0  # atno 6908 bound_to 6896
  151.5718  133.3351  159.3027 H   0  0  0  0  0  0  0  0  0  0  0  0  # atno 6909 bound_to 6896
  144.8670  139.5907  143.5904 H   0  0  0  0  0  0  0  0  0  0  0  0  # atno 7974 bound_to 7965
  154.4015  140.1532  156.2985 H   0  0  0  0  0  0  0  0  0  0  0  0  # atno 8008 bound_to 7997
  155.8722  140.3448  155.5807 H   0  0  0  0  0  0  0  0  0  0  0  0  # atno 8009 bound_to 7997
  155.7762  140.0837  157.2073 H   0  0  0  0  0  0  0  0  0  0  0  0  # atno 8010 bound_to 7997
  139.5032  144.3542  151.9891 H   0  0  0  0  0  0  0  0  0  0  0  0  # atno 10167 bound_to 10162
  157.6635  130.9728  150.1359 H   0  0  0  0  0  0  0  0  0  0  0  0  # atno 10718 bound_to 10713
  154.8723  135.4064  154.3106 H   0  0  0  0  0  0  0  0  0  0  0  0  # atno 10763 bound_to 10752
  153.3950  135.7016  153.6472 H   0  0  0  0  0  0  0  0  0  0  0  0  # atno 10764 bound_to 10752
  153.5239  135.3681  155.2616 H   0  0  0  0  0  0  0  0  0  0  0  0  # atno 10765 bound_to 10752
  139.9251  134.7689  156.1531 H   0  0  0  0  0  0  0  0  0  0  0  0  # atno 11005 bound_to 11000
  146.2902  139.7119  142.9166 LP  0  0  0  0  0  0  0  0  0  0  0  0  # atno 17320 bound_to 7965
  145.4203  141.0406  143.2967 LP  0  0  0  0  0  0  0  0  0  0  0  0  # atno 17321 bound_to 7965
  140.2979  144.3680  150.6069 LP  0  0  0  0  0  0  0  0  0  0  0  0  # atno 17342 bound_to 10162
  140.5896  143.2168  151.7277 LP  0  0  0  0  0  0  0  0  0  0  0  0  # atno 17343 bound_to 10162
  156.2194  130.3673  149.8574 LP  0  0  0  0  0  0  0  0  0  0  0  0  # atno 17370 bound_to 10713
  156.6431  130.8713  151.3517 LP  0  0  0  0  0  0  0  0  0  0  0  0  # atno 17371 bound_to 10713
  141.0803  133.6757  156.2322 LP  0  0  0  0  0  0  0  0  0  0  0  0  # atno 17394 bound_to 11000
  140.6359  134.5216  157.5564 LP  0  0  0  0  0  0  0  0  0  0  0  0  # atno 17395 bound_to 11000

$$$$
