#       Name:                AV-unprocessed.smi:3078
#       Creating user name   scv26
#       Creation time:       Fri Mar 27 17:13:01 2020


#       File generated by GOLD software.
#

@<TRIPOS>MOLECULE
AV-unprocessed.smi:3078
    25    25     1
SMALL
NO_CHARGES


@<TRIPOS>ATOM
      1 ****        -3.7679  -0.7665   0.1914 C.3            1 S1                 0.0000
      2 ****        -2.4969  -0.0741   0.1911 N.pl3          1 S1                 0.0000
      3 ****        -1.2280  -0.6027   0.2874 C.2            1 S1                 0.0000
      4 ****        -0.3429   0.4398   0.2454 C.2            1 S1                 0.0000
      5 ****         1.1622   0.4186   0.3000 C.3            1 S1                 0.0000
      6 ****         1.6192  -0.3909   1.4156 N.3            1 S1                 0.0000
      7 ****         1.7463  -0.1552  -1.0035 C.3            1 S1                 0.0000
      8 ****         3.2103  -0.0025  -1.0611 N.4            1 S1                 1.0000
      9 ****        -1.1871   1.5799   0.1149 C.2            1 S1                 0.0000
     10 ****        -2.4725   1.2698   0.0852 N.2            1 S1                 0.0000
     11 ****        -3.6070  -1.8448   0.2009 H              1 S1                 0.0000
     12 ****        -4.3343  -0.5010  -0.7019 H              1 S1                 0.0000
     13 ****        -4.3403  -0.4850   1.0757 H              1 S1                 0.0000
     14 ****        -1.0601  -1.6661   0.3757 H              1 S1                 0.0000
     15 ****         1.5433   1.4300   0.4482 H              1 S1                 0.0000
     16 ****         2.1895   0.1689   2.0340 H              1 S1                 0.0000
     17 ****         0.8242  -0.6952   1.9603 H              1 S1                 0.0000
     18 ****         1.4855  -1.2082  -1.1213 H              1 S1                 0.0000
     19 ****         1.3277   0.3725  -1.8614 H              1 S1                 0.0000
     20 ****         3.5561  -0.3848  -1.9295 H              1 S1                 0.0000
     21 ****         3.6253  -0.4981  -0.2849 H              1 S1                 0.0000
     22 ****        -0.9040   2.6196   0.0411 H              1 S1                 0.0000
     23 ****         3.4504   0.9767  -1.0030 H              1 S1                 0.0000
     24 ****         2.1332  -1.1666   1.0492 LP             1 S1                 0.0000
     25 ****        -3.2510   1.8920   0.0027 LP             1 S1                 0.0000
@<TRIPOS>BOND
    1    1    2 1     
    2    1   11 1     
    3    1   12 1     
    4    1   13 1     
    5    2   10 1     
    6    2    3 1     
    7    3    4 2     
    8    3   14 1     
    9    4    5 1     
   10    4    9 1     
   11    5    6 1     
   12    5    7 1     
   13    5   15 1     
   14    6   16 1     
   15    6   17 1     
   16    7    8 1     
   17    7   18 1     
   18    7   19 1     
   19    8   20 1     
   20    8   21 1     
   21    8   23 1     
   22    9   10 2     
   23    9   22 1     
   24    6   24 1     
   25   10   25 1     
@<TRIPOS>SUBSTRUCTURE
      1 S1             1
@<TRIPOS>SET
LONE_PAIRS      STATIC     ATOMS    <user>   **** ""
2 24 25
DONOR_HYDROGENS      STATIC     ATOMS    <user>   **** ""
5 16 17 20 21 23
ATOM$BLUE        STATIC     ATOMS    COLORGROUP SYSTEM
2 24 25
ATOM$RED        STATIC     ATOMS    COLORGROUP SYSTEM
5 16 17 20 21 23
