AV-unprocessed.smi:3335|AV-procd|sdf|12851|dock4
  -GOLD-   2272019243D 1   1.00000     0.00000
 Structure written by MMmdl.
 46 47  0  0  0  0  0  0  0  0  1 V2000
  146.3889  132.7870  150.8204 C   0  0  0  0  0  0  0  0  0  0  0  0
  146.9578  133.1238  152.1680 C   0  0  0  0  0  0  0  0  0  0  0  0
  146.4519  134.0442  153.1286 C   0  0  0  0  0  0  0  0  0  0  0  0
  147.2179  134.1386  154.2027 N   0  0  0  0  0  0  0  0  0  0  0  0
  148.2247  133.2633  153.9825 N   0  0  0  0  0  0  0  0  0  0  0  0
  149.3184  133.1268  154.9414 C   0  0  2  0  0  0  0  0  0  0  0  0
  149.4664  131.6585  155.3884 C   0  0  0  0  0  0  0  0  0  0  0  0
  149.1651  134.1120  156.1359 C   0  0  1  0  0  0  0  0  0  0  0  0
  149.2879  135.5862  155.7149 C   0  0  0  0  0  0  0  0  0  0  0  0
  147.8360  133.9633  156.7283 N   0  0  0  0  0  0  0  0  0  0  0  0
  147.8572  133.4797  158.1207 C   0  0  1  0  0  0  0  0  0  0  0  0
  148.8174  132.2843  158.2573 C   0  0  0  0  0  0  0  0  0  0  0  0
  148.2691  134.6117  159.0834 C   0  0  0  0  0  0  0  0  0  0  0  0
  149.1507  135.4015  158.7392 O   0  0  0  0  0  0  0  0  0  0  0  0
  147.6436  134.7253  160.2761 N   0  0  0  0  0  0  0  0  0  0  0  0
  146.6289  133.7800  160.7395 C   0  0  0  0  0  0  0  0  0  0  0  0
  146.3801  134.1221  162.2084 C   0  0  0  0  0  0  0  0  0  0  0  0
  146.7449  135.5954  162.3101 C   0  0  0  0  0  0  0  0  0  0  0  0
  147.8534  135.7754  161.2737 C   0  0  0  0  0  0  0  0  0  0  0  0
  148.0880  132.6378  152.7602 C   0  0  0  0  0  0  0  0  0  0  0  0
  145.6188  133.4963  150.5166 H   0  0  0  0  0  0  0  0  0  0  0  0
  145.9369  131.7952  150.8110 H   0  0  0  0  0  0  0  0  0  0  0  0
  147.1572  132.8000  150.0469 H   0  0  0  0  0  0  0  0  0  0  0  0
  145.5669  134.6599  153.0669 H   0  0  0  0  0  0  0  0  0  0  0  0
  150.2323  133.3875  154.4050 H   0  0  0  0  0  0  0  0  0  0  0  0
  150.3922  131.4989  155.9404 H   0  0  0  0  0  0  0  0  0  0  0  0
  149.4907  130.9889  154.5280 H   0  0  0  0  0  0  0  0  0  0  0  0
  148.6403  131.3480  156.0288 H   0  0  0  0  0  0  0  0  0  0  0  0
  149.9449  133.9157  156.8739 H   0  0  0  0  0  0  0  0  0  0  0  0
  150.2863  135.8153  155.3433 H   0  0  0  0  0  0  0  0  0  0  0  0
  149.1058  136.2517  156.5596 H   0  0  0  0  0  0  0  0  0  0  0  0
  148.5728  135.8407  154.9316 H   0  0  0  0  0  0  0  0  0  0  0  0
  147.2913  133.3519  156.1371 H   0  0  0  0  0  0  0  0  0  0  0  0
  146.8515  133.1583  158.3867 H   0  0  0  0  0  0  0  0  0  0  0  0
  148.8664  131.9244  159.2852 H   0  0  0  0  0  0  0  0  0  0  0  0
  149.8303  132.5511  157.9530 H   0  0  0  0  0  0  0  0  0  0  0  0
  148.4981  131.4461  157.6379 H   0  0  0  0  0  0  0  0  0  0  0  0
  145.7193  133.9200  160.1537 H   0  0  0  0  0  0  0  0  0  0  0  0
  146.9507  132.7436  160.6252 H   0  0  0  0  0  0  0  0  0  0  0  0
  145.3570  133.9156  162.5242 H   0  0  0  0  0  0  0  0  0  0  0  0
  147.0498  133.5370  162.8401 H   0  0  0  0  0  0  0  0  0  0  0  0
  145.8829  136.2045  162.0344 H   0  0  0  0  0  0  0  0  0  0  0  0
  147.0539  135.8870  163.3143 H   0  0  0  0  0  0  0  0  0  0  0  0
  148.8272  135.6365  161.7421 H   0  0  0  0  0  0  0  0  0  0  0  0
  147.8231  136.7748  160.8390 H   0  0  0  0  0  0  0  0  0  0  0  0
  148.8130  131.9198  152.4059 H   0  0  0  0  0  0  0  0  0  0  0  0
  1  2  1  0  0  0  0
  1 21  1  0  0  0  0
  1 22  1  0  0  0  0
  1 23  1  0  0  0  0
  2 20  2  0  0  0  0
  2  3  1  0  0  0  0
  3  4  2  0  0  0  0
  3 24  1  0  0  0  0
  4  5  1  0  0  0  0
  5  6  1  0  0  0  0
  5 20  1  0  0  0  0
  6  7  1  0  0  0  0
  6  8  1  0  0  0  0
  6 25  1  0  0  0  0
  7 26  1  0  0  0  0
  7 27  1  0  0  0  0
  7 28  1  0  0  0  0
  8  9  1  0  0  0  0
  8 10  1  0  0  0  0
  8 29  1  0  0  0  0
  9 30  1  0  0  0  0
  9 31  1  0  0  0  0
  9 32  1  0  0  0  0
 10 11  1  0  0  0  0
 10 33  1  0  0  0  0
 11 12  1  0  0  0  0
 11 13  1  0  0  0  0
 11 34  1  0  0  0  0
 12 35  1  0  0  0  0
 12 36  1  0  0  0  0
 12 37  1  0  0  0  0
 13 14  2  0  0  0  0
 13 15  1  0  0  0  0
 15 19  1  0  0  0  0
 15 16  1  0  0  0  0
 16 17  1  0  0  0  0
 16 38  1  0  0  0  0
 16 39  1  0  0  0  0
 17 18  1  0  0  0  0
 17 40  1  0  0  0  0
 17 41  1  0  0  0  0
 18 19  1  0  0  0  0
 18 42  1  0  0  0  0
 18 43  1  0  0  0  0
 19 44  1  0  0  0  0
 19 45  1  0  0  0  0
 20 46  1  0  0  0  0
M  END
> <s_m_source_file>
AV-unprocessed.smi

> <i_m_source_file_index>
3335

> <i_lp_mmshare_version>
43012

> <i_f3d_flags>
0

> <s_epik_input>
W0NIM11jMVtjSF1ubihbY0hdMSlbQ0BIXShbQ0gzXSlbQ0BIXShbQ0gzXSlbTkhdW0NASF0oW0NIM10pQyg9TylOMltDSDJdW0NIMl1bQ0gyXVtDSDJdMg==

> <s_epik_cmdline>
J2VwaWtfcHl0aG9uJywgJy1waCcsICc3LjAnLCAnLXRuJywgJzgnLCAnLW1hJywgJzIwMCcsICctbWV0YWxfYmluZGluZycsICctaW1hZScsICc8aW5maWxlLm1hZT4nLCAnLW9tYWUnLCAnPG91dGZpbGUubWFlPic=

> <r_lp_tautomer_probability>
1

> <r_epik_Ionization_Penalty>
0.918803

> <r_epik_Ionization_Penalty_Charging>
0

> <r_epik_Ionization_Penalty_Neutral>
0.918803

> <r_epik_State_Penalty>
0.958258

> <r_epik_Charging_Adjusted_Penalty>
0.958258

> <i_epik_Tot_Q>
0

> <i_epik_Tot_abs_Q>
0

> <r_epik_Metal_State_Penalty>
0.956786

> <b_epik_Metal_Only>
0

> <s_lp_Force_Field>
OPLS_2005

> <r_lp_Energy>
36.8756

> <b_lp_Chiralities_Consistent>
1

> <s_lp_Variant>
AV-unprocessed.smi:3335-15

> <Gold.Version>
5.8.1

> <Gold.Id.Protein>
6NUR|6NUR_protein|mol2

> <Gold.PLP.Fitness>
35.5888

> <Gold.PLP.PLP>
-32.6400

> <Gold.PLP.part.hbond>
-1.0000

> <Gold.PLP.part.metal>
0.0000

> <Gold.PLP.part.buried>
-3.1145

> <Gold.PLP.part.nonpolar>
-29.7660

> <Gold.PLP.part.repulsive>
0.0843

> <Gold.PLP.ligand.clash>
0.0000

> <Gold.PLP.ligand.torsion>
1.5957

> <Gold.PLP.Chemscore.Hbond>
1.0000

> <Gold.PLP.Chemscore.CHOScore>
1.0000

> <Gold.PLP.Chemscore.Metal>
0.0000

> <Gold.Chemscore.Hbonds>
donor molecule, donor type, donor heavy atom, donor atom, acceptor molecule, acceptor atom, score
      P1  H  6896  6908       L1    14  1.00
      L1  C    20    46       P1 10747  1.00

> <Gold.PLP.Chemscore.Internal.Correction>
0.1402

> <Gold.Rescore>
     Score         DG    S(hbond)    S(metal)    S(lipo)     H(rot)  DE(clash)    DE(int)     intcor
     11.20     -12.97       0.96        0.00      72.10       1.62       0.03       1.73       ----

> <Gold.Chemscore.Fitness>
11.2033

> <Gold.Chemscore.DG>
-12.9682

> <Gold.Chemscore.ZeroCoef>
-5.4800

> <Gold.Chemscore.Hbond>
0.9583

> <Gold.Chemscore.Metal>
0.0000

> <Gold.Chemscore.Lipo>
72.0993

> <Gold.Chemscore.Internal_Hbond>
0.0000

> <Gold.Chemscore.DEClash>
0.0318

> <Gold.Chemscore.DEInternal>
1.7331

> <Gold.Chemscore.Rot>
1.6204

> <Gold.Chemscore.Internal.Correction>
   9.000000E+99

> <Gold.Chemscore.Hbonds>
donor molecule, donor type, donor heavy atom, donor atom, acceptor molecule, acceptor atom, score
      P1  H  6896  6908       L1    14  0.51

> <Gold.Chemscore.Hbond.Weighted>
-3.2008

> <Gold.Chemscore.Metal.Weighted>
-0.0000

> <Gold.Chemscore.Lipo.Weighted>
-8.4356

> <Gold.Chemscore.Internal_Hbond.Weighted>
0.0000

> <Gold.Chemscore.DEClash.Weighted>
0.0318

> <Gold.Chemscore.DEInternal.Weighted>
1.7331

> <Gold.Chemscore.Rot.Weighted>
4.1482

> <Gold.Chemscore.Internal.Correction.Weighted>
   9.000000E+99

> <Gold.Protein.RotatedTorsions>
[ 6907 6896 6895 6894 ] final -171.03 input  -60.11 | X-H torsion
[ 7974 7965 7964 7962 ] final   50.70 input  175.53 | X-H torsion
[ 8008 7997 7996 7995 ] final   79.50 input   59.86 | X-H torsion
[ 10167 10162 10161 10158 ] final    4.30 input  -65.29 | X-H torsion
[ 10718 10713 10712 10709 ] final   -0.80 input   66.30 | X-H torsion
[ 10763 10752 10751 10750 ] final  147.82 input  -60.55 | X-H torsion
[ 11005 11000 10999 10996 ] final -130.77 input  -57.11 | X-H torsion

> <Gold.Protein.ActiveResidues>
 VAL166  LYS551  ARG553  GLY616  TRP617  ASP618  TYR619  PRO620  LYS621  CYS622 
 ASP623  PHE694  ASN695  SER759  ASP760  ASP761  ALA762  ILE779  LEU786  VAL792 
 PHE793  MET794  SER795  GLU796  ALA797  LYS798  CYS799  TRP800  GLU811  SER814 

> <Gold.Protein.RotatedAtoms>
  151.5173  133.3473  159.2894 H   0  0  0  0  0  0  0  0  0  0  0  0  # atno 6907 bound_to 6896
  150.8674  134.8043  159.7140 H   0  0  0  0  0  0  0  0  0  0  0  0  # atno 6908 bound_to 6896
  152.4674  134.5052  159.9788 H   0  0  0  0  0  0  0  0  0  0  0  0  # atno 6909 bound_to 6896
  145.9986  139.4414  143.0029 H   0  0  0  0  0  0  0  0  0  0  0  0  # atno 7974 bound_to 7965
  155.8705  140.3449  155.5818 H   0  0  0  0  0  0  0  0  0  0  0  0  # atno 8008 bound_to 7997
  155.7833  140.0861  157.2067 H   0  0  0  0  0  0  0  0  0  0  0  0  # atno 8009 bound_to 7997
  154.4017  140.1497  156.3064 H   0  0  0  0  0  0  0  0  0  0  0  0  # atno 8010 bound_to 7997
  140.6542  143.7469  150.7625 H   0  0  0  0  0  0  0  0  0  0  0  0  # atno 10167 bound_to 10162
  156.8151  130.5437  149.5704 H   0  0  0  0  0  0  0  0  0  0  0  0  # atno 10718 bound_to 10713
  154.0447  135.2886  155.3350 H   0  0  0  0  0  0  0  0  0  0  0  0  # atno 10763 bound_to 10752
  154.6907  135.5227  153.8391 H   0  0  0  0  0  0  0  0  0  0  0  0  # atno 10764 bound_to 10752
  153.0585  135.6605  154.0648 H   0  0  0  0  0  0  0  0  0  0  0  0  # atno 10765 bound_to 10752
  140.9316  134.1311  157.4229 H   0  0  0  0  0  0  0  0  0  0  0  0  # atno 11005 bound_to 11000
  145.7522  140.9968  143.1244 LP  0  0  0  0  0  0  0  0  0  0  0  0  # atno 17320 bound_to 7965
  144.6912  139.9228  143.7468 LP  0  0  0  0  0  0  0  0  0  0  0  0  # atno 17321 bound_to 7965
  140.1126  143.4685  152.2361 LP  0  0  0  0  0  0  0  0  0  0  0  0  # atno 17342 bound_to 10162
  139.5761  144.7488  151.3760 LP  0  0  0  0  0  0  0  0  0  0  0  0  # atno 17343 bound_to 10162
  156.1021  130.5977  150.9912 LP  0  0  0  0  0  0  0  0  0  0  0  0  # atno 17370 bound_to 10713
  157.6486  131.0900  150.8100 LP  0  0  0  0  0  0  0  0  0  0  0  0  # atno 17371 bound_to 10713
  139.8798  135.0007  156.6025 LP  0  0  0  0  0  0  0  0  0  0  0  0  # atno 17394 bound_to 11000
  140.7854  133.8625  155.8602 LP  0  0  0  0  0  0  0  0  0  0  0  0  # atno 17395 bound_to 11000

$$$$
