AV-unprocessed.smi:583|AV-procd|sdf|2998|dock8
  -GOLD-   2262023503D 1   1.00000     0.00000
 Structure written by MMmdl.
 35 36  0  0  0  0  0  0  0  0  1 V2000
  149.6515  139.7955  157.5173 O   0  0  0  0  0  0  0  0  0  0  0  0
  150.7528  139.7961  156.9653 C   0  0  0  0  0  0  0  0  0  0  0  0
  151.5934  141.0784  156.8801 C   0  0  0  0  0  0  0  0  0  0  0  0
  152.0814  141.5480  158.1880 N   0  0  0  0  0  0  0  0  0  0  0  0
  151.6111  142.7976  158.6377 C   0  0  0  0  0  0  0  0  0  0  0  0
  151.9680  143.3327  159.8213 C   0  0  0  0  0  0  0  0  0  0  0  0
  151.4856  144.7079  160.2560 C   0  0  0  0  0  0  0  0  0  0  0  0
  151.9532  145.0206  161.4647 F   0  0  0  0  0  0  0  0  0  0  0  0
  151.8794  145.6499  159.3978 F   0  0  0  0  0  0  0  0  0  0  0  0
  150.1544  144.7250  160.3084 F   0  0  0  0  0  0  0  0  0  0  0  0
  152.9052  142.5666  160.6191 C   0  0  0  0  0  0  0  0  0  0  0  0
  153.3695  141.3727  160.2012 C   0  0  0  0  0  0  0  0  0  0  0  0
  152.9536  140.7935  158.9219 C   0  0  0  0  0  0  0  0  0  0  0  0
  153.3638  139.6994  158.5332 O   0  0  0  0  0  0  0  0  0  0  0  0
  151.2862  138.7067  156.3920 N   0  0  0  0  0  0  0  0  0  0  0  0
  150.6630  137.3874  156.3560 C   0  0  1  0  0  0  0  0  0  0  0  0
  150.7150  136.7547  154.9499 C   0  0  0  0  0  0  0  0  0  0  0  0
  150.3958  135.2595  155.0705 C   0  0  0  0  0  0  0  0  0  0  0  0
  150.9931  134.7418  156.7245 S   0  0  0  0  0  0  0  0  0  0  0  0
  149.8641  134.1863  157.4858 O   0  0  0  0  0  0  0  0  0  0  0  0
  152.2522  133.9948  156.5835 O   0  0  0  0  0  0  0  0  0  0  0  0
  151.3639  136.4308  157.3303 C   0  0  0  0  0  0  0  0  0  0  0  0
  152.4344  140.9136  156.2040 H   0  0  0  0  0  0  0  0  0  0  0  0
  150.9892  141.8484  156.3984 H   0  0  0  0  0  0  0  0  0  0  0  0
  150.9351  143.2953  157.9575 H   0  0  0  0  0  0  0  0  0  0  0  0
  153.2373  142.9537  161.5712 H   0  0  0  0  0  0  0  0  0  0  0  0
  154.0642  140.8277  160.8233 H   0  0  0  0  0  0  0  0  0  0  0  0
  152.1921  138.7968  155.9552 H   0  0  0  0  0  0  0  0  0  0  0  0
  149.6176  137.4699  156.6600 H   0  0  0  0  0  0  0  0  0  0  0  0
  150.0374  137.2504  154.2540 H   0  0  0  0  0  0  0  0  0  0  0  0
  151.7220  136.8642  154.5450 H   0  0  0  0  0  0  0  0  0  0  0  0
  149.3194  135.0897  155.0348 H   0  0  0  0  0  0  0  0  0  0  0  0
  150.8689  134.6597  154.2927 H   0  0  0  0  0  0  0  0  0  0  0  0
  152.4464  136.5604  157.3044 H   0  0  0  0  0  0  0  0  0  0  0  0
  151.0239  136.5443  158.3599 H   0  0  0  0  0  0  0  0  0  0  0  0
  1  2  2  0  0  0  0
  2  3  1  0  0  0  0
  2 15  1  0  0  0  0
  3  4  1  0  0  0  0
  3 23  1  0  0  0  0
  3 24  1  0  0  0  0
  4 13  1  0  0  0  0
  4  5  1  0  0  0  0
  5  6  2  0  0  0  0
  5 25  1  0  0  0  0
  6  7  1  0  0  0  0
  6 11  1  0  0  0  0
  7  8  1  0  0  0  0
  7  9  1  0  0  0  0
  7 10  1  0  0  0  0
 11 12  2  0  0  0  0
 11 26  1  0  0  0  0
 12 13  1  0  0  0  0
 12 27  1  0  0  0  0
 13 14  2  0  0  0  0
 15 16  1  0  0  0  0
 15 28  1  0  0  0  0
 16 22  1  0  0  0  0
 16 17  1  0  0  0  0
 16 29  1  0  0  0  0
 17 18  1  0  0  0  0
 17 30  1  0  0  0  0
 17 31  1  0  0  0  0
 18 19  1  0  0  0  0
 18 32  1  0  0  0  0
 18 33  1  0  0  0  0
 19 20  2  0  0  0  0
 19 21  2  0  0  0  0
 19 22  1  0  0  0  0
 22 34  1  0  0  0  0
 22 35  1  0  0  0  0
M  END
> <s_m_source_file>
AV-unprocessed.smi

> <i_m_source_file_index>
583

> <i_lp_mmshare_version>
43012

> <i_f3d_flags>
0

> <s_epik_input>
Tz1TMSg9TylbQ0gyXVtDSDJdW0NASF0oW0NIMl0xKVtOSF1DKD1PKVtDSDJdbjJbY0hdYyhDKEYpKEYpRilbY0hdW2NIXWMyPU8=

> <s_epik_cmdline>
J2VwaWtfcHl0aG9uJywgJy1waCcsICc3LjAnLCAnLXRuJywgJzgnLCAnLW1hJywgJzIwMCcsICctbWV0YWxfYmluZGluZycsICctaW1hZScsICc8aW5maWxlLm1hZT4nLCAnLW9tYWUnLCAnPG91dGZpbGUubWFlPic=

> <r_lp_tautomer_probability>
1

> <r_epik_Ionization_Penalty>
1.22016e-07

> <r_epik_Ionization_Penalty_Charging>
1.48237e-08

> <r_epik_Ionization_Penalty_Neutral>
1.07193e-07

> <r_epik_State_Penalty>
-0

> <r_epik_Charging_Adjusted_Penalty>
1.48237e-08

> <i_epik_Tot_Q>
0

> <i_epik_Tot_abs_Q>
0

> <r_epik_Metal_State_Penalty>
-0

> <b_epik_Metal_Only>
0

> <s_lp_Force_Field>
OPLS_2005

> <r_lp_Energy>
16.0517

> <b_lp_Chiralities_Consistent>
1

> <s_lp_Variant>
AV-unprocessed.smi:583-2

> <Gold.Version>
5.8.1

> <Gold.Id.Protein>
6NUR|6NUR_protein|mol2

> <Gold.PLP.Fitness>
43.1967

> <Gold.PLP.PLP>
-36.5762

> <Gold.PLP.part.hbond>
-3.0000

> <Gold.PLP.part.metal>
0.0000

> <Gold.PLP.part.buried>
0.6732

> <Gold.PLP.part.nonpolar>
-34.2263

> <Gold.PLP.part.repulsive>
0.0594

> <Gold.PLP.ligand.clash>
0.0000

> <Gold.PLP.ligand.torsion>
0.2457

> <Gold.PLP.Chemscore.Hbond>
2.3560

> <Gold.PLP.Chemscore.CHOScore>
0.0000

> <Gold.PLP.Chemscore.Metal>
0.0000

> <Gold.Chemscore.Hbonds>
donor molecule, donor type, donor heavy atom, donor atom, acceptor molecule, acceptor atom, score
      P1  H  6896  6907       L1    20  0.99
      P1  H  7997  8009       L1    14  1.00
      P1  H 10752 10763       L1    21  0.30

> <Gold.PLP.Chemscore.Internal.Correction>
0.0439

> <Gold.Rescore>
     Score         DG    S(hbond)    S(metal)    S(lipo)     H(rot)  DE(clash)    DE(int)     intcor
     14.68     -17.55       2.19        0.00      78.43       1.73       2.64       0.24       ----

> <Gold.Chemscore.Fitness>
14.6768

> <Gold.Chemscore.DG>
-17.5547

> <Gold.Chemscore.ZeroCoef>
-5.4800

> <Gold.Chemscore.Hbond>
2.1950

> <Gold.Chemscore.Metal>
0.0000

> <Gold.Chemscore.Lipo>
78.4262

> <Gold.Chemscore.Internal_Hbond>
0.0000

> <Gold.Chemscore.DEClash>
2.6408

> <Gold.Chemscore.DEInternal>
0.2371

> <Gold.Chemscore.Rot>
1.7314

> <Gold.Chemscore.Internal.Correction>
   9.000000E+99

> <Gold.Chemscore.Hbonds>
donor molecule, donor type, donor heavy atom, donor atom, acceptor molecule, acceptor atom, score
      P1  H  6896  6907       L1    20  0.23
      P1  H  7997  8009       L1    14  0.64
      P1  H 10752 10763       L1    21  0.07

> <Gold.Chemscore.Hbond.Weighted>
-7.3312

> <Gold.Chemscore.Metal.Weighted>
-0.0000

> <Gold.Chemscore.Lipo.Weighted>
-9.1759

> <Gold.Chemscore.Internal_Hbond.Weighted>
0.0000

> <Gold.Chemscore.DEClash.Weighted>
2.6408

> <Gold.Chemscore.DEInternal.Weighted>
0.2371

> <Gold.Chemscore.Rot.Weighted>
4.4324

> <Gold.Chemscore.Internal.Correction.Weighted>
   9.000000E+99

> <Gold.Protein.RotatedTorsions>
[ 6907 6896 6895 6894 ] final -110.15 input  -60.11 | X-H torsion
[ 7974 7965 7964 7962 ] final  -47.92 input  175.53 | X-H torsion
[ 8008 7997 7996 7995 ] final  142.85 input   59.86 | X-H torsion
[ 10167 10162 10161 10158 ] final -133.31 input  -65.29 | X-H torsion
[ 10718 10713 10712 10709 ] final  174.03 input   66.30 | X-H torsion
[ 10763 10752 10751 10750 ] final  103.39 input  -60.55 | X-H torsion
[ 11005 11000 10999 10996 ] final  164.89 input  -57.11 | X-H torsion

> <Gold.Protein.ActiveResidues>
 VAL166  LYS551  ARG553  GLY616  TRP617  ASP618  TYR619  PRO620  LYS621  CYS622 
 ASP623  PHE694  ASN695  SER759  ASP760  ASP761  ALA762  ILE779  LEU786  VAL792 
 PHE793  MET794  SER795  GLU796  ALA797  LYS798  CYS799  TRP800  GLU811  SER814 

> <Gold.Protein.RotatedAtoms>
  150.7606  133.9425  159.3460 H   0  0  0  0  0  0  0  0  0  0  0  0  # atno 6907 bound_to 6896
  151.7334  135.0868  160.0313 H   0  0  0  0  0  0  0  0  0  0  0  0  # atno 6908 bound_to 6896
  152.3575  133.6217  159.6026 H   0  0  0  0  0  0  0  0  0  0  0  0  # atno 6909 bound_to 6896
  145.9566  140.7520  142.9478 H   0  0  0  0  0  0  0  0  0  0  0  0  # atno 7974 bound_to 7965
  156.2942  140.2278  156.4794 H   0  0  0  0  0  0  0  0  0  0  0  0  # atno 8008 bound_to 7997
  154.7866  140.0457  157.1189 H   0  0  0  0  0  0  0  0  0  0  0  0  # atno 8009 bound_to 7997
  154.9695  140.3064  155.4997 H   0  0  0  0  0  0  0  0  0  0  0  0  # atno 8010 bound_to 7997
  139.8995  143.6624  152.2597 H   0  0  0  0  0  0  0  0  0  0  0  0  # atno 10167 bound_to 10162
  156.9556  131.0044  151.2939 H   0  0  0  0  0  0  0  0  0  0  0  0  # atno 10718 bound_to 10713
  153.3520  135.3978  155.1653 H   0  0  0  0  0  0  0  0  0  0  0  0  # atno 10763 bound_to 10752
  154.8664  135.3659  154.5209 H   0  0  0  0  0  0  0  0  0  0  0  0  # atno 10764 bound_to 10752
  153.5662  135.7080  153.5585 H   0  0  0  0  0  0  0  0  0  0  0  0  # atno 10765 bound_to 10752
  140.2505  134.7981  157.3497 H   0  0  0  0  0  0  0  0  0  0  0  0  # atno 11005 bound_to 11000
  144.6806  140.2522  143.7330 LP  0  0  0  0  0  0  0  0  0  0  0  0  # atno 17320 bound_to 7965
  145.8098  139.1998  143.2000 LP  0  0  0  0  0  0  0  0  0  0  0  0  # atno 17321 bound_to 7965
  139.7037  144.7631  151.1229 LP  0  0  0  0  0  0  0  0  0  0  0  0  # atno 17342 bound_to 10162
  140.7710  143.5423  150.9299 LP  0  0  0  0  0  0  0  0  0  0  0  0  # atno 17343 bound_to 10162
  157.5693  130.8299  149.8369 LP  0  0  0  0  0  0  0  0  0  0  0  0  # atno 17370 bound_to 10713
  156.0344  130.3755  150.1600 LP  0  0  0  0  0  0  0  0  0  0  0  0  # atno 17371 bound_to 10713
  140.1563  134.4785  155.7925 LP  0  0  0  0  0  0  0  0  0  0  0  0  # atno 17394 bound_to 11000
  141.2202  133.6883  156.7466 LP  0  0  0  0  0  0  0  0  0  0  0  0  # atno 17395 bound_to 11000

$$$$
