AV-unprocessed.smi:1866|AV-procd|sdf|7557|dock8
  -GOLD-   22720 9273D 1   1.00000     0.00000
 Structure written by MMmdl.
 30 31  0  0  0  0  0  0  0  0  1 V2000
  146.5539  142.6625  154.3642 C   0  0  0  0  0  0  0  0  0  0  0  0
  146.4408  141.1849  154.2040 C   0  0  0  0  0  0  0  0  0  0  0  0
  145.7550  140.4123  155.0556 N   0  0  0  0  0  0  0  0  0  0  0  0
  145.7956  139.0716  154.6989 N   0  0  0  0  0  0  0  0  0  0  0  0
  146.5127  138.8724  153.5843 C   0  0  0  0  0  0  0  0  0  0  0  0
  146.7186  137.5968  152.9952 N   0  0  0  0  0  0  0  0  0  0  0  0
  145.8835  136.5432  152.9747 C   0  0  0  0  0  0  0  0  0  0  0  0
  144.7645  136.5106  153.4874 O   0  0  0  0  0  0  0  0  0  0  0  0
  146.4259  135.5091  152.3158 N   0  0  0  0  0  0  0  0  0  0  0  0
  145.8072  134.1970  152.1377 C   0  0  1  0  0  0  0  0  0  0  0  0
  144.6168  134.2748  151.1626 C   0  0  0  0  0  0  0  0  0  0  0  0
  144.1133  132.8690  150.8225 C   0  0  0  0  0  0  0  0  0  0  0  0
  145.2458  132.0250  150.2160 C   0  0  0  0  0  0  0  0  0  0  0  0
  146.5034  132.1297  150.9572 N   0  0  0  0  0  0  0  0  0  0  0  0
  146.8564  133.1259  151.7887 C   0  0  0  0  0  0  0  0  0  0  0  0
  147.9764  133.1686  152.2955 O   0  0  0  0  0  0  0  0  0  0  0  0
  147.2003  140.3219  152.8721 S   0  0  0  0  0  0  0  0  0  0  0  0
  146.1450  142.9786  155.3244 H   0  0  0  0  0  0  0  0  0  0  0  0
  146.0061  143.1659  153.5675 H   0  0  0  0  0  0  0  0  0  0  0  0
  147.6003  142.9638  154.3152 H   0  0  0  0  0  0  0  0  0  0  0  0
  147.6089  137.4711  152.5369 H   0  0  0  0  0  0  0  0  0  0  0  0
  147.3523  135.6236  151.9315 H   0  0  0  0  0  0  0  0  0  0  0  0
  145.4134  133.8794  153.1053 H   0  0  0  0  0  0  0  0  0  0  0  0
  143.8081  134.8631  151.5974 H   0  0  0  0  0  0  0  0  0  0  0  0
  144.9159  134.7850  150.2459 H   0  0  0  0  0  0  0  0  0  0  0  0
  143.7419  132.3879  151.7283 H   0  0  0  0  0  0  0  0  0  0  0  0
  143.2719  132.9218  150.1312 H   0  0  0  0  0  0  0  0  0  0  0  0
  144.9479  130.9779  150.1618 H   0  0  0  0  0  0  0  0  0  0  0  0
  145.4361  132.3496  149.1923 H   0  0  0  0  0  0  0  0  0  0  0  0
  147.1931  131.4154  150.7729 H   0  0  0  0  0  0  0  0  0  0  0  0
  1  2  1  0  0  0  0
  1 18  1  0  0  0  0
  1 19  1  0  0  0  0
  1 20  1  0  0  0  0
  2 17  1  0  0  0  0
  2  3  2  0  0  0  0
  3  4  1  0  0  0  0
  4  5  2  0  0  0  0
  5  6  1  0  0  0  0
  5 17  1  0  0  0  0
  6  7  1  0  0  0  0
  6 21  1  0  0  0  0
  7  8  2  0  0  0  0
  7  9  1  0  0  0  0
  9 10  1  0  0  0  0
  9 22  1  0  0  0  0
 10 15  1  0  0  0  0
 10 11  1  0  0  0  0
 10 23  1  0  0  0  0
 11 12  1  0  0  0  0
 11 24  1  0  0  0  0
 11 25  1  0  0  0  0
 12 13  1  0  0  0  0
 12 26  1  0  0  0  0
 12 27  1  0  0  0  0
 13 14  1  0  0  0  0
 13 28  1  0  0  0  0
 13 29  1  0  0  0  0
 14 15  1  0  0  0  0
 14 30  1  0  0  0  0
 15 16  2  0  0  0  0
M  END
> <s_m_source_file>
AV-unprocessed.smi

> <i_m_source_file_index>
1866

> <i_lp_mmshare_version>
43012

> <i_f3d_flags>
0

> <s_epik_input>
W0NIM11jMW5uYyhzMSlbTkhdQyg9TylbTkhdW0NAQEhdMltDSDJdW0NIMl1bQ0gyXVtOSF1DMj1P

> <s_epik_cmdline>
J2VwaWtfcHl0aG9uJywgJy1waCcsICc3LjAnLCAnLXRuJywgJzgnLCAnLW1hJywgJzIwMCcsICctbWV0YWxfYmluZGluZycsICctaW1hZScsICc8aW5maWxlLm1hZT4nLCAnLW9tYWUnLCAnPG91dGZpbGUubWFlPic=

> <r_lp_tautomer_probability>
1

> <r_epik_Ionization_Penalty>
0.00093002

> <r_epik_Ionization_Penalty_Charging>
0

> <r_epik_Ionization_Penalty_Neutral>
0.00093002

> <r_epik_State_Penalty>
-0

> <r_epik_Charging_Adjusted_Penalty>
0

> <i_epik_Tot_Q>
0

> <i_epik_Tot_abs_Q>
0

> <r_epik_Metal_State_Penalty>
0.280775

> <b_epik_Metal_Only>
0

> <s_lp_Force_Field>
OPLS_2005

> <r_lp_Energy>
8.18439

> <b_lp_Chiralities_Consistent>
1

> <s_lp_Variant>
AV-unprocessed.smi:1866-2

> <Gold.Version>
5.8.1

> <Gold.Id.Protein>
6NUR|6NUR_protein|mol2

> <Gold.PLP.Fitness>
33.6231

> <Gold.PLP.PLP>
-25.4827

> <Gold.PLP.part.hbond>
-3.0000

> <Gold.PLP.part.metal>
0.0000

> <Gold.PLP.part.buried>
-3.8449

> <Gold.PLP.part.nonpolar>
-20.0236

> <Gold.PLP.part.repulsive>
0.6038

> <Gold.PLP.ligand.clash>
0.0000

> <Gold.PLP.ligand.torsion>
0.4149

> <Gold.PLP.Chemscore.Hbond>
2.9760

> <Gold.PLP.Chemscore.CHOScore>
0.0000

> <Gold.PLP.Chemscore.Metal>
0.0000

> <Gold.Chemscore.Hbonds>
donor molecule, donor type, donor heavy atom, donor atom, acceptor molecule, acceptor atom, score
      L1  H     6    21       P1  7948  0.98
      L1  H     9    22       P1  7948  1.00
      L1  H    14    30       P1 10747  1.00

> <Gold.PLP.Chemscore.Internal.Correction>
0.0422

> <Gold.Rescore>
     Score         DG    S(hbond)    S(metal)    S(lipo)     H(rot)  DE(clash)    DE(int)     intcor
     17.35     -17.92       2.87        0.00      46.34       1.00       0.03       0.54       ----

> <Gold.Chemscore.Fitness>
17.3516

> <Gold.Chemscore.DG>
-17.9245

> <Gold.Chemscore.ZeroCoef>
-5.4800

> <Gold.Chemscore.Hbond>
2.8690

> <Gold.Chemscore.Metal>
0.0000

> <Gold.Chemscore.Lipo>
46.3434

> <Gold.Chemscore.Internal_Hbond>
0.0000

> <Gold.Chemscore.DEClash>
0.0343

> <Gold.Chemscore.DEInternal>
0.5386

> <Gold.Chemscore.Rot>
1.0000

> <Gold.Chemscore.Internal.Correction>
   9.000000E+99

> <Gold.Chemscore.Hbonds>
donor molecule, donor type, donor heavy atom, donor atom, acceptor molecule, acceptor atom, score
      L1  H     6    21       P1  7948  0.91
      L1  H     9    22       P1  7948  0.99
      L1  H    14    30       P1 10747  0.96

> <Gold.Chemscore.Hbond.Weighted>
-9.5823

> <Gold.Chemscore.Metal.Weighted>
-0.0000

> <Gold.Chemscore.Lipo.Weighted>
-5.4222

> <Gold.Chemscore.Internal_Hbond.Weighted>
0.0000

> <Gold.Chemscore.DEClash.Weighted>
0.0343

> <Gold.Chemscore.DEInternal.Weighted>
0.5386

> <Gold.Chemscore.Rot.Weighted>
2.5600

> <Gold.Chemscore.Internal.Correction.Weighted>
   9.000000E+99

> <Gold.Protein.RotatedTorsions>
[ 6907 6896 6895 6894 ] final  128.42 input  -60.11 | X-H torsion
[ 7974 7965 7964 7962 ] final   85.37 input  175.53 | X-H torsion
[ 8008 7997 7996 7995 ] final  -92.28 input   59.86 | X-H torsion
[ 10167 10162 10161 10158 ] final  171.90 input  -65.29 | X-H torsion
[ 10718 10713 10712 10709 ] final  152.72 input   66.30 | X-H torsion
[ 10763 10752 10751 10750 ] final   90.20 input  -60.55 | X-H torsion
[ 11005 11000 10999 10996 ] final   31.84 input  -57.11 | X-H torsion

> <Gold.Protein.ActiveResidues>
 VAL166  LYS551  ARG553  GLY616  TRP617  ASP618  TYR619  PRO620  LYS621  CYS622 
 ASP623  PHE694  ASN695  SER759  ASP760  ASP761  ALA762  ILE779  LEU786  VAL792 
 PHE793  MET794  SER795  GLU796  ALA797  LYS798  CYS799  TRP800  GLU811  SER814 

> <Gold.Protein.RotatedAtoms>
  152.3721  133.6432  159.6094 H   0  0  0  0  0  0  0  0  0  0  0  0  # atno 6907 bound_to 6896
  150.7676  133.9254  159.3419 H   0  0  0  0  0  0  0  0  0  0  0  0  # atno 6908 bound_to 6896
  151.7075  135.0920  160.0313 H   0  0  0  0  0  0  0  0  0  0  0  0  # atno 6909 bound_to 6896
  145.5865  139.2332  143.2323 H   0  0  0  0  0  0  0  0  0  0  0  0  # atno 7974 bound_to 7965
  154.7212  140.0510  157.0641 H   0  0  0  0  0  0  0  0  0  0  0  0  # atno 8008 bound_to 7997
  155.0425  140.3170  155.4700 H   0  0  0  0  0  0  0  0  0  0  0  0  # atno 8009 bound_to 7997
  156.2817  140.2130  156.5549 H   0  0  0  0  0  0  0  0  0  0  0  0  # atno 8010 bound_to 7997
  139.5060  144.3434  151.9995 H   0  0  0  0  0  0  0  0  0  0  0  0  # atno 10167 bound_to 10162
  157.2542  131.0785  151.1710 H   0  0  0  0  0  0  0  0  0  0  0  0  # atno 10718 bound_to 10713
  153.1950  135.4443  155.0197 H   0  0  0  0  0  0  0  0  0  0  0  0  # atno 10763 bound_to 10752
  154.8113  135.3296  154.7299 H   0  0  0  0  0  0  0  0  0  0  0  0  # atno 10764 bound_to 10752
  153.7749  135.6982  153.4954 H   0  0  0  0  0  0  0  0  0  0  0  0  # atno 10765 bound_to 10752
  140.2796  134.2988  155.7804 H   0  0  0  0  0  0  0  0  0  0  0  0  # atno 11005 bound_to 11000
  146.1678  140.6691  142.9247 LP  0  0  0  0  0  0  0  0  0  0  0  0  # atno 17320 bound_to 7965
  144.7370  140.4837  143.6896 LP  0  0  0  0  0  0  0  0  0  0  0  0  # atno 17321 bound_to 7965
  140.2872  144.3794  150.6100 LP  0  0  0  0  0  0  0  0  0  0  0  0  # atno 17342 bound_to 10162
  140.5974  143.2167  151.7138 LP  0  0  0  0  0  0  0  0  0  0  0  0  # atno 17343 bound_to 10162
  157.3245  130.6954  149.6288 LP  0  0  0  0  0  0  0  0  0  0  0  0  # atno 17370 bound_to 10713
  155.9665  130.4325  150.4968 LP  0  0  0  0  0  0  0  0  0  0  0  0  # atno 17371 bound_to 10713
  141.2165  133.7517  156.9461 LP  0  0  0  0  0  0  0  0  0  0  0  0  # atno 17394 bound_to 11000
  140.1295  134.9365  157.2318 LP  0  0  0  0  0  0  0  0  0  0  0  0  # atno 17395 bound_to 11000

$$$$
