AV-unprocessed.smi:1005|AV-procd|sdf|4387|dock4
  -GOLD-   22720 2313D 1   1.00000     0.00000
 Structure written by MMmdl.
 55 57  0  0  0  0  0  0  0  0  1 V2000
  153.0642  142.8141  161.7469 C   0  0  0  0  0  0  0  0  0  0  0  0
  152.5139  142.4894  160.3694 C   0  0  0  0  0  0  0  0  0  0  0  0
  152.9424  141.3101  159.7191 C   0  0  0  0  0  0  0  0  0  0  0  0
  152.4548  140.9714  158.4378 C   0  0  0  0  0  0  0  0  0  0  0  0
  152.7335  139.8838  157.6278 N   0  0  0  0  0  0  0  0  0  0  0  0
  151.9716  140.1369  156.5674 C   0  0  0  0  0  0  0  0  0  0  0  0
  151.2315  141.2619  156.5947 N   0  0  0  0  0  0  0  0  0  0  0  0
  150.3306  141.7471  155.5648 C   0  0  0  0  0  0  0  0  0  0  0  0
  148.9012  141.1981  155.7298 C   0  0  1  0  0  0  0  0  0  0  0  0
  147.9901  142.0779  155.0995 O   0  0  0  0  0  0  0  0  0  0  0  0
  148.7573  139.7970  155.1007 C   0  0  0  0  0  0  0  0  0  0  0  0
  149.6164  138.7559  155.6673 N   0  0  0  0  0  0  0  0  0  0  0  0
  149.1810  138.3973  157.0122 C   0  0  0  0  0  0  0  0  0  0  0  0
  150.0635  137.2998  157.6286 C   0  0  0  0  0  0  0  0  0  0  0  0
  150.0738  136.1650  156.7689 O   0  0  0  0  0  0  0  0  0  0  0  0
  150.5655  136.4580  155.4626 C   0  0  1  0  0  0  0  0  0  0  0  0
  150.5637  135.1449  154.6522 C   0  0  0  0  0  0  0  0  0  0  0  0
  149.2450  134.5760  154.3670 N   0  0  0  0  0  0  0  0  0  0  0  0
  148.5227  134.1942  155.5739 C   0  0  0  0  0  0  0  0  0  0  0  0
  149.3596  133.4376  153.4661 C   0  0  0  0  0  0  0  0  0  0  0  0
  149.6558  137.5452  154.8488 C   0  0  0  0  0  0  0  0  0  0  0  0
  151.5186  141.8515  157.8207 C   0  0  0  0  0  0  0  0  0  0  0  0
  151.0844  143.0275  158.4574 C   0  0  0  0  0  0  0  0  0  0  0  0
  151.5815  143.3511  159.7371 C   0  0  0  0  0  0  0  0  0  0  0  0
  151.1075  144.6248  160.4146 C   0  0  0  0  0  0  0  0  0  0  0  0
  153.8127  142.0850  162.0588 H   0  0  0  0  0  0  0  0  0  0  0  0
  152.2636  142.8099  162.4871 H   0  0  0  0  0  0  0  0  0  0  0  0
  153.5349  143.7974  161.7503 H   0  0  0  0  0  0  0  0  0  0  0  0
  153.6519  140.6530  160.2004 H   0  0  0  0  0  0  0  0  0  0  0  0
  151.9516  139.4671  155.7201 H   0  0  0  0  0  0  0  0  0  0  0  0
  150.3286  142.8380  155.5833 H   0  0  0  0  0  0  0  0  0  0  0  0
  150.7368  141.4521  154.5965 H   0  0  0  0  0  0  0  0  0  0  0  0
  148.6696  141.1716  156.7933 H   0  0  0  0  0  0  0  0  0  0  0  0
  148.2196  142.9650  155.3296 H   0  0  0  0  0  0  0  0  0  0  0  0
  147.7134  139.4921  155.1923 H   0  0  0  0  0  0  0  0  0  0  0  0
  148.9487  139.8664  154.0287 H   0  0  0  0  0  0  0  0  0  0  0  0
  149.2004  139.2776  157.6559 H   0  0  0  0  0  0  0  0  0  0  0  0
  148.1459  138.0528  156.9861 H   0  0  0  0  0  0  0  0  0  0  0  0
  151.0816  137.6610  157.7816 H   0  0  0  0  0  0  0  0  0  0  0  0
  149.6774  137.0049  158.6042 H   0  0  0  0  0  0  0  0  0  0  0  0
  151.5882  136.8278  155.5607 H   0  0  0  0  0  0  0  0  0  0  0  0
  151.0423  135.3577  153.6951 H   0  0  0  0  0  0  0  0  0  0  0  0
  151.2022  134.4029  155.1340 H   0  0  0  0  0  0  0  0  0  0  0  0
  147.5698  133.7272  155.3228 H   0  0  0  0  0  0  0  0  0  0  0  0
  148.2967  135.0654  156.1879 H   0  0  0  0  0  0  0  0  0  0  0  0
  149.0987  133.4872  156.1725 H   0  0  0  0  0  0  0  0  0  0  0  0
  148.3746  133.0478  153.2071 H   0  0  0  0  0  0  0  0  0  0  0  0
  149.9354  132.6308  153.9218 H   0  0  0  0  0  0  0  0  0  0  0  0
  149.8533  133.7251  152.5371 H   0  0  0  0  0  0  0  0  0  0  0  0
  148.6459  137.1492  154.7306 H   0  0  0  0  0  0  0  0  0  0  0  0
  150.0116  137.7793  153.8488 H   0  0  0  0  0  0  0  0  0  0  0  0
  150.3749  143.6747  157.9631 H   0  0  0  0  0  0  0  0  0  0  0  0
  150.3435  145.1294  159.8222 H   0  0  0  0  0  0  0  0  0  0  0  0
  151.9392  145.3168  160.5489 H   0  0  0  0  0  0  0  0  0  0  0  0
  150.6785  144.4038  161.3924 H   0  0  0  0  0  0  0  0  0  0  0  0
  1  2  1  0  0  0  0
  1 26  1  0  0  0  0
  1 27  1  0  0  0  0
  1 28  1  0  0  0  0
  2 24  1  0  0  0  0
  2  3  2  0  0  0  0
  3  4  1  0  0  0  0
  3 29  1  0  0  0  0
  4 22  2  0  0  0  0
  4  5  1  0  0  0  0
  5  6  2  0  0  0  0
  6  7  1  0  0  0  0
  6 30  1  0  0  0  0
  7  8  1  0  0  0  0
  7 22  1  0  0  0  0
  8  9  1  0  0  0  0
  8 31  1  0  0  0  0
  8 32  1  0  0  0  0
  9 10  1  0  0  0  0
  9 11  1  0  0  0  0
  9 33  1  0  0  0  0
 10 34  1  0  0  0  0
 11 12  1  0  0  0  0
 11 35  1  0  0  0  0
 11 36  1  0  0  0  0
 12 21  1  0  0  0  0
 12 13  1  0  0  0  0
 13 14  1  0  0  0  0
 13 37  1  0  0  0  0
 13 38  1  0  0  0  0
 14 15  1  0  0  0  0
 14 39  1  0  0  0  0
 14 40  1  0  0  0  0
 15 16  1  0  0  0  0
 16 17  1  0  0  0  0
 16 21  1  0  0  0  0
 16 41  1  0  0  0  0
 17 18  1  0  0  0  0
 17 42  1  0  0  0  0
 17 43  1  0  0  0  0
 18 19  1  0  0  0  0
 18 20  1  0  0  0  0
 19 44  1  0  0  0  0
 19 45  1  0  0  0  0
 19 46  1  0  0  0  0
 20 47  1  0  0  0  0
 20 48  1  0  0  0  0
 20 49  1  0  0  0  0
 21 50  1  0  0  0  0
 21 51  1  0  0  0  0
 22 23  1  0  0  0  0
 23 24  2  0  0  0  0
 23 52  1  0  0  0  0
 24 25  1  0  0  0  0
 25 53  1  0  0  0  0
 25 54  1  0  0  0  0
 25 55  1  0  0  0  0
M  END
> <s_m_source_file>
AV-unprocessed.smi

> <i_m_source_file_index>
1005

> <i_lp_mmshare_version>
43012

> <i_f3d_flags>
0

> <s_epik_input>
W0NIM11jKFtjSF0xKWMoW0NIM10pW2NIXWMoYzEyKW4oW2NIXW4yKVtDSDJdW0NASF0oW09IXSlbQ0gyXU4zW0NIMl1bQ0gyXU9bQ0BIXShbQ0gyXTMpW0NIMl1OKFtDSDNdKVtDSDNd

> <s_epik_cmdline>
J2VwaWtfcHl0aG9uJywgJy1waCcsICc3LjAnLCAnLXRuJywgJzgnLCAnLW1hJywgJzIwMCcsICctbWV0YWxfYmluZGluZycsICctaW1hZScsICc8aW5maWxlLm1hZT4nLCAnLW9tYWUnLCAnPG91dGZpbGUubWFlPic=

> <r_epik_Ionization_Penalty>
2.78613

> <r_epik_Ionization_Penalty_Charging>
0

> <r_epik_Ionization_Penalty_Neutral>
2.78613

> <r_epik_State_Penalty>
2.57336

> <r_epik_Charging_Adjusted_Penalty>
2.57336

> <i_epik_Tot_Q>
0

> <i_epik_Tot_abs_Q>
0

> <r_epik_Metal_State_Penalty>
2.49087

> <b_epik_Metal_Only>
0

> <s_lp_Force_Field>
OPLS_2005

> <r_lp_Energy>
38.3146

> <b_lp_Chiralities_Consistent>
1

> <s_lp_Variant>
AV-unprocessed.smi:1005-26

> <Gold.Version>
5.8.1

> <Gold.Id.Protein>
6NUR|6NUR_protein|mol2

> <Gold.PLP.Fitness>
47.7166

> <Gold.PLP.PLP>
-43.1037

> <Gold.PLP.part.hbond>
-2.0000

> <Gold.PLP.part.metal>
0.0000

> <Gold.PLP.part.buried>
-7.1220

> <Gold.PLP.part.nonpolar>
-33.3924

> <Gold.PLP.part.repulsive>
0.1650

> <Gold.PLP.ligand.clash>
0.0000

> <Gold.PLP.ligand.torsion>
0.7339

> <Gold.PLP.Chemscore.Hbond>
2.0000

> <Gold.PLP.Chemscore.CHOScore>
0.0000

> <Gold.PLP.Chemscore.Metal>
0.0000

> <Gold.Chemscore.Hbonds>
donor molecule, donor type, donor heavy atom, donor atom, acceptor molecule, acceptor atom, score
      L1  H    10    34       P1  8028  1.00
      P1  H  7997  8010       L1     5  1.00

> <Gold.PLP.Chemscore.Internal.Correction>
0.0808

> <Gold.Rescore>
     Score         DG    S(hbond)    S(metal)    S(lipo)     H(rot)  DE(clash)    DE(int)     intcor
     16.46     -18.59       1.65        0.00     115.00       2.29       0.07       2.06       ----

> <Gold.Chemscore.Fitness>
16.4604

> <Gold.Chemscore.DG>
-18.5897

> <Gold.Chemscore.ZeroCoef>
-5.4800

> <Gold.Chemscore.Hbond>
1.6514

> <Gold.Chemscore.Metal>
0.0000

> <Gold.Chemscore.Lipo>
115.0025

> <Gold.Chemscore.Internal_Hbond>
0.0000

> <Gold.Chemscore.DEClash>
0.0666

> <Gold.Chemscore.DEInternal>
2.0626

> <Gold.Chemscore.Rot>
2.2895

> <Gold.Chemscore.Internal.Correction>
   9.000000E+99

> <Gold.Chemscore.Hbonds>
donor molecule, donor type, donor heavy atom, donor atom, acceptor molecule, acceptor atom, score
      L1  H    10    34       P1  8028  0.97
      P1  H  7997  8010       L1     5  0.31

> <Gold.Chemscore.Hbond.Weighted>
-5.5155

> <Gold.Chemscore.Metal.Weighted>
-0.0000

> <Gold.Chemscore.Lipo.Weighted>
-13.4553

> <Gold.Chemscore.Internal_Hbond.Weighted>
0.0000

> <Gold.Chemscore.DEClash.Weighted>
0.0666

> <Gold.Chemscore.DEInternal.Weighted>
2.0626

> <Gold.Chemscore.Rot.Weighted>
5.8612

> <Gold.Chemscore.Internal.Correction.Weighted>
   9.000000E+99

> <Gold.Protein.RotatedTorsions>
[ 6907 6896 6895 6894 ] final   40.20 input  -60.11 | X-H torsion
[ 7974 7965 7964 7962 ] final  100.32 input  175.53 | X-H torsion
[ 8008 7997 7996 7995 ] final   37.22 input   59.86 | X-H torsion
[ 10167 10162 10161 10158 ] final  -94.68 input  -65.29 | X-H torsion
[ 10718 10713 10712 10709 ] final -128.34 input   66.30 | X-H torsion
[ 10763 10752 10751 10750 ] final -114.18 input  -60.55 | X-H torsion
[ 11005 11000 10999 10996 ] final  -13.69 input  -57.11 | X-H torsion

> <Gold.Protein.ActiveResidues>
 VAL166  LYS551  ARG553  GLY616  TRP617  ASP618  TYR619  PRO620  LYS621  CYS622 
 ASP623  PHE694  ASN695  SER759  ASP760  ASP761  ALA762  ILE779  LEU786  VAL792 
 PHE793  MET794  SER795  GLU796  ALA797  LYS798  CYS799  TRP800  GLU811  SER814 

> <Gold.Protein.RotatedAtoms>
  152.1795  134.8766  160.0527 H   0  0  0  0  0  0  0  0  0  0  0  0  # atno 6907 bound_to 6896
  151.9696  133.3716  159.4074 H   0  0  0  0  0  0  0  0  0  0  0  0  # atno 6908 bound_to 6896
  150.6915  134.4077  159.5191 H   0  0  0  0  0  0  0  0  0  0  0  0  # atno 6909 bound_to 6896
  145.3872  139.2369  143.3372 H   0  0  0  0  0  0  0  0  0  0  0  0  # atno 7974 bound_to 7965
  155.2002  140.3315  155.4344 H   0  0  0  0  0  0  0  0  0  0  0  0  # atno 8008 bound_to 7997
  156.2410  140.1895  156.7039 H   0  0  0  0  0  0  0  0  0  0  0  0  # atno 8009 bound_to 7997
  154.6147  140.0604  156.9524 H   0  0  0  0  0  0  0  0  0  0  0  0  # atno 8010 bound_to 7997
  140.3119  143.3100  152.0139 H   0  0  0  0  0  0  0  0  0  0  0  0  # atno 10167 bound_to 10162
  156.1942  130.6815  151.0461 H   0  0  0  0  0  0  0  0  0  0  0  0  # atno 10718 bound_to 10713
  154.8429  135.4427  154.1466 H   0  0  0  0  0  0  0  0  0  0  0  0  # atno 10763 bound_to 10752
  153.2637  135.6938  153.7558 H   0  0  0  0  0  0  0  0  0  0  0  0  # atno 10764 bound_to 10752
  153.6824  135.3400  155.3157 H   0  0  0  0  0  0  0  0  0  0  0  0  # atno 10765 bound_to 10752
  140.7787  133.8380  155.9272 H   0  0  0  0  0  0  0  0  0  0  0  0  # atno 11005 bound_to 11000
  146.2815  140.4549  142.8774 LP  0  0  0  0  0  0  0  0  0  0  0  0  # atno 17320 bound_to 7965
  144.8466  140.6938  143.6195 LP  0  0  0  0  0  0  0  0  0  0  0  0  # atno 17321 bound_to 7965
  139.4892  144.6378  151.6940 LP  0  0  0  0  0  0  0  0  0  0  0  0  # atno 17342 bound_to 10162
  140.5560  144.0347  150.6148 LP  0  0  0  0  0  0  0  0  0  0  0  0  # atno 17343 bound_to 10162
  157.6947  131.0798  150.7003 LP  0  0  0  0  0  0  0  0  0  0  0  0  # atno 17370 bound_to 10713
  156.7060  130.4637  149.5560 LP  0  0  0  0  0  0  0  0  0  0  0  0  # atno 17371 bound_to 10713
  140.9503  134.1787  157.4732 LP  0  0  0  0  0  0  0  0  0  0  0  0  # atno 17394 bound_to 11000
  139.8745  134.9906  156.5513 LP  0  0  0  0  0  0  0  0  0  0  0  0  # atno 17395 bound_to 11000

$$$$
