AV-unprocessed.smi:1323|AV-procd|sdf|5466|dock10
  -GOLD-   22720 5 33D 1   1.00000     0.00000
 Structure written by MMmdl.
 45 46  0  0  0  0  0  0  0  0  1 V2000
  148.0803  140.8715  154.0965 C   0  0  0  0  0  0  0  0  0  0  0  0
  149.5221  140.5344  154.5087 C   0  0  1  0  0  0  0  0  0  0  0  0
  149.8892  141.1645  155.8693 C   0  0  0  0  0  0  0  0  0  0  0  0
  151.3451  140.8611  156.2591 C   0  0  0  0  0  0  0  0  0  0  0  0
  151.6314  139.3512  156.2410 C   0  0  0  0  0  0  0  0  0  0  0  0
  151.2591  138.7292  154.8864 C   0  0  0  0  0  0  0  0  0  0  0  0
  149.7851  139.0115  154.5204 C   0  0  1  0  0  0  0  0  0  0  0  0
  148.8795  138.4404  155.4573 O   0  0  0  0  0  0  0  0  0  0  0  0
  148.8918  137.0267  155.5758 C   0  0  0  0  0  0  0  0  0  0  0  0
  147.5364  136.4823  155.0981 C   0  0  0  0  0  0  0  0  0  0  0  0
  147.6991  135.4027  154.1278 N   0  0  0  0  0  0  0  0  0  0  0  0
  147.5811  134.0945  154.4066 C   0  0  0  0  0  0  0  0  0  0  0  0
  147.2799  133.6675  155.5221 O   0  0  0  0  0  0  0  0  0  0  0  0
  147.8179  133.1215  153.2439 C   0  0  0  0  0  0  0  0  0  0  0  0
  146.6620  133.0473  152.3350 N   0  0  0  0  0  0  0  0  0  0  0  0
  146.2392  134.2495  151.7329 C   0  0  0  0  0  0  0  0  0  0  0  0
  145.1772  134.2981  150.9133 C   0  0  0  0  0  0  0  0  0  0  0  0
  144.4585  133.0731  150.6539 C   0  0  0  0  0  0  0  0  0  0  0  0
  144.8566  131.9171  151.2216 C   0  0  0  0  0  0  0  0  0  0  0  0
  146.0218  131.8583  152.1114 C   0  0  0  0  0  0  0  0  0  0  0  0
  146.3988  130.8044  152.6234 O   0  0  0  0  0  0  0  0  0  0  0  0
  147.3576  140.4920  154.8197 H   0  0  0  0  0  0  0  0  0  0  0  0
  147.8384  140.4392  153.1253 H   0  0  0  0  0  0  0  0  0  0  0  0
  147.9372  141.9497  154.0219 H   0  0  0  0  0  0  0  0  0  0  0  0
  150.1772  140.9748  153.7555 H   0  0  0  0  0  0  0  0  0  0  0  0
  149.7410  142.2442  155.8337 H   0  0  0  0  0  0  0  0  0  0  0  0
  149.2194  140.7907  156.6450 H   0  0  0  0  0  0  0  0  0  0  0  0
  152.0191  141.3670  155.5666 H   0  0  0  0  0  0  0  0  0  0  0  0
  151.5573  141.2675  157.2484 H   0  0  0  0  0  0  0  0  0  0  0  0
  152.6843  139.1705  156.4580 H   0  0  0  0  0  0  0  0  0  0  0  0
  151.0647  138.8573  157.0302 H   0  0  0  0  0  0  0  0  0  0  0  0
  151.9049  139.1469  154.1129 H   0  0  0  0  0  0  0  0  0  0  0  0
  151.4672  137.6600  154.8930 H   0  0  0  0  0  0  0  0  0  0  0  0
  149.5731  138.6048  153.5303 H   0  0  0  0  0  0  0  0  0  0  0  0
  149.6926  136.6076  154.9652 H   0  0  0  0  0  0  0  0  0  0  0  0
  149.0677  136.7232  156.6076 H   0  0  0  0  0  0  0  0  0  0  0  0
  146.9378  136.1509  155.9484 H   0  0  0  0  0  0  0  0  0  0  0  0
  146.9715  137.2818  154.6188 H   0  0  0  0  0  0  0  0  0  0  0  0
  147.9413  135.6683  153.1843 H   0  0  0  0  0  0  0  0  0  0  0  0
  148.7057  133.4491  152.7015 H   0  0  0  0  0  0  0  0  0  0  0  0
  148.0688  132.1317  153.6306 H   0  0  0  0  0  0  0  0  0  0  0  0
  146.8244  135.1213  151.9875 H   0  0  0  0  0  0  0  0  0  0  0  0
  144.8642  135.2299  150.4655 H   0  0  0  0  0  0  0  0  0  0  0  0
  143.5958  133.0837  150.0042 H   0  0  0  0  0  0  0  0  0  0  0  0
  144.3052  131.0107  151.0185 H   0  0  0  0  0  0  0  0  0  0  0  0
  1  2  1  0  0  0  0
  1 22  1  0  0  0  0
  1 23  1  0  0  0  0
  1 24  1  0  0  0  0
  2  7  1  0  0  0  0
  2  3  1  0  0  0  0
  2 25  1  0  0  0  0
  3  4  1  0  0  0  0
  3 26  1  0  0  0  0
  3 27  1  0  0  0  0
  4  5  1  0  0  0  0
  4 28  1  0  0  0  0
  4 29  1  0  0  0  0
  5  6  1  0  0  0  0
  5 30  1  0  0  0  0
  5 31  1  0  0  0  0
  6  7  1  0  0  0  0
  6 32  1  0  0  0  0
  6 33  1  0  0  0  0
  7  8  1  0  0  0  0
  7 34  1  0  0  0  0
  8  9  1  0  0  0  0
  9 10  1  0  0  0  0
  9 35  1  0  0  0  0
  9 36  1  0  0  0  0
 10 11  1  0  0  0  0
 10 37  1  0  0  0  0
 10 38  1  0  0  0  0
 11 12  1  0  0  0  0
 11 39  1  0  0  0  0
 12 13  2  0  0  0  0
 12 14  1  0  0  0  0
 14 15  1  0  0  0  0
 14 40  1  0  0  0  0
 14 41  1  0  0  0  0
 15 20  1  0  0  0  0
 15 16  1  0  0  0  0
 16 17  2  0  0  0  0
 16 42  1  0  0  0  0
 17 18  1  0  0  0  0
 17 43  1  0  0  0  0
 18 19  2  0  0  0  0
 18 44  1  0  0  0  0
 19 20  1  0  0  0  0
 19 45  1  0  0  0  0
 20 21  2  0  0  0  0
M  END
> <s_m_source_file>
AV-unprocessed.smi

> <i_m_source_file_index>
1323

> <i_lp_mmshare_version>
43012

> <i_f3d_flags>
0

> <s_epik_input>
W0NIM11bQ0BASF0xW0NIMl1bQ0gyXVtDSDJdW0NIMl1bQ0BIXTFPW0NIMl1bQ0gyXVtOSF1DKD1PKVtDSDJdbjJbY0hdW2NIXVtjSF1bY0hdYzI9Tw==

> <s_epik_cmdline>
J2VwaWtfcHl0aG9uJywgJy1waCcsICc3LjAnLCAnLXRuJywgJzgnLCAnLW1hJywgJzIwMCcsICctbWV0YWxfYmluZGluZycsICctaW1hZScsICc8aW5maWxlLm1hZT4nLCAnLW9tYWUnLCAnPG91dGZpbGUubWFlPic=

> <r_lp_tautomer_probability>
1

> <r_epik_Ionization_Penalty>
4.02412e-07

> <r_epik_Ionization_Penalty_Charging>
3.74552e-07

> <r_epik_Ionization_Penalty_Neutral>
2.78599e-08

> <r_epik_State_Penalty>
-0

> <r_epik_Charging_Adjusted_Penalty>
3.74552e-07

> <i_epik_Tot_Q>
0

> <i_epik_Tot_abs_Q>
0

> <r_epik_Metal_State_Penalty>
-0

> <b_epik_Metal_Only>
0

> <s_lp_Force_Field>
OPLS_2005

> <r_lp_Energy>
18.6453

> <b_lp_Chiralities_Consistent>
1

> <s_lp_Variant>
AV-unprocessed.smi:1323-2

> <Gold.Version>
5.8.1

> <Gold.Id.Protein>
6NUR|6NUR_protein|mol2

> <Gold.PLP.Fitness>
42.2847

> <Gold.PLP.PLP>
-38.4335

> <Gold.PLP.part.hbond>
-0.7517

> <Gold.PLP.part.metal>
0.0000

> <Gold.PLP.part.buried>
-4.0057

> <Gold.PLP.part.nonpolar>
-34.1238

> <Gold.PLP.part.repulsive>
0.2512

> <Gold.PLP.ligand.clash>
0.0000

> <Gold.PLP.ligand.torsion>
1.1048

> <Gold.PLP.Chemscore.Hbond>
0.9920

> <Gold.PLP.Chemscore.CHOScore>
1.0000

> <Gold.PLP.Chemscore.Metal>
0.0000

> <Gold.Chemscore.Hbonds>
donor molecule, donor type, donor heavy atom, donor atom, acceptor molecule, acceptor atom, score
      L1  H    11    39       P1  7948  1.00
      L1  C    16    42       P1  7948  1.00

> <Gold.PLP.Chemscore.Internal.Correction>
0.0848

> <Gold.Rescore>
     Score         DG    S(hbond)    S(metal)    S(lipo)     H(rot)  DE(clash)    DE(int)     intcor
     13.08     -14.25       0.98        0.00      89.32       1.94       0.07       1.09       ----

> <Gold.Chemscore.Fitness>
13.0815

> <Gold.Chemscore.DG>
-14.2458

> <Gold.Chemscore.ZeroCoef>
-5.4800

> <Gold.Chemscore.Hbond>
0.9824

> <Gold.Chemscore.Metal>
0.0000

> <Gold.Chemscore.Lipo>
89.3206

> <Gold.Chemscore.Internal_Hbond>
0.0000

> <Gold.Chemscore.DEClash>
0.0748

> <Gold.Chemscore.DEInternal>
1.0895

> <Gold.Chemscore.Rot>
1.9398

> <Gold.Chemscore.Internal.Correction>
   9.000000E+99

> <Gold.Chemscore.Hbonds>
donor molecule, donor type, donor heavy atom, donor atom, acceptor molecule, acceptor atom, score
      L1  H    11    39       P1  7948  0.99

> <Gold.Chemscore.Hbond.Weighted>
-3.2813

> <Gold.Chemscore.Metal.Weighted>
-0.0000

> <Gold.Chemscore.Lipo.Weighted>
-10.4505

> <Gold.Chemscore.Internal_Hbond.Weighted>
0.0000

> <Gold.Chemscore.DEClash.Weighted>
0.0748

> <Gold.Chemscore.DEInternal.Weighted>
1.0895

> <Gold.Chemscore.Rot.Weighted>
4.9659

> <Gold.Chemscore.Internal.Correction.Weighted>
   9.000000E+99

> <Gold.Protein.RotatedTorsions>
[ 6907 6896 6895 6894 ] final   71.81 input  -60.11 | X-H torsion
[ 7974 7965 7964 7962 ] final -133.07 input  175.53 | X-H torsion
[ 8008 7997 7996 7995 ] final  115.31 input   59.86 | X-H torsion
[ 10167 10162 10161 10158 ] final   29.12 input  -65.29 | X-H torsion
[ 10718 10713 10712 10709 ] final   20.88 input   66.30 | X-H torsion
[ 10763 10752 10751 10750 ] final  127.97 input  -60.55 | X-H torsion
[ 11005 11000 10999 10996 ] final  119.76 input  -57.11 | X-H torsion

> <Gold.Protein.ActiveResidues>
 VAL166  LYS551  ARG553  GLY616  TRP617  ASP618  TYR619  PRO620  LYS621  CYS622 
 ASP623  PHE694  ASN695  SER759  ASP760  ASP761  ALA762  ILE779  LEU786  VAL792 
 PHE793  MET794  SER795  GLU796  ALA797  LYS798  CYS799  TRP800  GLU811  SER814 

> <Gold.Protein.RotatedAtoms>
  152.4831  134.4665  159.9621 H   0  0  0  0  0  0  0  0  0  0  0  0  # atno 6907 bound_to 6896
  151.4667  133.3573  159.2825 H   0  0  0  0  0  0  0  0  0  0  0  0  # atno 6908 bound_to 6896
  150.8920  134.8350  159.7361 H   0  0  0  0  0  0  0  0  0  0  0  0  # atno 6909 bound_to 6896
  144.9227  140.7033  143.4955 H   0  0  0  0  0  0  0  0  0  0  0  0  # atno 7974 bound_to 7965
  156.2374  140.2941  156.0349 H   0  0  0  0  0  0  0  0  0  0  0  0  # atno 8008 bound_to 7997
  155.2052  140.0411  157.2941 H   0  0  0  0  0  0  0  0  0  0  0  0  # atno 8009 bound_to 7997
  154.6103  140.2450  155.7684 H   0  0  0  0  0  0  0  0  0  0  0  0  # atno 8010 bound_to 7997
  140.4793  144.0641  150.6260 H   0  0  0  0  0  0  0  0  0  0  0  0  # atno 10167 bound_to 10162
  157.1307  130.6589  149.5951 H   0  0  0  0  0  0  0  0  0  0  0  0  # atno 10718 bound_to 10713
  153.7180  135.3258  155.3260 H   0  0  0  0  0  0  0  0  0  0  0  0  # atno 10763 bound_to 10752
  154.8365  135.4492  154.1247 H   0  0  0  0  0  0  0  0  0  0  0  0  # atno 10764 bound_to 10752
  153.2359  135.6965  153.7917 H   0  0  0  0  0  0  0  0  0  0  0  0  # atno 10765 bound_to 10752
  139.9159  134.9630  156.7703 H   0  0  0  0  0  0  0  0  0  0  0  0  # atno 11005 bound_to 11000
  145.3270  139.1771  143.4557 LP  0  0  0  0  0  0  0  0  0  0  0  0  # atno 17320 bound_to 7965
  146.3212  140.3295  142.8639 LP  0  0  0  0  0  0  0  0  0  0  0  0  # atno 17321 bound_to 7965
  140.3878  143.2768  152.0095 LP  0  0  0  0  0  0  0  0  0  0  0  0  # atno 17342 bound_to 10162
  139.4831  144.6102  151.7448 LP  0  0  0  0  0  0  0  0  0  0  0  0  # atno 17343 bound_to 10162
  155.9808  130.4812  150.6795 LP  0  0  0  0  0  0  0  0  0  0  0  0  # atno 17370 bound_to 10713
  157.4395  131.0859  151.0958 LP  0  0  0  0  0  0  0  0  0  0  0  0  # atno 17371 bound_to 10713
  140.6626  133.9631  155.7813 LP  0  0  0  0  0  0  0  0  0  0  0  0  # atno 17394 bound_to 11000
  141.0633  134.0314  157.3629 LP  0  0  0  0  0  0  0  0  0  0  0  0  # atno 17395 bound_to 11000

$$$$
