AV-unprocessed.smi:1667|AV-procd|sdf|6673|dock6
  -GOLD-   22720 7383D 1   1.00000     0.00000
 Structure written by MMmdl.
 45 47  0  0  0  0  0  0  0  0  1 V2000
  153.1630  138.6916  154.5668 C   0  0  0  0  0  0  0  0  0  0  0  0
  151.8744  139.2259  155.1821 C   0  0  0  0  0  0  0  0  0  0  0  0
  150.9645  139.6177  154.4534 O   0  0  0  0  0  0  0  0  0  0  0  0
  151.8221  139.2295  156.5250 N   0  0  0  0  0  0  0  0  0  0  0  0
  150.7179  139.6651  157.3841 C   0  0  1  0  0  0  0  0  0  0  0  0
  150.1035  138.5264  158.2214 C   0  0  0  0  0  0  0  0  0  0  0  0
  151.1412  140.8705  158.1908 C   0  0  0  0  0  0  0  0  0  0  0  0
  150.5637  142.0635  158.0312 N   0  0  0  0  0  0  0  0  0  0  0  0
  151.1797  142.8394  158.9899 C   0  0  0  0  0  0  0  0  0  0  0  0
  151.0007  144.2017  159.3201 C   0  0  0  0  0  0  0  0  0  0  0  0
  151.7459  144.7867  160.3643 C   0  0  0  0  0  0  0  0  0  0  0  0
  152.6765  144.0184  161.0928 C   0  0  0  0  0  0  0  0  0  0  0  0
  152.8687  142.6592  160.7792 C   0  0  0  0  0  0  0  0  0  0  0  0
  152.1266  142.0803  159.7316 C   0  0  0  0  0  0  0  0  0  0  0  0
  152.0751  140.8023  159.1791 N   0  0  0  0  0  0  0  0  0  0  0  0
  152.8582  139.6500  159.6208 C   0  0  0  0  0  0  0  0  0  0  0  0
  154.2724  140.0046  160.1393 C   0  0  2  0  0  0  0  0  0  0  0  0
  155.2512  139.6641  159.1774 O   0  0  0  0  0  0  0  0  0  0  0  0
  154.5689  139.4168  161.5128 C   0  0  0  0  0  0  0  0  0  0  0  0
  155.1683  140.1995  162.5256 C   0  0  0  0  0  0  0  0  0  0  0  0
  155.4520  139.6364  163.7847 C   0  0  0  0  0  0  0  0  0  0  0  0
  155.1422  138.2869  164.0390 C   0  0  0  0  0  0  0  0  0  0  0  0
  154.5455  137.5016  163.0343 C   0  0  0  0  0  0  0  0  0  0  0  0
  154.2506  136.2026  163.2760 F   0  0  0  0  0  0  0  0  0  0  0  0
  154.2579  138.0655  161.7761 C   0  0  0  0  0  0  0  0  0  0  0  0
  149.9291  139.9695  156.7013 H   0  0  0  0  0  0  0  0  0  0  0  0
  154.0162  139.2885  154.8897 H   0  0  0  0  0  0  0  0  0  0  0  0
  153.1157  138.7248  153.4780 H   0  0  0  0  0  0  0  0  0  0  0  0
  153.3291  137.6574  154.8694 H   0  0  0  0  0  0  0  0  0  0  0  0
  152.6374  138.8830  157.0090 H   0  0  0  0  0  0  0  0  0  0  0  0
  149.2227  138.8745  158.7607 H   0  0  0  0  0  0  0  0  0  0  0  0
  150.8013  138.1319  158.9599 H   0  0  0  0  0  0  0  0  0  0  0  0
  149.7920  137.6982  157.5847 H   0  0  0  0  0  0  0  0  0  0  0  0
  150.2862  144.7964  158.7706 H   0  0  0  0  0  0  0  0  0  0  0  0
  151.6008  145.8286  160.6093 H   0  0  0  0  0  0  0  0  0  0  0  0
  153.2426  144.4726  161.8928 H   0  0  0  0  0  0  0  0  0  0  0  0
  153.5810  142.0696  161.3365 H   0  0  0  0  0  0  0  0  0  0  0  0
  152.2982  139.1533  160.4140 H   0  0  0  0  0  0  0  0  0  0  0  0
  152.9186  138.9184  158.8158 H   0  0  0  0  0  0  0  0  0  0  0  0
  154.3239  141.0898  160.2352 H   0  0  0  0  0  0  0  0  0  0  0  0
  155.6317  138.8334  159.4185 H   0  0  0  0  0  0  0  0  0  0  0  0
  155.4241  141.2323  162.3387 H   0  0  0  0  0  0  0  0  0  0  0  0
  155.9141  140.2384  164.5529 H   0  0  0  0  0  0  0  0  0  0  0  0
  155.3641  137.8542  165.0032 H   0  0  0  0  0  0  0  0  0  0  0  0
  153.8048  137.4538  161.0099 H   0  0  0  0  0  0  0  0  0  0  0  0
  1  2  1  0  0  0  0
  1 27  1  0  0  0  0
  1 28  1  0  0  0  0
  1 29  1  0  0  0  0
  2  3  2  0  0  0  0
  2  4  1  0  0  0  0
  4  5  1  0  0  0  0
  4 30  1  0  0  0  0
  5 26  1  0  0  0  0
  5  6  1  0  0  0  0
  5  7  1  0  0  0  0
  6 31  1  0  0  0  0
  6 32  1  0  0  0  0
  6 33  1  0  0  0  0
  7 15  1  0  0  0  0
  7  8  2  0  0  0  0
  8  9  1  0  0  0  0
  9 14  2  0  0  0  0
  9 10  1  0  0  0  0
 10 11  2  0  0  0  0
 10 34  1  0  0  0  0
 11 12  1  0  0  0  0
 11 35  1  0  0  0  0
 12 13  2  0  0  0  0
 12 36  1  0  0  0  0
 13 14  1  0  0  0  0
 13 37  1  0  0  0  0
 14 15  1  0  0  0  0
 15 16  1  0  0  0  0
 16 17  1  0  0  0  0
 16 38  1  0  0  0  0
 16 39  1  0  0  0  0
 17 18  1  0  0  0  0
 17 19  1  0  0  0  0
 17 40  1  0  0  0  0
 18 41  1  0  0  0  0
 19 25  1  0  0  0  0
 19 20  2  0  0  0  0
 20 21  1  0  0  0  0
 20 42  1  0  0  0  0
 21 22  2  0  0  0  0
 21 43  1  0  0  0  0
 22 23  1  0  0  0  0
 22 44  1  0  0  0  0
 23 24  1  0  0  0  0
 23 25  2  0  0  0  0
 25 45  1  0  0  0  0
M  END
> <s_m_source_file>
AV-unprocessed.smi

> <i_m_source_file_index>
1667

> <i_lp_mmshare_version>
43012

> <i_f3d_flags>
0

> <s_epik_input>
W0NIM11DKD1PKVtOSF1bQ0BASF0oW0NIM10pYyhuMSluKGMoYzEyKVtjSF1bY0hdW2NIXVtjSF0yKVtDSDJdW0NASF0oW09IXSljM1tjSF1bY0hdW2NIXWMoRilbY0hdMw==

> <s_epik_cmdline>
J2VwaWtfcHl0aG9uJywgJy1waCcsICc3LjAnLCAnLXRuJywgJzgnLCAnLW1hJywgJzIwMCcsICctbWV0YWxfYmluZGluZycsICctaW1hZScsICc8aW5maWxlLm1hZT4nLCAnLW9tYWUnLCAnPG91dGZpbGUubWFlPic=

> <r_epik_Ionization_Penalty>
0.133011

> <r_epik_Ionization_Penalty_Charging>
0

> <r_epik_Ionization_Penalty_Neutral>
0.133011

> <r_epik_State_Penalty>
0.122384

> <r_epik_Charging_Adjusted_Penalty>
0.122384

> <i_epik_Tot_Q>
0

> <i_epik_Tot_abs_Q>
0

> <r_epik_Metal_State_Penalty>
0.0997374

> <b_epik_Metal_Only>
0

> <s_lp_Force_Field>
OPLS_2005

> <r_lp_Energy>
8.264

> <b_lp_Chiralities_Consistent>
1

> <s_lp_Variant>
AV-unprocessed.smi:1667-1

> <Gold.Version>
5.8.1

> <Gold.Id.Protein>
6NUR|6NUR_protein|mol2

> <Gold.PLP.Fitness>
53.2442

> <Gold.PLP.PLP>
-50.1790

> <Gold.PLP.part.hbond>
-2.0000

> <Gold.PLP.part.metal>
0.0000

> <Gold.PLP.part.buried>
-7.1399

> <Gold.PLP.part.nonpolar>
-40.5884

> <Gold.PLP.part.repulsive>
0.2851

> <Gold.PLP.ligand.clash>
0.0000

> <Gold.PLP.ligand.torsion>
1.5730

> <Gold.PLP.Chemscore.Hbond>
2.0000

> <Gold.PLP.Chemscore.CHOScore>
0.0000

> <Gold.PLP.Chemscore.Metal>
0.0000

> <Gold.Chemscore.Hbonds>
donor molecule, donor type, donor heavy atom, donor atom, acceptor molecule, acceptor atom, score
      P1  H  7989  7998       L1     3  1.00
      P1  H  7997  8010       L1    18  1.00

> <Gold.PLP.Chemscore.Internal.Correction>
0.2112

> <Gold.Rescore>
     Score         DG    S(hbond)    S(metal)    S(lipo)     H(rot)  DE(clash)    DE(int)     intcor
     19.81     -21.41       1.97        0.00     134.08       2.48       0.35       1.26       ----

> <Gold.Chemscore.Fitness>
19.8057

> <Gold.Chemscore.DG>
-21.4104

> <Gold.Chemscore.ZeroCoef>
-5.4800

> <Gold.Chemscore.Hbond>
1.9706

> <Gold.Chemscore.Metal>
0.0000

> <Gold.Chemscore.Lipo>
134.0779

> <Gold.Chemscore.Internal_Hbond>
0.0000

> <Gold.Chemscore.DEClash>
0.3483

> <Gold.Chemscore.DEInternal>
1.2564

> <Gold.Chemscore.Rot>
2.4760

> <Gold.Chemscore.Internal.Correction>
   9.000000E+99

> <Gold.Chemscore.Hbonds>
donor molecule, donor type, donor heavy atom, donor atom, acceptor molecule, acceptor atom, score
      P1  H  7989  7998       L1     3  0.55
      P1  H  7997  8010       L1    18  0.81

> <Gold.Chemscore.Hbond.Weighted>
-6.5818

> <Gold.Chemscore.Metal.Weighted>
-0.0000

> <Gold.Chemscore.Lipo.Weighted>
-15.6871

> <Gold.Chemscore.Internal_Hbond.Weighted>
0.0000

> <Gold.Chemscore.DEClash.Weighted>
0.3483

> <Gold.Chemscore.DEInternal.Weighted>
1.2564

> <Gold.Chemscore.Rot.Weighted>
6.3385

> <Gold.Chemscore.Internal.Correction.Weighted>
   9.000000E+99

> <Gold.Protein.RotatedTorsions>
[ 6907 6896 6895 6894 ] final  105.07 input  -60.11 | X-H torsion
[ 7974 7965 7964 7962 ] final -110.44 input  175.53 | X-H torsion
[ 8008 7997 7996 7995 ] final  -23.26 input   59.86 | X-H torsion
[ 10167 10162 10161 10158 ] final   63.04 input  -65.29 | X-H torsion
[ 10718 10713 10712 10709 ] final -131.76 input   66.30 | X-H torsion
[ 10763 10752 10751 10750 ] final  100.77 input  -60.55 | X-H torsion
[ 11005 11000 10999 10996 ] final  108.36 input  -57.11 | X-H torsion

> <Gold.Protein.ActiveResidues>
 VAL166  LYS551  ARG553  GLY616  TRP617  ASP618  TYR619  PRO620  LYS621  CYS622 
 ASP623  PHE694  ASN695  SER759  ASP760  ASP761  ALA762  ILE779  LEU786  VAL792 
 PHE793  MET794  SER795  GLU796  ALA797  LYS798  CYS799  TRP800  GLU811  SER814 

> <Gold.Protein.RotatedAtoms>
  152.5243  133.9583  159.7704 H   0  0  0  0  0  0  0  0  0  0  0  0  # atno 6907 bound_to 6896
  150.9879  133.6171  159.2719 H   0  0  0  0  0  0  0  0  0  0  0  0  # atno 6908 bound_to 6896
  151.3325  135.0851  159.9396 H   0  0  0  0  0  0  0  0  0  0  0  0  # atno 6909 bound_to 6896
  145.1683  140.8913  143.3550 H   0  0  0  0  0  0  0  0  0  0  0  0  # atno 7974 bound_to 7965
  154.4596  140.1985  156.0282 H   0  0  0  0  0  0  0  0  0  0  0  0  # atno 8008 bound_to 7997
  156.0814  140.3271  155.7670 H   0  0  0  0  0  0  0  0  0  0  0  0  # atno 8009 bound_to 7997
  155.5106  140.0561  157.2915 H   0  0  0  0  0  0  0  0  0  0  0  0  # atno 8010 bound_to 7997
  140.1374  144.4586  150.6830 H   0  0  0  0  0  0  0  0  0  0  0  0  # atno 10167 bound_to 10162
  156.2277  130.7018  151.0825 H   0  0  0  0  0  0  0  0  0  0  0  0  # atno 10718 bound_to 10713
  153.3182  135.4067  155.1394 H   0  0  0  0  0  0  0  0  0  0  0  0  # atno 10763 bound_to 10752
  154.8593  135.3581  154.5632 H   0  0  0  0  0  0  0  0  0  0  0  0  # atno 10764 bound_to 10752
  153.6064  135.7069  153.5423 H   0  0  0  0  0  0  0  0  0  0  0  0  # atno 10765 bound_to 10752
  139.8843  134.9428  156.5961 H   0  0  0  0  0  0  0  0  0  0  0  0  # atno 11005 bound_to 11000
  145.0260  139.3383  143.6049 LP  0  0  0  0  0  0  0  0  0  0  0  0  # atno 17320 bound_to 7965
  146.3472  139.9578  142.8721 LP  0  0  0  0  0  0  0  0  0  0  0  0  # atno 17321 bound_to 7965
  140.6781  143.2314  151.5455 LP  0  0  0  0  0  0  0  0  0  0  0  0  # atno 17342 bound_to 10162
  139.5489  144.2448  152.1494 LP  0  0  0  0  0  0  0  0  0  0  0  0  # atno 17343 bound_to 10162
  157.7118  131.0730  150.6472 LP  0  0  0  0  0  0  0  0  0  0  0  0  # atno 17370 bound_to 10713
  156.6538  130.4493  149.5710 LP  0  0  0  0  0  0  0  0  0  0  0  0  # atno 17371 bound_to 10713
  140.7919  133.8575  155.8653 LP  0  0  0  0  0  0  0  0  0  0  0  0  # atno 17394 bound_to 11000
  140.9669  134.1582  157.4608 LP  0  0  0  0  0  0  0  0  0  0  0  0  # atno 17395 bound_to 11000

$$$$
