AV-unprocessed.smi:2727|AV-procd|sdf|10522|dock9
  -GOLD-   2272014563D 1   1.00000     0.00000
 Structure written by MMmdl.
 40 41  0  0  0  0  0  0  0  0  1 V2000
  150.1396  140.3191  154.6156 O   0  0  0  0  0  0  0  0  0  0  0  0
  149.4360  141.3323  154.6843 C   0  0  0  0  0  0  0  0  0  0  0  0
  149.7231  142.3263  155.5387 N   0  0  0  0  0  0  0  0  0  0  0  0
  150.8588  142.3504  156.4547 C   0  0  0  0  0  0  0  0  0  0  0  0
  150.4591  141.8749  157.8665 C   0  0  0  0  0  0  0  0  0  0  0  0
  151.6588  141.6393  158.8021 C   0  0  0  0  0  0  0  0  0  0  0  0
  151.8122  140.5269  159.3102 O   0  0  0  0  0  0  0  0  0  0  0  0
  152.5108  142.6642  159.0515 N   0  0  0  0  0  0  0  0  0  0  0  0
  153.6242  142.5218  159.9974 C   0  0  0  0  0  0  0  0  0  0  0  0
  153.1734  142.7287  161.4580 C   0  0  0  0  0  0  0  0  0  0  0  0
  152.0635  143.7799  161.6800 C   0  0  0  0  0  0  0  0  0  0  0  0
  152.2003  145.0701  160.8477 C   0  0  0  0  0  0  0  0  0  0  0  0
  151.6143  144.9557  159.4239 C   0  0  0  0  0  0  0  0  0  0  0  0
  152.3926  144.0154  158.4846 C   0  0  0  0  0  0  0  0  0  0  0  0
  148.2989  141.6465  153.9542 N   0  0  0  0  0  0  0  0  0  0  0  0
  147.6137  140.6986  153.3925 C   0  0  0  0  0  0  0  0  0  0  0  0
  146.4622  140.8244  152.6317 N   0  0  0  0  0  0  0  0  0  0  0  0
  146.0779  139.5745  152.2310 C   0  0  0  0  0  0  0  0  0  0  0  0
  146.9490  138.6970  152.7203 C   0  0  0  0  0  0  0  0  0  0  0  0
  147.9028  139.3540  153.4372 O   0  0  0  0  0  0  0  0  0  0  0  0
  149.1125  143.1306  155.5482 H   0  0  0  0  0  0  0  0  0  0  0  0
  151.6686  141.7391  156.0519 H   0  0  0  0  0  0  0  0  0  0  0  0
  151.2336  143.3736  156.4960 H   0  0  0  0  0  0  0  0  0  0  0  0
  149.7946  142.6094  158.3227 H   0  0  0  0  0  0  0  0  0  0  0  0
  149.8973  140.9453  157.7795 H   0  0  0  0  0  0  0  0  0  0  0  0
  154.1069  141.5491  159.8895 H   0  0  0  0  0  0  0  0  0  0  0  0
  154.4096  143.2428  159.7690 H   0  0  0  0  0  0  0  0  0  0  0  0
  152.8253  141.7777  161.8625 H   0  0  0  0  0  0  0  0  0  0  0  0
  154.0477  142.9961  162.0521 H   0  0  0  0  0  0  0  0  0  0  0  0
  151.0883  143.3303  161.4869 H   0  0  0  0  0  0  0  0  0  0  0  0
  152.0552  144.0399  162.7389 H   0  0  0  0  0  0  0  0  0  0  0  0
  151.6569  145.8627  161.3636 H   0  0  0  0  0  0  0  0  0  0  0  0
  153.2403  145.3966  160.8142 H   0  0  0  0  0  0  0  0  0  0  0  0
  150.5728  144.6399  159.4869 H   0  0  0  0  0  0  0  0  0  0  0  0
  151.5935  145.9488  158.9742 H   0  0  0  0  0  0  0  0  0  0  0  0
  153.3818  144.4333  158.2945 H   0  0  0  0  0  0  0  0  0  0  0  0
  151.9196  143.9985  157.5032 H   0  0  0  0  0  0  0  0  0  0  0  0
  145.9643  141.6674  152.3841 H   0  0  0  0  0  0  0  0  0  0  0  0
  145.1972  139.4429  151.6202 H   0  0  0  0  0  0  0  0  0  0  0  0
  147.0261  137.6221  152.6502 H   0  0  0  0  0  0  0  0  0  0  0  0
  1  2  2  0  0  0  0
  2 15  1  0  0  0  0
  2  3  1  0  0  0  0
  3  4  1  0  0  0  0
  3 21  1  0  0  0  0
  4  5  1  0  0  0  0
  4 22  1  0  0  0  0
  4 23  1  0  0  0  0
  5  6  1  0  0  0  0
  5 24  1  0  0  0  0
  5 25  1  0  0  0  0
  6  7  2  0  0  0  0
  6  8  1  0  0  0  0
  8 14  1  0  0  0  0
  8  9  1  0  0  0  0
  9 10  1  0  0  0  0
  9 26  1  0  0  0  0
  9 27  1  0  0  0  0
 10 11  1  0  0  0  0
 10 28  1  0  0  0  0
 10 29  1  0  0  0  0
 11 12  1  0  0  0  0
 11 30  1  0  0  0  0
 11 31  1  0  0  0  0
 12 13  1  0  0  0  0
 12 32  1  0  0  0  0
 12 33  1  0  0  0  0
 13 14  1  0  0  0  0
 13 34  1  0  0  0  0
 13 35  1  0  0  0  0
 14 36  1  0  0  0  0
 14 37  1  0  0  0  0
 15 16  2  0  0  0  0
 16 20  1  0  0  0  0
 16 17  1  0  0  0  0
 17 38  1  0  0  0  0
 17 18  1  0  0  0  0
 18 39  1  0  0  0  0
 18 19  2  0  0  0  0
 19 40  1  0  0  0  0
 19 20  1  0  0  0  0
M  END
> <s_m_source_file>
AV-unprocessed.smi

> <i_m_source_file_index>
2727

> <i_lp_mmshare_version>
43012

> <i_f3d_flags>
0

> <s_epik_input>
bzFbY0hdW2NIXW5jMVtOSF1DKD1PKVtOSF1bQ0gyXVtDSDJdQyg9TylOMltDSDJdW0NIMl1bQ0gyXVtDSDJdW0NIMl1bQ0gyXTI=

> <s_epik_cmdline>
J2VwaWtfcHl0aG9uJywgJy1waCcsICc3LjAnLCAnLXRuJywgJzgnLCAnLW1hJywgJzIwMCcsICctbWV0YWxfYmluZGluZycsICctaW1hZScsICc8aW5maWxlLm1hZT4nLCAnLW9tYWUnLCAnPG91dGZpbGUubWFlPic=

> <r_lp_tautomer_probability>
0.107061

> <r_epik_Ionization_Penalty>
0.376272

> <r_epik_Ionization_Penalty_Charging>
0.375918

> <r_epik_Ionization_Penalty_Neutral>
0.000353756

> <r_epik_State_Penalty>
2.48665

> <r_epik_Charging_Adjusted_Penalty>
2.86256

> <i_epik_Tot_Q>
0

> <i_epik_Tot_abs_Q>
0

> <r_epik_Metal_State_Penalty>
4.1171

> <b_epik_Metal_Only>
0

> <s_lp_Force_Field>
OPLS_2005

> <r_lp_Energy>
48.3689

> <b_lp_Chiralities_Consistent>
1

> <s_lp_Variant>
AV-unprocessed.smi:2727-2

> <Gold.Version>
5.8.1

> <Gold.Id.Protein>
6NUR|6NUR_protein|mol2

> <Gold.PLP.Fitness>
55.9235

> <Gold.PLP.PLP>
-42.6076

> <Gold.PLP.part.hbond>
-3.9656

> <Gold.PLP.part.metal>
0.0000

> <Gold.PLP.part.buried>
1.1693

> <Gold.PLP.part.nonpolar>
-40.9913

> <Gold.PLP.part.repulsive>
2.2697

> <Gold.PLP.ligand.clash>
0.0000

> <Gold.PLP.ligand.torsion>
0.3023

> <Gold.PLP.Chemscore.Hbond>
2.0933

> <Gold.PLP.Chemscore.CHOScore>
2.5407

> <Gold.PLP.Chemscore.Metal>
0.0000

> <Gold.Chemscore.Hbonds>
donor molecule, donor type, donor heavy atom, donor atom, acceptor molecule, acceptor atom, score
      L1  H     3    21       P1  8028  1.00
      P1  H  7989  7998       L1     1  1.00
      P1  H  8011  8017       L1    15  0.04
      L1  C    18    39       P1 10171  1.00
      L1  C    18    39       P1 10175  0.54
      L1  C    19    40       P1  7948  0.97

> <Gold.PLP.Chemscore.Internal.Correction>
0.0186

> <Gold.Rescore>
     Score         DG    S(hbond)    S(metal)    S(lipo)     H(rot)  DE(clash)    DE(int)     intcor
     13.90     -17.79       1.44        0.00     101.39       1.70       2.08       1.81       ----

> <Gold.Chemscore.Fitness>
13.8988

> <Gold.Chemscore.DG>
-17.7886

> <Gold.Chemscore.ZeroCoef>
-5.4800

> <Gold.Chemscore.Hbond>
1.4383

> <Gold.Chemscore.Metal>
0.0000

> <Gold.Chemscore.Lipo>
101.3945

> <Gold.Chemscore.Internal_Hbond>
0.0000

> <Gold.Chemscore.DEClash>
2.0841

> <Gold.Chemscore.DEInternal>
1.8057

> <Gold.Chemscore.Rot>
1.7025

> <Gold.Chemscore.Internal.Correction>
   9.000000E+99

> <Gold.Chemscore.Hbonds>
donor molecule, donor type, donor heavy atom, donor atom, acceptor molecule, acceptor atom, score
      L1  H     3    21       P1  8028  0.94
      P1  H  7989  7998       L1     1  0.37

> <Gold.Chemscore.Hbond.Weighted>
-4.8038

> <Gold.Chemscore.Metal.Weighted>
-0.0000

> <Gold.Chemscore.Lipo.Weighted>
-11.8632

> <Gold.Chemscore.Internal_Hbond.Weighted>
0.0000

> <Gold.Chemscore.DEClash.Weighted>
2.0841

> <Gold.Chemscore.DEInternal.Weighted>
1.8057

> <Gold.Chemscore.Rot.Weighted>
4.3584

> <Gold.Chemscore.Internal.Correction.Weighted>
   9.000000E+99

> <Gold.Protein.RotatedTorsions>
[ 6907 6896 6895 6894 ] final   99.33 input  -60.11 | X-H torsion
[ 7974 7965 7964 7962 ] final -170.84 input  175.53 | X-H torsion
[ 8008 7997 7996 7995 ] final   72.70 input   59.86 | X-H torsion
[ 10167 10162 10161 10158 ] final  -37.64 input  -65.29 | X-H torsion
[ 10718 10713 10712 10709 ] final  151.09 input   66.30 | X-H torsion
[ 10763 10752 10751 10750 ] final  167.63 input  -60.55 | X-H torsion
[ 11005 11000 10999 10996 ] final -176.46 input  -57.11 | X-H torsion

> <Gold.Protein.ActiveResidues>
 VAL166  LYS551  ARG553  GLY616  TRP617  ASP618  TYR619  PRO620  LYS621  CYS622 
 ASP623  PHE694  ASN695  SER759  ASP760  ASP761  ALA762  ILE779  LEU786  VAL792 
 PHE793  MET794  SER795  GLU796  ALA797  LYS798  CYS799  TRP800  GLU811  SER814 

> <Gold.Protein.RotatedAtoms>
  152.5394  134.0444  159.8081 H   0  0  0  0  0  0  0  0  0  0  0  0  # atno 6907 bound_to 6896
  151.0595  133.5548  159.2642 H   0  0  0  0  0  0  0  0  0  0  0  0  # atno 6908 bound_to 6896
  151.2452  135.0611  159.9094 H   0  0  0  0  0  0  0  0  0  0  0  0  # atno 6909 bound_to 6896
  144.7164  140.2011  143.6338 H   0  0  0  0  0  0  0  0  0  0  0  0  # atno 7974 bound_to 7965
  155.7727  140.3484  155.5255 H   0  0  0  0  0  0  0  0  0  0  0  0  # atno 8008 bound_to 7997
  155.8806  140.1001  157.1508 H   0  0  0  0  0  0  0  0  0  0  0  0  # atno 8009 bound_to 7997
  154.4024  140.1323  156.4179 H   0  0  0  0  0  0  0  0  0  0  0  0  # atno 8010 bound_to 7997
  140.7113  143.3328  151.2529 H   0  0  0  0  0  0  0  0  0  0  0  0  # atno 10167 bound_to 10162
  157.2752  131.0824  151.1571 H   0  0  0  0  0  0  0  0  0  0  0  0  # atno 10718 bound_to 10713
  154.3567  135.2753  155.2342 H   0  0  0  0  0  0  0  0  0  0  0  0  # atno 10763 bound_to 10752
  154.4549  135.5922  153.6219 H   0  0  0  0  0  0  0  0  0  0  0  0  # atno 10764 bound_to 10752
  152.9846  135.6051  154.3783 H   0  0  0  0  0  0  0  0  0  0  0  0  # atno 10765 bound_to 10752
  140.4518  134.6336  157.4804 H   0  0  0  0  0  0  0  0  0  0  0  0  # atno 11005 bound_to 11000
  145.8679  139.2256  143.1678 LP  0  0  0  0  0  0  0  0  0  0  0  0  # atno 17320 bound_to 7965
  146.0112  140.8433  142.9970 LP  0  0  0  0  0  0  0  0  0  0  0  0  # atno 17321 bound_to 7965
  139.6815  143.9846  152.2811 LP  0  0  0  0  0  0  0  0  0  0  0  0  # atno 17342 bound_to 10162
  139.9477  144.6640  150.8202 LP  0  0  0  0  0  0  0  0  0  0  0  0  # atno 17343 bound_to 10162
  157.3027  130.6851  149.6173 LP  0  0  0  0  0  0  0  0  0  0  0  0  # atno 17370 bound_to 10713
  155.9663  130.4387  150.5228 LP  0  0  0  0  0  0  0  0  0  0  0  0  # atno 17371 bound_to 10713
  140.0002  134.6849  155.9543 LP  0  0  0  0  0  0  0  0  0  0  0  0  # atno 17394 bound_to 11000
  141.1661  133.6537  156.4483 LP  0  0  0  0  0  0  0  0  0  0  0  0  # atno 17395 bound_to 11000

$$$$
