AV-unprocessed.smi:1960|AV-procd|sdf|7917|dock8
  -GOLD-   2272010 83D 1   1.00000     0.00000
 Structure written by MMmdl.
 39 40  0  0  0  0  0  0  0  0  2 V2000
  150.9892  141.5814  157.6061 C   0  0  0  0  0  0  0  0  0  0  0  0
  151.6688  140.0350  156.8780 S   0  0  0  0  0  0  0  0  0  0  0  0
  151.6876  140.1865  155.4149 O   0  0  0  0  0  0  0  0  0  0  0  0
  152.9101  139.6989  157.5921 O   0  0  0  0  0  0  0  0  0  0  0  0
  150.4830  138.8236  157.2728 N   0  0  0  0  0  0  0  0  0  0  0  0
  149.0448  139.1238  157.1250 C   0  0  0  0  0  0  0  0  0  0  0  0
  148.4630  138.5077  155.8403 C   0  0  0  0  0  0  0  0  0  0  0  0
  148.7483  136.9981  155.7624 C   0  0  0  0  0  0  0  0  0  0  0  0
  148.2579  136.4374  154.5061 N   0  0  0  0  0  0  0  0  0  0  0  0
  146.9786  136.1331  154.2436 C   0  0  0  0  0  0  0  0  0  0  0  0
  146.0613  136.3078  155.0452 O   0  0  0  0  0  0  0  0  0  0  0  0
  146.8398  135.6409  153.0001 N   0  0  0  0  0  0  0  0  0  0  0  0
  145.6559  135.1952  152.3510 C   0  0  0  0  0  0  0  0  0  0  0  0
  144.4649  135.1673  153.1103 C   0  0  0  0  0  0  0  0  0  0  0  0
  143.2630  134.7475  152.5045 C   0  0  0  0  0  0  0  0  0  0  0  0
  143.2563  134.3853  151.2038 N   0  3  0  0  0  0  0  0  0  0  0  0
  144.3653  134.4090  150.4338 C   0  0  0  0  0  0  0  0  0  0  0  0
  145.5965  134.8199  150.9843 C   0  0  0  0  0  0  0  0  0  0  0  0
  150.2609  136.7625  155.8825 C   0  0  0  0  0  0  0  0  0  0  0  0
  150.8271  137.3912  157.1679 C   0  0  0  0  0  0  0  0  0  0  0  0
  151.6767  142.4018  157.4020 H   0  0  0  0  0  0  0  0  0  0  0  0
  150.8843  141.4694  158.6838 H   0  0  0  0  0  0  0  0  0  0  0  0
  150.0241  141.8103  157.1576 H   0  0  0  0  0  0  0  0  0  0  0  0
  148.5191  138.7208  157.9914 H   0  0  0  0  0  0  0  0  0  0  0  0
  148.8777  140.2004  157.1385 H   0  0  0  0  0  0  0  0  0  0  0  0
  147.3880  138.6888  155.8111 H   0  0  0  0  0  0  0  0  0  0  0  0
  148.8778  139.0090  154.9665 H   0  0  0  0  0  0  0  0  0  0  0  0
  148.2542  136.4959  156.5965 H   0  0  0  0  0  0  0  0  0  0  0  0
  148.9463  136.2669  153.7878 H   0  0  0  0  0  0  0  0  0  0  0  0
  147.6736  135.6364  152.4311 H   0  0  0  0  0  0  0  0  0  0  0  0
  144.4692  135.4586  154.1508 H   0  0  0  0  0  0  0  0  0  0  0  0
  142.3137  134.6929  153.0171 H   0  0  0  0  0  0  0  0  0  0  0  0
  144.2348  134.1072  149.4047 H   0  0  0  0  0  0  0  0  0  0  0  0
  146.4654  134.8509  150.3448 H   0  0  0  0  0  0  0  0  0  0  0  0
  150.4717  135.6924  155.8801 H   0  0  0  0  0  0  0  0  0  0  0  0
  150.7718  137.1738  155.0126 H   0  0  0  0  0  0  0  0  0  0  0  0
  151.9072  137.2551  157.2131 H   0  0  0  0  0  0  0  0  0  0  0  0
  150.4170  136.8753  158.0367 H   0  0  0  0  0  0  0  0  0  0  0  0
  142.3759  134.0860  150.7835 H   0  0  0  0  0  0  0  0  0  0  0  0
  1  2  1  0  0  0  0
  1 21  1  0  0  0  0
  1 22  1  0  0  0  0
  1 23  1  0  0  0  0
  2  3  2  0  0  0  0
  2  4  2  0  0  0  0
  2  5  1  0  0  0  0
  5 20  1  0  0  0  0
  5  6  1  0  0  0  0
  6  7  1  0  0  0  0
  6 24  1  0  0  0  0
  6 25  1  0  0  0  0
  7  8  1  0  0  0  0
  7 26  1  0  0  0  0
  7 27  1  0  0  0  0
  8  9  1  0  0  0  0
  8 19  1  0  0  0  0
  8 28  1  0  0  0  0
  9 10  1  0  0  0  0
  9 29  1  0  0  0  0
 10 11  2  0  0  0  0
 10 12  1  0  0  0  0
 12 13  1  0  0  0  0
 12 30  1  0  0  0  0
 13 18  1  0  0  0  0
 13 14  2  0  0  0  0
 14 15  1  0  0  0  0
 14 31  1  0  0  0  0
 15 16  2  0  0  0  0
 15 32  1  0  0  0  0
 16 17  1  0  0  0  0
 16 39  1  0  0  0  0
 17 18  2  0  0  0  0
 17 33  1  0  0  0  0
 18 34  1  0  0  0  0
 19 20  1  0  0  0  0
 19 35  1  0  0  0  0
 19 36  1  0  0  0  0
 20 37  1  0  0  0  0
 20 38  1  0  0  0  0
M  CHG  1  16   1
M  END
> <s_m_source_file>
AV-unprocessed.smi

> <i_m_source_file_index>
1960

> <i_lp_mmshare_version>
43012

> <i_f3d_flags>
0

> <s_epik_input>
W0NIM11TKD1PKSg9TylOMVtDSDJdW0NIMl1bQ0hdKFtDSDJdW0NIMl0xKVtOSF1DKD1PKVtOSF1jMltjSF1bY0hdbltjSF1bY0hdMg==

> <s_epik_cmdline>
J2VwaWtfcHl0aG9uJywgJy1waCcsICc3LjAnLCAnLXRuJywgJzgnLCAnLW1hJywgJzIwMCcsICctbWV0YWxfYmluZGluZycsICctaW1hZScsICc8aW5maWxlLm1hZT4nLCAnLW9tYWUnLCAnPG91dGZpbGUubWFlPic=

> <r_epik_Ionization_Penalty>
1.01996

> <r_epik_Ionization_Penalty_Charging>
1.01994

> <r_epik_Ionization_Penalty_Neutral>
1.92463e-05

> <r_epik_State_Penalty>
1.07014

> <r_epik_Charging_Adjusted_Penalty>
2.09007

> <i_epik_Tot_Q>
1

> <i_epik_Tot_abs_Q>
1

> <r_epik_Metal_State_Penalty>
1.16909

> <b_epik_Metal_Only>
0

> <s_lp_Force_Field>
OPLS_2005

> <r_lp_Energy>
12.0857

> <b_lp_Chiralities_Consistent>
1

> <s_lp_Variant>
AV-unprocessed.smi:1960-2

> <Gold.Version>
5.8.1

> <Gold.Id.Protein>
6NUR|6NUR_protein|mol2

> <Gold.PLP.Fitness>
37.1302

> <Gold.PLP.PLP>
-21.2261

> <Gold.PLP.part.hbond>
-4.8952

> <Gold.PLP.part.metal>
0.0000

> <Gold.PLP.part.buried>
-3.7744

> <Gold.PLP.part.nonpolar>
-13.0928

> <Gold.PLP.part.repulsive>
0.0468

> <Gold.PLP.ligand.clash>
0.0000

> <Gold.PLP.ligand.torsion>
1.4498

> <Gold.PLP.Chemscore.Hbond>
5.5840

> <Gold.PLP.Chemscore.CHOScore>
0.0000

> <Gold.PLP.Chemscore.Metal>
0.0000

> <Gold.Chemscore.Hbonds>
donor molecule, donor type, donor heavy atom, donor atom, acceptor molecule, acceptor atom, score
      L1  H     9    29       P1  7948  0.74
      L1  H    12    30       P1  7948  0.93
      L1  H    16    39       P1 10186  1.92
      P1  H  7989  7998       L1     3  0.90
      P1  H  7997  8010       L1     4  1.00

> <Gold.PLP.Chemscore.Internal.Correction>
2.0518

> <Gold.Rescore>
     Score         DG    S(hbond)    S(metal)    S(lipo)     H(rot)  DE(clash)    DE(int)     intcor
     19.14     -22.06       4.34        0.00      39.76       1.00       0.05       2.87       ----

> <Gold.Chemscore.Fitness>
19.1363

> <Gold.Chemscore.DG>
-22.0602

> <Gold.Chemscore.ZeroCoef>
-5.4800

> <Gold.Chemscore.Hbond>
4.3379

> <Gold.Chemscore.Metal>
0.0000

> <Gold.Chemscore.Lipo>
39.7579

> <Gold.Chemscore.Internal_Hbond>
0.0000

> <Gold.Chemscore.DEClash>
0.0505

> <Gold.Chemscore.DEInternal>
2.8734

> <Gold.Chemscore.Rot>
1.0000

> <Gold.Chemscore.Internal.Correction>
   9.000000E+99

> <Gold.Chemscore.Hbonds>
donor molecule, donor type, donor heavy atom, donor atom, acceptor molecule, acceptor atom, score
      L1  H     9    29       P1  7948  0.73
      L1  H    12    30       P1  7948  0.87
      L1  H    16    39       P1 10186  0.41
      P1  H  7989  7998       L1     3  0.82
      P1  H  7997  8010       L1     4  0.99

> <Gold.Chemscore.Hbond.Weighted>
-14.4885

> <Gold.Chemscore.Metal.Weighted>
-0.0000

> <Gold.Chemscore.Lipo.Weighted>
-4.6517

> <Gold.Chemscore.Internal_Hbond.Weighted>
0.0000

> <Gold.Chemscore.DEClash.Weighted>
0.0505

> <Gold.Chemscore.DEInternal.Weighted>
2.8734

> <Gold.Chemscore.Rot.Weighted>
2.5600

> <Gold.Chemscore.Internal.Correction.Weighted>
   9.000000E+99

> <Gold.Protein.RotatedTorsions>
[ 6907 6896 6895 6894 ] final  -45.27 input  -60.11 | X-H torsion
[ 7974 7965 7964 7962 ] final  -32.41 input  175.53 | X-H torsion
[ 8008 7997 7996 7995 ] final   38.12 input   59.86 | X-H torsion
[ 10167 10162 10161 10158 ] final -141.28 input  -65.29 | X-H torsion
[ 10718 10713 10712 10709 ] final   76.38 input   66.30 | X-H torsion
[ 10763 10752 10751 10750 ] final -115.28 input  -60.55 | X-H torsion
[ 11005 11000 10999 10996 ] final  138.86 input  -57.11 | X-H torsion

> <Gold.Protein.ActiveResidues>
 VAL166  LYS551  ARG553  GLY616  TRP617  ASP618  TYR619  PRO620  LYS621  CYS622 
 ASP623  PHE694  ASN695  SER759  ASP760  ASP761  ALA762  ILE779  LEU786  VAL792 
 PHE793  MET794  SER795  GLU796  ALA797  LYS798  CYS799  TRP800  GLU811  SER814 

> <Gold.Protein.RotatedAtoms>
  150.9238  134.8655  159.7506 H   0  0  0  0  0  0  0  0  0  0  0  0  # atno 6907 bound_to 6896
  152.5005  134.4179  159.9481 H   0  0  0  0  0  0  0  0  0  0  0  0  # atno 6908 bound_to 6896
  151.4211  133.3658  159.2791 H   0  0  0  0  0  0  0  0  0  0  0  0  # atno 6909 bound_to 6896
  146.0992  140.5789  142.8829 H   0  0  0  0  0  0  0  0  0  0  0  0  # atno 7974 bound_to 7965
  155.2150  140.3326  155.4323 H   0  0  0  0  0  0  0  0  0  0  0  0  # atno 8008 bound_to 7997
  156.2355  140.1870  156.7177 H   0  0  0  0  0  0  0  0  0  0  0  0  # atno 8009 bound_to 7997
  154.6053  140.0617  156.9408 H   0  0  0  0  0  0  0  0  0  0  0  0  # atno 8010 bound_to 7997
  139.8199  143.7587  152.2666 H   0  0  0  0  0  0  0  0  0  0  0  0  # atno 10167 bound_to 10162
  157.6671  130.9771  150.1489 H   0  0  0  0  0  0  0  0  0  0  0  0  # atno 10718 bound_to 10713
  154.8475  135.4387  154.1638 H   0  0  0  0  0  0  0  0  0  0  0  0  # atno 10763 bound_to 10752
  153.2769  135.6950  153.7431 H   0  0  0  0  0  0  0  0  0  0  0  0  # atno 10764 bound_to 10752
  153.6650  135.3428  155.3112 H   0  0  0  0  0  0  0  0  0  0  0  0  # atno 10765 bound_to 10752
  140.0213  134.9395  157.0480 H   0  0  0  0  0  0  0  0  0  0  0  0  # atno 11005 bound_to 11000
  144.7419  140.4965  143.6863 LP  0  0  0  0  0  0  0  0  0  0  0  0  # atno 17320 bound_to 7965
  145.5888  139.1494  143.3194 LP  0  0  0  0  0  0  0  0  0  0  0  0  # atno 17321 bound_to 7965
  139.7762  144.7460  151.0153 LP  0  0  0  0  0  0  0  0  0  0  0  0  # atno 17342 bound_to 10162
  140.7814  143.4591  151.0304 LP  0  0  0  0  0  0  0  0  0  0  0  0  # atno 17343 bound_to 10162
  156.2293  130.3680  149.8464 LP  0  0  0  0  0  0  0  0  0  0  0  0  # atno 17370 bound_to 10713
  156.6295  130.8660  151.3492 LP  0  0  0  0  0  0  0  0  0  0  0  0  # atno 17371 bound_to 10713
  140.4382  134.1709  155.7172 LP  0  0  0  0  0  0  0  0  0  0  0  0  # atno 17394 bound_to 11000
  141.1776  133.8482  157.1370 LP  0  0  0  0  0  0  0  0  0  0  0  0  # atno 17395 bound_to 11000

$$$$
