AV-unprocessed.smi:1419|AV-procd|sdf|5774|dock5
  -GOLD-   22720 5413D 1   1.00000     0.00000
 Structure written by MMmdl.
 42 43  0  0  0  0  0  0  0  0  2 V2000
  148.0744  140.9899  157.1109 C   0  0  0  0  0  0  0  0  0  0  0  0
  148.8443  141.6913  155.9842 C   0  0  2  0  0  0  0  0  0  0  0  0
  149.2574  140.6936  154.8800 C   0  0  0  0  0  0  0  0  0  0  0  0
  148.1208  140.2112  154.0878 N   0  0  0  0  0  0  0  0  0  0  0  0
  148.0815  139.1051  153.2774 C   0  0  0  0  0  0  0  0  0  0  0  0
  146.8258  139.0675  152.7284 C   0  0  0  0  0  0  0  0  0  0  0  0
  146.1503  140.1470  153.2318 N   0  3  0  0  0  0  0  0  0  0  0  0
  146.9378  140.8381  154.0623 C   0  0  0  0  0  0  0  0  0  0  0  0
  150.0200  142.3510  156.5502 N   0  0  0  0  0  0  0  0  0  0  0  0
  151.0347  141.7427  157.1896 C   0  0  0  0  0  0  0  0  0  0  0  0
  151.1100  140.5169  157.2852 O   0  0  0  0  0  0  0  0  0  0  0  0
  151.9563  142.5855  157.7165 N   0  0  0  0  0  0  0  0  0  0  0  0
  151.7645  144.0111  158.0139 C   0  0  0  0  0  0  0  0  0  0  0  0
  151.5579  144.1534  159.5354 C   0  0  2  0  0  0  0  0  0  0  0  0
  151.3916  145.6147  159.9650 C   0  0  0  0  0  0  0  0  0  0  0  0
  152.6939  143.6149  160.2123 O   0  0  0  0  0  0  0  0  0  0  0  0
  152.9584  142.2452  159.9065 C   0  0  2  0  0  0  0  0  0  0  0  0
  154.1900  141.8044  160.7039 C   0  0  0  0  0  0  0  0  0  0  0  0
  153.1650  142.1001  158.3849 C   0  0  0  0  0  0  0  0  0  0  0  0
  147.1795  140.4985  156.7276 H   0  0  0  0  0  0  0  0  0  0  0  0
  147.7559  141.7029  157.8720 H   0  0  0  0  0  0  0  0  0  0  0  0
  148.6867  140.2312  157.5997 H   0  0  0  0  0  0  0  0  0  0  0  0
  148.1729  142.4362  155.5532 H   0  0  0  0  0  0  0  0  0  0  0  0
  149.9759  141.1492  154.1971 H   0  0  0  0  0  0  0  0  0  0  0  0
  149.7456  139.8210  155.3164 H   0  0  0  0  0  0  0  0  0  0  0  0
  148.9303  138.4494  153.1480 H   0  0  0  0  0  0  0  0  0  0  0  0
  146.3745  138.3728  152.0352 H   0  0  0  0  0  0  0  0  0  0  0  0
  146.6742  141.7341  154.5958 H   0  0  0  0  0  0  0  0  0  0  0  0
  150.0433  143.3589  156.4925 H   0  0  0  0  0  0  0  0  0  0  0  0
  152.6495  144.5667  157.7000 H   0  0  0  0  0  0  0  0  0  0  0  0
  150.9312  144.4655  157.4778 H   0  0  0  0  0  0  0  0  0  0  0  0
  150.6690  143.5978  159.8389 H   0  0  0  0  0  0  0  0  0  0  0  0
  150.5236  146.0685  159.4863 H   0  0  0  0  0  0  0  0  0  0  0  0
  152.2684  146.2061  159.6996 H   0  0  0  0  0  0  0  0  0  0  0  0
  151.2533  145.6906  161.0437 H   0  0  0  0  0  0  0  0  0  0  0  0
  152.1050  141.6414  160.2209 H   0  0  0  0  0  0  0  0  0  0  0  0
  154.4229  140.7556  160.5185 H   0  0  0  0  0  0  0  0  0  0  0  0
  154.0236  141.9233  161.7747 H   0  0  0  0  0  0  0  0  0  0  0  0
  155.0664  142.3948  160.4352 H   0  0  0  0  0  0  0  0  0  0  0  0
  153.3984  141.0652  158.1297 H   0  0  0  0  0  0  0  0  0  0  0  0
  154.0241  142.6885  158.0594 H   0  0  0  0  0  0  0  0  0  0  0  0
  145.1942  140.3916  153.0072 H   0  0  0  0  0  0  0  0  0  0  0  0
  1  2  1  0  0  0  0
  1 20  1  0  0  0  0
  1 21  1  0  0  0  0
  1 22  1  0  0  0  0
  2  3  1  0  0  0  0
  2  9  1  0  0  0  0
  2 23  1  0  0  0  0
  3  4  1  0  0  0  0
  3 24  1  0  0  0  0
  3 25  1  0  0  0  0
  4  8  1  0  0  0  0
  4  5  1  0  0  0  0
  5  6  2  0  0  0  0
  5 26  1  0  0  0  0
  6  7  1  0  0  0  0
  6 27  1  0  0  0  0
  7  8  2  0  0  0  0
  7 42  1  0  0  0  0
  8 28  1  0  0  0  0
  9 10  1  0  0  0  0
  9 29  1  0  0  0  0
 10 11  2  0  0  0  0
 10 12  1  0  0  0  0
 12 19  1  0  0  0  0
 12 13  1  0  0  0  0
 13 14  1  0  0  0  0
 13 30  1  0  0  0  0
 13 31  1  0  0  0  0
 14 15  1  0  0  0  0
 14 16  1  0  0  0  0
 14 32  1  0  0  0  0
 15 33  1  0  0  0  0
 15 34  1  0  0  0  0
 15 35  1  0  0  0  0
 16 17  1  0  0  0  0
 17 18  1  0  0  0  0
 17 19  1  0  0  0  0
 17 36  1  0  0  0  0
 18 37  1  0  0  0  0
 18 38  1  0  0  0  0
 18 39  1  0  0  0  0
 19 40  1  0  0  0  0
 19 41  1  0  0  0  0
M  CHG  1   7   1
M  END
> <s_m_source_file>
AV-unprocessed.smi

> <i_m_source_file_index>
1419

> <i_lp_mmshare_version>
43012

> <i_f3d_flags>
0

> <s_epik_input>
W2NIXTFuW2NIXVtjSF1uMVtDSDJdW0NAQEhdKFtDSDNdKVtOSF1DKD1PKU4yW0NIMl1bQ0BASF0oW0NIM10pT1tDQEBIXShbQ0gzXSlbQ0gyXTI=

> <s_epik_cmdline>
J2VwaWtfcHl0aG9uJywgJy1waCcsICc3LjAnLCAnLXRuJywgJzgnLCAnLW1hJywgJzIwMCcsICctbWV0YWxfYmluZGluZycsICctaW1hZScsICc8aW5maWxlLm1hZT4nLCAnLW9tYWUnLCAnPG91dGZpbGUubWFlPic=

> <r_lp_tautomer_probability>
1

> <r_epik_Ionization_Penalty>
0.253607

> <r_epik_Ionization_Penalty_Charging>
0

> <r_epik_Ionization_Penalty_Neutral>
0.253607

> <r_epik_State_Penalty>
0.245018

> <r_epik_Charging_Adjusted_Penalty>
0.245018

> <i_epik_Tot_Q>
1

> <i_epik_Tot_abs_Q>
1

> <r_epik_Metal_State_Penalty>
0.535379

> <b_epik_Metal_Only>
0

> <s_lp_Force_Field>
OPLS_2005

> <r_lp_Energy>
29.0063

> <b_lp_Chiralities_Consistent>
1

> <s_lp_Variant>
AV-unprocessed.smi:1419-1

> <Gold.Version>
5.8.1

> <Gold.Id.Protein>
6NUR|6NUR_protein|mol2

> <Gold.PLP.Fitness>
47.4924

> <Gold.PLP.PLP>
-37.8945

> <Gold.PLP.part.hbond>
-2.0000

> <Gold.PLP.part.metal>
0.0000

> <Gold.PLP.part.buried>
-3.7495

> <Gold.PLP.part.nonpolar>
-33.1588

> <Gold.PLP.part.repulsive>
0.0905

> <Gold.PLP.ligand.clash>
0.0000

> <Gold.PLP.ligand.torsion>
0.3913

> <Gold.PLP.Chemscore.Hbond>
2.5070

> <Gold.PLP.Chemscore.CHOScore>
0.9257

> <Gold.PLP.Chemscore.Metal>
0.0000

> <Gold.Chemscore.Hbonds>
donor molecule, donor type, donor heavy atom, donor atom, acceptor molecule, acceptor atom, score
      L1  H     7    42       P1 10175  2.00
      L1  H     9    29       P1  8028  0.70
      L1  C     5    26       P1  7948  0.93
      L1  C     5    26       P1  7957  0.10

> <Gold.PLP.Chemscore.Internal.Correction>
0.0827

> <Gold.Rescore>
     Score         DG    S(hbond)    S(metal)    S(lipo)     H(rot)  DE(clash)    DE(int)     intcor
     15.54     -17.52       1.64        0.00      91.76       1.63       0.76       1.22       ----

> <Gold.Chemscore.Fitness>
15.5413

> <Gold.Chemscore.DG>
-17.5230

> <Gold.Chemscore.ZeroCoef>
-5.4800

> <Gold.Chemscore.Hbond>
1.6385

> <Gold.Chemscore.Metal>
0.0000

> <Gold.Chemscore.Lipo>
91.7636

> <Gold.Chemscore.Internal_Hbond>
0.0000

> <Gold.Chemscore.DEClash>
0.7640

> <Gold.Chemscore.DEInternal>
1.2177

> <Gold.Chemscore.Rot>
1.6273

> <Gold.Chemscore.Internal.Correction>
   9.000000E+99

> <Gold.Chemscore.Hbonds>
donor molecule, donor type, donor heavy atom, donor atom, acceptor molecule, acceptor atom, score
      L1  H     7    42       P1 10175  0.94
      L1  H     9    29       P1  8028  0.69

> <Gold.Chemscore.Hbond.Weighted>
-5.4725

> <Gold.Chemscore.Metal.Weighted>
-0.0000

> <Gold.Chemscore.Lipo.Weighted>
-10.7363

> <Gold.Chemscore.Internal_Hbond.Weighted>
0.0000

> <Gold.Chemscore.DEClash.Weighted>
0.7640

> <Gold.Chemscore.DEInternal.Weighted>
1.2177

> <Gold.Chemscore.Rot.Weighted>
4.1658

> <Gold.Chemscore.Internal.Correction.Weighted>
   9.000000E+99

> <Gold.Protein.RotatedTorsions>
[ 6907 6896 6895 6894 ] final -116.11 input  -60.11 | X-H torsion
[ 7974 7965 7964 7962 ] final  107.61 input  175.53 | X-H torsion
[ 8008 7997 7996 7995 ] final   35.58 input   59.86 | X-H torsion
[ 10167 10162 10161 10158 ] final  -15.26 input  -65.29 | X-H torsion
[ 10718 10713 10712 10709 ] final  150.84 input   66.30 | X-H torsion
[ 10763 10752 10751 10750 ] final -110.31 input  -60.55 | X-H torsion
[ 11005 11000 10999 10996 ] final   94.34 input  -57.11 | X-H torsion

> <Gold.Protein.ActiveResidues>
 VAL166  LYS551  ARG553  GLY616  TRP617  ASP618  TYR619  PRO620  LYS621  CYS622 
 ASP623  PHE694  ASN695  SER759  ASP760  ASP761  ALA762  ILE779  LEU786  VAL792 
 PHE793  MET794  SER795  GLU796  ALA797  LYS798  CYS799  TRP800  GLU811  SER814 

> <Gold.Protein.RotatedAtoms>
  150.8030  133.8563  159.3219 H   0  0  0  0  0  0  0  0  0  0  0  0  # atno 6907 bound_to 6896
  151.6370  135.1015  160.0143 H   0  0  0  0  0  0  0  0  0  0  0  0  # atno 6908 bound_to 6896
  152.4119  133.6937  159.6440 H   0  0  0  0  0  0  0  0  0  0  0  0  # atno 6909 bound_to 6896
  145.2914  139.2599  143.3862 H   0  0  0  0  0  0  0  0  0  0  0  0  # atno 7974 bound_to 7965
  155.1734  140.3293  155.4388 H   0  0  0  0  0  0  0  0  0  0  0  0  # atno 8008 bound_to 7997
  156.2502  140.1939  156.6786 H   0  0  0  0  0  0  0  0  0  0  0  0  # atno 8009 bound_to 7997
  154.6322  140.0581  156.9731 H   0  0  0  0  0  0  0  0  0  0  0  0  # atno 8010 bound_to 7997
  140.7215  143.5236  150.9603 H   0  0  0  0  0  0  0  0  0  0  0  0  # atno 10167 bound_to 10162
  157.2784  131.0830  151.1550 H   0  0  0  0  0  0  0  0  0  0  0  0  # atno 10718 bound_to 10713
  154.8241  135.4569  154.0866 H   0  0  0  0  0  0  0  0  0  0  0  0  # atno 10763 bound_to 10752
  153.2195  135.6892  153.8024 H   0  0  0  0  0  0  0  0  0  0  0  0  # atno 10764 bound_to 10752
  153.7446  135.3307  155.3287 H   0  0  0  0  0  0  0  0  0  0  0  0  # atno 10765 bound_to 10752
  139.8799  134.8840  156.3850 H   0  0  0  0  0  0  0  0  0  0  0  0  # atno 11005 bound_to 11000
  146.3183  140.3407  142.8648 LP  0  0  0  0  0  0  0  0  0  0  0  0  # atno 17320 bound_to 7965
  144.9169  140.7823  143.5772 LP  0  0  0  0  0  0  0  0  0  0  0  0  # atno 17321 bound_to 7965
  139.8954  143.6901  152.3139 LP  0  0  0  0  0  0  0  0  0  0  0  0  # atno 17342 bound_to 10162
  139.7232  144.7598  151.0922 LP  0  0  0  0  0  0  0  0  0  0  0  0  # atno 17343 bound_to 10162
  157.2994  130.6835  149.6156 LP  0  0  0  0  0  0  0  0  0  0  0  0  # atno 17370 bound_to 10713
  155.9664  130.4397  150.5268 LP  0  0  0  0  0  0  0  0  0  0  0  0  # atno 17371 bound_to 10713
  140.9372  133.7539  156.0100 LP  0  0  0  0  0  0  0  0  0  0  0  0  # atno 17394 bound_to 11000
  140.8262  134.3232  157.5365 LP  0  0  0  0  0  0  0  0  0  0  0  0  # atno 17395 bound_to 11000

$$$$
