#       Name:                AV-unprocessed.smi:3198
#       Creating user name   scv26
#       Creation time:       Fri Mar 27 18:06:27 2020


#       File generated by GOLD software.
#

@<TRIPOS>MOLECULE
AV-unprocessed.smi:3198
    42    43     1
SMALL
NO_CHARGES


@<TRIPOS>ATOM
      1 ****        -1.4738  -0.4722   5.0159 C.3            1 S1                 0.0000
      2 ****        -1.8104   0.3335   3.7790 C.ar           1 S1                 0.0000
      3 ****        -2.1719   1.6930   3.8744 C.ar           1 S1                 0.0000
      4 ****        -2.4703   2.3884   2.6875 C.ar           1 S1                 0.0000
      5 ****        -2.3944   1.7022   1.4600 C.ar           1 S1                 0.0000
      6 ****        -2.0209   0.3418   1.4627 C.ar           1 S1                 0.0000
      7 ****        -1.9471  -0.3355   0.2368 N.pl3          1 S1                 0.0000
      8 ****        -1.3420  -1.6583   0.1336 C.3            1 S1                 0.0000
      9 ****         0.1910  -1.6084   0.2059 C.3            1 S1                 0.0000
     10 ****         0.6891  -0.9809  -0.9636 O.3            1 S1                 0.0000
     11 ****         2.1028  -0.8628  -0.9634 C.3            1 S1                 0.0000
     12 ****         2.5671  -0.1624  -2.2479 C.3            1 S1                 0.0000
     13 ****         2.1054  -0.8175  -3.5582 C.3            1 S1                 0.0000
     14 ****         1.6148   0.3498  -4.4028 C.3            1 S1                 0.0000
     15 ****         2.1198   1.5789  -3.6539 C.3            1 S1                 0.0000
     16 ****         2.0776   1.1706  -2.2974 O.3            1 S1                 0.0000
     17 ****        -1.7370  -0.3297   2.6045 N.ar           1 S1                 0.0000
     18 ****        -1.6637   0.0996   5.9246 H              1 S1                 0.0000
     19 ****        -0.4215  -0.7574   5.0058 H              1 S1                 0.0000
     20 ****        -2.0760  -1.3805   5.0539 H              1 S1                 0.0000
     21 ****        -2.2196   2.1928   4.8307 H              1 S1                 0.0000
     22 ****        -2.7518   3.4305   2.7176 H              1 S1                 0.0000
     23 ****        -2.6175   2.2146   0.5355 H              1 S1                 0.0000
     24 ****        -2.1055   0.1812  -0.6161 H              1 S1                 0.0000
     25 ****        -1.7347  -2.3022   0.9213 H              1 S1                 0.0000
     26 ****        -1.6526  -2.1095  -0.8088 H              1 S1                 0.0000
     27 ****         0.5238  -1.0807   1.1011 H              1 S1                 0.0000
     28 ****         0.5848  -2.6240   0.2640 H              1 S1                 0.0000
     29 ****         2.4335  -0.2941  -0.0930 H              1 S1                 0.0000
     30 ****         2.5561  -1.8531  -0.8992 H              1 S1                 0.0000
     31 ****         3.6569  -0.1052  -2.2482 H              1 S1                 0.0000
     32 ****         2.9342  -1.3390  -4.0379 H              1 S1                 0.0000
     33 ****         1.3043  -1.5418  -3.4073 H              1 S1                 0.0000
     34 ****         1.9708   0.3108  -5.4325 H              1 S1                 0.0000
     35 ****         0.5242   0.3546  -4.4230 H              1 S1                 0.0000
     36 ****         3.1483   1.8127  -3.9343 H              1 S1                 0.0000
     37 ****         1.5044   2.4615  -3.8285 H              1 S1                 0.0000
     38 ****         0.2919  -0.0656  -1.0291 LP             1 S1                 0.0000
     39 ****         0.4136  -1.5215  -1.7585 LP             1 S1                 0.0000
     40 ****         2.6542   1.7688  -1.7408 LP             1 S1                 0.0000
     41 ****         1.1376   1.2038  -1.9581 LP             1 S1                 0.0000
     42 ****        -1.4786  -1.2954   2.5785 LP             1 S1                 0.0000
@<TRIPOS>BOND
    1    1    2 1     
    2    1   18 1     
    3    1   19 1     
    4    1   20 1     
    5    2   17 ar    
    6    2    3 ar    
    7    3    4 ar    
    8    3   21 1     
    9    4    5 ar    
   10    4   22 1     
   11    5    6 ar    
   12    5   23 1     
   13    6    7 1     
   14    6   17 ar    
   15    7    8 1     
   16    7   24 1     
   17    8    9 1     
   18    8   25 1     
   19    8   26 1     
   20    9   10 1     
   21    9   27 1     
   22    9   28 1     
   23   10   11 1     
   24   11   12 1     
   25   11   29 1     
   26   11   30 1     
   27   12   16 1     
   28   12   13 1     
   29   12   31 1     
   30   13   14 1     
   31   13   32 1     
   32   13   33 1     
   33   14   15 1     
   34   14   34 1     
   35   14   35 1     
   36   15   16 1     
   37   15   36 1     
   38   15   37 1     
   39   10   38 1     
   40   10   39 1     
   41   16   40 1     
   42   16   41 1     
   43   17   42 1     
@<TRIPOS>SUBSTRUCTURE
      1 S1             1
@<TRIPOS>SET
LONE_PAIRS      STATIC     ATOMS    <user>   **** ""
5 38 39 40 41 42
DONOR_HYDROGENS      STATIC     ATOMS    <user>   **** ""
1 24
ATOM$BLUE        STATIC     ATOMS    COLORGROUP SYSTEM
5 38 39 40 41 42
ATOM$RED        STATIC     ATOMS    COLORGROUP SYSTEM
1 24
