#       Name:                AV-unprocessed.smi:2018
#       Creating user name   scv26
#       Creation time:       Fri Mar 27 10:41:53 2020


#       File generated by GOLD software.
#

@<TRIPOS>MOLECULE
AV-unprocessed.smi:2018
    41    42     1
SMALL
NO_CHARGES


@<TRIPOS>ATOM
      1 ****        -3.2533   2.2099   0.0858 C.3            1 S1                 0.0000
      2 ****        -2.9428   1.2876   1.2142 C.2            1 S1                 0.0000
      3 ****        -2.5294   0.0305   1.0448 N.2            1 S1                 0.0000
      4 ****        -2.2747  -0.6284   2.2559 C.2            1 S1                 0.0000
      5 ****        -1.7728  -2.0525   2.2583 C.3            1 S1                 0.0000
      6 ****        -0.2338  -2.2001   2.2304 C.3            1 S1                 0.0000
      7 ****         0.3055  -1.6530   0.9853 N.pl3          1 S1                -1.0000
      8 ****         1.5914  -1.2351   0.7942 C.2            1 S1                 0.0000
      9 ****         2.5364  -1.3957   1.5761 O.2            1 S1                 0.0000
     10 ****         1.9189  -0.4976  -0.4616 C.2            1 S1                 0.0000
     11 ****         0.9607  -0.1219  -1.2505 N.2            1 S1                 0.0000
     12 ****         1.1900   0.5964  -2.4047 N.am           1 S1                 0.0000
     13 ****        -0.0244   1.1698  -2.9842 C.3            1 S1                 0.0000
     14 ****         2.4101   0.7576  -2.9777 C.2            1 S1                 0.0000
     15 ****         2.6135   1.4175  -3.9970 O.2            1 S1                 0.0000
     16 ****         3.5801   0.0359  -2.3028 C.3            1 S1                 0.0000
     17 ****         3.3588  -0.1484  -0.7886 C.3            1 S1                 0.0000
     18 ****        -2.5427   0.1542   3.3540 C.2            1 S1                 0.0000
     19 ****        -3.0846   1.7485   2.9053 S.3            1 S1                 0.0000
     20 ****        -3.0566   1.7256  -0.8715 H              1 S1                 0.0000
     21 ****        -2.6351   3.1048   0.1565 H              1 S1                 0.0000
     22 ****        -4.3027   2.5023   0.1217 H              1 S1                 0.0000
     23 ****        -2.1492  -2.5623   3.1456 H              1 S1                 0.0000
     24 ****        -2.1997  -2.5965   1.4145 H              1 S1                 0.0000
     25 ****         0.1818  -1.7095   3.1119 H              1 S1                 0.0000
     26 ****         0.0173  -3.2562   2.3346 H              1 S1                 0.0000
     27 ****         0.1416   1.7003  -3.9225 H              1 S1                 0.0000
     28 ****        -0.4742   1.8746  -2.2837 H              1 S1                 0.0000
     29 ****        -0.7537   0.3828  -3.1796 H              1 S1                 0.0000
     30 ****         3.6809  -0.9397  -2.7797 H              1 S1                 0.0000
     31 ****         4.5106   0.5738  -2.4874 H              1 S1                 0.0000
     32 ****         3.6370   0.7620  -0.2568 H              1 S1                 0.0000
     33 ****         4.0346  -0.9295  -0.4387 H              1 S1                 0.0000
     34 ****        -2.4400  -0.1078   4.3965 H              1 S1                 0.0000
     35 ****        -2.4134  -0.3969   0.1483 LP             1 S1                 0.0000
     36 ****        -0.3202  -1.5788   0.2089 LP             1 S1                 0.0000
     37 ****         2.3922  -1.8716   2.4437 LP             1 S1                 0.0000
     38 ****         3.4446  -1.0496   1.3407 LP             1 S1                 0.0000
     39 ****         0.0197  -0.3623  -1.0126 LP             1 S1                 0.0000
     40 ****         1.8526   1.8762  -4.4557 LP             1 S1                 0.0000
     41 ****         3.5397   1.4947  -4.3661 LP             1 S1                 0.0000
@<TRIPOS>BOND
    1    1    2 1     
    2    1   20 1     
    3    1   21 1     
    4    1   22 1     
    5    2   19 1     
    6    2    3 2     
    7    3    4 1     
    8    4    5 1     
    9    4   18 2     
   10    5    6 1     
   11    5   23 1     
   12    5   24 1     
   13    6    7 1     
   14    6   25 1     
   15    6   26 1     
   16    7    8 1     
   17    8    9 2     
   18    8   10 1     
   19   10   17 1     
   20   10   11 2     
   21   11   12 1     
   22   12   13 1     
   23   12   14 am    
   24   13   27 1     
   25   13   28 1     
   26   13   29 1     
   27   14   15 2     
   28   14   16 1     
   29   16   17 1     
   30   16   30 1     
   31   16   31 1     
   32   17   32 1     
   33   17   33 1     
   34   18   19 1     
   35   18   34 1     
   36    3   35 1     
   37    7   36 1     
   38    9   37 1     
   39    9   38 1     
   40   11   39 1     
   41   15   40 1     
   42   15   41 1     
@<TRIPOS>SUBSTRUCTURE
      1 S1             1
@<TRIPOS>SET
LONE_PAIRS      STATIC     ATOMS    <user>   **** ""
7 35 36 37 38 39 40 41
ATOM$BLUE        STATIC     ATOMS    COLORGROUP SYSTEM
7 35 36 37 38 39 40 41
