AV-unprocessed.smi:290|AV-procd|sdf|2218|dock9
  -GOLD-   2262022 63D 1   1.00000     0.00000
 Structure written by MMmdl.
 59 62  0  0  0  0  0  0  0  0  2 V2000
  151.9655  140.3094  158.3324 C   0  0  0  0  0  0  0  0  0  0  0  0
  151.2973  141.6624  158.6223 C   0  0  1  0  0  0  0  0  0  0  0  0
  152.2397  142.4783  159.3113 O   0  0  0  0  0  0  0  0  0  0  0  0
  151.9422  143.8354  159.0387 C   0  0  0  0  0  0  0  0  0  0  0  0
  151.6193  143.8018  157.5529 C   0  0  0  0  0  0  0  0  0  0  0  0
  150.8363  142.4996  157.3946 C   0  0  2  0  0  0  0  0  0  0  0  0
  149.4611  142.7998  157.5656 O   0  0  0  0  0  0  0  0  0  0  0  0
  151.0212  141.8372  156.0040 C   0  0  0  0  0  0  0  0  0  0  0  0
  150.0001  140.8485  155.6927 N   0  0  0  0  0  0  0  0  0  0  0  0
  150.0670  139.4908  155.9121 C   0  0  0  0  0  0  0  0  0  0  0  0
  149.0146  138.8139  155.5403 N   0  0  0  0  0  0  0  0  0  0  0  0
  148.1516  139.7807  155.0380 C   0  0  0  0  0  0  0  0  0  0  0  0
  146.8437  139.7533  154.4763 C   0  0  0  0  0  0  0  0  0  0  0  0
  146.1030  138.6391  154.2925 N   0  0  0  0  0  0  0  0  0  0  0  0
  145.8153  137.8731  155.4997 C   0  0  0  0  0  0  0  0  0  0  0  0
  145.6945  136.3995  155.0817 C   0  0  0  0  0  0  0  0  0  0  0  0
  145.8835  136.3804  153.5545 C   0  0  1  0  0  0  0  0  0  0  0  0
  144.6309  136.1343  152.7714 N   0  3  1  0  0  0  0  0  0  0  0  0
  143.6397  137.2196  152.9756 C   0  0  0  0  0  0  0  0  0  0  0  0
  144.8261  135.7896  151.3331 C   0  0  0  0  0  0  0  0  0  0  0  0
  144.2108  134.4329  150.9449 C   0  0  0  0  0  0  0  0  0  0  0  0
  144.1169  134.3182  149.5412 O   0  0  0  0  0  0  0  0  0  0  0  0
  146.5810  137.7215  153.2670 C   0  0  1  0  0  0  0  0  0  0  0  0
  146.4611  138.2670  151.8320 C   0  0  0  0  0  0  0  0  0  0  0  0
  146.2949  140.9274  154.0806 N   0  0  0  0  0  0  0  0  0  0  0  0
  146.9797  142.0662  154.2253 C   0  0  0  0  0  0  0  0  0  0  0  0
  148.2018  142.2474  154.7311 N   0  0  0  0  0  0  0  0  0  0  0  0
  148.7558  141.0656  155.1277 C   0  0  0  0  0  0  0  0  0  0  0  0
  146.5886  135.5921  153.2868 H   0  0  0  0  0  0  0  0  0  0  0  0
  147.6437  137.5602  153.4540 H   0  0  0  0  0  0  0  0  0  0  0  0
  151.2849  139.6286  157.8211 H   0  0  0  0  0  0  0  0  0  0  0  0
  152.2700  139.8272  159.2616 H   0  0  0  0  0  0  0  0  0  0  0  0
  152.8590  140.4266  157.7189 H   0  0  0  0  0  0  0  0  0  0  0  0
  150.4591  141.4925  159.3010 H   0  0  0  0  0  0  0  0  0  0  0  0
  151.0778  144.1516  159.6248 H   0  0  0  0  0  0  0  0  0  0  0  0
  152.7828  144.4879  159.2749 H   0  0  0  0  0  0  0  0  0  0  0  0
  151.0818  144.6869  157.2099 H   0  0  0  0  0  0  0  0  0  0  0  0
  152.5558  143.7472  156.9965 H   0  0  0  0  0  0  0  0  0  0  0  0
  149.1670  143.2990  156.8189 H   0  0  0  0  0  0  0  0  0  0  0  0
  151.0029  142.5912  155.2164 H   0  0  0  0  0  0  0  0  0  0  0  0
  151.9941  141.3486  155.9411 H   0  0  0  0  0  0  0  0  0  0  0  0
  150.9288  139.0139  156.3561 H   0  0  0  0  0  0  0  0  0  0  0  0
  146.5792  137.9960  156.2680 H   0  0  0  0  0  0  0  0  0  0  0  0
  144.8736  138.2267  155.9204 H   0  0  0  0  0  0  0  0  0  0  0  0
  146.5003  135.8344  155.5518 H   0  0  0  0  0  0  0  0  0  0  0  0
  144.7613  135.9470  155.4161 H   0  0  0  0  0  0  0  0  0  0  0  0
  143.9747  138.1492  152.5144 H   0  0  0  0  0  0  0  0  0  0  0  0
  143.4797  137.4081  154.0376 H   0  0  0  0  0  0  0  0  0  0  0  0
  142.6677  136.9630  152.5574 H   0  0  0  0  0  0  0  0  0  0  0  0
  144.4003  136.5730  150.7057 H   0  0  0  0  0  0  0  0  0  0  0  0
  145.8861  135.7474  151.0901 H   0  0  0  0  0  0  0  0  0  0  0  0
  144.7702  133.5901  151.3486 H   0  0  0  0  0  0  0  0  0  0  0  0
  143.2044  134.3598  151.3576 H   0  0  0  0  0  0  0  0  0  0  0  0
  144.9115  134.6577  149.1568 H   0  0  0  0  0  0  0  0  0  0  0  0
  146.7750  137.5197  151.1033 H   0  0  0  0  0  0  0  0  0  0  0  0
  147.0940  139.1438  151.6923 H   0  0  0  0  0  0  0  0  0  0  0  0
  145.4403  138.5633  151.5933 H   0  0  0  0  0  0  0  0  0  0  0  0
  146.4768  142.9602  153.8872 H   0  0  0  0  0  0  0  0  0  0  0  0
  144.2210  135.3112  153.1904 H   0  0  0  0  0  0  0  0  0  0  0  0
  1  2  1  0  0  0  0
  1 31  1  0  0  0  0
  1 32  1  0  0  0  0
  1 33  1  0  0  0  0
  2  6  1  0  0  0  0
  2  3  1  0  0  0  0
  2 34  1  0  0  0  0
  3  4  1  0  0  0  0
  4  5  1  0  0  0  0
  4 35  1  0  0  0  0
  4 36  1  0  0  0  0
  5  6  1  0  0  0  0
  5 37  1  0  0  0  0
  5 38  1  0  0  0  0
  6  7  1  0  0  0  0
  6  8  1  0  0  0  0
  7 39  1  0  0  0  0
  8  9  1  0  0  0  0
  8 40  1  0  0  0  0
  8 41  1  0  0  0  0
  9 28  1  0  0  0  0
  9 10  1  0  0  0  0
 10 11  2  0  0  0  0
 10 42  1  0  0  0  0
 11 12  1  0  0  0  0
 12 28  2  0  0  0  0
 12 13  1  0  0  0  0
 13 14  1  0  0  0  0
 13 25  2  0  0  0  0
 14 23  1  0  0  0  0
 14 15  1  0  0  0  0
 15 16  1  0  0  0  0
 15 43  1  0  0  0  0
 15 44  1  0  0  0  0
 16 17  1  0  0  0  0
 16 45  1  0  0  0  0
 16 46  1  0  0  0  0
 17 29  1  0  0  0  0
 17 18  1  0  0  0  0
 17 23  1  0  0  0  0
 18 19  1  0  0  0  0
 18 20  1  0  0  0  0
 18 59  1  0  0  0  0
 19 47  1  0  0  0  0
 19 48  1  0  0  0  0
 19 49  1  0  0  0  0
 20 21  1  0  0  0  0
 20 50  1  0  0  0  0
 20 51  1  0  0  0  0
 21 22  1  0  0  0  0
 21 52  1  0  0  0  0
 21 53  1  0  0  0  0
 22 54  1  0  0  0  0
 23 30  1  0  0  0  0
 23 24  1  0  0  0  0
 24 55  1  0  0  0  0
 24 56  1  0  0  0  0
 24 57  1  0  0  0  0
 25 26  1  0  0  0  0
 26 27  2  0  0  0  0
 26 58  1  0  0  0  0
 27 28  1  0  0  0  0
M  CHG  1  18   1
M  END
> <s_m_source_file>
AV-unprocessed.smi

> <i_m_source_file_index>
290

> <i_lp_mmshare_version>
43012

> <i_f3d_flags>
0

> <s_epik_input>
W0NIMl0xW0NIMl1PW0NAQEhdKFtDSDNdKVtDQEBdMShbT0hdKVtDSDJdbihbY0hdbjIpYyhjMjMpbltjSF1uYzNONFtDSDJdW0NIMl1bQ0BIXShbQ0BIXTRbQ0gzXSlOKFtDSDNdKVtDSDJdW0NIMl1bT0hd

> <s_epik_cmdline>
J2VwaWtfcHl0aG9uJywgJy1waCcsICc3LjAnLCAnLXRuJywgJzgnLCAnLW1hJywgJzIwMCcsICctbWV0YWxfYmluZGluZycsICctaW1hZScsICc8aW5maWxlLm1hZT4nLCAnLW9tYWUnLCAnPG91dGZpbGUubWFlPic=

> <r_lp_tautomer_probability>
1

> <r_epik_Ionization_Penalty>
0.0036983

> <r_epik_Ionization_Penalty_Charging>
0.0032725

> <r_epik_Ionization_Penalty_Neutral>
0.000425798

> <r_epik_State_Penalty>
-0

> <r_epik_Charging_Adjusted_Penalty>
0.0032725

> <i_epik_Tot_Q>
1

> <i_epik_Tot_abs_Q>
1

> <r_epik_Metal_State_Penalty>
-0

> <b_epik_Metal_Only>
0

> <s_lp_Force_Field>
OPLS_2005

> <r_lp_Energy>
69.1694

> <b_lp_Chiralities_Consistent>
1

> <s_lp_Variant>
AV-unprocessed.smi:290-4

> <Gold.Version>
5.8.1

> <Gold.Id.Protein>
6NUR|6NUR_protein|mol2

> <Gold.PLP.Fitness>
41.6628

> <Gold.PLP.PLP>
-38.4203

> <Gold.PLP.part.hbond>
-2.9139

> <Gold.PLP.part.metal>
0.0000

> <Gold.PLP.part.buried>
-6.2677

> <Gold.PLP.part.nonpolar>
-33.6057

> <Gold.PLP.part.repulsive>
3.4891

> <Gold.PLP.ligand.clash>
0.0000

> <Gold.PLP.ligand.torsion>
1.5447

> <Gold.PLP.Chemscore.Hbond>
2.0000

> <Gold.PLP.Chemscore.CHOScore>
0.0000

> <Gold.PLP.Chemscore.Metal>
0.0000

> <Gold.Chemscore.Hbonds>
donor molecule, donor type, donor heavy atom, donor atom, acceptor molecule, acceptor atom, score
      L1  H     7    39       P1  8028  1.00
      L1  H    22    54       P1  7921  1.00

> <Gold.PLP.Chemscore.Internal.Correction>
0.3320

> <Gold.Rescore>
     Score         DG    S(hbond)    S(metal)    S(lipo)     H(rot)  DE(clash)    DE(int)     intcor
      8.82     -12.92       1.91        0.00      89.14       3.67       1.61       2.49       ----

> <Gold.Chemscore.Fitness>
8.8151

> <Gold.Chemscore.DG>
-12.9164

> <Gold.Chemscore.ZeroCoef>
-5.4800

> <Gold.Chemscore.Hbond>
1.9136

> <Gold.Chemscore.Metal>
0.0000

> <Gold.Chemscore.Lipo>
89.1402

> <Gold.Chemscore.Internal_Hbond>
0.0000

> <Gold.Chemscore.DEClash>
1.6067

> <Gold.Chemscore.DEInternal>
2.4946

> <Gold.Chemscore.Rot>
3.6658

> <Gold.Chemscore.Internal.Correction>
   9.000000E+99

> <Gold.Chemscore.Hbonds>
donor molecule, donor type, donor heavy atom, donor atom, acceptor molecule, acceptor atom, score
      L1  H     7    39       P1  8028  0.94
      L1  H    22    54       P1  7921  0.93

> <Gold.Chemscore.Hbond.Weighted>
-6.3914

> <Gold.Chemscore.Metal.Weighted>
-0.0000

> <Gold.Chemscore.Lipo.Weighted>
-10.4294

> <Gold.Chemscore.Internal_Hbond.Weighted>
0.0000

> <Gold.Chemscore.DEClash.Weighted>
1.6067

> <Gold.Chemscore.DEInternal.Weighted>
2.4946

> <Gold.Chemscore.Rot.Weighted>
9.3844

> <Gold.Chemscore.Internal.Correction.Weighted>
   9.000000E+99

> <Gold.Protein.RotatedTorsions>
[ 6907 6896 6895 6894 ] final   10.11 input  -60.11 | X-H torsion
[ 7974 7965 7964 7962 ] final   89.47 input  175.53 | X-H torsion
[ 8008 7997 7996 7995 ] final   91.78 input   59.86 | X-H torsion
[ 10167 10162 10161 10158 ] final   -7.02 input  -65.29 | X-H torsion
[ 10718 10713 10712 10709 ] final -131.88 input   66.30 | X-H torsion
[ 10763 10752 10751 10750 ] final -124.14 input  -60.55 | X-H torsion
[ 11005 11000 10999 10996 ] final  -54.14 input  -57.11 | X-H torsion

> <Gold.Protein.ActiveResidues>
 VAL166  LYS551  ARG553  GLY616  TRP617  ASP618  TYR619  PRO620  LYS621  CYS622 
 ASP623  PHE694  ASN695  SER759  ASP760  ASP761  ALA762  ILE779  LEU786  VAL792 
 PHE793  MET794  SER795  GLU796  ALA797  LYS798  CYS799  TRP800  GLU811  SER814 

> <Gold.Protein.RotatedAtoms>
  151.7331  135.0870  160.0303 H   0  0  0  0  0  0  0  0  0  0  0  0  # atno 6907 bound_to 6896
  152.3528  133.6196  159.5966 H   0  0  0  0  0  0  0  0  0  0  0  0  # atno 6908 bound_to 6896
  150.7551  133.9463  159.3513 H   0  0  0  0  0  0  0  0  0  0  0  0  # atno 6909 bound_to 6896
  145.5318  139.2283  143.2614 H   0  0  0  0  0  0  0  0  0  0  0  0  # atno 7974 bound_to 7965
  156.0277  140.3333  155.7106 H   0  0  0  0  0  0  0  0  0  0  0  0  # atno 8008 bound_to 7997
  155.5930  140.0648  157.2771 H   0  0  0  0  0  0  0  0  0  0  0  0  # atno 8009 bound_to 7997
  154.4341  140.1824  156.1082 H   0  0  0  0  0  0  0  0  0  0  0  0  # atno 8010 bound_to 7997
  140.7015  143.6128  150.8687 H   0  0  0  0  0  0  0  0  0  0  0  0  # atno 10167 bound_to 10162
  156.2289  130.7025  151.0836 H   0  0  0  0  0  0  0  0  0  0  0  0  # atno 10718 bound_to 10713
  154.8719  135.4074  154.3057 H   0  0  0  0  0  0  0  0  0  0  0  0  # atno 10763 bound_to 10752
  153.3909  135.7015  153.6501 H   0  0  0  0  0  0  0  0  0  0  0  0  # atno 10764 bound_to 10752
  153.5284  135.3672  155.2636 H   0  0  0  0  0  0  0  0  0  0  0  0  # atno 10765 bound_to 10752
  141.1011  133.6618  156.4276 H   0  0  0  0  0  0  0  0  0  0  0  0  # atno 11005 bound_to 11000
  146.2039  140.6135  142.9090 LP  0  0  0  0  0  0  0  0  0  0  0  0  # atno 17320 bound_to 7965
  144.7622  140.5447  143.6728 LP  0  0  0  0  0  0  0  0  0  0  0  0  # atno 17321 bound_to 7965
  139.9851  143.5909  152.2930 LP  0  0  0  0  0  0  0  0  0  0  0  0  # atno 17342 bound_to 10162
  139.6543  144.7662  151.2086 LP  0  0  0  0  0  0  0  0  0  0  0  0  # atno 17343 bound_to 10162
  157.7123  131.0728  150.6454 LP  0  0  0  0  0  0  0  0  0  0  0  0  # atno 17370 bound_to 10713
  156.6521  130.4488  149.5716 LP  0  0  0  0  0  0  0  0  0  0  0  0  # atno 17371 bound_to 10713
  140.5019  134.6477  157.5252 LP  0  0  0  0  0  0  0  0  0  0  0  0  # atno 17394 bound_to 11000
  139.9863  134.7056  155.9768 LP  0  0  0  0  0  0  0  0  0  0  0  0  # atno 17395 bound_to 11000

$$$$
