AV-unprocessed.smi:99|AV-procd|sdf|885|dock1
  -GOLD-   2262017363D 1   1.00000     0.00000
 Structure written by MMmdl.
 52 55  0  0  0  0  0  0  0  0  2 V2000
  152.8656  138.8845  157.7541 O   0  0  0  0  0  0  0  0  0  0  0  0
  151.9969  139.7586  157.7246 C   0  0  0  0  0  0  0  0  0  0  0  0
  150.8535  139.6502  157.0221 O   0  0  0  0  0  0  0  0  0  0  0  0
  150.7418  138.6845  155.9901 C   0  0  0  0  0  0  0  0  0  0  0  0
  150.4523  137.3141  156.6178 C   0  0  2  0  0  0  0  0  0  0  0  0
  150.8123  136.3047  155.6809 O   0  0  0  0  0  0  0  0  0  0  0  0
  149.6941  135.8402  154.9836 C   0  0  1  0  0  0  0  0  0  0  0  0
  149.6205  134.3368  155.1280 N   0  0  0  0  0  0  0  0  0  0  0  0
  150.4635  133.6622  155.9957 C   0  0  0  0  0  0  0  0  0  0  0  0
  150.3885  132.3244  156.1493 C   0  0  0  0  0  0  0  0  0  0  0  0
  149.3972  131.5706  155.3872 C   0  0  0  0  0  0  0  0  0  0  0  0
  149.3452  130.3497  155.5219 O   0  0  0  0  0  0  0  0  0  0  0  0
  148.5648  132.2610  154.5552 N   0  5  0  0  0  0  0  0  0  0  0  0
  148.6315  133.6162  154.4060 C   0  0  0  0  0  0  0  0  0  0  0  0
  147.8671  134.2529  153.6801 O   0  0  0  0  0  0  0  0  0  0  0  0
  148.4395  136.4832  155.5937 C   0  0  2  0  0  0  0  0  0  0  0  0
  147.8816  137.4687  154.7494 O   0  0  0  0  0  0  0  0  0  0  0  0
  148.9573  137.0999  156.8823 C   0  0  1  0  0  0  0  0  0  0  0  0
  148.7627  136.1675  157.9394 O   0  0  0  0  0  0  0  0  0  0  0  0
  148.8482  136.5445  159.2310 C   0  0  0  0  0  0  0  0  0  0  0  0
  149.4651  137.5405  159.6143 O   0  0  0  0  0  0  0  0  0  0  0  0
  148.1230  135.6186  160.1479 C   0  0  0  0  0  0  0  0  0  0  0  0
  147.9360  135.9864  161.5007 C   0  0  0  0  0  0  0  0  0  0  0  0
  147.2573  135.1297  162.3893 C   0  0  0  0  0  0  0  0  0  0  0  0
  146.7579  133.8948  161.9361 C   0  0  0  0  0  0  0  0  0  0  0  0
  146.9369  133.5176  160.5923 C   0  0  0  0  0  0  0  0  0  0  0  0
  147.6148  134.3728  159.7022 C   0  0  0  0  0  0  0  0  0  0  0  0
  152.1028  141.0510  158.4614 C   0  0  0  0  0  0  0  0  0  0  0  0
  151.3540  142.1659  158.0176 C   0  0  0  0  0  0  0  0  0  0  0  0
  151.4333  143.3986  158.6945 C   0  0  0  0  0  0  0  0  0  0  0  0
  152.2635  143.5317  159.8227 C   0  0  0  0  0  0  0  0  0  0  0  0
  153.0142  142.4304  160.2735 C   0  0  0  0  0  0  0  0  0  0  0  0
  152.9358  141.1968  159.5983 C   0  0  0  0  0  0  0  0  0  0  0  0
  149.9237  138.9705  155.3279 H   0  0  0  0  0  0  0  0  0  0  0  0
  151.6542  138.6528  155.3932 H   0  0  0  0  0  0  0  0  0  0  0  0
  151.0371  137.2077  157.5323 H   0  0  0  0  0  0  0  0  0  0  0  0
  149.8303  136.0388  153.9192 H   0  0  0  0  0  0  0  0  0  0  0  0
  151.1942  134.2064  156.5750 H   0  0  0  0  0  0  0  0  0  0  0  0
  151.0511  131.8152  156.8336 H   0  0  0  0  0  0  0  0  0  0  0  0
  147.6649  135.7369  155.7797 H   0  0  0  0  0  0  0  0  0  0  0  0
  148.2445  137.3549  153.8837 H   0  0  0  0  0  0  0  0  0  0  0  0
  148.4386  138.0318  157.1140 H   0  0  0  0  0  0  0  0  0  0  0  0
  148.3110  136.9294  161.8719 H   0  0  0  0  0  0  0  0  0  0  0  0
  147.1201  135.4213  163.4203 H   0  0  0  0  0  0  0  0  0  0  0  0
  146.2378  133.2379  162.6178 H   0  0  0  0  0  0  0  0  0  0  0  0
  146.5539  132.5705  160.2417 H   0  0  0  0  0  0  0  0  0  0  0  0
  147.7336  134.0515  158.6776 H   0  0  0  0  0  0  0  0  0  0  0  0
  150.7096  142.0876  157.1538 H   0  0  0  0  0  0  0  0  0  0  0  0
  150.8558  144.2426  158.3472 H   0  0  0  0  0  0  0  0  0  0  0  0
  152.3249  144.4769  160.3414 H   0  0  0  0  0  0  0  0  0  0  0  0
  153.6521  142.5311  161.1394 H   0  0  0  0  0  0  0  0  0  0  0  0
  153.5264  140.3722  159.9701 H   0  0  0  0  0  0  0  0  0  0  0  0
  1  2  2  0  0  0  0
  2  3  1  0  0  0  0
  2 28  1  0  0  0  0
  3  4  1  0  0  0  0
  4  5  1  0  0  0  0
  4 34  1  0  0  0  0
  4 35  1  0  0  0  0
  5 18  1  0  0  0  0
  5  6  1  0  0  0  0
  5 36  1  0  0  0  0
  6  7  1  0  0  0  0
  7  8  1  0  0  0  0
  7 16  1  0  0  0  0
  7 37  1  0  0  0  0
  8 14  1  0  0  0  0
  8  9  1  0  0  0  0
  9 10  2  0  0  0  0
  9 38  1  0  0  0  0
 10 11  1  0  0  0  0
 10 39  1  0  0  0  0
 11 12  2  0  0  0  0
 11 13  1  0  0  0  0
 13 14  1  0  0  0  0
 14 15  2  0  0  0  0
 16 17  1  0  0  0  0
 16 18  1  0  0  0  0
 16 40  1  0  0  0  0
 17 41  1  0  0  0  0
 18 19  1  0  0  0  0
 18 42  1  0  0  0  0
 19 20  1  0  0  0  0
 20 21  2  0  0  0  0
 20 22  1  0  0  0  0
 22 27  1  0  0  0  0
 22 23  2  0  0  0  0
 23 24  1  0  0  0  0
 23 43  1  0  0  0  0
 24 25  2  0  0  0  0
 24 44  1  0  0  0  0
 25 26  1  0  0  0  0
 25 45  1  0  0  0  0
 26 27  2  0  0  0  0
 26 46  1  0  0  0  0
 27 47  1  0  0  0  0
 28 33  1  0  0  0  0
 28 29  2  0  0  0  0
 29 30  1  0  0  0  0
 29 48  1  0  0  0  0
 30 31  2  0  0  0  0
 30 49  1  0  0  0  0
 31 32  1  0  0  0  0
 31 50  1  0  0  0  0
 32 33  2  0  0  0  0
 32 51  1  0  0  0  0
 33 52  1  0  0  0  0
M  CHG  1  13  -1
M  END
> <s_m_source_file>
AV-unprocessed.smi

> <i_m_source_file_index>
99

> <i_lp_mmshare_version>
43012

> <i_f3d_flags>
0

> <s_epik_input>
W2NIXTFbY0hdW2NIXVtjSF1bY0hdYzFDKD1PKU9bQ0gyXVtDQEBIXTJPW0NAQEhdKG4zW2NIXVtjSF1jKD1PKVtuSF1jMz1PKVtDQEBIXShbT0hdKVtDQEhdMk9DKD1PKWM0W2NIXVtjSF1bY0hdW2NIXVtjSF00

> <s_epik_cmdline>
J2VwaWtfcHl0aG9uJywgJy1waCcsICc3LjAnLCAnLXRuJywgJzgnLCAnLW1hJywgJzIwMCcsICctbWV0YWxfYmluZGluZycsICctaW1hZScsICc8aW5maWxlLm1hZT4nLCAnLW9tYWUnLCAnPG91dGZpbGUubWFlPic=

> <r_lp_tautomer_probability>
1

> <r_epik_Ionization_Penalty>
2.89159

> <r_epik_Ionization_Penalty_Charging>
2.1077e-08

> <r_epik_Ionization_Penalty_Neutral>
2.89159

> <r_epik_State_Penalty>
2.88671

> <r_epik_Charging_Adjusted_Penalty>
2.88671

> <i_epik_Tot_Q>
-1

> <i_epik_Tot_abs_Q>
1

> <r_epik_Metal_State_Penalty>
0.0727308

> <b_epik_Metal_Only>
1

> <s_epik_Chemistry_Notes>
This compound has an ester and may undergo hydrolysis at high or low pH. This compound contains an acetal/aminal-like group ( X-CH(R)-Y where X, Y are N, S, or O) that may be acid/base labile, releasing an aldehyde.

> <s_lp_Force_Field>
OPLS_2005

> <r_lp_Energy>
38.0652

> <b_lp_Chiralities_Consistent>
1

> <s_lp_Variant>
AV-unprocessed.smi:99-21

> <Gold.Version>
5.8.1

> <Gold.Id.Protein>
6NUR|6NUR_protein|mol2

> <Gold.PLP.Fitness>
62.1363

> <Gold.PLP.PLP>
-55.0735

> <Gold.PLP.part.hbond>
-4.0000

> <Gold.PLP.part.metal>
0.0000

> <Gold.PLP.part.buried>
-8.1445

> <Gold.PLP.part.nonpolar>
-44.2328

> <Gold.PLP.part.repulsive>
0.2323

> <Gold.PLP.ligand.clash>
0.0000

> <Gold.PLP.ligand.torsion>
1.4357

> <Gold.PLP.Chemscore.Hbond>
3.0000

> <Gold.PLP.Chemscore.CHOScore>
0.0000

> <Gold.PLP.Chemscore.Metal>
0.0000

> <Gold.Chemscore.Hbonds>
donor molecule, donor type, donor heavy atom, donor atom, acceptor molecule, acceptor atom, score
      L1  H    17    41       P1  7948  0.05
      P1  H  6931  6943       L1    21  0.01
      P1  H  7997  8009       L1     1  0.52

> <Gold.PLP.Chemscore.Internal.Correction>
0.9340

> <Gold.Rescore>
     Score         DG    S(hbond)    S(metal)    S(lipo)     H(rot)  DE(clash)    DE(int)     intcor
     18.16     -19.80       2.78        0.00     111.72       3.13       0.03       1.62       ----

> <Gold.Chemscore.Fitness>
18.1554

> <Gold.Chemscore.DG>
-19.8006

> <Gold.Chemscore.ZeroCoef>
-5.4800

> <Gold.Chemscore.Hbond>
2.7765

> <Gold.Chemscore.Metal>
0.0000

> <Gold.Chemscore.Lipo>
111.7230

> <Gold.Chemscore.Internal_Hbond>
0.0000

> <Gold.Chemscore.DEClash>
0.0300

> <Gold.Chemscore.DEInternal>
1.6152

> <Gold.Chemscore.Rot>
3.1346

> <Gold.Chemscore.Internal.Correction>
   9.000000E+99

> <Gold.Chemscore.Hbonds>
donor molecule, donor type, donor heavy atom, donor atom, acceptor molecule, acceptor atom, score
      L1  H    17    41       P1  7948  0.10
      P1  H  6931  6943       L1    21  0.02
      P1  H  7997  8009       L1     1  0.09
      P1  H 10752 10765       L1     6  0.03

> <Gold.Chemscore.Hbond.Weighted>
-9.2735

> <Gold.Chemscore.Metal.Weighted>
-0.0000

> <Gold.Chemscore.Lipo.Weighted>
-13.0716

> <Gold.Chemscore.Internal_Hbond.Weighted>
0.0000

> <Gold.Chemscore.DEClash.Weighted>
0.0300

> <Gold.Chemscore.DEInternal.Weighted>
1.6152

> <Gold.Chemscore.Rot.Weighted>
8.0246

> <Gold.Chemscore.Internal.Correction.Weighted>
   9.000000E+99

> <Gold.Protein.RotatedTorsions>
[ 6907 6896 6895 6894 ] final   54.73 input  -60.11 | X-H torsion
[ 7974 7965 7964 7962 ] final   31.13 input  175.53 | X-H torsion
[ 8008 7997 7996 7995 ] final  172.53 input   59.86 | X-H torsion
[ 10167 10162 10161 10158 ] final   92.99 input  -65.29 | X-H torsion
[ 10718 10713 10712 10709 ] final  132.15 input   66.30 | X-H torsion
[ 10763 10752 10751 10750 ] final -166.13 input  -60.55 | X-H torsion
[ 11005 11000 10999 10996 ] final   99.76 input  -57.11 | X-H torsion

> <Gold.Protein.ActiveResidues>
 VAL166  LYS551  ARG553  GLY616  TRP617  ASP618  TYR619  PRO620  LYS621  CYS622 
 ASP623  PHE694  ASN695  SER759  ASP760  ASP761  ALA762  ILE779  LEU786  VAL792 
 PHE793  MET794  SER795  GLU796  ALA797  LYS798  CYS799  TRP800  GLU811  SER814 

> <Gold.Protein.RotatedAtoms>
  152.3468  134.7060  160.0247 H   0  0  0  0  0  0  0  0  0  0  0  0  # atno 6907 bound_to 6896
  151.7427  133.3317  159.3378 H   0  0  0  0  0  0  0  0  0  0  0  0  # atno 6908 bound_to 6896
  150.7514  134.6196  159.6174 H   0  0  0  0  0  0  0  0  0  0  0  0  # atno 6909 bound_to 6896
  146.1569  139.6697  142.9060 H   0  0  0  0  0  0  0  0  0  0  0  0  # atno 7974 bound_to 7965
  156.1166  140.1483  156.9264 H   0  0  0  0  0  0  0  0  0  0  0  0  # atno 8008 bound_to 7997
  154.4805  140.0881  156.7407 H   0  0  0  0  0  0  0  0  0  0  0  0  # atno 8009 bound_to 7997
  155.4503  140.3434  155.4302 H   0  0  0  0  0  0  0  0  0  0  0  0  # atno 8010 bound_to 7997
  139.8223  144.6726  150.9504 H   0  0  0  0  0  0  0  0  0  0  0  0  # atno 10167 bound_to 10162
  157.4898  131.1090  150.9571 H   0  0  0  0  0  0  0  0  0  0  0  0  # atno 10718 bound_to 10713
  154.6863  135.2963  154.9542 H   0  0  0  0  0  0  0  0  0  0  0  0  # atno 10763 bound_to 10752
  154.0520  135.6643  153.4805 H   0  0  0  0  0  0  0  0  0  0  0  0  # atno 10764 bound_to 10752
  153.0581  135.5132  154.7933 H   0  0  0  0  0  0  0  0  0  0  0  0  # atno 10765 bound_to 10752
  139.8770  134.9110  156.4654 H   0  0  0  0  0  0  0  0  0  0  0  0  # atno 11005 bound_to 11000
  145.4686  141.0435  143.2711 LP  0  0  0  0  0  0  0  0  0  0  0  0  # atno 17320 bound_to 7965
  144.7975  139.6206  143.7086 LP  0  0  0  0  0  0  0  0  0  0  0  0  # atno 17321 bound_to 7965
  140.7812  143.4080  151.1039 LP  0  0  0  0  0  0  0  0  0  0  0  0  # atno 17342 bound_to 10162
  139.7740  143.8453  152.3126 LP  0  0  0  0  0  0  0  0  0  0  0  0  # atno 17343 bound_to 10162
  157.0276  130.5698  149.5339 LP  0  0  0  0  0  0  0  0  0  0  0  0  # atno 17370 bound_to 10713
  156.0167  130.5261  150.8156 LP  0  0  0  0  0  0  0  0  0  0  0  0  # atno 17371 bound_to 10713
  140.8834  133.7901  155.9491 LP  0  0  0  0  0  0  0  0  0  0  0  0  # atno 17394 bound_to 11000
  140.8830  134.2588  157.5134 LP  0  0  0  0  0  0  0  0  0  0  0  0  # atno 17395 bound_to 11000

$$$$
