AV-unprocessed.smi:1058|AV-procd|sdf|4653|dock3
  -GOLD-   22720 3163D 1   1.00000     0.00000
 Structure written by MMmdl.
 40 41  0  0  0  0  0  0  0  0  1 V2000
  150.6543  132.8035  155.2783 C   0  0  0  0  0  0  0  0  0  0  0  0
  150.3056  134.2350  154.8158 C   0  0  1  0  0  0  0  0  0  0  0  0
  149.2448  134.2742  153.7997 N   0  0  0  0  0  0  0  0  0  0  0  0
  148.3409  133.3286  153.4895 C   0  0  0  0  0  0  0  0  0  0  0  0
  148.2493  132.2456  154.0671 O   0  0  0  0  0  0  0  0  0  0  0  0
  147.5506  133.7353  152.4805 N   0  0  0  0  0  0  0  0  0  0  0  0
  146.4794  133.0342  151.8651 C   0  0  0  0  0  0  0  0  0  0  0  0
  145.8315  133.7303  150.8194 C   0  0  0  0  0  0  0  0  0  0  0  0
  144.7560  133.1214  150.1439 C   0  0  0  0  0  0  0  0  0  0  0  0
  144.3558  131.8304  150.5314 C   0  0  0  0  0  0  0  0  0  0  0  0
  145.0545  131.2071  151.5818 C   0  0  0  0  0  0  0  0  0  0  0  0
  146.0856  131.7885  152.2304 N   0  0  0  0  0  0  0  0  0  0  0  0
  150.0584  135.2286  155.9726 C   0  0  0  0  0  0  0  0  0  0  0  0
  149.9575  134.7793  157.1157 O   0  0  0  0  0  0  0  0  0  0  0  0
  149.9593  136.5594  155.7207 N   0  0  0  0  0  0  0  0  0  0  0  0
  150.1823  137.1128  154.3781 C   0  0  0  0  0  0  0  0  0  0  0  0
  151.6237  137.6405  154.2873 C   0  0  0  0  0  0  0  0  0  0  0  0
  151.8842  138.9875  155.5254 S   0  0  0  0  0  0  0  0  0  0  0  0
  153.3273  139.1887  155.7233 O   0  0  0  0  0  0  0  0  0  0  0  0
  151.0253  140.1188  155.1436 O   0  0  0  0  0  0  0  0  0  0  0  0
  151.1654  138.2250  157.0475 C   0  0  0  0  0  0  0  0  0  0  0  0
  149.7912  137.6161  156.7271 C   0  0  0  0  0  0  0  0  0  0  0  0
  151.5662  132.7873  155.8744 H   0  0  0  0  0  0  0  0  0  0  0  0
  150.8139  132.1423  154.4261 H   0  0  0  0  0  0  0  0  0  0  0  0
  149.8699  132.3696  155.8981 H   0  0  0  0  0  0  0  0  0  0  0  0
  151.1595  134.6005  154.2478 H   0  0  0  0  0  0  0  0  0  0  0  0
  149.2025  135.1260  153.2599 H   0  0  0  0  0  0  0  0  0  0  0  0
  147.7342  134.6559  152.1102 H   0  0  0  0  0  0  0  0  0  0  0  0
  146.1517  134.7220  150.5345 H   0  0  0  0  0  0  0  0  0  0  0  0
  144.2474  133.6367  149.3426 H   0  0  0  0  0  0  0  0  0  0  0  0
  143.5355  131.3313  150.0374 H   0  0  0  0  0  0  0  0  0  0  0  0
  144.7787  130.2161  151.9103 H   0  0  0  0  0  0  0  0  0  0  0  0
  150.0065  136.3764  153.5930 H   0  0  0  0  0  0  0  0  0  0  0  0
  149.4746  137.9179  154.1764 H   0  0  0  0  0  0  0  0  0  0  0  0
  152.3437  136.8455  154.4837 H   0  0  0  0  0  0  0  0  0  0  0  0
  151.8353  138.0411  153.2960 H   0  0  0  0  0  0  0  0  0  0  0  0
  151.8569  137.4655  157.4135 H   0  0  0  0  0  0  0  0  0  0  0  0
  151.0861  138.9984  157.8116 H   0  0  0  0  0  0  0  0  0  0  0  0
  149.1233  138.3904  156.3472 H   0  0  0  0  0  0  0  0  0  0  0  0
  149.3115  137.2663  157.6386 H   0  0  0  0  0  0  0  0  0  0  0  0
  1  2  1  0  0  0  0
  1 23  1  0  0  0  0
  1 24  1  0  0  0  0
  1 25  1  0  0  0  0
  2  3  1  0  0  0  0
  2 13  1  0  0  0  0
  2 26  1  0  0  0  0
  3  4  1  0  0  0  0
  3 27  1  0  0  0  0
  4  5  2  0  0  0  0
  4  6  1  0  0  0  0
  6  7  1  0  0  0  0
  6 28  1  0  0  0  0
  7 12  1  0  0  0  0
  7  8  2  0  0  0  0
  8  9  1  0  0  0  0
  8 29  1  0  0  0  0
  9 10  2  0  0  0  0
  9 30  1  0  0  0  0
 10 11  1  0  0  0  0
 10 31  1  0  0  0  0
 11 12  2  0  0  0  0
 11 32  1  0  0  0  0
 13 14  2  0  0  0  0
 13 15  1  0  0  0  0
 15 22  1  0  0  0  0
 15 16  1  0  0  0  0
 16 17  1  0  0  0  0
 16 33  1  0  0  0  0
 16 34  1  0  0  0  0
 17 18  1  0  0  0  0
 17 35  1  0  0  0  0
 17 36  1  0  0  0  0
 18 19  2  0  0  0  0
 18 20  2  0  0  0  0
 18 21  1  0  0  0  0
 21 22  1  0  0  0  0
 21 37  1  0  0  0  0
 21 38  1  0  0  0  0
 22 39  1  0  0  0  0
 22 40  1  0  0  0  0
M  END
> <s_m_source_file>
AV-unprocessed.smi

> <i_m_source_file_index>
1058

> <i_lp_mmshare_version>
43012

> <i_f3d_flags>
0

> <s_epik_input>
Tz1TMSg9TylbQ0gyXVtDSDJdTihbQ0gyXVtDSDJdMSlDKD1PKVtDQEhdKFtDSDNdKVtOSF1DKD1PKVtOSF1jMltjSF1bY0hdW2NIXVtjSF1uMg==

> <s_epik_cmdline>
J2VwaWtfcHl0aG9uJywgJy1waCcsICc3LjAnLCAnLXRuJywgJzgnLCAnLW1hJywgJzIwMCcsICctbWV0YWxfYmluZGluZycsICctaW1hZScsICc8aW5maWxlLm1hZT4nLCAnLW9tYWUnLCAnPG91dGZpbGUubWFlPic=

> <r_lp_tautomer_probability>
1

> <r_epik_Ionization_Penalty>
3.69864e-05

> <r_epik_Ionization_Penalty_Charging>
0

> <r_epik_Ionization_Penalty_Neutral>
3.69864e-05

> <r_epik_State_Penalty>
-0

> <r_epik_Charging_Adjusted_Penalty>
0

> <i_epik_Tot_Q>
0

> <i_epik_Tot_abs_Q>
0

> <r_epik_Metal_State_Penalty>
-0

> <b_epik_Metal_Only>
0

> <s_lp_Force_Field>
OPLS_2005

> <r_lp_Energy>
18.063

> <b_lp_Chiralities_Consistent>
1

> <s_lp_Variant>
AV-unprocessed.smi:1058-2

> <Gold.Version>
5.8.1

> <Gold.Id.Protein>
6NUR|6NUR_protein|mol2

> <Gold.PLP.Fitness>
44.9155

> <Gold.PLP.PLP>
-33.2786

> <Gold.PLP.part.hbond>
-3.9171

> <Gold.PLP.part.metal>
0.0000

> <Gold.PLP.part.buried>
-4.3923

> <Gold.PLP.part.nonpolar>
-26.0147

> <Gold.PLP.part.repulsive>
0.2673

> <Gold.PLP.ligand.clash>
0.0003

> <Gold.PLP.ligand.torsion>
0.2693

> <Gold.PLP.Chemscore.Hbond>
3.9920

> <Gold.PLP.Chemscore.CHOScore>
0.0000

> <Gold.PLP.Chemscore.Metal>
0.0000

> <Gold.Chemscore.Hbonds>
donor molecule, donor type, donor heavy atom, donor atom, acceptor molecule, acceptor atom, score
      L1  H     3    27       P1  7948  0.80
      L1  H     6    28       P1  7948  1.00
      P1  H  7989  7998       L1    20  1.00
      P1  H  7997  8009       L1    19  0.93

> <Gold.PLP.Chemscore.Internal.Correction>
0.1997

> <Gold.Rescore>
     Score         DG    S(hbond)    S(metal)    S(lipo)     H(rot)  DE(clash)    DE(int)     intcor
     16.94     -20.15       3.26        0.00      62.21       1.36       0.12       3.10       ----

> <Gold.Chemscore.Fitness>
16.9373

> <Gold.Chemscore.DG>
-20.1542

> <Gold.Chemscore.ZeroCoef>
-5.4800

> <Gold.Chemscore.Hbond>
3.2579

> <Gold.Chemscore.Metal>
0.0000

> <Gold.Chemscore.Lipo>
62.2139

> <Gold.Chemscore.Internal_Hbond>
0.0000

> <Gold.Chemscore.DEClash>
0.1213

> <Gold.Chemscore.DEInternal>
3.0957

> <Gold.Chemscore.Rot>
1.3617

> <Gold.Chemscore.Internal.Correction>
   9.000000E+99

> <Gold.Chemscore.Hbonds>
donor molecule, donor type, donor heavy atom, donor atom, acceptor molecule, acceptor atom, score
      L1  H     3    27       P1  7948  0.12
      L1  H     6    28       P1  7948  0.51
      P1  H  7989  7998       L1    20  0.74
      P1  H  7997  8009       L1    19  0.85

> <Gold.Chemscore.Hbond.Weighted>
-10.8813

> <Gold.Chemscore.Metal.Weighted>
-0.0000

> <Gold.Chemscore.Lipo.Weighted>
-7.2790

> <Gold.Chemscore.Internal_Hbond.Weighted>
0.0000

> <Gold.Chemscore.DEClash.Weighted>
0.1213

> <Gold.Chemscore.DEInternal.Weighted>
3.0957

> <Gold.Chemscore.Rot.Weighted>
3.4861

> <Gold.Chemscore.Internal.Correction.Weighted>
   9.000000E+99

> <Gold.Protein.RotatedTorsions>
[ 6907 6896 6895 6894 ] final -166.22 input  -60.11 | X-H torsion
[ 7974 7965 7964 7962 ] final   28.12 input  175.53 | X-H torsion
[ 8008 7997 7996 7995 ] final -163.85 input   59.86 | X-H torsion
[ 10167 10162 10161 10158 ] final  140.84 input  -65.29 | X-H torsion
[ 10718 10713 10712 10709 ] final  135.17 input   66.30 | X-H torsion
[ 10763 10752 10751 10750 ] final -127.42 input  -60.55 | X-H torsion
[ 11005 11000 10999 10996 ] final  106.32 input  -57.11 | X-H torsion

> <Gold.Protein.ActiveResidues>
 VAL166  LYS551  ARG553  GLY616  TRP617  ASP618  TYR619  PRO620  LYS621  CYS622 
 ASP623  PHE694  ASN695  SER759  ASP760  ASP761  ALA762  ILE779  LEU786  VAL792 
 PHE793  MET794  SER795  GLU796  ALA797  LYS798  CYS799  TRP800  GLU811  SER814 

> <Gold.Protein.RotatedAtoms>
  151.4402  133.3645  159.2780 H   0  0  0  0  0  0  0  0  0  0  0  0  # atno 6907 bound_to 6896
  150.9163  134.8582  159.7470 H   0  0  0  0  0  0  0  0  0  0  0  0  # atno 6908 bound_to 6896
  152.4959  134.4336  159.9572 H   0  0  0  0  0  0  0  0  0  0  0  0  # atno 6909 bound_to 6896
  146.1747  139.7099  142.8943 H   0  0  0  0  0  0  0  0  0  0  0  0  # atno 7974 bound_to 7965
  155.8271  140.0928  157.1814 H   0  0  0  0  0  0  0  0  0  0  0  0  # atno 8008 bound_to 7997
  154.3979  140.1426  156.3630 H   0  0  0  0  0  0  0  0  0  0  0  0  # atno 8009 bound_to 7997
  155.8205  140.3446  155.5514 H   0  0  0  0  0  0  0  0  0  0  0  0  # atno 8010 bound_to 7997
  139.5037  144.6209  151.6054 H   0  0  0  0  0  0  0  0  0  0  0  0  # atno 10167 bound_to 10162
  157.4598  131.1072  150.9934 H   0  0  0  0  0  0  0  0  0  0  0  0  # atno 10718 bound_to 10713
  154.8752  135.3962  154.3590 H   0  0  0  0  0  0  0  0  0  0  0  0  # atno 10763 bound_to 10752
  153.4365  135.7026  153.6202 H   0  0  0  0  0  0  0  0  0  0  0  0  # atno 10764 bound_to 10752
  153.4801  135.3771  155.2407 H   0  0  0  0  0  0  0  0  0  0  0  0  # atno 10765 bound_to 10752
  139.8813  134.9365  156.5649 H   0  0  0  0  0  0  0  0  0  0  0  0  # atno 11005 bound_to 11000
  145.4245  141.0409  143.2945 LP  0  0  0  0  0  0  0  0  0  0  0  0  # atno 17320 bound_to 7965
  144.8217  139.5781  143.6984 LP  0  0  0  0  0  0  0  0  0  0  0  0  # atno 17321 bound_to 7965
  140.5911  143.9779  150.6325 LP  0  0  0  0  0  0  0  0  0  0  0  0  # atno 17342 bound_to 10162
  140.2959  143.3293  152.1018 LP  0  0  0  0  0  0  0  0  0  0  0  0  # atno 17343 bound_to 10162
  157.0735  130.5874  149.5407 LP  0  0  0  0  0  0  0  0  0  0  0  0  # atno 17370 bound_to 10713
  156.0023  130.5104  150.7708 LP  0  0  0  0  0  0  0  0  0  0  0  0  # atno 17371 bound_to 10713
  140.8141  133.8405  155.8836 LP  0  0  0  0  0  0  0  0  0  0  0  0  # atno 17394 bound_to 11000
  140.9479  134.1817  157.4750 LP  0  0  0  0  0  0  0  0  0  0  0  0  # atno 17395 bound_to 11000

$$$$
