AV-unprocessed.smi:3350|AV-procd|sdf|12944|dock7
  -GOLD-   2272019373D 1   1.00000     0.00000
 Structure written by MMmdl.
 41 42  0  0  0  0  0  0  0  0  1 V2000
  151.1707  136.2078  156.2467 C   0  0  0  0  0  0  0  0  0  0  0  0
  150.1544  136.9735  155.3888 C   0  0  1  0  0  0  0  0  0  0  0  0
  150.8305  138.1224  154.6094 C   0  0  0  0  0  0  0  0  0  0  0  0
  149.9361  139.2404  154.3666 N   0  0  0  0  0  0  0  0  0  0  0  0
  148.6942  139.2305  153.7668 C   0  0  0  0  0  0  0  0  0  0  0  0
  148.2253  140.5124  153.7821 C   0  0  0  0  0  0  0  0  0  0  0  0
  149.2677  141.2453  154.4152 C   0  0  0  0  0  0  0  0  0  0  0  0
  150.2923  140.4821  154.7600 N   0  0  0  0  0  0  0  0  0  0  0  0
  149.5045  136.0352  154.4743 N   0  0  0  0  0  0  0  0  0  0  0  0
  148.9271  134.8762  154.8237 C   0  0  0  0  0  0  0  0  0  0  0  0
  148.8951  134.4415  155.9749 O   0  0  0  0  0  0  0  0  0  0  0  0
  148.3703  134.2656  153.7664 N   0  0  0  0  0  0  0  0  0  0  0  0
  147.6140  133.0111  153.7619 C   0  0  2  0  0  0  0  0  0  0  0  0
  148.4692  131.8452  154.2942 C   0  0  0  0  0  0  0  0  0  0  0  0
  146.9900  132.7210  152.3784 C   0  0  1  0  0  0  0  0  0  0  0  0
  146.1387  131.4524  152.3181 C   0  0  0  0  0  0  0  0  0  0  0  0
  145.1848  131.7174  151.1639 C   0  0  0  0  0  0  0  0  0  0  0  0
  145.2808  133.2292  150.9400 C   0  0  0  0  0  0  0  0  0  0  0  0
  146.0429  133.7206  152.0338 O   0  0  0  0  0  0  0  0  0  0  0  0
  151.6488  136.8685  156.9703 H   0  0  0  0  0  0  0  0  0  0  0  0
  151.9553  135.7633  155.6332 H   0  0  0  0  0  0  0  0  0  0  0  0
  150.6882  135.4049  156.8051 H   0  0  0  0  0  0  0  0  0  0  0  0
  149.4147  137.3981  156.0704 H   0  0  0  0  0  0  0  0  0  0  0  0
  151.6927  138.4960  155.1638 H   0  0  0  0  0  0  0  0  0  0  0  0
  151.2105  137.7645  153.6513 H   0  0  0  0  0  0  0  0  0  0  0  0
  148.2488  138.3207  153.3925 H   0  0  0  0  0  0  0  0  0  0  0  0
  147.2806  140.8717  153.4021 H   0  0  0  0  0  0  0  0  0  0  0  0
  149.3102  142.3022  154.6331 H   0  0  0  0  0  0  0  0  0  0  0  0
  149.4752  136.3010  153.5010 H   0  0  0  0  0  0  0  0  0  0  0  0
  148.4688  134.7197  152.8704 H   0  0  0  0  0  0  0  0  0  0  0  0
  146.7988  133.1644  154.4696 H   0  0  0  0  0  0  0  0  0  0  0  0
  147.8653  130.9501  154.4427 H   0  0  0  0  0  0  0  0  0  0  0  0
  148.9197  132.0955  155.2553 H   0  0  0  0  0  0  0  0  0  0  0  0
  149.2743  131.5848  153.6067 H   0  0  0  0  0  0  0  0  0  0  0  0
  147.7561  132.6781  151.6024 H   0  0  0  0  0  0  0  0  0  0  0  0
  146.7348  130.5508  152.1749 H   0  0  0  0  0  0  0  0  0  0  0  0
  145.5688  131.3357  153.2409 H   0  0  0  0  0  0  0  0  0  0  0  0
  145.4873  131.1774  150.2660 H   0  0  0  0  0  0  0  0  0  0  0  0
  144.1699  131.4083  151.4164 H   0  0  0  0  0  0  0  0  0  0  0  0
  145.8071  133.4461  150.0095 H   0  0  0  0  0  0  0  0  0  0  0  0
  144.3034  133.7098  150.8978 H   0  0  0  0  0  0  0  0  0  0  0  0
  1  2  1  0  0  0  0
  1 20  1  0  0  0  0
  1 21  1  0  0  0  0
  1 22  1  0  0  0  0
  2  3  1  0  0  0  0
  2  9  1  0  0  0  0
  2 23  1  0  0  0  0
  3  4  1  0  0  0  0
  3 24  1  0  0  0  0
  3 25  1  0  0  0  0
  4  8  1  0  0  0  0
  4  5  1  0  0  0  0
  5  6  2  0  0  0  0
  5 26  1  0  0  0  0
  6  7  1  0  0  0  0
  6 27  1  0  0  0  0
  7  8  2  0  0  0  0
  7 28  1  0  0  0  0
  9 10  1  0  0  0  0
  9 29  1  0  0  0  0
 10 11  2  0  0  0  0
 10 12  1  0  0  0  0
 12 13  1  0  0  0  0
 12 30  1  0  0  0  0
 13 14  1  0  0  0  0
 13 15  1  0  0  0  0
 13 31  1  0  0  0  0
 14 32  1  0  0  0  0
 14 33  1  0  0  0  0
 14 34  1  0  0  0  0
 15 19  1  0  0  0  0
 15 16  1  0  0  0  0
 15 35  1  0  0  0  0
 16 17  1  0  0  0  0
 16 36  1  0  0  0  0
 16 37  1  0  0  0  0
 17 18  1  0  0  0  0
 17 38  1  0  0  0  0
 17 39  1  0  0  0  0
 18 19  1  0  0  0  0
 18 40  1  0  0  0  0
 18 41  1  0  0  0  0
M  END
> <s_m_source_file>
AV-unprocessed.smi

> <i_m_source_file_index>
3350

> <i_lp_mmshare_version>
43012

> <i_f3d_flags>
0

> <s_epik_input>
bjFbY0hdW2NIXVtjSF1uMVtDSDJdW0NAQEhdKFtDSDNdKVtOSF1DKD1PKVtOSF1bQ0BIXShbQ0gzXSlbQ0BASF0yW0NIMl1bQ0gyXVtDSDJdTzI=

> <s_epik_cmdline>
J2VwaWtfcHl0aG9uJywgJy1waCcsICc3LjAnLCAnLXRuJywgJzgnLCAnLW1hJywgJzIwMCcsICctbWV0YWxfYmluZGluZycsICctaW1hZScsICc8aW5maWxlLm1hZT4nLCAnLW9tYWUnLCAnPG91dGZpbGUubWFlPic=

> <r_lp_tautomer_probability>
1

> <r_epik_Ionization_Penalty>
6.42349e-05

> <r_epik_Ionization_Penalty_Charging>
0

> <r_epik_Ionization_Penalty_Neutral>
6.42349e-05

> <r_epik_State_Penalty>
-0

> <r_epik_Charging_Adjusted_Penalty>
0

> <i_epik_Tot_Q>
0

> <i_epik_Tot_abs_Q>
0

> <r_epik_Metal_State_Penalty>
-0

> <b_epik_Metal_Only>
0

> <s_lp_Force_Field>
OPLS_2005

> <r_lp_Energy>
15.9813

> <b_lp_Chiralities_Consistent>
1

> <s_lp_Variant>
AV-unprocessed.smi:3350-6

> <Gold.Version>
5.8.1

> <Gold.Id.Protein>
6NUR|6NUR_protein|mol2

> <Gold.PLP.Fitness>
44.6326

> <Gold.PLP.PLP>
-32.3706

> <Gold.PLP.part.hbond>
-3.0595

> <Gold.PLP.part.metal>
0.0000

> <Gold.PLP.part.buried>
-0.4895

> <Gold.PLP.part.nonpolar>
-28.5510

> <Gold.PLP.part.repulsive>
0.2754

> <Gold.PLP.ligand.clash>
0.0000

> <Gold.PLP.ligand.torsion>
0.4946

> <Gold.PLP.Chemscore.Hbond>
2.9920

> <Gold.PLP.Chemscore.CHOScore>
1.3943

> <Gold.PLP.Chemscore.Metal>
0.0000

> <Gold.Chemscore.Hbonds>
donor molecule, donor type, donor heavy atom, donor atom, acceptor molecule, acceptor atom, score
      L1  H     9    29       P1  7948  1.00
      L1  H    12    30       P1  7948  1.00
      P1  H  7989  7998       L1     8  0.98
      L1  C     5    26       P1  7948  0.66
      L1  C     7    28       P1  8028  0.71

> <Gold.PLP.Chemscore.Internal.Correction>
0.0922

> <Gold.Rescore>
     Score         DG    S(hbond)    S(metal)    S(lipo)     H(rot)  DE(clash)    DE(int)     intcor
     13.56     -15.80       1.96        0.00      72.15       1.82       0.22       2.03       ----

> <Gold.Chemscore.Fitness>
13.5574

> <Gold.Chemscore.DG>
-15.8023

> <Gold.Chemscore.ZeroCoef>
-5.4800

> <Gold.Chemscore.Hbond>
1.9579

> <Gold.Chemscore.Metal>
0.0000

> <Gold.Chemscore.Lipo>
72.1465

> <Gold.Chemscore.Internal_Hbond>
0.0000

> <Gold.Chemscore.DEClash>
0.2189

> <Gold.Chemscore.DEInternal>
2.0259

> <Gold.Chemscore.Rot>
1.8197

> <Gold.Chemscore.Internal.Correction>
   9.000000E+99

> <Gold.Chemscore.Hbonds>
donor molecule, donor type, donor heavy atom, donor atom, acceptor molecule, acceptor atom, score
      L1  H     9    29       P1  7948  0.65
      L1  H    12    30       P1  7948  0.38
      P1  H  7989  7998       L1     8  0.13

> <Gold.Chemscore.Hbond.Weighted>
-6.5395

> <Gold.Chemscore.Metal.Weighted>
-0.0000

> <Gold.Chemscore.Lipo.Weighted>
-8.4411

> <Gold.Chemscore.Internal_Hbond.Weighted>
0.0000

> <Gold.Chemscore.DEClash.Weighted>
0.2189

> <Gold.Chemscore.DEInternal.Weighted>
2.0259

> <Gold.Chemscore.Rot.Weighted>
4.6583

> <Gold.Chemscore.Internal.Correction.Weighted>
   9.000000E+99

> <Gold.Protein.RotatedTorsions>
[ 6907 6896 6895 6894 ] final  -50.87 input  -60.11 | X-H torsion
[ 7974 7965 7964 7962 ] final   22.52 input  175.53 | X-H torsion
[ 8008 7997 7996 7995 ] final  -81.84 input   59.86 | X-H torsion
[ 10167 10162 10161 10158 ] final -132.92 input  -65.29 | X-H torsion
[ 10718 10713 10712 10709 ] final  -21.97 input   66.30 | X-H torsion
[ 10763 10752 10751 10750 ] final  159.24 input  -60.55 | X-H torsion
[ 11005 11000 10999 10996 ] final   88.41 input  -57.11 | X-H torsion

> <Gold.Protein.ActiveResidues>
 VAL166  LYS551  ARG553  GLY616  TRP617  ASP618  TYR619  PRO620  LYS621  CYS622 
 ASP623  PHE694  ASN695  SER759  ASP760  ASP761  ALA762  ILE779  LEU786  VAL792 
 PHE793  MET794  SER795  GLU796  ALA797  LYS798  CYS799  TRP800  GLU811  SER814 

> <Gold.Protein.RotatedAtoms>
  150.8666  134.8030  159.7122 H   0  0  0  0  0  0  0  0  0  0  0  0  # atno 6907 bound_to 6896
  152.4685  134.5014  159.9736 H   0  0  0  0  0  0  0  0  0  0  0  0  # atno 6908 bound_to 6896
  151.5109  133.3446  159.2920 H   0  0  0  0  0  0  0  0  0  0  0  0  # atno 6909 bound_to 6896
  146.2025  139.7874  142.8750 H   0  0  0  0  0  0  0  0  0  0  0  0  # atno 7974 bound_to 7965
  154.6024  140.0642  156.9386 H   0  0  0  0  0  0  0  0  0  0  0  0  # atno 8008 bound_to 7997
  155.2109  140.3322  155.4310 H   0  0  0  0  0  0  0  0  0  0  0  0  # atno 8009 bound_to 7997
  156.2326  140.1848  156.7185 H   0  0  0  0  0  0  0  0  0  0  0  0  # atno 8010 bound_to 7997
  139.9036  143.6578  152.2590 H   0  0  0  0  0  0  0  0  0  0  0  0  # atno 10167 bound_to 10162
  156.5110  130.4610  149.6648 H   0  0  0  0  0  0  0  0  0  0  0  0  # atno 10718 bound_to 10713
  154.2287  135.2779  155.2898 H   0  0  0  0  0  0  0  0  0  0  0  0  # atno 10763 bound_to 10752
  154.5642  135.5638  153.7038 H   0  0  0  0  0  0  0  0  0  0  0  0  # atno 10764 bound_to 10752
  153.0025  135.6305  154.2429 H   0  0  0  0  0  0  0  0  0  0  0  0  # atno 10765 bound_to 10752
  139.8897  134.8486  156.2996 H   0  0  0  0  0  0  0  0  0  0  0  0  # atno 11005 bound_to 11000
  145.3434  141.0292  143.3379 LP  0  0  0  0  0  0  0  0  0  0  0  0  # atno 17320 bound_to 7965
  144.8716  139.5030  143.6765 LP  0  0  0  0  0  0  0  0  0  0  0  0  # atno 17321 bound_to 7965
  139.7004  144.7636  151.1284 LP  0  0  0  0  0  0  0  0  0  0  0  0  # atno 17342 bound_to 10162
  140.7701  143.5466  150.9251 LP  0  0  0  0  0  0  0  0  0  0  0  0  # atno 17343 bound_to 10162
  156.3241  130.7296  151.2213 LP  0  0  0  0  0  0  0  0  0  0  0  0  # atno 17370 bound_to 10713
  157.7450  131.0448  150.4810 LP  0  0  0  0  0  0  0  0  0  0  0  0  # atno 17371 bound_to 10713
  140.9922  133.7202  156.0831 LP  0  0  0  0  0  0  0  0  0  0  0  0  # atno 17394 bound_to 11000
  140.7610  134.3939  157.5525 LP  0  0  0  0  0  0  0  0  0  0  0  0  # atno 17395 bound_to 11000

$$$$
