AV-unprocessed.smi:2637|AV-procd|sdf|10261|dock9
  -GOLD-   2272014273D 1   1.00000     0.00000
 Structure written by MMmdl.
 40 41  0  0  0  0  0  0  0  0  1 V2000
  147.1284  129.5595  155.5459 C   0  0  0  0  0  0  0  0  0  0  0  0
  147.3865  130.9104  154.9464 C   0  0  0  0  0  0  0  0  0  0  0  0
  148.2982  131.9098  155.3951 C   0  0  0  0  0  0  0  0  0  0  0  0
  148.1154  132.9148  154.4848 C   0  0  0  0  0  0  0  0  0  0  0  0
  148.7272  134.1271  154.4146 N   0  0  0  0  0  0  0  0  0  0  0  0
  149.3581  134.8083  155.3869 C   0  0  0  0  0  0  0  0  0  0  0  0
  149.5036  134.4257  156.5481 O   0  0  0  0  0  0  0  0  0  0  0  0
  149.8147  135.9847  154.9330 N   0  0  0  0  0  0  0  0  0  0  0  0
  150.5315  136.9795  155.7257 C   0  0  0  0  0  0  0  0  0  0  0  0
  151.7839  137.5027  155.0014 C   0  0  0  0  0  0  0  0  0  0  0  0
  152.7268  138.3283  155.8976 C   0  0  0  0  0  0  0  0  0  0  0  0
  152.0800  139.5559  156.3707 N   0  0  0  0  0  0  0  0  0  0  0  0
  151.3516  140.3707  155.5945 C   0  0  0  0  0  0  0  0  0  0  0  0
  151.1217  140.2224  154.3947 O   0  0  0  0  0  0  0  0  0  0  0  0
  150.8097  141.5473  156.3953 C   0  0  0  0  0  0  0  0  0  0  0  0
  151.3390  141.2783  157.8076 C   0  0  0  0  0  0  0  0  0  0  0  0
  152.1229  139.9837  157.6405 C   0  0  0  0  0  0  0  0  0  0  0  0
  152.7002  139.4316  158.5768 O   0  0  0  0  0  0  0  0  0  0  0  0
  147.1600  132.5218  153.5740 N   0  0  0  0  0  0  0  0  0  0  0  0
  146.6290  133.2345  152.4284 C   0  0  0  0  0  0  0  0  0  0  0  0
  146.7135  131.2802  153.8626 N   0  0  0  0  0  0  0  0  0  0  0  0
  147.7847  129.3739  156.3964 H   0  0  0  0  0  0  0  0  0  0  0  0
  147.2982  128.7666  154.8170 H   0  0  0  0  0  0  0  0  0  0  0  0
  146.0994  129.4766  155.8967 H   0  0  0  0  0  0  0  0  0  0  0  0
  148.9641  131.8737  156.2440 H   0  0  0  0  0  0  0  0  0  0  0  0
  148.6923  134.5736  153.5102 H   0  0  0  0  0  0  0  0  0  0  0  0
  149.6469  136.2157  153.9646 H   0  0  0  0  0  0  0  0  0  0  0  0
  149.8803  137.8087  156.0075 H   0  0  0  0  0  0  0  0  0  0  0  0
  150.8303  136.5012  156.6587 H   0  0  0  0  0  0  0  0  0  0  0  0
  152.3324  136.6496  154.6000 H   0  0  0  0  0  0  0  0  0  0  0  0
  151.4797  138.0982  154.1394 H   0  0  0  0  0  0  0  0  0  0  0  0
  153.0500  137.7378  156.7558 H   0  0  0  0  0  0  0  0  0  0  0  0
  153.6394  138.5702  155.3501 H   0  0  0  0  0  0  0  0  0  0  0  0
  151.1859  142.4884  155.9928 H   0  0  0  0  0  0  0  0  0  0  0  0
  149.7196  141.5611  156.3651 H   0  0  0  0  0  0  0  0  0  0  0  0
  151.9920  142.0789  158.1564 H   0  0  0  0  0  0  0  0  0  0  0  0
  150.5297  141.1449  158.5261 H   0  0  0  0  0  0  0  0  0  0  0  0
  146.3953  134.2622  152.7082 H   0  0  0  0  0  0  0  0  0  0  0  0
  145.7186  132.7543  152.0668 H   0  0  0  0  0  0  0  0  0  0  0  0
  147.3696  133.2417  151.6281 H   0  0  0  0  0  0  0  0  0  0  0  0
  1  2  1  0  0  0  0
  1 22  1  0  0  0  0
  1 23  1  0  0  0  0
  1 24  1  0  0  0  0
  2 21  2  0  0  0  0
  2  3  1  0  0  0  0
  3  4  2  0  0  0  0
  3 25  1  0  0  0  0
  4  5  1  0  0  0  0
  4 19  1  0  0  0  0
  5  6  1  0  0  0  0
  5 26  1  0  0  0  0
  6  7  2  0  0  0  0
  6  8  1  0  0  0  0
  8  9  1  0  0  0  0
  8 27  1  0  0  0  0
  9 10  1  0  0  0  0
  9 28  1  0  0  0  0
  9 29  1  0  0  0  0
 10 11  1  0  0  0  0
 10 30  1  0  0  0  0
 10 31  1  0  0  0  0
 11 12  1  0  0  0  0
 11 32  1  0  0  0  0
 11 33  1  0  0  0  0
 12 17  1  0  0  0  0
 12 13  1  0  0  0  0
 13 14  2  0  0  0  0
 13 15  1  0  0  0  0
 15 16  1  0  0  0  0
 15 34  1  0  0  0  0
 15 35  1  0  0  0  0
 16 17  1  0  0  0  0
 16 36  1  0  0  0  0
 16 37  1  0  0  0  0
 17 18  2  0  0  0  0
 19 20  1  0  0  0  0
 19 21  1  0  0  0  0
 20 38  1  0  0  0  0
 20 39  1  0  0  0  0
 20 40  1  0  0  0  0
M  END
> <s_m_source_file>
AV-unprocessed.smi

> <i_m_source_file_index>
2637

> <i_lp_mmshare_version>
43012

> <i_f3d_flags>
0

> <s_epik_input>
W0NIM11jMVtjSF1jKG4objEpW0NIM10pW05IXUMoPU8pW05IXVtDSDJdW0NIMl1bQ0gyXU4yQyg9TylbQ0gyXVtDSDJdQzI9Tw==

> <s_epik_cmdline>
J2VwaWtfcHl0aG9uJywgJy1waCcsICc3LjAnLCAnLXRuJywgJzgnLCAnLW1hJywgJzIwMCcsICctbWV0YWxfYmluZGluZycsICctaW1hZScsICc8aW5maWxlLm1hZT4nLCAnLW9tYWUnLCAnPG91dGZpbGUubWFlPic=

> <r_lp_tautomer_probability>
1

> <r_epik_Ionization_Penalty>
9.41646e-05

> <r_epik_Ionization_Penalty_Charging>
0

> <r_epik_Ionization_Penalty_Neutral>
9.41646e-05

> <r_epik_State_Penalty>
-0

> <r_epik_Charging_Adjusted_Penalty>
0

> <i_epik_Tot_Q>
0

> <i_epik_Tot_abs_Q>
0

> <r_epik_Metal_State_Penalty>
-0

> <b_epik_Metal_Only>
0

> <s_lp_Force_Field>
OPLS_2005

> <r_lp_Energy>
13.5658

> <b_lp_Chiralities_Consistent>
1

> <s_lp_Variant>
AV-unprocessed.smi:2637-1

> <Gold.Version>
5.8.1

> <Gold.Id.Protein>
6NUR|6NUR_protein|mol2

> <Gold.PLP.Fitness>
51.0707

> <Gold.PLP.PLP>
-41.0604

> <Gold.PLP.part.hbond>
-4.6107

> <Gold.PLP.part.metal>
0.0000

> <Gold.PLP.part.buried>
-3.7893

> <Gold.PLP.part.nonpolar>
-33.0383

> <Gold.PLP.part.repulsive>
0.5700

> <Gold.PLP.ligand.clash>
0.0000

> <Gold.PLP.ligand.torsion>
0.3960

> <Gold.PLP.Chemscore.Hbond>
3.5800

> <Gold.PLP.Chemscore.CHOScore>
0.0000

> <Gold.PLP.Chemscore.Metal>
0.0000

> <Gold.Chemscore.Hbonds>
donor molecule, donor type, donor heavy atom, donor atom, acceptor molecule, acceptor atom, score
      L1  H     5    26       P1  7948  0.29
      L1  H     8    27       P1  7948  0.62
      P1  H  7989  7998       L1    14  0.21

> <Gold.PLP.Chemscore.Internal.Correction>
0.0623

> <Gold.Rescore>
     Score         DG    S(hbond)    S(metal)    S(lipo)     H(rot)  DE(clash)    DE(int)     intcor
     12.18     -14.17       2.57        0.00      46.33       2.07       0.03       1.96       ----

> <Gold.Chemscore.Fitness>
12.1821

> <Gold.Chemscore.DG>
-14.1692

> <Gold.Chemscore.ZeroCoef>
-5.4800

> <Gold.Chemscore.Hbond>
2.5653

> <Gold.Chemscore.Metal>
0.0000

> <Gold.Chemscore.Lipo>
46.3301

> <Gold.Chemscore.Internal_Hbond>
0.0000

> <Gold.Chemscore.DEClash>
0.0310

> <Gold.Chemscore.DEInternal>
1.9562

> <Gold.Chemscore.Rot>
2.0701

> <Gold.Chemscore.Internal.Correction>
   9.000000E+99

> <Gold.Chemscore.Hbonds>
donor molecule, donor type, donor heavy atom, donor atom, acceptor molecule, acceptor atom, score
      L1  H     5    26       P1  7948  0.11
      L1  H     8    27       P1  7948  0.35
      P1  H  7989  7998       L1    14  0.23

> <Gold.Chemscore.Hbond.Weighted>
-8.5681

> <Gold.Chemscore.Metal.Weighted>
-0.0000

> <Gold.Chemscore.Lipo.Weighted>
-5.4206

> <Gold.Chemscore.Internal_Hbond.Weighted>
0.0000

> <Gold.Chemscore.DEClash.Weighted>
0.0310

> <Gold.Chemscore.DEInternal.Weighted>
1.9562

> <Gold.Chemscore.Rot.Weighted>
5.2995

> <Gold.Chemscore.Internal.Correction.Weighted>
   9.000000E+99

> <Gold.Protein.RotatedTorsions>
[ 6907 6896 6895 6894 ] final -143.78 input  -60.11 | X-H torsion
[ 7974 7965 7964 7962 ] final   -9.14 input  175.53 | X-H torsion
[ 8008 7997 7996 7995 ] final  147.94 input   59.86 | X-H torsion
[ 10167 10162 10161 10158 ] final  -94.40 input  -65.29 | X-H torsion
[ 10718 10713 10712 10709 ] final  -66.08 input   66.30 | X-H torsion
[ 10763 10752 10751 10750 ] final  -22.53 input  -60.55 | X-H torsion
[ 11005 11000 10999 10996 ] final   94.48 input  -57.11 | X-H torsion

> <Gold.Protein.ActiveResidues>
 VAL166  LYS551  ARG553  GLY616  TRP617  ASP618  TYR619  PRO620  LYS621  CYS622 
 ASP623  PHE694  ASN695  SER759  ASP760  ASP761  ALA762  ILE779  LEU786  VAL792 
 PHE793  MET794  SER795  GLU796  ALA797  LYS798  CYS799  TRP800  GLU811  SER814 

> <Gold.Protein.RotatedAtoms>
  151.1051  133.5214  159.2607 H   0  0  0  0  0  0  0  0  0  0  0  0  # atno 6907 bound_to 6896
  151.2030  135.0450  159.8890 H   0  0  0  0  0  0  0  0  0  0  0  0  # atno 6908 bound_to 6896
  152.5446  134.0877  159.8317 H   0  0  0  0  0  0  0  0  0  0  0  0  # atno 6909 bound_to 6896
  146.2260  140.2573  142.8350 H   0  0  0  0  0  0  0  0  0  0  0  0  # atno 7974 bound_to 7965
  156.2808  140.2142  156.5618 H   0  0  0  0  0  0  0  0  0  0  0  0  # atno 8008 bound_to 7997
  154.7207  140.0504  157.0659 H   0  0  0  0  0  0  0  0  0  0  0  0  # atno 8009 bound_to 7997
  155.0482  140.3153  155.4704 H   0  0  0  0  0  0  0  0  0  0  0  0  # atno 8010 bound_to 7997
  140.3148  143.3084  152.0110 H   0  0  0  0  0  0  0  0  0  0  0  0  # atno 10167 bound_to 10162
  156.0633  130.4256  150.1657 H   0  0  0  0  0  0  0  0  0  0  0  0  # atno 10718 bound_to 10713
  153.6534  135.6980  153.5201 H   0  0  0  0  0  0  0  0  0  0  0  0  # atno 10763 bound_to 10752
  153.2688  135.4221  155.0967 H   0  0  0  0  0  0  0  0  0  0  0  0  # atno 10764 bound_to 10752
  154.8470  135.3573  154.6079 H   0  0  0  0  0  0  0  0  0  0  0  0  # atno 10765 bound_to 10752
  139.8798  134.8847  156.3870 H   0  0  0  0  0  0  0  0  0  0  0  0  # atno 11005 bound_to 11000
  144.9366  140.8033  143.5656 LP  0  0  0  0  0  0  0  0  0  0  0  0  # atno 17320 bound_to 7965
  145.2521  139.2027  143.4937 LP  0  0  0  0  0  0  0  0  0  0  0  0  # atno 17321 bound_to 7965
  139.4886  144.6357  151.6980 LP  0  0  0  0  0  0  0  0  0  0  0  0  # atno 17342 bound_to 10162
  140.5536  144.0384  150.6138 LP  0  0  0  0  0  0  0  0  0  0  0  0  # atno 17343 bound_to 10162
  156.9721  130.9838  151.3456 LP  0  0  0  0  0  0  0  0  0  0  0  0  # atno 17370 bound_to 10713
  157.5657  130.8276  149.8324 LP  0  0  0  0  0  0  0  0  0  0  0  0  # atno 17371 bound_to 10713
  140.9359  133.7547  156.0084 LP  0  0  0  0  0  0  0  0  0  0  0  0  # atno 17394 bound_to 11000
  140.8276  134.3216  157.5360 LP  0  0  0  0  0  0  0  0  0  0  0  0  # atno 17395 bound_to 11000

$$$$
