AV-unprocessed.smi:2793|AV-procd|sdf|10774|dock2
  -GOLD-   2272015213D 1   1.00000     0.00000
 Structure written by MMmdl.
 28 29  0  0  0  0  0  0  0  0  1 V2000
  150.4270  142.1306  156.7457 O   0  0  0  0  0  0  0  0  0  0  0  0
  151.5054  141.7862  157.2313 C   0  0  0  0  0  0  0  0  0  0  0  0
  152.1466  140.6447  156.9160 N   0  0  0  0  0  0  0  0  0  0  0  0
  151.7564  139.6458  155.9854 C   0  0  0  0  0  0  0  0  0  0  0  0
  152.3374  138.3694  156.1732 C   0  0  0  0  0  0  0  0  0  0  0  0
  152.0622  137.3170  155.3706 N   0  0  0  0  0  0  0  0  0  0  0  0
  151.1939  137.5385  154.3609 C   0  0  0  0  0  0  0  0  0  0  0  0
  150.6074  138.8035  154.1567 C   0  0  0  0  0  0  0  0  0  0  0  0
  150.8860  139.8504  154.9635 N   0  0  0  0  0  0  0  0  0  0  0  0
  152.1926  142.6637  158.2893 C   0  0  2  0  0  0  0  0  0  0  0  0
  152.3644  141.9485  159.6499 C   0  0  0  0  0  0  0  0  0  0  0  0
  152.9802  142.8957  160.6861 C   0  0  0  0  0  0  0  0  0  0  0  0
  152.1677  144.1924  160.7521 C   0  0  0  0  0  0  0  0  0  0  0  0
  152.0158  144.7967  159.3479 C   0  0  0  0  0  0  0  0  0  0  0  0
  151.4143  143.8475  158.4726 O   0  0  0  0  0  0  0  0  0  0  0  0
  153.0179  140.4769  157.3981 H   0  0  0  0  0  0  0  0  0  0  0  0
  153.0323  138.1859  156.9800 H   0  0  0  0  0  0  0  0  0  0  0  0
  150.9658  136.7044  153.7138 H   0  0  0  0  0  0  0  0  0  0  0  0
  149.9141  138.9755  153.3468 H   0  0  0  0  0  0  0  0  0  0  0  0
  153.1723  142.9397  157.8954 H   0  0  0  0  0  0  0  0  0  0  0  0
  151.3965  141.5971  160.0112 H   0  0  0  0  0  0  0  0  0  0  0  0
  152.9978  141.0670  159.5425 H   0  0  0  0  0  0  0  0  0  0  0  0
  153.0145  142.4177  161.6655 H   0  0  0  0  0  0  0  0  0  0  0  0
  154.0111  143.1212  160.4105 H   0  0  0  0  0  0  0  0  0  0  0  0
  151.1810  143.9871  161.1693 H   0  0  0  0  0  0  0  0  0  0  0  0
  152.6491  144.9062  161.4213 H   0  0  0  0  0  0  0  0  0  0  0  0
  151.3860  145.6855  159.3887 H   0  0  0  0  0  0  0  0  0  0  0  0
  152.9830  145.1105  158.9519 H   0  0  0  0  0  0  0  0  0  0  0  0
  1  2  2  0  0  0  0
  2  3  1  0  0  0  0
  2 10  1  0  0  0  0
  3  4  1  0  0  0  0
  3 16  1  0  0  0  0
  4  9  1  0  0  0  0
  4  5  2  0  0  0  0
  5  6  1  0  0  0  0
  5 17  1  0  0  0  0
  6  7  2  0  0  0  0
  7  8  1  0  0  0  0
  7 18  1  0  0  0  0
  8  9  2  0  0  0  0
  8 19  1  0  0  0  0
 10 15  1  0  0  0  0
 10 11  1  0  0  0  0
 10 20  1  0  0  0  0
 11 12  1  0  0  0  0
 11 21  1  0  0  0  0
 11 22  1  0  0  0  0
 12 13  1  0  0  0  0
 12 23  1  0  0  0  0
 12 24  1  0  0  0  0
 13 14  1  0  0  0  0
 13 25  1  0  0  0  0
 13 26  1  0  0  0  0
 14 15  1  0  0  0  0
 14 27  1  0  0  0  0
 14 28  1  0  0  0  0
M  END
> <s_m_source_file>
AV-unprocessed.smi

> <i_m_source_file_index>
2793

> <i_lp_mmshare_version>
43012

> <i_f3d_flags>
0

> <s_epik_input>
TzFbQ0gyXVtDSDJdW0NIMl1bQ0gyXVtDQEhdMUMoPU8pW05IXWMyW2NIXW5bY0hdW2NIXW4y

> <s_epik_cmdline>
J2VwaWtfcHl0aG9uJywgJy1waCcsICc3LjAnLCAnLXRuJywgJzgnLCAnLW1hJywgJzIwMCcsICctbWV0YWxfYmluZGluZycsICctaW1hZScsICc8aW5maWxlLm1hZT4nLCAnLW9tYWUnLCAnPG91dGZpbGUubWFlPic=

> <r_lp_tautomer_probability>
1

> <r_epik_Ionization_Penalty>
2.82919e-06

> <r_epik_Ionization_Penalty_Charging>
0

> <r_epik_Ionization_Penalty_Neutral>
2.82919e-06

> <r_epik_State_Penalty>
-0

> <r_epik_Charging_Adjusted_Penalty>
0

> <i_epik_Tot_Q>
0

> <i_epik_Tot_abs_Q>
0

> <r_epik_Metal_State_Penalty>
-0

> <b_epik_Metal_Only>
0

> <s_lp_Force_Field>
OPLS_2005

> <r_lp_Energy>
18.1635

> <b_lp_Chiralities_Consistent>
1

> <s_lp_Variant>
AV-unprocessed.smi:2793-1

> <Gold.Version>
5.8.1

> <Gold.Id.Protein>
6NUR|6NUR_protein|mol2

> <Gold.PLP.Fitness>
41.6839

> <Gold.PLP.PLP>
-31.4247

> <Gold.PLP.part.hbond>
-2.0000

> <Gold.PLP.part.metal>
0.0000

> <Gold.PLP.part.buried>
-4.0095

> <Gold.PLP.part.nonpolar>
-24.9457

> <Gold.PLP.part.repulsive>
0.4544

> <Gold.PLP.ligand.clash>
0.0000

> <Gold.PLP.ligand.torsion>
0.1064

> <Gold.PLP.Chemscore.Hbond>
1.4268

> <Gold.PLP.Chemscore.CHOScore>
2.0626

> <Gold.PLP.Chemscore.Metal>
0.0000

> <Gold.Chemscore.Hbonds>
donor molecule, donor type, donor heavy atom, donor atom, acceptor molecule, acceptor atom, score
      P1  H  7989  7998       L1     9  0.60
      P1  H 10752 10765       L1     6  0.75
      L1  C     7    18       P1  7948  0.07
      L1  C     7    18       P1  7949  0.99
      L1  C     8    19       P1  7957  1.00

> <Gold.PLP.Chemscore.Internal.Correction>
0.0038

> <Gold.Rescore>
     Score         DG    S(hbond)    S(metal)    S(lipo)     H(rot)  DE(clash)    DE(int)     intcor
     13.33     -14.98       0.91        0.00      77.19       1.00       0.32       1.33       ----

> <Gold.Chemscore.Fitness>
13.3340

> <Gold.Chemscore.DG>
-14.9842

> <Gold.Chemscore.ZeroCoef>
-5.4800

> <Gold.Chemscore.Hbond>
0.9080

> <Gold.Chemscore.Metal>
0.0000

> <Gold.Chemscore.Lipo>
77.1911

> <Gold.Chemscore.Internal_Hbond>
0.0000

> <Gold.Chemscore.DEClash>
0.3243

> <Gold.Chemscore.DEInternal>
1.3259

> <Gold.Chemscore.Rot>
1.0000

> <Gold.Chemscore.Internal.Correction>
   9.000000E+99

> <Gold.Chemscore.Hbonds>
donor molecule, donor type, donor heavy atom, donor atom, acceptor molecule, acceptor atom, score
      P1  H  7989  7998       L1     9  0.04
      P1  H 10752 10765       L1     6  0.16

> <Gold.Chemscore.Hbond.Weighted>
-3.0328

> <Gold.Chemscore.Metal.Weighted>
-0.0000

> <Gold.Chemscore.Lipo.Weighted>
-9.0314

> <Gold.Chemscore.Internal_Hbond.Weighted>
0.0000

> <Gold.Chemscore.DEClash.Weighted>
0.3243

> <Gold.Chemscore.DEInternal.Weighted>
1.3259

> <Gold.Chemscore.Rot.Weighted>
2.5600

> <Gold.Chemscore.Internal.Correction.Weighted>
   9.000000E+99

> <Gold.Protein.RotatedTorsions>
[ 6907 6896 6895 6894 ] final -102.70 input  -60.11 | X-H torsion
[ 7974 7965 7964 7962 ] final -151.66 input  175.53 | X-H torsion
[ 8008 7997 7996 7995 ] final  162.93 input   59.86 | X-H torsion
[ 10167 10162 10161 10158 ] final  175.84 input  -65.29 | X-H torsion
[ 10718 10713 10712 10709 ] final   -2.07 input   66.30 | X-H torsion
[ 10763 10752 10751 10750 ] final -177.44 input  -60.55 | X-H torsion
[ 11005 11000 10999 10996 ] final -140.28 input  -57.11 | X-H torsion

> <Gold.Protein.ActiveResidues>
 VAL166  LYS551  ARG553  GLY616  TRP617  ASP618  TYR619  PRO620  LYS621  CYS622 
 ASP623  PHE694  ASN695  SER759  ASP760  ASP761  ALA762  ILE779  LEU786  VAL792 
 PHE793  MET794  SER795  GLU796  ALA797  LYS798  CYS799  TRP800  GLU811  SER814 

> <Gold.Protein.RotatedAtoms>
  150.7208  134.0541  159.3808 H   0  0  0  0  0  0  0  0  0  0  0  0  # atno 6907 bound_to 6896
  151.8519  135.0552  160.0469 H   0  0  0  0  0  0  0  0  0  0  0  0  # atno 6908 bound_to 6896
  152.2784  133.5411  159.5519 H   0  0  0  0  0  0  0  0  0  0  0  0  # atno 6909 bound_to 6896
  144.7837  140.4767  143.5821 H   0  0  0  0  0  0  0  0  0  0  0  0  # atno 7974 bound_to 7965
  156.1995  140.1737  156.7929 H   0  0  0  0  0  0  0  0  0  0  0  0  # atno 8008 bound_to 7997
  154.5573  140.0706  156.8794 H   0  0  0  0  0  0  0  0  0  0  0  0  # atno 8009 bound_to 7997
  155.2915  140.3355  155.4254 H   0  0  0  0  0  0  0  0  0  0  0  0  # atno 8010 bound_to 7997
  139.5192  144.2985  152.0400 H   0  0  0  0  0  0  0  0  0  0  0  0  # atno 10167 bound_to 10162
  156.7962  130.5378  149.5728 H   0  0  0  0  0  0  0  0  0  0  0  0  # atno 10718 bound_to 10713
  154.5601  135.2819  155.0927 H   0  0  0  0  0  0  0  0  0  0  0  0  # atno 10763 bound_to 10752
  154.2339  135.6369  153.5188 H   0  0  0  0  0  0  0  0  0  0  0  0  # atno 10764 bound_to 10752
  153.0027  135.5544  154.6193 H   0  0  0  0  0  0  0  0  0  0  0  0  # atno 10765 bound_to 10752
  140.8437  134.2370  157.4797 H   0  0  0  0  0  0  0  0  0  0  0  0  # atno 11005 bound_to 11000
  145.5980  139.1501  143.3145 LP  0  0  0  0  0  0  0  0  0  0  0  0  # atno 17320 bound_to 7965
  146.2058  140.6102  142.9081 LP  0  0  0  0  0  0  0  0  0  0  0  0  # atno 17321 bound_to 7965
  140.2434  144.4246  150.6251 LP  0  0  0  0  0  0  0  0  0  0  0  0  # atno 17342 bound_to 10162
  140.6275  143.2183  151.6566 LP  0  0  0  0  0  0  0  0  0  0  0  0  # atno 17343 bound_to 10162
  156.1129  130.6053  151.0075 LP  0  0  0  0  0  0  0  0  0  0  0  0  # atno 17370 bound_to 10713
  157.6576  131.0886  150.7912 LP  0  0  0  0  0  0  0  0  0  0  0  0  # atno 17371 bound_to 10713
  139.8703  134.9648  156.4509 LP  0  0  0  0  0  0  0  0  0  0  0  0  # atno 17394 bound_to 11000
  140.8866  133.7878  155.9525 LP  0  0  0  0  0  0  0  0  0  0  0  0  # atno 17395 bound_to 11000

$$$$
