#       Name:                AV-unprocessed.smi:1721
#       Creating user name   scv26
#       Creation time:       Fri Mar 27 08:14:39 2020


#       File generated by GOLD software.
#

@<TRIPOS>MOLECULE
AV-unprocessed.smi:1721
    49    51     1
SMALL
NO_CHARGES


@<TRIPOS>ATOM
      1 ****        -2.0817   5.6928  -0.2054 C.3            1 S1                 0.0000
      2 ****        -1.3269   4.4899  -0.3036 O.3            1 S1                 0.0000
      3 ****         0.0446   4.5555  -0.1442 C.ar           1 S1                 0.0000
      4 ****         0.6065   5.7662   0.0984 N.ar           1 S1                 0.0000
      5 ****         1.9440   5.8349   0.2526 C.ar           1 S1                 0.0000
      6 ****         2.7858   4.7112   0.1731 C.ar           1 S1                 0.0000
      7 ****         2.2062   3.4539  -0.0780 C.ar           1 S1                 0.0000
      8 ****         0.8009   3.3631  -0.2407 C.ar           1 S1                 0.0000
      9 ****         0.0927   2.1540  -0.4991 N.am           1 S1                 0.0000
     10 ****         0.5472   0.8933  -0.6045 C.2            1 S1                 0.0000
     11 ****         1.7196   0.5387  -0.4924 O.2            1 S1                 0.0000
     12 ****        -0.4575   0.0403  -0.8493 N.am           1 S1                 0.0000
     13 ****        -0.3128  -1.4022  -1.0251 C.3            1 S1                 0.0000
     14 ****        -1.3901  -2.0070  -1.9175 C.3            1 S1                 0.0000
     15 ****        -1.3207  -3.4897  -1.5477 C.3            1 S1                 0.0000
     16 ****        -0.9594  -3.5363  -0.1119 N.4            1 S1                 1.0000
     17 ****        -0.0740  -4.6659   0.2632 C.3            1 S1                 0.0000
     18 ****         0.2260  -4.6470   1.7738 C.3            1 S1                 0.0000
     19 ****         0.6811  -3.2636   2.2839 C.3            1 S1                 0.0000
     20 ****         0.8062  -2.2336   1.1507 C.3            1 S1                 0.0000
     21 ****        -0.4769  -2.1840   0.2895 C.3            1 S1                 0.0000
     22 ****        -3.1372   5.4693  -0.3598 H              1 S1                 0.0000
     23 ****        -1.7828   6.4157  -0.9660 H              1 S1                 0.0000
     24 ****        -1.9809   6.1475   0.7810 H              1 S1                 0.0000
     25 ****         2.3556   6.8148   0.4441 H              1 S1                 0.0000
     26 ****         3.8534   4.8113   0.3014 H              1 S1                 0.0000
     27 ****         2.8580   2.5982  -0.1403 H              1 S1                 0.0000
     28 ****        -0.9041   2.2695  -0.6127 H              1 S1                 0.0000
     29 ****        -1.3906   0.4181  -0.9268 H              1 S1                 0.0000
     30 ****         0.6565  -1.6326  -1.4731 H              1 S1                 0.0000
     31 ****        -2.3712  -1.6040  -1.6613 H              1 S1                 0.0000
     32 ****        -1.2148  -1.8272  -2.9788 H              1 S1                 0.0000
     33 ****        -2.2581  -4.0122  -1.7399 H              1 S1                 0.0000
     34 ****        -0.5434  -3.9709  -2.1437 H              1 S1                 0.0000
     35 ****        -0.5496  -5.6082  -0.0109 H              1 S1                 0.0000
     36 ****         0.8560  -4.6076  -0.3047 H              1 S1                 0.0000
     37 ****        -0.6659  -4.9521   2.3225 H              1 S1                 0.0000
     38 ****         0.9861  -5.3954   2.0005 H              1 S1                 0.0000
     39 ****        -0.0390  -2.8991   3.0176 H              1 S1                 0.0000
     40 ****         1.6313  -3.3513   2.8120 H              1 S1                 0.0000
     41 ****         1.0166  -1.2491   1.5691 H              1 S1                 0.0000
     42 ****         1.6664  -2.4860   0.5291 H              1 S1                 0.0000
     43 ****        -1.2824  -1.7398   0.8768 H              1 S1                 0.0000
     44 ****        -1.8210  -3.6749   0.3966 H              1 S1                 0.0000
     45 ****        -1.5004   4.1061  -1.2105 LP             1 S1                 0.0000
     46 ****        -1.6755   3.8651   0.3951 LP             1 S1                 0.0000
     47 ****         0.0415   6.5889   0.1614 LP             1 S1                 0.0000
     48 ****         2.4312   1.2161  -0.3060 LP             1 S1                 0.0000
     49 ****         1.9612  -0.4270  -0.5876 LP             1 S1                 0.0000
@<TRIPOS>BOND
    1    1    2 1     
    2    1   22 1     
    3    1   23 1     
    4    1   24 1     
    5    2    3 1     
    6    3    8 ar    
    7    3    4 ar    
    8    4    5 ar    
    9    5    6 ar    
   10    5   25 1     
   11    6    7 ar    
   12    6   26 1     
   13    7    8 ar    
   14    7   27 1     
   15    8    9 1     
   16    9   10 am    
   17    9   28 1     
   18   10   11 2     
   19   10   12 am    
   20   12   13 1     
   21   12   29 1     
   22   13   21 1     
   23   13   14 1     
   24   13   30 1     
   25   14   15 1     
   26   14   31 1     
   27   14   32 1     
   28   15   16 1     
   29   15   33 1     
   30   15   34 1     
   31   16   21 1     
   32   16   17 1     
   33   16   44 1     
   34   17   18 1     
   35   17   35 1     
   36   17   36 1     
   37   18   19 1     
   38   18   37 1     
   39   18   38 1     
   40   19   20 1     
   41   19   39 1     
   42   19   40 1     
   43   20   21 1     
   44   20   41 1     
   45   20   42 1     
   46   21   43 1     
   47    2   45 1     
   48    2   46 1     
   49    4   47 1     
   50   11   48 1     
   51   11   49 1     
@<TRIPOS>SUBSTRUCTURE
      1 S1             1
@<TRIPOS>SET
LONE_PAIRS      STATIC     ATOMS    <user>   **** ""
5 45 46 47 48 49
DONOR_HYDROGENS      STATIC     ATOMS    <user>   **** ""
3 28 29 44
ATOM$BLUE        STATIC     ATOMS    COLORGROUP SYSTEM
5 45 46 47 48 49
ATOM$RED        STATIC     ATOMS    COLORGROUP SYSTEM
3 28 29 44
