AV-unprocessed.smi:1240|AV-procd|sdf|5208|dock3
  -GOLD-   22720 4293D 1   1.00000     0.00000
 Structure written by MMmdl.
 49 51  0  0  0  0  0  0  0  0  3 V2000
  146.4116  131.6324  153.7558 O   0  0  0  0  0  0  0  0  0  0  0  0
  147.1052  131.3416  152.7817 C   0  0  0  0  0  0  0  0  0  0  0  0
  148.2996  130.7410  152.8808 N   0  0  0  0  0  0  0  0  0  0  0  0
  148.9403  130.3531  154.1325 C   0  0  0  0  0  0  0  0  0  0  0  0
  150.2349  129.5093  153.9481 C   0  0  1  0  0  0  0  0  0  0  0  0
  151.2489  129.6385  155.1208 C   0  0  2  0  0  0  0  0  0  0  0  0
  151.5951  131.0568  155.5520 C   0  0  0  0  0  0  0  0  0  0  0  0
  152.9452  130.9003  156.2515 C   0  0  0  0  0  0  0  0  0  0  0  0
  153.4953  129.6728  155.7876 O   0  0  0  0  0  0  0  0  0  0  0  0
  152.6520  129.1234  154.7870 C   0  0  0  0  0  0  0  0  0  0  0  0
  149.9237  128.0686  153.7017 N   0  3  0  0  0  0  0  0  0  0  0  0
  149.5396  127.2697  154.8932 C   0  0  0  0  0  0  0  0  0  0  0  0
  149.4361  125.7832  154.5142 C   0  0  0  0  0  0  0  0  0  0  0  0
  148.4923  125.6268  153.4609 O   0  0  0  0  0  0  0  0  0  0  0  0
  148.8800  126.3275  152.2848 C   0  0  0  0  0  0  0  0  0  0  0  0
  148.9762  127.8333  152.5851 C   0  0  0  0  0  0  0  0  0  0  0  0
  146.7875  131.5855  151.4986 N   0  0  0  0  0  0  0  0  0  0  0  0
  145.6057  132.1793  150.9777 C   0  0  0  0  0  0  0  0  0  0  0  0
  144.7590  132.8558  151.8839 C   0  0  0  0  0  0  0  0  0  0  0  0
  143.5853  133.4756  151.4089 C   0  0  0  0  0  0  0  0  0  0  0  0
  143.2847  133.4270  150.0936 N   0  3  0  0  0  0  0  0  0  0  0  0
  144.0693  132.8050  149.1875 C   0  0  0  0  0  0  0  0  0  0  0  0
  145.2560  132.1673  149.6032 C   0  0  0  0  0  0  0  0  0  0  0  0
  148.8072  130.5424  152.0305 H   0  0  0  0  0  0  0  0  0  0  0  0
  149.1646  131.2746  154.6695 H   0  0  0  0  0  0  0  0  0  0  0  0
  148.2078  129.8188  154.7384 H   0  0  0  0  0  0  0  0  0  0  0  0
  150.7481  129.8646  153.0536 H   0  0  0  0  0  0  0  0  0  0  0  0
  150.8807  129.0982  155.9938 H   0  0  0  0  0  0  0  0  0  0  0  0
  151.7075  131.7019  154.6794 H   0  0  0  0  0  0  0  0  0  0  0  0
  150.8495  131.5029  156.2100 H   0  0  0  0  0  0  0  0  0  0  0  0
  153.6121  131.7347  156.0326 H   0  0  0  0  0  0  0  0  0  0  0  0
  152.8214  130.8413  157.3332 H   0  0  0  0  0  0  0  0  0  0  0  0
  152.7143  128.0348  154.7817 H   0  0  0  0  0  0  0  0  0  0  0  0
  152.9786  129.4878  153.8116 H   0  0  0  0  0  0  0  0  0  0  0  0
  150.2733  127.3912  155.6896 H   0  0  0  0  0  0  0  0  0  0  0  0
  148.5789  127.6076  155.2833 H   0  0  0  0  0  0  0  0  0  0  0  0
  150.4078  125.3886  154.2124 H   0  0  0  0  0  0  0  0  0  0  0  0
  149.1072  125.1983  155.3732 H   0  0  0  0  0  0  0  0  0  0  0  0
  149.8323  125.9426  151.9159 H   0  0  0  0  0  0  0  0  0  0  0  0
  148.1402  126.1464  151.5049 H   0  0  0  0  0  0  0  0  0  0  0  0
  147.9892  128.2209  152.8386 H   0  0  0  0  0  0  0  0  0  0  0  0
  149.3096  128.3620  151.6916 H   0  0  0  0  0  0  0  0  0  0  0  0
  147.4999  131.3696  150.8166 H   0  0  0  0  0  0  0  0  0  0  0  0
  145.0000  132.8969  152.9365 H   0  0  0  0  0  0  0  0  0  0  0  0
  142.8845  134.0065  152.0366 H   0  0  0  0  0  0  0  0  0  0  0  0
  143.7304  132.8408  148.1625 H   0  0  0  0  0  0  0  0  0  0  0  0
  145.8788  131.6941  148.8594 H   0  0  0  0  0  0  0  0  0  0  0  0
  150.7960  127.6718  153.3822 H   0  0  0  0  0  0  0  0  0  0  0  0
  142.4314  133.8835  149.7701 H   0  0  0  0  0  0  0  0  0  0  0  0
  1  2  2  0  0  0  0
  2  3  1  0  0  0  0
  2 17  1  0  0  0  0
  3  4  1  0  0  0  0
  3 24  1  0  0  0  0
  4  5  1  0  0  0  0
  4 25  1  0  0  0  0
  4 26  1  0  0  0  0
  5  6  1  0  0  0  0
  5 11  1  0  0  0  0
  5 27  1  0  0  0  0
  6 10  1  0  0  0  0
  6  7  1  0  0  0  0
  6 28  1  0  0  0  0
  7  8  1  0  0  0  0
  7 29  1  0  0  0  0
  7 30  1  0  0  0  0
  8  9  1  0  0  0  0
  8 31  1  0  0  0  0
  8 32  1  0  0  0  0
  9 10  1  0  0  0  0
 10 33  1  0  0  0  0
 10 34  1  0  0  0  0
 11 16  1  0  0  0  0
 11 12  1  0  0  0  0
 11 48  1  0  0  0  0
 12 13  1  0  0  0  0
 12 35  1  0  0  0  0
 12 36  1  0  0  0  0
 13 14  1  0  0  0  0
 13 37  1  0  0  0  0
 13 38  1  0  0  0  0
 14 15  1  0  0  0  0
 15 16  1  0  0  0  0
 15 39  1  0  0  0  0
 15 40  1  0  0  0  0
 16 41  1  0  0  0  0
 16 42  1  0  0  0  0
 17 18  1  0  0  0  0
 17 43  1  0  0  0  0
 18 23  1  0  0  0  0
 18 19  2  0  0  0  0
 19 20  1  0  0  0  0
 19 44  1  0  0  0  0
 20 21  2  0  0  0  0
 20 45  1  0  0  0  0
 21 22  1  0  0  0  0
 21 49  1  0  0  0  0
 22 23  2  0  0  0  0
 22 46  1  0  0  0  0
 23 47  1  0  0  0  0
M  CHG  1  11   1
M  CHG  1  21   1
M  END
> <s_m_source_file>
AV-unprocessed.smi

> <i_m_source_file_index>
1240

> <i_lp_mmshare_version>
43012

> <i_f3d_flags>
0

> <s_epik_input>
W2NIXTFbY0hdbltjSF1bY0hdYzFbTkhdQyg9TylbTkhdW0NIMl1bQ0BIXShbQ0BASF0yW0NIMl1bQ0gyXU9bQ0gyXTIpTjNbQ0gyXVtDSDJdT1tDSDJdW0NIMl0z

> <s_epik_cmdline>
J2VwaWtfcHl0aG9uJywgJy1waCcsICc3LjAnLCAnLXRuJywgJzgnLCAnLW1hJywgJzIwMCcsICctbWV0YWxfYmluZGluZycsICctaW1hZScsICc8aW5maWxlLm1hZT4nLCAnLW9tYWUnLCAnPG91dGZpbGUubWFlPic=

> <r_epik_Ionization_Penalty>
2.08105

> <r_epik_Ionization_Penalty_Charging>
2.08103

> <r_epik_Ionization_Penalty_Neutral>
2.04144e-05

> <r_epik_State_Penalty>
2.15598

> <r_epik_Charging_Adjusted_Penalty>
4.23701

> <i_epik_Tot_Q>
2

> <i_epik_Tot_abs_Q>
2

> <r_epik_Metal_State_Penalty>
2.25158

> <b_epik_Metal_Only>
0

> <s_lp_Force_Field>
OPLS_2005

> <r_lp_Energy>
49.9195

> <b_lp_Chiralities_Consistent>
1

> <s_lp_Variant>
AV-unprocessed.smi:1240-14

> <Gold.Version>
5.8.1

> <Gold.Id.Protein>
6NUR|6NUR_protein|mol2

> <Gold.PLP.Fitness>
50.3688

> <Gold.PLP.PLP>
-36.7710

> <Gold.PLP.part.hbond>
-4.0000

> <Gold.PLP.part.metal>
0.0000

> <Gold.PLP.part.buried>
-4.6110

> <Gold.PLP.part.nonpolar>
-27.4962

> <Gold.PLP.part.repulsive>
0.3293

> <Gold.PLP.ligand.clash>
0.0005

> <Gold.PLP.ligand.torsion>
0.5447

> <Gold.PLP.Chemscore.Hbond>
4.8080

> <Gold.PLP.Chemscore.CHOScore>
0.0000

> <Gold.PLP.Chemscore.Metal>
0.0000

> <Gold.Chemscore.Hbonds>
donor molecule, donor type, donor heavy atom, donor atom, acceptor molecule, acceptor atom, score
      L1  H     3    24       P1 10747  0.98
      L1  H    11    48       P1 10737  0.70
      L1  H    17    43       P1 10747  1.00
      L1  H    21    49       P1 10186  2.00

> <Gold.PLP.Chemscore.Internal.Correction>
0.2637

> <Gold.Rescore>
     Score         DG    S(hbond)    S(metal)    S(lipo)     H(rot)  DE(clash)    DE(int)     intcor
     20.72     -24.14       3.53        0.00      96.76       1.74       0.15       3.27       ----

> <Gold.Chemscore.Fitness>
20.7185

> <Gold.Chemscore.DG>
-24.1406

> <Gold.Chemscore.ZeroCoef>
-5.4800

> <Gold.Chemscore.Hbond>
3.5328

> <Gold.Chemscore.Metal>
0.0000

> <Gold.Chemscore.Lipo>
96.7575

> <Gold.Chemscore.Internal_Hbond>
0.0000

> <Gold.Chemscore.DEClash>
0.1506

> <Gold.Chemscore.DEInternal>
3.2714

> <Gold.Chemscore.Rot>
1.7421

> <Gold.Chemscore.Internal.Correction>
   9.000000E+99

> <Gold.Chemscore.Hbonds>
donor molecule, donor type, donor heavy atom, donor atom, acceptor molecule, acceptor atom, score
      L1  H     3    24       P1 10747  0.47
      L1  H    11    48       P1 10737  0.68
      L1  H    17    43       P1 10747  0.99
      L1  H    21    49       P1 10186  0.93

> <Gold.Chemscore.Hbond.Weighted>
-11.7997

> <Gold.Chemscore.Metal.Weighted>
-0.0000

> <Gold.Chemscore.Lipo.Weighted>
-11.3206

> <Gold.Chemscore.Internal_Hbond.Weighted>
0.0000

> <Gold.Chemscore.DEClash.Weighted>
0.1506

> <Gold.Chemscore.DEInternal.Weighted>
3.2714

> <Gold.Chemscore.Rot.Weighted>
4.4597

> <Gold.Chemscore.Internal.Correction.Weighted>
   9.000000E+99

> <Gold.Protein.RotatedTorsions>
[ 6907 6896 6895 6894 ] final   98.29 input  -60.11 | X-H torsion
[ 7974 7965 7964 7962 ] final  -89.92 input  175.53 | X-H torsion
[ 8008 7997 7996 7995 ] final  100.58 input   59.86 | X-H torsion
[ 10167 10162 10161 10158 ] final  165.48 input  -65.29 | X-H torsion
[ 10718 10713 10712 10709 ] final  145.27 input   66.30 | X-H torsion
[ 10763 10752 10751 10750 ] final  122.38 input  -60.55 | X-H torsion
[ 11005 11000 10999 10996 ] final  -22.84 input  -57.11 | X-H torsion

> <Gold.Protein.ActiveResidues>
 VAL166  LYS551  ARG553  GLY616  TRP617  ASP618  TYR619  PRO620  LYS621  CYS622 
 ASP623  PHE694  ASN695  SER759  ASP760  ASP761  ALA762  ILE779  LEU786  VAL792 
 PHE793  MET794  SER795  GLU796  ALA797  LYS798  CYS799  TRP800  GLU811  SER814 

> <Gold.Protein.RotatedAtoms>
  152.5411  134.0603  159.8148 H   0  0  0  0  0  0  0  0  0  0  0  0  # atno 6907 bound_to 6896
  151.0732  133.5442  159.2633 H   0  0  0  0  0  0  0  0  0  0  0  0  # atno 6908 bound_to 6896
  151.2297  135.0558  159.9036 H   0  0  0  0  0  0  0  0  0  0  0  0  # atno 6909 bound_to 6896
  145.4334  140.9556  143.2115 H   0  0  0  0  0  0  0  0  0  0  0  0  # atno 7974 bound_to 7965
  156.1217  140.3211  155.8218 H   0  0  0  0  0  0  0  0  0  0  0  0  # atno 8008 bound_to 7997
  155.4492  140.0531  157.3020 H   0  0  0  0  0  0  0  0  0  0  0  0  # atno 8009 bound_to 7997
  154.4832  140.2062  155.9728 H   0  0  0  0  0  0  0  0  0  0  0  0  # atno 8010 bound_to 7997
  139.4906  144.4128  151.9279 H   0  0  0  0  0  0  0  0  0  0  0  0  # atno 10167 bound_to 10162
  157.3473  131.0945  151.1031 H   0  0  0  0  0  0  0  0  0  0  0  0  # atno 10718 bound_to 10713
  153.6289  135.3399  155.3035 H   0  0  0  0  0  0  0  0  0  0  0  0  # atno 10763 bound_to 10752
  154.8584  135.4291  154.2127 H   0  0  0  0  0  0  0  0  0  0  0  0  # atno 10764 bound_to 10752
  153.3018  135.7025  153.7269 H   0  0  0  0  0  0  0  0  0  0  0  0  # atno 10765 bound_to 10752
  140.8695  133.7730  156.0170 H   0  0  0  0  0  0  0  0  0  0  0  0  # atno 11005 bound_to 11000
  144.8168  139.5862  143.7005 LP  0  0  0  0  0  0  0  0  0  0  0  0  # atno 17320 bound_to 7965
  146.2595  139.6378  142.9372 LP  0  0  0  0  0  0  0  0  0  0  0  0  # atno 17321 bound_to 7965
  140.3570  144.3020  150.5939 LP  0  0  0  0  0  0  0  0  0  0  0  0  # atno 17342 bound_to 10162
  140.5436  143.2219  151.8044 LP  0  0  0  0  0  0  0  0  0  0  0  0  # atno 17343 bound_to 10162
  157.2220  130.6486  149.5815 LP  0  0  0  0  0  0  0  0  0  0  0  0  # atno 17370 bound_to 10713
  155.9716  130.4626  150.6152 LP  0  0  0  0  0  0  0  0  0  0  0  0  # atno 17371 bound_to 10713
  140.8589  134.2864  157.5243 LP  0  0  0  0  0  0  0  0  0  0  0  0  # atno 17394 bound_to 11000
  139.8711  134.9508  156.4065 LP  0  0  0  0  0  0  0  0  0  0  0  0  # atno 17395 bound_to 11000

$$$$
