AV-unprocessed.smi:1430|AV-procd|sdf|5827|dock10
  -GOLD-   22720 5483D 1   1.00000     0.00000
 Structure written by MMmdl.
 47 48  0  0  0  0  0  0  0  0  2 V2000
  152.5255  140.9250  159.4701 C   0  0  0  0  0  0  0  0  0  0  0  0
  153.0579  140.5271  158.2118 O   0  0  0  0  0  0  0  0  0  0  0  0
  152.1830  140.3260  157.1639 C   0  0  0  0  0  0  0  0  0  0  0  0
  150.8514  140.7641  157.3044 C   0  0  0  0  0  0  0  0  0  0  0  0
  149.9515  140.5632  156.2403 C   0  0  0  0  0  0  0  0  0  0  0  0
  150.4159  139.9341  155.0604 C   0  0  0  0  0  0  0  0  0  0  0  0
  149.6065  139.6572  153.9251 N   0  0  0  0  0  0  0  0  0  0  0  0
  148.2961  139.3630  153.8805 C   0  0  0  0  0  0  0  0  0  0  0  0
  147.5394  139.3230  154.8496 O   0  0  0  0  0  0  0  0  0  0  0  0
  147.8969  139.1168  152.6247 N   0  0  0  0  0  0  0  0  0  0  0  0
  146.5339  138.7743  152.2216 C   0  0  0  0  0  0  0  0  0  0  0  0
  146.4559  137.5621  151.2659 C   0  0  0  0  0  0  0  0  0  0  0  0
  145.3196  136.6547  151.5643 N   0  3  1  0  0  0  0  0  0  0  0  0
  145.4304  135.3463  150.8819 C   0  0  0  0  0  0  0  0  0  0  0  0
  144.1567  134.5151  151.1185 C   0  0  1  0  0  0  0  0  0  0  0  0
  144.2620  133.1151  150.5042 C   0  0  0  0  0  0  0  0  0  0  0  0
  143.9388  134.3665  152.5197 O   0  0  0  0  0  0  0  0  0  0  0  0
  143.8273  135.5910  153.2467 C   0  0  2  0  0  0  0  0  0  0  0  0
  142.5066  136.3259  152.9548 C   0  0  0  0  0  0  0  0  0  0  0  0
  145.0760  136.4630  153.0135 C   0  0  0  0  0  0  0  0  0  0  0  0
  151.7641  139.5214  155.0258 C   0  0  0  0  0  0  0  0  0  0  0  0
  152.6317  139.7109  156.0418 N   0  0  0  0  0  0  0  0  0  0  0  0
  153.3393  141.0411  160.1858 H   0  0  0  0  0  0  0  0  0  0  0  0
  151.8398  140.1755  159.8679 H   0  0  0  0  0  0  0  0  0  0  0  0
  152.0085  141.8831  159.3999 H   0  0  0  0  0  0  0  0  0  0  0  0
  150.5244  141.2433  158.2154 H   0  0  0  0  0  0  0  0  0  0  0  0
  148.9279  140.8818  156.3594 H   0  0  0  0  0  0  0  0  0  0  0  0
  150.0753  139.7351  153.0342 H   0  0  0  0  0  0  0  0  0  0  0  0
  148.5834  139.1873  151.8876 H   0  0  0  0  0  0  0  0  0  0  0  0
  145.9219  138.5943  153.1068 H   0  0  0  0  0  0  0  0  0  0  0  0
  146.1080  139.6523  151.7361 H   0  0  0  0  0  0  0  0  0  0  0  0
  146.3403  137.9404  150.2495 H   0  0  0  0  0  0  0  0  0  0  0  0
  147.3948  137.0066  151.2745 H   0  0  0  0  0  0  0  0  0  0  0  0
  145.5715  135.4995  149.8111 H   0  0  0  0  0  0  0  0  0  0  0  0
  146.3098  134.8148  151.2495 H   0  0  0  0  0  0  0  0  0  0  0  0
  143.3023  135.0186  150.6653 H   0  0  0  0  0  0  0  0  0  0  0  0
  144.4232  133.1698  149.4272 H   0  0  0  0  0  0  0  0  0  0  0  0
  143.3482  132.5450  150.6734 H   0  0  0  0  0  0  0  0  0  0  0  0
  145.0900  132.5539  150.9383 H   0  0  0  0  0  0  0  0  0  0  0  0
  143.8076  135.3152  154.3015 H   0  0  0  0  0  0  0  0  0  0  0  0
  142.3886  137.1841  153.6168 H   0  0  0  0  0  0  0  0  0  0  0  0
  141.6523  135.6679  153.1150 H   0  0  0  0  0  0  0  0  0  0  0  0
  142.4556  136.6987  151.9320 H   0  0  0  0  0  0  0  0  0  0  0  0
  145.9485  135.9848  153.4613 H   0  0  0  0  0  0  0  0  0  0  0  0
  144.9523  137.4237  153.5136 H   0  0  0  0  0  0  0  0  0  0  0  0
  152.1629  139.0249  154.1531 H   0  0  0  0  0  0  0  0  0  0  0  0
  144.4972  137.1008  151.1835 H   0  0  0  0  0  0  0  0  0  0  0  0
  1  2  1  0  0  0  0
  1 23  1  0  0  0  0
  1 24  1  0  0  0  0
  1 25  1  0  0  0  0
  2  3  1  0  0  0  0
  3 22  1  0  0  0  0
  3  4  2  0  0  0  0
  4  5  1  0  0  0  0
  4 26  1  0  0  0  0
  5  6  2  0  0  0  0
  5 27  1  0  0  0  0
  6  7  1  0  0  0  0
  6 21  1  0  0  0  0
  7  8  1  0  0  0  0
  7 28  1  0  0  0  0
  8  9  2  0  0  0  0
  8 10  1  0  0  0  0
 10 11  1  0  0  0  0
 10 29  1  0  0  0  0
 11 12  1  0  0  0  0
 11 30  1  0  0  0  0
 11 31  1  0  0  0  0
 12 13  1  0  0  0  0
 12 32  1  0  0  0  0
 12 33  1  0  0  0  0
 13 20  1  0  0  0  0
 13 14  1  0  0  0  0
 13 47  1  0  0  0  0
 14 15  1  0  0  0  0
 14 34  1  0  0  0  0
 14 35  1  0  0  0  0
 15 16  1  0  0  0  0
 15 17  1  0  0  0  0
 15 36  1  0  0  0  0
 16 37  1  0  0  0  0
 16 38  1  0  0  0  0
 16 39  1  0  0  0  0
 17 18  1  0  0  0  0
 18 19  1  0  0  0  0
 18 20  1  0  0  0  0
 18 40  1  0  0  0  0
 19 41  1  0  0  0  0
 19 42  1  0  0  0  0
 19 43  1  0  0  0  0
 20 44  1  0  0  0  0
 20 45  1  0  0  0  0
 21 22  2  0  0  0  0
 21 46  1  0  0  0  0
M  CHG  1  13   1
M  END
> <s_m_source_file>
AV-unprocessed.smi

> <i_m_source_file_index>
1430

> <i_lp_mmshare_version>
43012

> <i_f3d_flags>
0

> <s_epik_input>
W0NIM11PYzFbY0hdW2NIXWMoW2NIXW4xKVtOSF1DKD1PKVtOSF1bQ0gyXVtDSDJdTjJbQ0gyXVtDQEBIXShbQ0gzXSlPW0NAQEhdKFtDSDNdKVtDSDJdMg==

> <s_epik_cmdline>
J2VwaWtfcHl0aG9uJywgJy1waCcsICc3LjAnLCAnLXRuJywgJzgnLCAnLW1hJywgJzIwMCcsICctbWV0YWxfYmluZGluZycsICctaW1hZScsICc8aW5maWxlLm1hZT4nLCAnLW9tYWUnLCAnPG91dGZpbGUubWFlPic=

> <r_lp_tautomer_probability>
1

> <r_epik_Ionization_Penalty>
0.602607

> <r_epik_Ionization_Penalty_Charging>
0.602531

> <r_epik_Ionization_Penalty_Neutral>
7.66983e-05

> <r_epik_State_Penalty>
0.617039

> <r_epik_Charging_Adjusted_Penalty>
1.21957

> <i_epik_Tot_Q>
1

> <i_epik_Tot_abs_Q>
1

> <r_epik_Metal_State_Penalty>
0.617043

> <b_epik_Metal_Only>
0

> <s_lp_Force_Field>
OPLS_2005

> <r_lp_Energy>
27.5675

> <b_lp_Chiralities_Consistent>
1

> <s_lp_Variant>
AV-unprocessed.smi:1430-6

> <Gold.Version>
5.8.1

> <Gold.Id.Protein>
6NUR|6NUR_protein|mol2

> <Gold.PLP.Fitness>
45.4098

> <Gold.PLP.PLP>
-36.4847

> <Gold.PLP.part.hbond>
-5.5441

> <Gold.PLP.part.metal>
0.0000

> <Gold.PLP.part.buried>
-0.6248

> <Gold.PLP.part.nonpolar>
-30.3092

> <Gold.PLP.part.repulsive>
0.4230

> <Gold.PLP.ligand.clash>
0.2894

> <Gold.PLP.ligand.torsion>
0.8531

> <Gold.PLP.Chemscore.Hbond>
3.6324

> <Gold.PLP.Chemscore.CHOScore>
0.0000

> <Gold.PLP.Chemscore.Metal>
0.0000

> <Gold.Chemscore.Hbonds>
donor molecule, donor type, donor heavy atom, donor atom, acceptor molecule, acceptor atom, score
      L1  H     7    28       P1  7957  0.78
      L1  H    10    29       P1  7957  0.90
      L1  H    13    47       P1 10171  0.67
      P1  H  7997  8010       L1    22  1.00

> <Gold.PLP.Chemscore.Internal.Correction>
0.0234

> <Gold.Rescore>
     Score         DG    S(hbond)    S(metal)    S(lipo)     H(rot)  DE(clash)    DE(int)     intcor
     18.18     -21.06       3.10        0.00      83.19       1.76       1.40       1.48       ----

> <Gold.Chemscore.Fitness>
18.1829

> <Gold.Chemscore.DG>
-21.0640

> <Gold.Chemscore.ZeroCoef>
-5.4800

> <Gold.Chemscore.Hbond>
3.1012

> <Gold.Chemscore.Metal>
0.0000

> <Gold.Chemscore.Lipo>
83.1900

> <Gold.Chemscore.Internal_Hbond>
0.0000

> <Gold.Chemscore.DEClash>
1.3993

> <Gold.Chemscore.DEInternal>
1.4818

> <Gold.Chemscore.Rot>
1.7606

> <Gold.Chemscore.Internal.Correction>
   9.000000E+99

> <Gold.Chemscore.Hbonds>
donor molecule, donor type, donor heavy atom, donor atom, acceptor molecule, acceptor atom, score
      L1  H     7    28       P1  7957  0.77
      L1  H    10    29       P1  7957  0.81
      L1  H    13    47       P1 10171  0.67
      P1  H  7997  8010       L1    22  0.39

> <Gold.Chemscore.Hbond.Weighted>
-10.3580

> <Gold.Chemscore.Metal.Weighted>
-0.0000

> <Gold.Chemscore.Lipo.Weighted>
-9.7332

> <Gold.Chemscore.Internal_Hbond.Weighted>
0.0000

> <Gold.Chemscore.DEClash.Weighted>
1.3993

> <Gold.Chemscore.DEInternal.Weighted>
1.4818

> <Gold.Chemscore.Rot.Weighted>
4.5072

> <Gold.Chemscore.Internal.Correction.Weighted>
   9.000000E+99

> <Gold.Protein.RotatedTorsions>
[ 6907 6896 6895 6894 ] final  -53.45 input  -60.11 | X-H torsion
[ 7974 7965 7964 7962 ] final   74.91 input  175.53 | X-H torsion
[ 8008 7997 7996 7995 ] final   98.26 input   59.86 | X-H torsion
[ 10167 10162 10161 10158 ] final  -42.70 input  -65.29 | X-H torsion
[ 10718 10713 10712 10709 ] final   32.19 input   66.30 | X-H torsion
[ 10763 10752 10751 10750 ] final  137.25 input  -60.55 | X-H torsion
[ 11005 11000 10999 10996 ] final   54.52 input  -57.11 | X-H torsion

> <Gold.Protein.ActiveResidues>
 VAL166  LYS551  ARG553  GLY616  TRP617  ASP618  TYR619  PRO620  LYS621  CYS622 
 ASP623  PHE694  ASN695  SER759  ASP760  ASP761  ALA762  ILE779  LEU786  VAL792 
 PHE793  MET794  SER795  GLU796  ALA797  LYS798  CYS799  TRP800  GLU811  SER814 

> <Gold.Protein.RotatedAtoms>
  150.8426  134.7723  159.6944 H   0  0  0  0  0  0  0  0  0  0  0  0  # atno 6907 bound_to 6896
  152.4510  134.5390  159.9843 H   0  0  0  0  0  0  0  0  0  0  0  0  # atno 6908 bound_to 6896
  151.5527  133.3377  159.2992 H   0  0  0  0  0  0  0  0  0  0  0  0  # atno 6909 bound_to 6896
  145.7223  139.2653  143.1589 H   0  0  0  0  0  0  0  0  0  0  0  0  # atno 7974 bound_to 7965
  156.0986  140.3246  155.7911 H   0  0  0  0  0  0  0  0  0  0  0  0  # atno 8008 bound_to 7997
  155.4876  140.0559  157.2975 H   0  0  0  0  0  0  0  0  0  0  0  0  # atno 8009 bound_to 7997
  154.4682  140.1999  156.0078 H   0  0  0  0  0  0  0  0  0  0  0  0  # atno 8010 bound_to 7997
  140.6960  143.3023  151.3247 H   0  0  0  0  0  0  0  0  0  0  0  0  # atno 10167 bound_to 10162
  157.2821  130.7260  149.6562 H   0  0  0  0  0  0  0  0  0  0  0  0  # atno 10718 bound_to 10713
  153.8699  135.3057  155.3441 H   0  0  0  0  0  0  0  0  0  0  0  0  # atno 10763 bound_to 10752
  154.7810  135.4835  153.9848 H   0  0  0  0  0  0  0  0  0  0  0  0  # atno 10764 bound_to 10752
  153.1412  135.6824  153.9120 H   0  0  0  0  0  0  0  0  0  0  0  0  # atno 10765 bound_to 10752
  140.0680  134.5509  155.9078 H   0  0  0  0  0  0  0  0  0  0  0  0  # atno 11005 bound_to 11000
  146.0615  140.7966  142.9732 LP  0  0  0  0  0  0  0  0  0  0  0  0  # atno 17320 bound_to 7965
  144.6913  140.3203  143.7233 LP  0  0  0  0  0  0  0  0  0  0  0  0  # atno 17321 bound_to 7965
  139.6416  144.0529  152.2558 LP  0  0  0  0  0  0  0  0  0  0  0  0  # atno 17342 bound_to 10162
  140.0037  144.6275  150.7708 LP  0  0  0  0  0  0  0  0  0  0  0  0  # atno 17343 bound_to 10162
  155.9664  130.4335  150.5008 LP  0  0  0  0  0  0  0  0  0  0  0  0  # atno 17370 bound_to 10713
  157.2954  131.0634  151.2105 LP  0  0  0  0  0  0  0  0  0  0  0  0  # atno 17371 bound_to 10713
  141.2000  133.6610  156.5876 LP  0  0  0  0  0  0  0  0  0  0  0  0  # atno 17394 bound_to 11000
  140.3670  134.7639  157.4573 LP  0  0  0  0  0  0  0  0  0  0  0  0  # atno 17395 bound_to 11000

$$$$
