AV-unprocessed.smi:2662|AV-procd|sdf|10321|dock2
  -GOLD-   2272014333D 1   1.00000     0.00000
 Structure written by MMmdl.
 37 39  0  0  0  0  0  0  0  0  2 V2000
  151.2718  136.4635  154.1512 O   0  0  0  0  0  0  0  0  0  0  0  0
  151.5706  137.7267  154.7008 C   0  0  0  0  0  0  0  0  0  0  0  0
  150.4674  138.7113  154.4925 C   0  0  0  0  0  0  0  0  0  0  0  0
  149.4088  138.5484  153.6494 N   0  3  0  0  0  0  0  0  0  0  0  0
  148.5734  139.6639  153.7170 C   0  0  0  0  0  0  0  0  0  0  0  0
  147.3874  139.9569  153.0508 C   0  0  0  0  0  0  0  0  0  0  0  0
  146.7811  141.1940  153.3531 C   0  0  0  0  0  0  0  0  0  0  0  0
  147.3532  142.0841  154.2852 C   0  0  0  0  0  0  0  0  0  0  0  0
  148.5559  141.7757  154.9547 C   0  0  0  0  0  0  0  0  0  0  0  0
  149.1489  140.5509  154.6493 C   0  0  0  0  0  0  0  0  0  0  0  0
  150.3132  139.9223  155.1043 N   0  0  0  0  0  0  0  0  0  0  0  0
  151.1456  140.6077  156.1060 C   0  0  0  0  0  0  0  0  0  0  0  0
  150.3376  141.1141  157.3175 C   0  0  1  0  0  0  0  0  0  0  0  0
  149.6389  140.0358  157.9101 O   0  0  0  0  0  0  0  0  0  0  0  0
  151.2346  141.8442  158.3073 C   0  0  0  0  0  0  0  0  0  0  0  0
  151.0934  143.2354  158.5119 C   0  0  0  0  0  0  0  0  0  0  0  0
  151.9179  143.9069  159.4353 C   0  0  0  0  0  0  0  0  0  0  0  0
  151.7763  145.2400  159.6242 F   0  0  0  0  0  0  0  0  0  0  0  0
  152.8874  143.1919  160.1634 C   0  0  0  0  0  0  0  0  0  0  0  0
  153.0286  141.8045  159.9708 C   0  0  0  0  0  0  0  0  0  0  0  0
  152.2039  141.1306  159.0486 C   0  0  0  0  0  0  0  0  0  0  0  0
  152.3457  139.7933  158.8835 F   0  0  0  0  0  0  0  0  0  0  0  0
  151.2497  136.5457  153.2090 H   0  0  0  0  0  0  0  0  0  0  0  0
  151.7768  137.6185  155.7653 H   0  0  0  0  0  0  0  0  0  0  0  0
  152.4825  138.1043  154.2377 H   0  0  0  0  0  0  0  0  0  0  0  0
  146.9470  139.2765  152.3369 H   0  0  0  0  0  0  0  0  0  0  0  0
  145.8586  141.4656  152.8603 H   0  0  0  0  0  0  0  0  0  0  0  0
  146.8596  143.0228  154.4918 H   0  0  0  0  0  0  0  0  0  0  0  0
  148.9852  142.4637  155.6681 H   0  0  0  0  0  0  0  0  0  0  0  0
  151.9240  139.9169  156.4307 H   0  0  0  0  0  0  0  0  0  0  0  0
  151.6606  141.4328  155.6120 H   0  0  0  0  0  0  0  0  0  0  0  0
  149.5732  141.8095  156.9704 H   0  0  0  0  0  0  0  0  0  0  0  0
  148.9392  139.7776  157.3291 H   0  0  0  0  0  0  0  0  0  0  0  0
  150.3490  143.7944  157.9638 H   0  0  0  0  0  0  0  0  0  0  0  0
  153.5201  143.7064  160.8716 H   0  0  0  0  0  0  0  0  0  0  0  0
  153.7693  141.2555  160.5335 H   0  0  0  0  0  0  0  0  0  0  0  0
  149.2697  137.7288  153.0723 H   0  0  0  0  0  0  0  0  0  0  0  0
  1  2  1  0  0  0  0
  1 23  1  0  0  0  0
  2  3  1  0  0  0  0
  2 24  1  0  0  0  0
  2 25  1  0  0  0  0
  3 11  1  0  0  0  0
  3  4  2  0  0  0  0
  4  5  1  0  0  0  0
  4 37  1  0  0  0  0
  5 10  2  0  0  0  0
  5  6  1  0  0  0  0
  6  7  2  0  0  0  0
  6 26  1  0  0  0  0
  7  8  1  0  0  0  0
  7 27  1  0  0  0  0
  8  9  2  0  0  0  0
  8 28  1  0  0  0  0
  9 10  1  0  0  0  0
  9 29  1  0  0  0  0
 10 11  1  0  0  0  0
 11 12  1  0  0  0  0
 12 13  1  0  0  0  0
 12 30  1  0  0  0  0
 12 31  1  0  0  0  0
 13 14  1  0  0  0  0
 13 15  1  0  0  0  0
 13 32  1  0  0  0  0
 14 33  1  0  0  0  0
 15 21  1  0  0  0  0
 15 16  2  0  0  0  0
 16 17  1  0  0  0  0
 16 34  1  0  0  0  0
 17 18  1  0  0  0  0
 17 19  2  0  0  0  0
 19 20  1  0  0  0  0
 19 35  1  0  0  0  0
 20 21  2  0  0  0  0
 20 36  1  0  0  0  0
 21 22  1  0  0  0  0
M  CHG  1   4   1
M  END
> <s_m_source_file>
AV-unprocessed.smi

> <i_m_source_file_index>
2662

> <i_lp_mmshare_version>
43012

> <i_f3d_flags>
0

> <s_epik_input>
W2NIXTFbY0hdW2NIXVtjSF1jKGMxMiluKGMobjIpW0NIMl1bT0hdKVtDSDJdW0NASF0oW09IXSljM1tjSF1jKEYpW2NIXVtjSF1jM0Y=

> <s_epik_cmdline>
J2VwaWtfcHl0aG9uJywgJy1waCcsICc3LjAnLCAnLXRuJywgJzgnLCAnLW1hJywgJzIwMCcsICctbWV0YWxfYmluZGluZycsICctaW1hZScsICc8aW5maWxlLm1hZT4nLCAnLW9tYWUnLCAnPG91dGZpbGUubWFlPic=

> <r_epik_Ionization_Penalty>
1.35643

> <r_epik_Ionization_Penalty_Charging>
1.35557

> <r_epik_Ionization_Penalty_Neutral>
0.000859316

> <r_epik_State_Penalty>
1.43401

> <r_epik_Charging_Adjusted_Penalty>
2.78958

> <i_epik_Tot_Q>
1

> <i_epik_Tot_abs_Q>
1

> <r_epik_Metal_State_Penalty>
5.47166

> <b_epik_Metal_Only>
0

> <s_lp_Force_Field>
OPLS_2005

> <r_lp_Energy>
14.5083

> <b_lp_Chiralities_Consistent>
1

> <s_lp_Variant>
AV-unprocessed.smi:2662-4

> <Gold.Version>
5.8.1

> <Gold.Id.Protein>
6NUR|6NUR_protein|mol2

> <Gold.PLP.Fitness>
65.6222

> <Gold.PLP.PLP>
-54.2665

> <Gold.PLP.part.hbond>
-4.3783

> <Gold.PLP.part.metal>
0.0000

> <Gold.PLP.part.buried>
0.7527

> <Gold.PLP.part.nonpolar>
-51.4837

> <Gold.PLP.part.repulsive>
0.0705

> <Gold.PLP.ligand.clash>
0.0000

> <Gold.PLP.ligand.torsion>
0.3351

> <Gold.PLP.Chemscore.Hbond>
4.0000

> <Gold.PLP.Chemscore.CHOScore>
0.0000

> <Gold.PLP.Chemscore.Metal>
0.0000

> <Gold.Chemscore.Hbonds>
donor molecule, donor type, donor heavy atom, donor atom, acceptor molecule, acceptor atom, score
      L1  H     1    23       P1  7949  1.00
      L1  H     4    37       P1  7948  2.00
      P1  H 10752 10763       L1     1  0.95

> <Gold.PLP.Chemscore.Internal.Correction>
0.0259

> <Gold.Rescore>
     Score         DG    S(hbond)    S(metal)    S(lipo)     H(rot)  DE(clash)    DE(int)     intcor
     18.58     -20.38       2.50        0.00     120.58       2.95       0.38       1.42       ----

> <Gold.Chemscore.Fitness>
18.5804

> <Gold.Chemscore.DG>
-20.3795

> <Gold.Chemscore.ZeroCoef>
-5.4800

> <Gold.Chemscore.Hbond>
2.4962

> <Gold.Chemscore.Metal>
0.0000

> <Gold.Chemscore.Lipo>
120.5809

> <Gold.Chemscore.Internal_Hbond>
0.0000

> <Gold.Chemscore.DEClash>
0.3819

> <Gold.Chemscore.DEInternal>
1.4172

> <Gold.Chemscore.Rot>
2.9475

> <Gold.Chemscore.Internal.Correction>
   9.000000E+99

> <Gold.Chemscore.Hbonds>
donor molecule, donor type, donor heavy atom, donor atom, acceptor molecule, acceptor atom, score
      L1  H     1    23       P1  7949  0.60
      L1  H     4    37       P1  7948  0.97
      P1  H 10752 10763       L1     1  0.10

> <Gold.Chemscore.Hbond.Weighted>
-8.3372

> <Gold.Chemscore.Metal.Weighted>
-0.0000

> <Gold.Chemscore.Lipo.Weighted>
-14.1080

> <Gold.Chemscore.Internal_Hbond.Weighted>
0.0000

> <Gold.Chemscore.DEClash.Weighted>
0.3819

> <Gold.Chemscore.DEInternal.Weighted>
1.4172

> <Gold.Chemscore.Rot.Weighted>
7.5457

> <Gold.Chemscore.Internal.Correction.Weighted>
   9.000000E+99

> <Gold.Protein.RotatedTorsions>
[ 6907 6896 6895 6894 ] final  -26.73 input  -60.11 | X-H torsion
[ 7974 7965 7964 7962 ] final  -96.40 input  175.53 | X-H torsion
[ 8008 7997 7996 7995 ] final  167.05 input   59.86 | X-H torsion
[ 10167 10162 10161 10158 ] final -166.05 input  -65.29 | X-H torsion
[ 10718 10713 10712 10709 ] final   72.44 input   66.30 | X-H torsion
[ 10763 10752 10751 10750 ] final   56.73 input  -60.55 | X-H torsion
[ 11005 11000 10999 10996 ] final  125.97 input  -57.11 | X-H torsion

> <Gold.Protein.ActiveResidues>
 VAL166  LYS551  ARG553  GLY616  TRP617  ASP618  TYR619  PRO620  LYS621  CYS622 
 ASP623  PHE694  ASN695  SER759  ASP760  ASP761  ALA762  ILE779  LEU786  VAL792 
 PHE793  MET794  SER795  GLU796  ALA797  LYS798  CYS799  TRP800  GLU811  SER814 

> <Gold.Protein.RotatedAtoms>
  151.1568  135.0254  159.8692 H   0  0  0  0  0  0  0  0  0  0  0  0  # atno 6907 bound_to 6896
  152.5452  134.1325  159.8455 H   0  0  0  0  0  0  0  0  0  0  0  0  # atno 6908 bound_to 6896
  151.1416  133.4922  159.2629 H   0  0  0  0  0  0  0  0  0  0  0  0  # atno 6909 bound_to 6896
  145.3474  140.9470  143.2574 H   0  0  0  0  0  0  0  0  0  0  0  0  # atno 7974 bound_to 7965
  156.1667  140.1627  156.8519 H   0  0  0  0  0  0  0  0  0  0  0  0  # atno 8008 bound_to 7997
  154.5214  140.0777  156.8214 H   0  0  0  0  0  0  0  0  0  0  0  0  # atno 8009 bound_to 7997
  155.3598  140.3394  155.4243 H   0  0  0  0  0  0  0  0  0  0  0  0  # atno 8010 bound_to 7997
  139.6141  144.0755  152.1871 H   0  0  0  0  0  0  0  0  0  0  0  0  # atno 10167 bound_to 10162
  157.6501  130.9579  150.0929 H   0  0  0  0  0  0  0  0  0  0  0  0  # atno 10718 bound_to 10713
  152.9837  135.5666  154.5277 H   0  0  0  0  0  0  0  0  0  0  0  0  # atno 10763 bound_to 10752
  154.4754  135.2786  155.1613 H   0  0  0  0  0  0  0  0  0  0  0  0  # atno 10764 bound_to 10752
  154.3144  135.6282  153.5533 H   0  0  0  0  0  0  0  0  0  0  0  0  # atno 10765 bound_to 10752
  139.9433  134.9633  156.8637 H   0  0  0  0  0  0  0  0  0  0  0  0  # atno 11005 bound_to 11000
  144.8744  139.4992  143.6752 LP  0  0  0  0  0  0  0  0  0  0  0  0  # atno 17320 bound_to 7965
  146.2982  139.7344  142.9111 LP  0  0  0  0  0  0  0  0  0  0  0  0  # atno 17321 bound_to 7965
  140.0381  144.6029  150.7433 LP  0  0  0  0  0  0  0  0  0  0  0  0  # atno 17342 bound_to 10162
  140.7339  143.2722  151.3851 LP  0  0  0  0  0  0  0  0  0  0  0  0  # atno 17343 bound_to 10162
  156.1873  130.3653  149.8956 LP  0  0  0  0  0  0  0  0  0  0  0  0  # atno 17370 bound_to 10713
  156.6893  130.8889  151.3586 LP  0  0  0  0  0  0  0  0  0  0  0  0  # atno 17371 bound_to 10713
  140.5898  134.0272  155.7495 LP  0  0  0  0  0  0  0  0  0  0  0  0  # atno 17394 bound_to 11000
  141.1074  133.9671  157.2971 LP  0  0  0  0  0  0  0  0  0  0  0  0  # atno 17395 bound_to 11000

$$$$
