AV-unprocessed.smi:2968|AV-procd|sdf|11328|dock1
  -GOLD-   2272016233D 1   1.00000     0.00000
 Structure written by MMmdl.
 45 46  0  0  0  0  0  0  0  0  1 V2000
  151.4781  140.1978  159.5432 O   0  0  0  0  0  0  0  0  0  0  0  0
  152.1746  140.6586  158.3318 S   0  0  0  0  0  0  0  0  0  0  0  0
  153.4097  139.9871  157.8970 O   0  0  0  0  0  0  0  0  0  0  0  0
  151.0134  140.6286  156.9736 C   0  0  0  0  0  0  0  0  0  0  0  0
  149.6592  140.9518  157.1820 C   0  0  0  0  0  0  0  0  0  0  0  0
  148.7903  140.9383  156.0735 C   0  0  0  0  0  0  0  0  0  0  0  0
  149.3137  140.6181  154.8023 C   0  0  0  0  0  0  0  0  0  0  0  0
  148.4569  140.6595  153.6929 N   0  0  0  0  0  0  0  0  0  0  0  0
  147.2284  139.8715  153.7304 C   0  0  0  0  0  0  0  0  0  0  0  0
  146.7006  139.5452  152.3227 C   0  0  0  0  0  0  0  0  0  0  0  0
  146.1542  138.2375  152.3257 O   0  0  0  0  0  0  0  0  0  0  0  0
  146.1067  137.6346  151.0459 C   0  0  0  0  0  0  0  0  0  0  0  0
  145.4402  136.2604  151.1860 C   0  0  0  0  0  0  0  0  0  0  0  0
  144.0527  136.4141  151.4015 O   0  0  0  0  0  0  0  0  0  0  0  0
  150.6154  140.2939  154.6087 N   0  0  0  0  0  0  0  0  0  0  0  0
  151.4469  140.3119  155.6718 C   0  0  0  0  0  0  0  0  0  0  0  0
  152.5290  142.3514  158.5301 N   0  0  0  0  0  0  0  0  0  0  0  0
  151.5327  143.3629  158.1203 C   0  0  0  0  0  0  0  0  0  0  0  0
  150.7503  143.9127  159.3265 C   0  0  0  0  0  0  0  0  0  0  0  0
  151.6986  144.4417  160.4076 C   0  0  0  0  0  0  0  0  0  0  0  0
  152.6766  143.3367  160.8205 C   0  0  0  0  0  0  0  0  0  0  0  0
  153.4451  142.7897  159.6038 C   0  0  0  0  0  0  0  0  0  0  0  0
  149.2906  141.2045  158.1650 H   0  0  0  0  0  0  0  0  0  0  0  0
  147.7472  141.1902  156.1972 H   0  0  0  0  0  0  0  0  0  0  0  0
  148.9061  140.7237  152.7911 H   0  0  0  0  0  0  0  0  0  0  0  0
  147.3580  138.9636  154.3206 H   0  0  0  0  0  0  0  0  0  0  0  0
  146.4844  140.4703  154.2558 H   0  0  0  0  0  0  0  0  0  0  0  0
  145.9185  140.2523  152.0436 H   0  0  0  0  0  0  0  0  0  0  0  0
  147.5024  139.6387  151.5881 H   0  0  0  0  0  0  0  0  0  0  0  0
  145.5127  138.2674  150.3849 H   0  0  0  0  0  0  0  0  0  0  0  0
  147.1012  137.5427  150.6058 H   0  0  0  0  0  0  0  0  0  0  0  0
  145.6222  135.6398  150.3082 H   0  0  0  0  0  0  0  0  0  0  0  0
  145.8537  135.7344  152.0466 H   0  0  0  0  0  0  0  0  0  0  0  0
  143.7784  137.2348  151.0214 H   0  0  0  0  0  0  0  0  0  0  0  0
  152.4782  140.0593  155.4754 H   0  0  0  0  0  0  0  0  0  0  0  0
  152.0570  144.1798  157.6236 H   0  0  0  0  0  0  0  0  0  0  0  0
  150.8480  142.9448  157.3830 H   0  0  0  0  0  0  0  0  0  0  0  0
  150.0811  144.7089  158.9999 H   0  0  0  0  0  0  0  0  0  0  0  0
  150.1149  143.1348  159.7476 H   0  0  0  0  0  0  0  0  0  0  0  0
  152.2497  145.3036  160.0295 H   0  0  0  0  0  0  0  0  0  0  0  0
  151.1307  144.7855  161.2725 H   0  0  0  0  0  0  0  0  0  0  0  0
  153.3812  143.7224  161.5576 H   0  0  0  0  0  0  0  0  0  0  0  0
  152.1311  142.5331  161.3131 H   0  0  0  0  0  0  0  0  0  0  0  0
  154.0980  141.9706  159.9042 H   0  0  0  0  0  0  0  0  0  0  0  0
  154.0945  143.5690  159.2038 H   0  0  0  0  0  0  0  0  0  0  0  0
  1  2  2  0  0  0  0
  2  3  2  0  0  0  0
  2  4  1  0  0  0  0
  2 17  1  0  0  0  0
  4 16  1  0  0  0  0
  4  5  2  0  0  0  0
  5  6  1  0  0  0  0
  5 23  1  0  0  0  0
  6  7  2  0  0  0  0
  6 24  1  0  0  0  0
  7  8  1  0  0  0  0
  7 15  1  0  0  0  0
  8  9  1  0  0  0  0
  8 25  1  0  0  0  0
  9 10  1  0  0  0  0
  9 26  1  0  0  0  0
  9 27  1  0  0  0  0
 10 11  1  0  0  0  0
 10 28  1  0  0  0  0
 10 29  1  0  0  0  0
 11 12  1  0  0  0  0
 12 13  1  0  0  0  0
 12 30  1  0  0  0  0
 12 31  1  0  0  0  0
 13 14  1  0  0  0  0
 13 32  1  0  0  0  0
 13 33  1  0  0  0  0
 14 34  1  0  0  0  0
 15 16  2  0  0  0  0
 16 35  1  0  0  0  0
 17 22  1  0  0  0  0
 17 18  1  0  0  0  0
 18 19  1  0  0  0  0
 18 36  1  0  0  0  0
 18 37  1  0  0  0  0
 19 20  1  0  0  0  0
 19 38  1  0  0  0  0
 19 39  1  0  0  0  0
 20 21  1  0  0  0  0
 20 40  1  0  0  0  0
 20 41  1  0  0  0  0
 21 22  1  0  0  0  0
 21 42  1  0  0  0  0
 21 43  1  0  0  0  0
 22 44  1  0  0  0  0
 22 45  1  0  0  0  0
M  END
> <s_m_source_file>
AV-unprocessed.smi

> <i_m_source_file_index>
2968

> <i_lp_mmshare_version>
43012

> <i_f3d_flags>
0

> <s_epik_input>
W0NIMl0xW0NIMl1bQ0gyXVtDSDJdW0NIMl1OMVMoPU8pKD1PKWMyW2NIXVtjSF1jKG5bY0hdMilbTkhdW0NIMl1bQ0gyXU9bQ0gyXVtDSDJdW09IXQ==

> <s_epik_cmdline>
J2VwaWtfcHl0aG9uJywgJy1waCcsICc3LjAnLCAnLXRuJywgJzgnLCAnLW1hJywgJzIwMCcsICctbWV0YWxfYmluZGluZycsICctaW1hZScsICc8aW5maWxlLm1hZT4nLCAnLW9tYWUnLCAnPG91dGZpbGUubWFlPic=

> <r_lp_tautomer_probability>
1

> <r_epik_Ionization_Penalty>
0.000398056

> <r_epik_Ionization_Penalty_Charging>
0

> <r_epik_Ionization_Penalty_Neutral>
0.000398056

> <r_epik_State_Penalty>
0.00024364

> <r_epik_Charging_Adjusted_Penalty>
0.00024364

> <i_epik_Tot_Q>
0

> <i_epik_Tot_abs_Q>
0

> <r_epik_Metal_State_Penalty>
-0

> <b_epik_Metal_Only>
0

> <s_lp_Force_Field>
OPLS_2005

> <r_lp_Energy>
3.3881

> <b_lp_Chiralities_Consistent>
1

> <s_lp_Variant>
AV-unprocessed.smi:2968-1

> <Gold.Version>
5.8.1

> <Gold.Id.Protein>
6NUR|6NUR_protein|mol2

> <Gold.PLP.Fitness>
52.0605

> <Gold.PLP.PLP>
-42.5434

> <Gold.PLP.part.hbond>
-5.0686

> <Gold.PLP.part.metal>
0.0000

> <Gold.PLP.part.buried>
1.5656

> <Gold.PLP.part.nonpolar>
-39.9527

> <Gold.PLP.part.repulsive>
0.5501

> <Gold.PLP.ligand.clash>
0.0000

> <Gold.PLP.ligand.torsion>
3.3093

> <Gold.PLP.Chemscore.Hbond>
3.9500

> <Gold.PLP.Chemscore.CHOScore>
0.0000

> <Gold.PLP.Chemscore.Metal>
0.0000

> <Gold.Chemscore.Hbonds>
donor molecule, donor type, donor heavy atom, donor atom, acceptor molecule, acceptor atom, score
      L1  H     8    25       P1  7957  1.00
      L1  H    14    34       P1 10171  1.00
      P1  H  7989  7998       L1    15  0.95
      P1  H  7997  8009       L1     3  0.89

> <Gold.PLP.Chemscore.Internal.Correction>
4.2858

> <Gold.Rescore>
     Score         DG    S(hbond)    S(metal)    S(lipo)     H(rot)  DE(clash)    DE(int)     intcor
     17.33     -21.61       3.07        0.00     107.29       2.60       1.07       3.22       ----

> <Gold.Chemscore.Fitness>
17.3280

> <Gold.Chemscore.DG>
-21.6126

> <Gold.Chemscore.ZeroCoef>
-5.4800

> <Gold.Chemscore.Hbond>
3.0654

> <Gold.Chemscore.Metal>
0.0000

> <Gold.Chemscore.Lipo>
107.2858

> <Gold.Chemscore.Internal_Hbond>
0.0000

> <Gold.Chemscore.DEClash>
1.0682

> <Gold.Chemscore.DEInternal>
3.2164

> <Gold.Chemscore.Rot>
2.6009

> <Gold.Chemscore.Internal.Correction>
   9.000000E+99

> <Gold.Chemscore.Hbonds>
donor molecule, donor type, donor heavy atom, donor atom, acceptor molecule, acceptor atom, score
      L1  H     8    25       P1  7957  0.98
      L1  H    14    34       P1 10171  0.98
      P1  H  7989  7998       L1    15  0.21
      P1  H  7997  8009       L1     3  0.82

> <Gold.Chemscore.Hbond.Weighted>
-10.2385

> <Gold.Chemscore.Metal.Weighted>
-0.0000

> <Gold.Chemscore.Lipo.Weighted>
-12.5524

> <Gold.Chemscore.Internal_Hbond.Weighted>
0.0000

> <Gold.Chemscore.DEClash.Weighted>
1.0682

> <Gold.Chemscore.DEInternal.Weighted>
3.2164

> <Gold.Chemscore.Rot.Weighted>
6.6583

> <Gold.Chemscore.Internal.Correction.Weighted>
   9.000000E+99

> <Gold.Protein.RotatedTorsions>
[ 6907 6896 6895 6894 ] final -107.71 input  -60.11 | X-H torsion
[ 7974 7965 7964 7962 ] final -165.92 input  175.53 | X-H torsion
[ 8008 7997 7996 7995 ] final  170.76 input   59.86 | X-H torsion
[ 10167 10162 10161 10158 ] final  168.23 input  -65.29 | X-H torsion
[ 10718 10713 10712 10709 ] final  -84.78 input   66.30 | X-H torsion
[ 10763 10752 10751 10750 ] final -165.94 input  -60.55 | X-H torsion
[ 11005 11000 10999 10996 ] final   29.06 input  -57.11 | X-H torsion

> <Gold.Protein.ActiveResidues>
 VAL166  LYS551  ARG553  GLY616  TRP617  ASP618  TYR619  PRO620  LYS621  CYS622 
 ASP623  PHE694  ASN695  SER759  ASP760  ASP761  ALA762  ILE779  LEU786  VAL792 
 PHE793  MET794  SER795  GLU796  ALA797  LYS798  CYS799  TRP800  GLU811  SER814 

> <Gold.Protein.RotatedAtoms>
  150.7460  133.9785  159.3568 H   0  0  0  0  0  0  0  0  0  0  0  0  # atno 6907 bound_to 6896
  151.7724  135.0781  160.0371 H   0  0  0  0  0  0  0  0  0  0  0  0  # atno 6908 bound_to 6896
  152.3330  133.5942  159.5859 H   0  0  0  0  0  0  0  0  0  0  0  0  # atno 6909 bound_to 6896
  144.7258  140.2742  143.6246 H   0  0  0  0  0  0  0  0  0  0  0  0  # atno 7974 bound_to 7965
  156.1335  140.1529  156.9030 H   0  0  0  0  0  0  0  0  0  0  0  0  # atno 8008 bound_to 7997
  154.4928  140.0846  156.7671 H   0  0  0  0  0  0  0  0  0  0  0  0  # atno 8009 bound_to 7997
  155.4212  140.3423  155.4274 H   0  0  0  0  0  0  0  0  0  0  0  0  # atno 8010 bound_to 7997
  139.4963  144.3837  151.9594 H   0  0  0  0  0  0  0  0  0  0  0  0  # atno 10167 bound_to 10162
  156.0003  130.4709  150.4462 H   0  0  0  0  0  0  0  0  0  0  0  0  # atno 10718 bound_to 10713
  154.6882  135.2966  154.9517 H   0  0  0  0  0  0  0  0  0  0  0  0  # atno 10763 bound_to 10752
  154.0489  135.6647  153.4802 H   0  0  0  0  0  0  0  0  0  0  0  0  # atno 10764 bound_to 10752
  153.0593  135.5125  154.7960 H   0  0  0  0  0  0  0  0  0  0  0  0  # atno 10765 bound_to 10752
  140.3089  134.2671  155.7738 H   0  0  0  0  0  0  0  0  0  0  0  0  # atno 11005 bound_to 11000
  145.8013  139.1965  143.2046 LP  0  0  0  0  0  0  0  0  0  0  0  0  # atno 17320 bound_to 7965
  146.0674  140.7905  142.9705 LP  0  0  0  0  0  0  0  0  0  0  0  0  # atno 17321 bound_to 7965
  140.3274  144.3357  150.5995 LP  0  0  0  0  0  0  0  0  0  0  0  0  # atno 17342 bound_to 10162
  140.5673  143.2184  151.7661 LP  0  0  0  0  0  0  0  0  0  0  0  0  # atno 17343 bound_to 10162
  157.2499  131.0544  151.2385 LP  0  0  0  0  0  0  0  0  0  0  0  0  # atno 17370 bound_to 10713
  157.3538  130.7096  149.6458 LP  0  0  0  0  0  0  0  0  0  0  0  0  # atno 17371 bound_to 10713
  141.2112  133.7695  156.9879 LP  0  0  0  0  0  0  0  0  0  0  0  0  # atno 17394 bound_to 11000
  140.1042  134.9517  157.1969 LP  0  0  0  0  0  0  0  0  0  0  0  0  # atno 17395 bound_to 11000

$$$$
