#       Name:                AV-unprocessed.smi:2226
#       Creating user name   scv26
#       Creation time:       Fri Mar 27 12:21:42 2020


#       File generated by GOLD software.
#

@<TRIPOS>MOLECULE
AV-unprocessed.smi:2226
    45    47     1
SMALL
NO_CHARGES


@<TRIPOS>ATOM
      1 ****        -1.5062  -3.3731   0.0011 C.3            1 S1                 0.0000
      2 ****        -2.2582  -2.0956   0.0005 N.4            1 S1                 1.0000
      3 ****        -2.0774  -1.2658  -1.2156 C.3            1 S1                 0.0000
      4 ****        -3.2155  -0.2203  -1.2820 C.3            1 S1                 0.0000
      5 ****        -3.3608   0.6257  -0.0004 C.3            1 S1                 0.0000
      6 ****        -3.2157  -0.2195   1.2816 C.3            1 S1                 0.0000
      7 ****        -2.0774  -1.2650   1.2160 C.3            1 S1                 0.0000
      8 ****        -0.6470  -0.6740   1.2864 C.3            1 S1                 0.0000
      9 ****        -0.1818   0.0459  -0.0005 C.3            1 S1                 0.0000
     10 ****         1.2781   0.1299  -0.0005 N.am           1 S1                 0.0000
     11 ****         2.0164   1.2509   0.0007 C.2            1 S1                 0.0000
     12 ****         1.4978   2.3717   0.0019 O.2            1 S1                 0.0000
     13 ****         3.3642   0.9230   0.0003 N.2            1 S1                 0.0000
     14 ****         4.2567   1.8646   0.0001 C.2            1 S1                 0.0000
     15 ****         5.6350   1.7219  -0.0002 N.pl3          1 S1                 0.0000
     16 ****         6.1923   2.9706  -0.0003 C.2            1 S1                 0.0000
     17 ****         5.2071   3.8637  -0.0001 C.2            1 S1                 0.0000
     18 ****         4.0077   3.2180   0.0001 O.3            1 S1                 0.0000
     19 ****        -0.6470  -0.6754  -1.2866 C.3            1 S1                 0.0000
     20 ****        -0.4274  -3.2189   0.0013 H              1 S1                 0.0000
     21 ****        -1.7617  -3.9647  -0.8785 H              1 S1                 0.0000
     22 ****        -1.7623  -3.9643   0.8805 H              1 S1                 0.0000
     23 ****        -2.2040  -1.9150  -2.0833 H              1 S1                 0.0000
     24 ****        -3.0861   0.4306  -2.1473 H              1 S1                 0.0000
     25 ****        -4.1545  -0.7503  -1.4469 H              1 S1                 0.0000
     26 ****        -2.6434   1.4417  -0.0006 H              1 S1                 0.0000
     27 ****        -4.3329   1.1199  -0.0006 H              1 S1                 0.0000
     28 ****        -3.0865   0.4318   2.1466 H              1 S1                 0.0000
     29 ****        -4.1546  -0.7496   1.4466 H              1 S1                 0.0000
     30 ****        -2.2038  -1.9134   2.0842 H              1 S1                 0.0000
     31 ****        -0.5635   0.0031   2.1373 H              1 S1                 0.0000
     32 ****         0.0429  -1.4906   1.5037 H              1 S1                 0.0000
     33 ****        -0.5965   1.0502  -0.0011 H              1 S1                 0.0000
     34 ****         1.7782  -0.7475  -0.0015 H              1 S1                 0.0000
     35 ****         6.1762   0.8694  -0.0002 H              1 S1                 0.0000
     36 ****         7.2656   3.0899  -0.0005 H              1 S1                 0.0000
     37 ****         5.1955   4.9436  -0.0001 H              1 S1                 0.0000
     38 ****         0.0428  -1.4923  -1.5029 H              1 S1                 0.0000
     39 ****        -0.5632   0.0009  -2.1383 H              1 S1                 0.0000
     40 ****        -3.2303  -2.3704   0.0006 H              1 S1                 0.0000
     41 ****         0.5019   2.4618   0.0020 LP             1 S1                 0.0000
     42 ****         2.0738   3.1891   0.0027 LP             1 S1                 0.0000
     43 ****         3.6471  -0.0362   0.0001 LP             1 S1                 0.0000
     44 ****         3.4873   3.4678   0.8166 LP             1 S1                 0.0000
     45 ****         3.4871   3.4678  -0.8164 LP             1 S1                 0.0000
@<TRIPOS>BOND
    1    1    2 1     
    2    1   20 1     
    3    1   21 1     
    4    1   22 1     
    5    2    7 1     
    6    2    3 1     
    7    2   40 1     
    8    3   19 1     
    9    3    4 1     
   10    3   23 1     
   11    4    5 1     
   12    4   24 1     
   13    4   25 1     
   14    5    6 1     
   15    5   26 1     
   16    5   27 1     
   17    6    7 1     
   18    6   28 1     
   19    6   29 1     
   20    7    8 1     
   21    7   30 1     
   22    8    9 1     
   23    8   31 1     
   24    8   32 1     
   25    9   10 1     
   26    9   19 1     
   27    9   33 1     
   28   10   34 1     
   29   10   11 am    
   30   11   13 1     
   31   11   12 2     
   32   13   14 2     
   33   14   18 1     
   34   14   15 1     
   35   15   35 1     
   36   15   16 1     
   37   16   36 1     
   38   16   17 2     
   39   17   37 1     
   40   17   18 1     
   41   19   38 1     
   42   19   39 1     
   43   12   41 1     
   44   12   42 1     
   45   13   43 1     
   46   18   44 1     
   47   18   45 1     
@<TRIPOS>SUBSTRUCTURE
      1 S1             1
@<TRIPOS>SET
LONE_PAIRS      STATIC     ATOMS    <user>   **** ""
5 41 42 43 44 45
DONOR_HYDROGENS      STATIC     ATOMS    <user>   **** ""
3 40 34 35
ATOM$BLUE        STATIC     ATOMS    COLORGROUP SYSTEM
5 41 42 43 44 45
ATOM$RED        STATIC     ATOMS    COLORGROUP SYSTEM
3 40 34 35
