AV-unprocessed.smi:35|AV-procd|sdf|269|dock9
  -GOLD-   2262016 33D 1   1.00000     0.00000
 Structure written by MMmdl.
 28 29  0  0  0  0  0  0  0  0  2 V2000
  150.8792  134.7777  157.5444 O   0  0  0  0  0  0  0  0  0  0  0  0
  150.7765  135.7993  156.8680 C   0  0  0  0  0  0  0  0  0  0  0  0
  151.8068  136.3098  156.1347 N   0  5  0  0  0  0  0  0  0  0  0  0
  151.6817  137.4330  155.3684 C   0  0  0  0  0  0  0  0  0  0  0  0
  152.6251  137.9265  154.7511 O   0  0  0  0  0  0  0  0  0  0  0  0
  150.4132  138.0754  155.2817 N   0  0  0  0  0  0  0  0  0  0  0  0
  150.2723  139.3386  154.4452 C   0  0  2  0  0  0  0  0  0  0  0  0
  151.1758  140.3070  154.9062 O   0  0  0  0  0  0  0  0  0  0  0  0
  150.5165  141.3396  155.6390 C   0  0  2  0  0  0  0  0  0  0  0  0
  150.4192  140.9797  157.1402 C   0  0  0  0  0  0  0  0  0  0  0  0
  151.7105  140.9232  157.7081 O   0  0  0  0  0  0  0  0  0  0  0  0
  149.1751  141.4216  154.9028 C   0  0  2  0  0  0  0  0  0  0  0  0
  148.1463  142.0079  155.6761 O   0  0  0  0  0  0  0  0  0  0  0  0
  148.8650  139.9711  154.5579 C   0  0  1  0  0  0  0  0  0  0  0  0
  148.1651  139.9225  153.3310 O   0  0  0  0  0  0  0  0  0  0  0  0
  149.3706  137.6160  156.0734 C   0  0  0  0  0  0  0  0  0  0  0  0
  149.5059  136.5165  156.8414 C   0  0  0  0  0  0  0  0  0  0  0  0
  147.9221  135.9707  157.8995 Br  0  0  0  0  0  0  0  0  0  0  0  0
  150.5472  139.0304  153.4349 H   0  0  0  0  0  0  0  0  0  0  0  0
  151.0587  142.2797  155.5280 H   0  0  0  0  0  0  0  0  0  0  0  0
  149.8815  141.7550  157.6854 H   0  0  0  0  0  0  0  0  0  0  0  0
  149.8809  140.0496  157.3147 H   0  0  0  0  0  0  0  0  0  0  0  0
  152.2303  140.3110  157.2099 H   0  0  0  0  0  0  0  0  0  0  0  0
  149.3151  142.0052  153.9910 H   0  0  0  0  0  0  0  0  0  0  0  0
  148.2623  142.9459  155.6590 H   0  0  0  0  0  0  0  0  0  0  0  0
  148.2978  139.4918  155.3578 H   0  0  0  0  0  0  0  0  0  0  0  0
  148.7913  139.7392  152.6458 H   0  0  0  0  0  0  0  0  0  0  0  0
  148.4239  138.1332  156.0900 H   0  0  0  0  0  0  0  0  0  0  0  0
  1  2  2  0  0  0  0
  2 17  1  0  0  0  0
  2  3  1  0  0  0  0
  3  4  1  0  0  0  0
  4  5  2  0  0  0  0
  4  6  1  0  0  0  0
  6  7  1  0  0  0  0
  6 16  1  0  0  0  0
  7 14  1  0  0  0  0
  7  8  1  0  0  0  0
  7 19  1  0  0  0  0
  8  9  1  0  0  0  0
  9 10  1  0  0  0  0
  9 12  1  0  0  0  0
  9 20  1  0  0  0  0
 10 11  1  0  0  0  0
 10 21  1  0  0  0  0
 10 22  1  0  0  0  0
 11 23  1  0  0  0  0
 12 13  1  0  0  0  0
 12 14  1  0  0  0  0
 12 24  1  0  0  0  0
 13 25  1  0  0  0  0
 14 15  1  0  0  0  0
 14 26  1  0  0  0  0
 15 27  1  0  0  0  0
 16 17  2  0  0  0  0
 16 28  1  0  0  0  0
 17 18  1  0  0  0  0
M  CHG  1   3  -1
M  END
> <s_m_source_file>
AV-unprocessed.smi

> <i_m_source_file_index>
35

> <i_lp_mmshare_version>
43012

> <i_f3d_flags>
0

> <s_epik_input>
Tz1jMVtuSF1jKD1PKW4oW2NIXWMxQnIpW0NAQEhdMk9bQ0BASF0oW0NIMl1bT0hdKVtDQEBIXShbT0hdKVtDQEhdMltPSF0=

> <s_epik_cmdline>
J2VwaWtfcHl0aG9uJywgJy1waCcsICc3LjAnLCAnLXRuJywgJzgnLCAnLW1hJywgJzIwMCcsICctbWV0YWxfYmluZGluZycsICctaW1hZScsICc8aW5maWxlLm1hZT4nLCAnLW9tYWUnLCAnPG91dGZpbGUubWFlPic=

> <r_epik_Ionization_Penalty>
1.06112

> <r_epik_Ionization_Penalty_Charging>
2.1796e-09

> <r_epik_Ionization_Penalty_Neutral>
1.06112

> <r_epik_State_Penalty>
1.11484

> <r_epik_Charging_Adjusted_Penalty>
1.11484

> <i_epik_Tot_Q>
-1

> <i_epik_Tot_abs_Q>
1

> <r_epik_Metal_State_Penalty>
0.0032876

> <b_epik_Metal_Only>
0

> <s_epik_Chemistry_Notes>
This compound contains an acetal/aminal-like group ( X-CH(R)-Y where X, Y are N, S, or O) that may be acid/base labile, releasing an aldehyde.

> <s_lp_Force_Field>
OPLS_2005

> <r_lp_Energy>
39.1741

> <b_lp_Chiralities_Consistent>
1

> <s_lp_Variant>
AV-unprocessed.smi:35-23

> <Gold.Version>
5.8.1

> <Gold.Id.Protein>
6NUR|6NUR_protein|mol2

> <Gold.PLP.Fitness>
41.5572

> <Gold.PLP.PLP>
-25.4025

> <Gold.PLP.part.hbond>
-6.0000

> <Gold.PLP.part.metal>
0.0000

> <Gold.PLP.part.buried>
-4.4688

> <Gold.PLP.part.nonpolar>
-15.2804

> <Gold.PLP.part.repulsive>
0.1741

> <Gold.PLP.ligand.clash>
0.0000

> <Gold.PLP.ligand.torsion>
0.0336

> <Gold.PLP.Chemscore.Hbond>
5.3869

> <Gold.PLP.Chemscore.CHOScore>
0.0000

> <Gold.PLP.Chemscore.Metal>
0.0000

> <Gold.Chemscore.Hbonds>
donor molecule, donor type, donor heavy atom, donor atom, acceptor molecule, acceptor atom, score
      L1  H    13    25       P1  8028  1.00
      L1  H    15    27       P1  7957  1.00
      P1  H  6896  6907       L1     1  0.34
      P1  H  7989  7998       L1     8  0.95
      P1  H 10752 10764       L1     3  1.90

> <Gold.PLP.Chemscore.Internal.Correction>
0.0612

> <Gold.Rescore>
     Score         DG    S(hbond)    S(metal)    S(lipo)     H(rot)  DE(clash)    DE(int)     intcor
      9.06     -10.55       3.26        0.00      29.59       3.63       0.01       1.48       ----

> <Gold.Chemscore.Fitness>
9.0626

> <Gold.Chemscore.DG>
-10.5475

> <Gold.Chemscore.ZeroCoef>
-5.4800

> <Gold.Chemscore.Hbond>
3.2601

> <Gold.Chemscore.Metal>
0.0000

> <Gold.Chemscore.Lipo>
29.5871

> <Gold.Chemscore.Internal_Hbond>
0.0000

> <Gold.Chemscore.DEClash>
0.0098

> <Gold.Chemscore.DEInternal>
1.4751

> <Gold.Chemscore.Rot>
3.6261

> <Gold.Chemscore.Internal.Correction>
   9.000000E+99

> <Gold.Chemscore.Hbonds>
donor molecule, donor type, donor heavy atom, donor atom, acceptor molecule, acceptor atom, score
      L1  H    13    25       P1  8028  0.96
      L1  H    15    27       P1  7957  0.98
      P1  H  6896  6907       L1     1  0.34
      P1  H  7989  7998       L1     8  0.15
      P1  H 10752 10764       L1     3  0.21

> <Gold.Chemscore.Hbond.Weighted>
-10.8886

> <Gold.Chemscore.Metal.Weighted>
-0.0000

> <Gold.Chemscore.Lipo.Weighted>
-3.4617

> <Gold.Chemscore.Internal_Hbond.Weighted>
0.0000

> <Gold.Chemscore.DEClash.Weighted>
0.0098

> <Gold.Chemscore.DEInternal.Weighted>
1.4751

> <Gold.Chemscore.Rot.Weighted>
9.2828

> <Gold.Chemscore.Internal.Correction.Weighted>
   9.000000E+99

> <Gold.Protein.RotatedTorsions>
[ 6907 6896 6895 6894 ] final -109.36 input  -60.11 | X-H torsion
[ 7974 7965 7964 7962 ] final   10.79 input  175.53 | X-H torsion
[ 8008 7997 7996 7995 ] final  -59.19 input   59.86 | X-H torsion
[ 10167 10162 10161 10158 ] final  -60.52 input  -65.29 | X-H torsion
[ 10718 10713 10712 10709 ] final   16.50 input   66.30 | X-H torsion
[ 10763 10752 10751 10750 ] final  -20.00 input  -60.55 | X-H torsion
[ 11005 11000 10999 10996 ] final -127.63 input  -57.11 | X-H torsion

> <Gold.Protein.ActiveResidues>
 VAL166  LYS551  ARG553  GLY616  TRP617  ASP618  TYR619  PRO620  LYS621  CYS622 
 ASP623  PHE694  ASN695  SER759  ASP760  ASP761  ALA762  ILE779  LEU786  VAL792 
 PHE793  MET794  SER795  GLU796  ALA797  LYS798  CYS799  TRP800  GLU811  SER814 

> <Gold.Protein.RotatedAtoms>
  150.7557  133.9540  159.3494 H   0  0  0  0  0  0  0  0  0  0  0  0  # atno 6907 bound_to 6896
  151.7460  135.0841  160.0332 H   0  0  0  0  0  0  0  0  0  0  0  0  # atno 6908 bound_to 6896
  152.3497  133.6128  159.5972 H   0  0  0  0  0  0  0  0  0  0  0  0  # atno 6909 bound_to 6896
  146.2382  139.9582  142.8462 H   0  0  0  0  0  0  0  0  0  0  0  0  # atno 7974 bound_to 7965
  154.4341  140.1067  156.6076 H   0  0  0  0  0  0  0  0  0  0  0  0  # atno 8008 bound_to 7997
  155.5844  140.3491  155.4530 H   0  0  0  0  0  0  0  0  0  0  0  0  # atno 8009 bound_to 7997
  156.0294  140.1257  157.0264 H   0  0  0  0  0  0  0  0  0  0  0  0  # atno 8010 bound_to 7997
  140.6066  143.2375  151.5807 H   0  0  0  0  0  0  0  0  0  0  0  0  # atno 10167 bound_to 10162
  157.0688  130.6339  149.5801 H   0  0  0  0  0  0  0  0  0  0  0  0  # atno 10718 bound_to 10713
  153.6135  135.6995  153.5337 H   0  0  0  0  0  0  0  0  0  0  0  0  # atno 10763 bound_to 10752
  153.2996  135.4132  155.1241 H   0  0  0  0  0  0  0  0  0  0  0  0  # atno 10764 bound_to 10752
  154.8558  135.3645  154.5674 H   0  0  0  0  0  0  0  0  0  0  0  0  # atno 10765 bound_to 10752
  140.9583  134.0971  157.3993 H   0  0  0  0  0  0  0  0  0  0  0  0  # atno 11005 bound_to 11000
  145.1796  140.9761  143.4274 LP  0  0  0  0  0  0  0  0  0  0  0  0  # atno 17320 bound_to 7965
  144.9954  139.3649  143.6194 LP  0  0  0  0  0  0  0  0  0  0  0  0  # atno 17321 bound_to 7965
  139.5329  144.2863  152.1189 LP  0  0  0  0  0  0  0  0  0  0  0  0  # atno 17342 bound_to 10162
  140.2053  144.4617  150.6411 LP  0  0  0  0  0  0  0  0  0  0  0  0  # atno 17343 bound_to 10162
  155.9956  130.5024  150.7467 LP  0  0  0  0  0  0  0  0  0  0  0  0  # atno 17370 bound_to 10713
  157.4895  131.0909  151.0443 LP  0  0  0  0  0  0  0  0  0  0  0  0  # atno 17371 bound_to 10713
  139.8869  135.0086  156.6531 LP  0  0  0  0  0  0  0  0  0  0  0  0  # atno 17394 bound_to 11000
  140.7504  133.8902  155.8342 LP  0  0  0  0  0  0  0  0  0  0  0  0  # atno 17395 bound_to 11000

$$$$
