AV-unprocessed.smi:2438|AV-procd|sdf|9601|dock2
  -GOLD-   2272013233D 1   1.00000     0.00000
 Structure written by MMmdl.
 44 45  0  0  0  0  0  0  0  0  2 V2000
  148.0028  133.0047  151.9743 C   0  0  0  0  0  0  0  0  0  0  0  0
  146.7456  132.5827  152.5797 N   0  0  0  0  0  0  0  0  0  0  0  0
  146.7033  131.2188  153.0891 C   0  0  0  0  0  0  0  0  0  0  0  0
  145.5653  132.9715  151.9151 C   0  0  0  0  0  0  0  0  0  0  0  0
  144.7538  131.9980  151.4415 N   0  0  0  0  0  0  0  0  0  0  0  0
  143.6171  132.3245  150.8188 C   0  0  0  0  0  0  0  0  0  0  0  0
  143.2300  133.5924  150.6307 N   0  3  0  0  0  0  0  0  0  0  0  0
  144.0078  134.6049  151.0824 C   0  0  0  0  0  0  0  0  0  0  0  0
  145.2231  134.3367  151.7578 C   0  0  0  0  0  0  0  0  0  0  0  0
  146.1121  135.3475  152.2274 N   0  0  0  0  0  0  0  0  0  0  0  0
  145.8275  136.5241  152.8105 C   0  0  0  0  0  0  0  0  0  0  0  0
  144.6961  136.9403  153.0557 O   0  0  0  0  0  0  0  0  0  0  0  0
  146.9492  137.1962  153.1058 N   0  0  0  0  0  0  0  0  0  0  0  0
  147.0198  138.5120  153.7360 C   0  0  2  0  0  0  0  0  0  0  0  0
  146.9888  139.6079  152.6557 C   0  0  0  0  0  0  0  0  0  0  0  0
  147.1447  141.0046  153.2748 C   0  0  0  0  0  0  0  0  0  0  0  0
  148.4226  141.0992  154.1232 C   0  0  0  0  0  0  0  0  0  0  0  0
  148.4604  140.0139  155.2202 C   0  0  2  0  0  0  0  0  0  0  0  0
  149.7313  140.1131  156.0888 C   0  0  0  0  0  0  0  0  0  0  0  0
  149.6741  139.2613  157.1131 F   0  0  0  0  0  0  0  0  0  0  0  0
  150.8087  139.8331  155.3556 F   0  0  0  0  0  0  0  0  0  0  0  0
  149.8633  141.3512  156.5647 F   0  0  0  0  0  0  0  0  0  0  0  0
  148.2994  138.6145  154.5873 C   0  0  0  0  0  0  0  0  0  0  0  0
  147.9616  134.0548  151.6817 H   0  0  0  0  0  0  0  0  0  0  0  0
  148.2321  132.4062  151.0916 H   0  0  0  0  0  0  0  0  0  0  0  0
  148.8209  132.8882  152.6856 H   0  0  0  0  0  0  0  0  0  0  0  0
  145.7983  131.0281  153.6660 H   0  0  0  0  0  0  0  0  0  0  0  0
  147.5584  131.0310  153.7390 H   0  0  0  0  0  0  0  0  0  0  0  0
  146.7395  130.5042  152.2659 H   0  0  0  0  0  0  0  0  0  0  0  0
  142.9641  131.5539  150.4360 H   0  0  0  0  0  0  0  0  0  0  0  0
  143.6205  135.5875  150.8631 H   0  0  0  0  0  0  0  0  0  0  0  0
  147.0935  135.1261  152.1390 H   0  0  0  0  0  0  0  0  0  0  0  0
  147.8314  136.7662  152.8688 H   0  0  0  0  0  0  0  0  0  0  0  0
  146.1638  138.6628  154.3966 H   0  0  0  0  0  0  0  0  0  0  0  0
  147.7908  139.4413  151.9349 H   0  0  0  0  0  0  0  0  0  0  0  0
  146.0543  139.5561  152.0956 H   0  0  0  0  0  0  0  0  0  0  0  0
  147.1648  141.7590  152.4878 H   0  0  0  0  0  0  0  0  0  0  0  0
  146.2760  141.2287  153.8953 H   0  0  0  0  0  0  0  0  0  0  0  0
  149.2952  141.0022  153.4760 H   0  0  0  0  0  0  0  0  0  0  0  0
  148.4833  142.0905  154.5733 H   0  0  0  0  0  0  0  0  0  0  0  0
  147.6051  140.1789  155.8777 H   0  0  0  0  0  0  0  0  0  0  0  0
  148.2753  137.8551  155.3698 H   0  0  0  0  0  0  0  0  0  0  0  0
  149.1704  138.3914  153.9694 H   0  0  0  0  0  0  0  0  0  0  0  0
  142.3585  133.8049  150.1444 H   0  0  0  0  0  0  0  0  0  0  0  0
  1  2  1  0  0  0  0
  1 24  1  0  0  0  0
  1 25  1  0  0  0  0
  1 26  1  0  0  0  0
  2  3  1  0  0  0  0
  2  4  1  0  0  0  0
  3 27  1  0  0  0  0
  3 28  1  0  0  0  0
  3 29  1  0  0  0  0
  4  9  1  0  0  0  0
  4  5  2  0  0  0  0
  5  6  1  0  0  0  0
  6  7  2  0  0  0  0
  6 30  1  0  0  0  0
  7  8  1  0  0  0  0
  7 44  1  0  0  0  0
  8  9  2  0  0  0  0
  8 31  1  0  0  0  0
  9 10  1  0  0  0  0
 10 11  1  0  0  0  0
 10 32  1  0  0  0  0
 11 12  2  0  0  0  0
 11 13  1  0  0  0  0
 13 14  1  0  0  0  0
 13 33  1  0  0  0  0
 14 23  1  0  0  0  0
 14 15  1  0  0  0  0
 14 34  1  0  0  0  0
 15 16  1  0  0  0  0
 15 35  1  0  0  0  0
 15 36  1  0  0  0  0
 16 17  1  0  0  0  0
 16 37  1  0  0  0  0
 16 38  1  0  0  0  0
 17 18  1  0  0  0  0
 17 39  1  0  0  0  0
 17 40  1  0  0  0  0
 18 19  1  0  0  0  0
 18 23  1  0  0  0  0
 18 41  1  0  0  0  0
 19 20  1  0  0  0  0
 19 21  1  0  0  0  0
 19 22  1  0  0  0  0
 23 42  1  0  0  0  0
 23 43  1  0  0  0  0
M  CHG  1   7   1
M  END
> <s_m_source_file>
AV-unprocessed.smi

> <i_m_source_file_index>
2438

> <i_lp_mmshare_version>
43012

> <i_f3d_flags>
0

> <s_epik_input>
W0NIM11OKFtDSDNdKWMxbltjSF1uW2NIXWMxW05IXUMoPU8pW05IXVtDQEBIXTJbQ0gyXVtDSDJdW0NIMl1bQ0BASF0oQyhGKShGKUYpW0NIMl0y

> <s_epik_cmdline>
J2VwaWtfcHl0aG9uJywgJy1waCcsICc3LjAnLCAnLXRuJywgJzgnLCAnLW1hJywgJzIwMCcsICctbWV0YWxfYmluZGluZycsICctaW1hZScsICc8aW5maWxlLm1hZT4nLCAnLW9tYWUnLCAnPG91dGZpbGUubWFlPic=

> <r_lp_tautomer_probability>
0.999336

> <r_epik_Ionization_Penalty>
2.11643

> <r_epik_Ionization_Penalty_Charging>
2.11639

> <r_epik_Ionization_Penalty_Neutral>
4.47523e-05

> <r_epik_State_Penalty>
2.25369

> <r_epik_Charging_Adjusted_Penalty>
4.37008

> <i_epik_Tot_Q>
1

> <i_epik_Tot_abs_Q>
1

> <r_epik_Metal_State_Penalty>
2.27019

> <b_epik_Metal_Only>
0

> <s_lp_Force_Field>
OPLS_2005

> <r_lp_Energy>
18.5992

> <b_lp_Chiralities_Consistent>
1

> <s_lp_Variant>
AV-unprocessed.smi:2438-7

> <Gold.Version>
5.8.1

> <Gold.Id.Protein>
6NUR|6NUR_protein|mol2

> <Gold.PLP.Fitness>
42.6938

> <Gold.PLP.PLP>
-31.3031

> <Gold.PLP.part.hbond>
-2.9943

> <Gold.PLP.part.metal>
0.0000

> <Gold.PLP.part.buried>
-2.1436

> <Gold.PLP.part.nonpolar>
-26.4782

> <Gold.PLP.part.repulsive>
0.4688

> <Gold.PLP.ligand.clash>
0.0000

> <Gold.PLP.ligand.torsion>
1.0155

> <Gold.PLP.Chemscore.Hbond>
3.5499

> <Gold.PLP.Chemscore.CHOScore>
0.8013

> <Gold.PLP.Chemscore.Metal>
0.0000

> <Gold.Chemscore.Hbonds>
donor molecule, donor type, donor heavy atom, donor atom, acceptor molecule, acceptor atom, score
      L1  H     7    44       P1 10186  2.00
      L1  H    10    32       P1  7948  0.53
      L1  H    13    33       P1  7948  1.00
      L1  C     6    30       P1 10952  0.81

> <Gold.PLP.Chemscore.Internal.Correction>
0.3681

> <Gold.Rescore>
     Score         DG    S(hbond)    S(metal)    S(lipo)     H(rot)  DE(clash)    DE(int)     intcor
     15.92     -18.51       2.77        0.00      61.07       1.31       0.80       1.79       ----

> <Gold.Chemscore.Fitness>
15.9193

> <Gold.Chemscore.DG>
-18.5136

> <Gold.Chemscore.ZeroCoef>
-5.4800

> <Gold.Chemscore.Hbond>
2.7654

> <Gold.Chemscore.Metal>
0.0000

> <Gold.Chemscore.Lipo>
61.0710

> <Gold.Chemscore.Internal_Hbond>
0.0000

> <Gold.Chemscore.DEClash>
0.8018

> <Gold.Chemscore.DEInternal>
1.7926

> <Gold.Chemscore.Rot>
1.3078

> <Gold.Chemscore.Internal.Correction>
   9.000000E+99

> <Gold.Chemscore.Hbonds>
donor molecule, donor type, donor heavy atom, donor atom, acceptor molecule, acceptor atom, score
      L1  H     7    44       P1 10186  0.98
      L1  H    10    32       P1  7948  0.53
      L1  H    13    33       P1  7948  0.96

> <Gold.Chemscore.Hbond.Weighted>
-9.2364

> <Gold.Chemscore.Metal.Weighted>
-0.0000

> <Gold.Chemscore.Lipo.Weighted>
-7.1453

> <Gold.Chemscore.Internal_Hbond.Weighted>
0.0000

> <Gold.Chemscore.DEClash.Weighted>
0.8018

> <Gold.Chemscore.DEInternal.Weighted>
1.7926

> <Gold.Chemscore.Rot.Weighted>
3.3481

> <Gold.Chemscore.Internal.Correction.Weighted>
   9.000000E+99

> <Gold.Protein.RotatedTorsions>
[ 6907 6896 6895 6894 ] final   11.24 input  -60.11 | X-H torsion
[ 7974 7965 7964 7962 ] final -175.60 input  175.53 | X-H torsion
[ 8008 7997 7996 7995 ] final  162.67 input   59.86 | X-H torsion
[ 10167 10162 10161 10158 ] final  130.23 input  -65.29 | X-H torsion
[ 10718 10713 10712 10709 ] final  -35.67 input   66.30 | X-H torsion
[ 10763 10752 10751 10750 ] final  -96.06 input  -60.55 | X-H torsion
[ 11005 11000 10999 10996 ] final   28.91 input  -57.11 | X-H torsion

> <Gold.Protein.ActiveResidues>
 VAL166  LYS551  ARG553  GLY616  TRP617  ASP618  TYR619  PRO620  LYS621  CYS622 
 ASP623  PHE694  ASN695  SER759  ASP760  ASP761  ALA762  ILE779  LEU786  VAL792 
 PHE793  MET794  SER795  GLU796  ALA797  LYS798  CYS799  TRP800  GLU811  SER814 

> <Gold.Protein.RotatedAtoms>
  151.7512  135.0832  160.0330 H   0  0  0  0  0  0  0  0  0  0  0  0  # atno 6907 bound_to 6896
  152.3416  133.6069  159.5888 H   0  0  0  0  0  0  0  0  0  0  0  0  # atno 6908 bound_to 6896
  150.7483  133.9630  159.3563 H   0  0  0  0  0  0  0  0  0  0  0  0  # atno 6909 bound_to 6896
  144.7128  140.1296  143.6399 H   0  0  0  0  0  0  0  0  0  0  0  0  # atno 7974 bound_to 7965
  156.2014  140.1744  156.7891 H   0  0  0  0  0  0  0  0  0  0  0  0  # atno 8008 bound_to 7997
  154.5597  140.0702  156.8830 H   0  0  0  0  0  0  0  0  0  0  0  0  # atno 8009 bound_to 7997
  155.2872  140.3353  155.4257 H   0  0  0  0  0  0  0  0  0  0  0  0  # atno 8010 bound_to 7997
  139.5440  144.6756  151.4534 H   0  0  0  0  0  0  0  0  0  0  0  0  # atno 10167 bound_to 10162
  156.3359  130.4286  149.7830 H   0  0  0  0  0  0  0  0  0  0  0  0  # atno 10718 bound_to 10713
  154.7205  135.5097  153.8805 H   0  0  0  0  0  0  0  0  0  0  0  0  # atno 10763 bound_to 10752
  153.0858  135.6645  153.9960 H   0  0  0  0  0  0  0  0  0  0  0  0  # atno 10764 bound_to 10752
  153.9784  135.3031  155.3401 H   0  0  0  0  0  0  0  0  0  0  0  0  # atno 10765 bound_to 10752
  140.3106  134.2654  155.7735 H   0  0  0  0  0  0  0  0  0  0  0  0  # atno 11005 bound_to 11000
  145.9298  139.2599  143.1332 LP  0  0  0  0  0  0  0  0  0  0  0  0  # atno 17320 bound_to 7965
  145.9534  140.8891  143.0247 LP  0  0  0  0  0  0  0  0  0  0  0  0  # atno 17321 bound_to 7965
  140.6681  143.8354  150.6966 LP  0  0  0  0  0  0  0  0  0  0  0  0  # atno 17342 bound_to 10162
  140.1770  143.4147  152.1960 LP  0  0  0  0  0  0  0  0  0  0  0  0  # atno 17343 bound_to 10162
  156.5085  130.8161  151.3160 LP  0  0  0  0  0  0  0  0  0  0  0  0  # atno 17370 bound_to 10713
  157.7438  130.9921  150.2626 LP  0  0  0  0  0  0  0  0  0  0  0  0  # atno 17371 bound_to 10713
  141.2109  133.7705  156.9901 LP  0  0  0  0  0  0  0  0  0  0  0  0  # atno 17394 bound_to 11000
  140.1028  134.9525  157.1949 LP  0  0  0  0  0  0  0  0  0  0  0  0  # atno 17395 bound_to 11000

$$$$
