AV-unprocessed.smi:2928|AV-procd|sdf|11237|dock4
  -GOLD-   2272016133D 1   1.00000     0.00000
 Structure written by MMmdl.
 56 59  0  0  0  0  0  0  0  0  3 V2000
  150.3582  141.5470  155.9981 C   0  0  0  0  0  0  0  0  0  0  0  0
  150.1918  140.1011  155.7158 N   0  3  2  0  0  0  0  0  0  0  0  0
  149.4148  139.3534  156.7342 C   0  0  2  0  0  0  0  0  0  0  0  0
  150.2087  139.2150  158.0586 C   0  0  0  0  0  0  0  0  0  0  0  0
  151.6346  138.6580  157.8827 C   0  0  0  0  0  0  0  0  0  0  0  0
  152.3510  139.2476  156.6530 C   0  0  0  0  0  0  0  0  0  0  0  0
  151.4480  139.3779  155.4006 C   0  0  1  0  0  0  0  0  0  0  0  0
  151.0963  138.0370  154.7141 C   0  0  0  0  0  0  0  0  0  0  0  0
  150.0722  137.1673  155.4881 C   0  0  2  0  0  0  0  0  0  0  0  0
  149.4821  136.1693  154.5983 N   0  0  0  0  0  0  0  0  0  0  0  0
  149.5050  134.8438  154.8004 C   0  0  0  0  0  0  0  0  0  0  0  0
  150.0527  134.3107  155.7652 O   0  0  0  0  0  0  0  0  0  0  0  0
  148.8771  134.1873  153.8106 N   0  0  0  0  0  0  0  0  0  0  0  0
  148.7186  132.7802  153.6614 C   0  0  0  0  0  0  0  0  0  0  0  0
  149.4444  131.8720  154.4746 C   0  0  0  0  0  0  0  0  0  0  0  0
  149.2143  130.4881  154.3608 C   0  0  0  0  0  0  0  0  0  0  0  0
  148.2492  130.0323  153.4468 C   0  0  0  0  0  0  0  0  0  0  0  0
  147.5672  130.9212  152.6957 N   0  3  0  0  0  0  0  0  0  0  0  0
  147.7542  132.2640  152.7475 C   0  0  0  0  0  0  0  0  0  0  0  0
  146.9764  133.0730  151.8880 N   0  0  0  0  0  0  0  0  0  0  0  0
  146.2188  134.2003  152.4196 C   0  0  0  0  0  0  0  0  0  0  0  0
  145.2489  134.5861  151.3063 C   0  0  0  0  0  0  0  0  0  0  0  0
  144.9116  133.2352  150.6824 C   0  0  0  0  0  0  0  0  0  0  0  0
  146.2119  132.4362  150.8198 C   0  0  0  0  0  0  0  0  0  0  0  0
  148.9421  138.0164  156.1173 C   0  0  0  0  0  0  0  0  0  0  0  0
  150.9395  141.7295  156.9013 H   0  0  0  0  0  0  0  0  0  0  0  0
  149.3851  142.0230  156.1219 H   0  0  0  0  0  0  0  0  0  0  0  0
  150.8621  142.0411  155.1670 H   0  0  0  0  0  0  0  0  0  0  0  0
  148.5140  139.9280  156.9549 H   0  0  0  0  0  0  0  0  0  0  0  0
  150.2792  140.1959  158.5293 H   0  0  0  0  0  0  0  0  0  0  0  0
  149.6556  138.5957  158.7655 H   0  0  0  0  0  0  0  0  0  0  0  0
  152.2190  138.8692  158.7788 H   0  0  0  0  0  0  0  0  0  0  0  0
  151.6144  137.5732  157.8246 H   0  0  0  0  0  0  0  0  0  0  0  0
  152.7313  140.2349  156.9167 H   0  0  0  0  0  0  0  0  0  0  0  0
  153.2340  138.6517  156.4194 H   0  0  0  0  0  0  0  0  0  0  0  0
  151.9970  139.9679  154.6651 H   0  0  0  0  0  0  0  0  0  0  0  0
  150.6805  138.2706  153.7325 H   0  0  0  0  0  0  0  0  0  0  0  0
  152.0045  137.4649  154.5202 H   0  0  0  0  0  0  0  0  0  0  0  0
  150.5806  136.6272  156.2831 H   0  0  0  0  0  0  0  0  0  0  0  0
  149.0107  136.5162  153.7755 H   0  0  0  0  0  0  0  0  0  0  0  0
  148.5633  134.7466  153.0307 H   0  0  0  0  0  0  0  0  0  0  0  0
  150.1608  132.2184  155.2042 H   0  0  0  0  0  0  0  0  0  0  0  0
  149.7613  129.7888  154.9761 H   0  0  0  0  0  0  0  0  0  0  0  0
  147.9999  128.9918  153.2965 H   0  0  0  0  0  0  0  0  0  0  0  0
  145.6573  133.8997  153.3051 H   0  0  0  0  0  0  0  0  0  0  0  0
  146.8735  135.0289  152.6912 H   0  0  0  0  0  0  0  0  0  0  0  0
  144.3714  135.1198  151.6722 H   0  0  0  0  0  0  0  0  0  0  0  0
  145.7516  135.2194  150.5739 H   0  0  0  0  0  0  0  0  0  0  0  0
  144.1211  132.7528  151.2593 H   0  0  0  0  0  0  0  0  0  0  0  0
  144.5716  133.3158  149.6495 H   0  0  0  0  0  0  0  0  0  0  0  0
  146.7849  132.4974  149.8944 H   0  0  0  0  0  0  0  0  0  0  0  0
  146.0105  131.3841  151.0270 H   0  0  0  0  0  0  0  0  0  0  0  0
  148.4011  137.4282  156.8595 H   0  0  0  0  0  0  0  0  0  0  0  0
  148.2128  138.2554  155.3413 H   0  0  0  0  0  0  0  0  0  0  0  0
  149.6385  140.0689  154.8716 H   0  0  0  0  0  0  0  0  0  0  0  0
  146.8730  130.5591  152.0418 H   0  0  0  0  0  0  0  0  0  0  0  0
  1  2  1  0  0  0  0
  1 26  1  0  0  0  0
  1 27  1  0  0  0  0
  1 28  1  0  0  0  0
  2  7  1  0  0  0  0
  2  3  1  0  0  0  0
  2 55  1  0  0  0  0
  3 25  1  0  0  0  0
  3  4  1  0  0  0  0
  3 29  1  0  0  0  0
  4  5  1  0  0  0  0
  4 30  1  0  0  0  0
  4 31  1  0  0  0  0
  5  6  1  0  0  0  0
  5 32  1  0  0  0  0
  5 33  1  0  0  0  0
  6  7  1  0  0  0  0
  6 34  1  0  0  0  0
  6 35  1  0  0  0  0
  7  8  1  0  0  0  0
  7 36  1  0  0  0  0
  8  9  1  0  0  0  0
  8 37  1  0  0  0  0
  8 38  1  0  0  0  0
  9 10  1  0  0  0  0
  9 25  1  0  0  0  0
  9 39  1  0  0  0  0
 10 11  1  0  0  0  0
 10 40  1  0  0  0  0
 11 12  2  0  0  0  0
 11 13  1  0  0  0  0
 13 14  1  0  0  0  0
 13 41  1  0  0  0  0
 14 19  1  0  0  0  0
 14 15  2  0  0  0  0
 15 16  1  0  0  0  0
 15 42  1  0  0  0  0
 16 17  2  0  0  0  0
 16 43  1  0  0  0  0
 17 18  1  0  0  0  0
 17 44  1  0  0  0  0
 18 19  2  0  0  0  0
 18 56  1  0  0  0  0
 19 20  1  0  0  0  0
 20 24  1  0  0  0  0
 20 21  1  0  0  0  0
 21 22  1  0  0  0  0
 21 45  1  0  0  0  0
 21 46  1  0  0  0  0
 22 23  1  0  0  0  0
 22 47  1  0  0  0  0
 22 48  1  0  0  0  0
 23 24  1  0  0  0  0
 23 49  1  0  0  0  0
 23 50  1  0  0  0  0
 24 51  1  0  0  0  0
 24 52  1  0  0  0  0
 25 53  1  0  0  0  0
 25 54  1  0  0  0  0
M  CHG  1   2   1
M  CHG  1  18   1
M  END
> <s_m_source_file>
AV-unprocessed.smi

> <i_m_source_file_index>
2928

> <i_lp_mmshare_version>
43012

> <i_f3d_flags>
0

> <s_epik_input>
W0NIMl0xW0NIMl1bQ0gyXVtDQEhdKE4oW0NIM10pW0NIXTEyKVtDSDJdW0NASF0oW0NIMl0yKVtOSF1DKD1PKVtOSF1jM1tjSF1bY0hdW2NIXW5jM040W0NIMl1bQ0gyXVtDSDJdW0NIMl00

> <s_epik_cmdline>
J2VwaWtfcHl0aG9uJywgJy1waCcsICc3LjAnLCAnLXRuJywgJzgnLCAnLW1hJywgJzIwMCcsICctbWV0YWxfYmluZGluZycsICctaW1hZScsICc8aW5maWxlLm1hZT4nLCAnLW9tYWUnLCAnPG91dGZpbGUubWFlPic=

> <r_lp_tautomer_probability>
0.999994

> <r_epik_Ionization_Penalty>
1.2404

> <r_epik_Ionization_Penalty_Charging>
1.24038

> <r_epik_Ionization_Penalty_Neutral>
1.86539e-05

> <r_epik_State_Penalty>
1.30821

> <r_epik_Charging_Adjusted_Penalty>
2.54859

> <i_epik_Tot_Q>
2

> <i_epik_Tot_abs_Q>
2

> <r_epik_Metal_State_Penalty>
1.3782

> <b_epik_Metal_Only>
0

> <s_lp_Force_Field>
OPLS_2005

> <r_lp_Energy>
72.5254

> <b_lp_Chiralities_Consistent>
1

> <s_lp_Variant>
AV-unprocessed.smi:2928-7

> <Gold.Version>
5.8.1

> <Gold.Id.Protein>
6NUR|6NUR_protein|mol2

> <Gold.PLP.Fitness>
44.2898

> <Gold.PLP.PLP>
-39.0987

> <Gold.PLP.part.hbond>
-3.0000

> <Gold.PLP.part.metal>
0.0000

> <Gold.PLP.part.buried>
-3.3610

> <Gold.PLP.part.nonpolar>
-32.7540

> <Gold.PLP.part.repulsive>
0.3222

> <Gold.PLP.ligand.clash>
0.0000

> <Gold.PLP.ligand.torsion>
0.2579

> <Gold.PLP.Chemscore.Hbond>
1.7760

> <Gold.PLP.Chemscore.CHOScore>
0.0000

> <Gold.PLP.Chemscore.Metal>
0.0000

> <Gold.Chemscore.Hbonds>
donor molecule, donor type, donor heavy atom, donor atom, acceptor molecule, acceptor atom, score
      L1  H    10    40       P1  7948  0.78
      L1  H    13    41       P1  7948  0.91

> <Gold.PLP.Chemscore.Internal.Correction>
0.3790

> <Gold.Rescore>
     Score         DG    S(hbond)    S(metal)    S(lipo)     H(rot)  DE(clash)    DE(int)     intcor
     14.90     -16.71       1.17        0.00      88.47       1.19       0.05       1.76       ----

> <Gold.Chemscore.Fitness>
14.9020

> <Gold.Chemscore.DG>
-16.7103

> <Gold.Chemscore.ZeroCoef>
-5.4800

> <Gold.Chemscore.Hbond>
1.1739

> <Gold.Chemscore.Metal>
0.0000

> <Gold.Chemscore.Lipo>
88.4667

> <Gold.Chemscore.Internal_Hbond>
0.0000

> <Gold.Chemscore.DEClash>
0.0485

> <Gold.Chemscore.DEInternal>
1.7598

> <Gold.Chemscore.Rot>
1.1879

> <Gold.Chemscore.Internal.Correction>
   9.000000E+99

> <Gold.Chemscore.Hbonds>
donor molecule, donor type, donor heavy atom, donor atom, acceptor molecule, acceptor atom, score
      L1  H    10    40       P1  7948  0.77
      L1  H    13    41       P1  7948  0.35

> <Gold.Chemscore.Hbond.Weighted>
-3.9208

> <Gold.Chemscore.Metal.Weighted>
-0.0000

> <Gold.Chemscore.Lipo.Weighted>
-10.3506

> <Gold.Chemscore.Internal_Hbond.Weighted>
0.0000

> <Gold.Chemscore.DEClash.Weighted>
0.0485

> <Gold.Chemscore.DEInternal.Weighted>
1.7598

> <Gold.Chemscore.Rot.Weighted>
3.0410

> <Gold.Chemscore.Internal.Correction.Weighted>
   9.000000E+99

> <Gold.Protein.RotatedTorsions>
[ 6907 6896 6895 6894 ] final  104.60 input  -60.11 | X-H torsion
[ 7974 7965 7964 7962 ] final  -69.67 input  175.53 | X-H torsion
[ 8008 7997 7996 7995 ] final   90.42 input   59.86 | X-H torsion
[ 10167 10162 10161 10158 ] final  -67.91 input  -65.29 | X-H torsion
[ 10718 10713 10712 10709 ] final   52.06 input   66.30 | X-H torsion
[ 10763 10752 10751 10750 ] final  147.69 input  -60.55 | X-H torsion
[ 11005 11000 10999 10996 ] final  -54.60 input  -57.11 | X-H torsion

> <Gold.Protein.ActiveResidues>
 VAL166  LYS551  ARG553  GLY616  TRP617  ASP618  TYR619  PRO620  LYS621  CYS622 
 ASP623  PHE694  ASN695  SER759  ASP760  ASP761  ALA762  ILE779  LEU786  VAL792 
 PHE793  MET794  SER795  GLU796  ALA797  LYS798  CYS799  TRP800  GLU811  SER814 

> <Gold.Protein.RotatedAtoms>
  152.5259  133.9653  159.7736 H   0  0  0  0  0  0  0  0  0  0  0  0  # atno 6907 bound_to 6896
  150.9936  133.6117  159.2712 H   0  0  0  0  0  0  0  0  0  0  0  0  # atno 6908 bound_to 6896
  151.3252  135.0834  159.9372 H   0  0  0  0  0  0  0  0  0  0  0  0  # atno 6909 bound_to 6896
  145.7008  140.9117  143.0732 H   0  0  0  0  0  0  0  0  0  0  0  0  # atno 7974 bound_to 7965
  156.0117  140.3349  155.6948 H   0  0  0  0  0  0  0  0  0  0  0  0  # atno 8008 bound_to 7997
  155.6148  140.0669  157.2713 H   0  0  0  0  0  0  0  0  0  0  0  0  # atno 8009 bound_to 7997
  154.4284  140.1787  156.1297 H   0  0  0  0  0  0  0  0  0  0  0  0  # atno 8010 bound_to 7997
  140.5547  143.2312  151.6844 H   0  0  0  0  0  0  0  0  0  0  0  0  # atno 10167 bound_to 10162
  157.5040  130.8456  149.8351 H   0  0  0  0  0  0  0  0  0  0  0  0  # atno 10718 bound_to 10713
  154.0425  135.2888  155.3353 H   0  0  0  0  0  0  0  0  0  0  0  0  # atno 10763 bound_to 10752
  154.6920  135.5222  153.8409 H   0  0  0  0  0  0  0  0  0  0  0  0  # atno 10764 bound_to 10752
  153.0594  135.6608  154.0628 H   0  0  0  0  0  0  0  0  0  0  0  0  # atno 10765 bound_to 10752
  141.1034  133.6615  156.4345 H   0  0  0  0  0  0  0  0  0  0  0  0  # atno 11005 bound_to 11000
  144.6969  139.8945  143.7455 LP  0  0  0  0  0  0  0  0  0  0  0  0  # atno 17320 bound_to 7965
  146.0800  139.3787  143.0470 LP  0  0  0  0  0  0  0  0  0  0  0  0  # atno 17321 bound_to 7965
  139.5043  144.3760  152.0423 LP  0  0  0  0  0  0  0  0  0  0  0  0  # atno 17342 bound_to 10162
  140.2881  144.3785  150.6097 LP  0  0  0  0  0  0  0  0  0  0  0  0  # atno 17343 bound_to 10162
  156.0246  130.3783  150.1860 LP  0  0  0  0  0  0  0  0  0  0  0  0  # atno 17370 bound_to 10713
  157.0049  130.9933  151.3381 LP  0  0  0  0  0  0  0  0  0  0  0  0  # atno 17371 bound_to 10713
  140.4965  134.6526  157.5232 LP  0  0  0  0  0  0  0  0  0  0  0  0  # atno 17394 bound_to 11000
  139.9894  134.7010  155.9717 LP  0  0  0  0  0  0  0  0  0  0  0  0  # atno 17395 bound_to 11000

$$$$
