#       Name:                AV-unprocessed.smi:2854
#       Creating user name   scv26
#       Creation time:       Fri Mar 27 15:43:05 2020


#       File generated by GOLD software.
#

@<TRIPOS>MOLECULE
AV-unprocessed.smi:2854
    30    31     1
SMALL
NO_CHARGES


@<TRIPOS>ATOM
      1 ****        -1.7850   1.9944   0.0092 N.pl3          1 S1                 0.0000
      2 ****        -0.3891   2.0406   0.0076 C.ar           1 S1                 0.0000
      3 ****         0.2721   3.2870   0.0070 C.ar           1 S1                 0.0000
      4 ****         1.6154   3.4181   0.0050 N.ar           1 S1                 0.0000
      5 ****         2.3577   2.2913   0.0036 C.ar           1 S1                 0.0000
      6 ****         1.8014   0.9973   0.0042 C.ar           1 S1                 0.0000
      7 ****         0.3945   0.8613   0.0064 C.ar           1 S1                 0.0000
      8 ****        -0.2156  -0.4038   0.0055 N.3            1 S1                 0.0000
      9 ****         0.0182  -1.1611  -1.2173 C.3            1 S1                 0.0000
     10 ****        -0.7912  -2.4690  -1.1873 C.3            1 S1                 0.0000
     11 ****        -0.4593  -3.2095  -0.0158 O.3            1 S1                 0.0000
     12 ****        -0.7625  -2.4893   1.1761 C.3            1 S1                 0.0000
     13 ****         0.0484  -1.1822   1.2087 C.3            1 S1                 0.0000
     14 ****        -2.2870   1.1183   0.0096 H              1 S1                 0.0000
     15 ****        -2.3362   2.8409   0.0148 H              1 S1                 0.0000
     16 ****        -0.2922   4.2084   0.0079 H              1 S1                 0.0000
     17 ****         3.4295   2.4241   0.0015 H              1 S1                 0.0000
     18 ****         2.4466   0.1311   0.0020 H              1 S1                 0.0000
     19 ****        -0.2683  -0.5627  -2.0831 H              1 S1                 0.0000
     20 ****         1.0808  -1.3868  -1.3166 H              1 S1                 0.0000
     21 ****        -1.8628  -2.2641  -1.2092 H              1 S1                 0.0000
     22 ****        -0.5643  -3.0723  -2.0664 H              1 S1                 0.0000
     23 ****        -1.8331  -2.2845   1.2272 H              1 S1                 0.0000
     24 ****        -0.5149  -3.1077   2.0388 H              1 S1                 0.0000
     25 ****         1.1127  -1.4106   1.2781 H              1 S1                 0.0000
     26 ****        -0.2162  -0.5989   2.0916 H              1 S1                 0.0000
     27 ****         2.0463   4.3205   0.0046 LP             1 S1                 0.0000
     28 ****        -1.1965  -0.2102   0.0217 LP             1 S1                 0.0000
     29 ****         0.5196  -3.4133  -0.0294 LP             1 S1                 0.0000
     30 ****        -0.9778  -4.0646  -0.0168 LP             1 S1                 0.0000
@<TRIPOS>BOND
    1    1    2 1     
    2    1   14 1     
    3    1   15 1     
    4    2    7 ar    
    5    2    3 ar    
    6    3    4 ar    
    7    3   16 1     
    8    4    5 ar    
    9    5    6 ar    
   10    5   17 1     
   11    6    7 ar    
   12    6   18 1     
   13    7    8 1     
   14    8   13 1     
   15    8    9 1     
   16    9   10 1     
   17    9   19 1     
   18    9   20 1     
   19   10   11 1     
   20   10   21 1     
   21   10   22 1     
   22   11   12 1     
   23   12   13 1     
   24   12   23 1     
   25   12   24 1     
   26   13   25 1     
   27   13   26 1     
   28    4   27 1     
   29    8   28 1     
   30   11   29 1     
   31   11   30 1     
@<TRIPOS>SUBSTRUCTURE
      1 S1             1
@<TRIPOS>SET
LONE_PAIRS      STATIC     ATOMS    <user>   **** ""
4 27 28 29 30
DONOR_HYDROGENS      STATIC     ATOMS    <user>   **** ""
2 14 15
ATOM$BLUE        STATIC     ATOMS    COLORGROUP SYSTEM
4 27 28 29 30
ATOM$RED        STATIC     ATOMS    COLORGROUP SYSTEM
2 14 15
