AV-unprocessed.smi:174|AV-procd|sdf|1425|dock9
  -GOLD-   2262019203D 1   1.00000     0.00000
 Structure written by MMmdl.
 51 54  0  0  0  0  0  0  0  0  1 V2000
  150.5524  129.8322  154.3004 N   0  0  0  0  0  0  0  0  0  0  0  0
  149.6233  130.7516  154.5836 C   0  0  0  0  0  0  0  0  0  0  0  0
  148.7555  131.0579  153.7695 O   0  0  0  0  0  0  0  0  0  0  0  0
  149.6433  131.4369  155.9614 C   0  0  0  0  0  0  0  0  0  0  0  0
  149.8248  132.8992  155.9322 N   0  0  0  0  0  0  0  0  0  0  0  0
  148.9257  133.6555  155.0537 C   0  0  0  0  0  0  0  0  0  0  0  0
  149.5970  134.9073  154.4803 C   0  0  0  0  0  0  0  0  0  0  0  0
  150.1595  135.7152  155.5553 N   0  0  0  0  0  0  0  0  0  0  0  0
  150.4152  137.0383  155.3527 C   0  0  0  0  0  0  0  0  0  0  0  0
  150.3402  137.5054  154.0776 N   0  0  0  0  0  0  0  0  0  0  0  0
  150.5858  138.7888  153.8020 C   0  0  0  0  0  0  0  0  0  0  0  0
  150.9187  139.7713  154.6388 N   0  0  0  0  0  0  0  0  0  0  0  0
  150.9895  139.3198  155.9228 C   0  0  0  0  0  0  0  0  0  0  0  0
  150.7555  137.9855  156.3684 C   0  0  0  0  0  0  0  0  0  0  0  0
  150.9104  137.9305  157.7511 N   0  0  0  0  0  0  0  0  0  0  0  0
  151.2304  139.1473  158.0955 C   0  0  0  0  0  0  0  0  0  0  0  0
  151.3007  140.0458  157.0577 N   0  0  0  0  0  0  0  0  0  0  0  0
  151.6323  141.4566  157.1475 C   0  0  0  0  0  0  0  0  0  0  0  0
  150.4890  142.2883  157.7597 C   0  0  2  0  0  0  0  0  0  0  0  0
  149.3667  142.3030  156.8974 O   0  0  0  0  0  0  0  0  0  0  0  0
  150.9213  143.7244  158.1190 C   0  0  2  0  0  0  0  0  0  0  0  0
  152.2529  143.8714  158.8599 C   0  0  0  0  0  0  0  0  0  0  0  0
  152.0724  145.2190  159.5225 C   0  0  0  0  0  0  0  0  0  0  0  0
  150.5972  145.1784  159.9142 C   0  0  0  0  0  0  0  0  0  0  0  0
  149.9479  144.3951  158.9159 O   0  0  0  0  0  0  0  0  0  0  0  0
  150.9003  135.0474  156.6380 C   0  0  0  0  0  0  0  0  0  0  0  0
  150.7365  133.5181  156.7218 C   0  0  0  0  0  0  0  0  0  0  0  0
  151.4557  132.9039  157.5099 O   0  0  0  0  0  0  0  0  0  0  0  0
  150.5520  129.3824  153.3964 H   0  0  0  0  0  0  0  0  0  0  0  0
  151.2543  129.5960  154.9865 H   0  0  0  0  0  0  0  0  0  0  0  0
  148.7206  131.1814  156.4855 H   0  0  0  0  0  0  0  0  0  0  0  0
  150.4354  130.9758  156.5521 H   0  0  0  0  0  0  0  0  0  0  0  0
  148.5671  133.0358  154.2313 H   0  0  0  0  0  0  0  0  0  0  0  0
  148.0453  133.9409  155.6311 H   0  0  0  0  0  0  0  0  0  0  0  0
  150.3890  134.6274  153.7840 H   0  0  0  0  0  0  0  0  0  0  0  0
  148.8479  135.4720  153.9243 H   0  0  0  0  0  0  0  0  0  0  0  0
  150.5040  139.0672  152.7617 H   0  0  0  0  0  0  0  0  0  0  0  0
  151.4274  139.4240  159.1211 H   0  0  0  0  0  0  0  0  0  0  0  0
  152.5365  141.5568  157.7490 H   0  0  0  0  0  0  0  0  0  0  0  0
  151.8794  141.8197  156.1490 H   0  0  0  0  0  0  0  0  0  0  0  0
  150.1635  141.8019  158.6802 H   0  0  0  0  0  0  0  0  0  0  0  0
  149.4907  142.9860  156.2563 H   0  0  0  0  0  0  0  0  0  0  0  0
  150.9932  144.2993  157.1942 H   0  0  0  0  0  0  0  0  0  0  0  0
  152.3769  143.1040  159.6245 H   0  0  0  0  0  0  0  0  0  0  0  0
  153.1156  143.8330  158.1944 H   0  0  0  0  0  0  0  0  0  0  0  0
  152.7356  145.3729  160.3741 H   0  0  0  0  0  0  0  0  0  0  0  0
  152.2486  146.0187  158.8017 H   0  0  0  0  0  0  0  0  0  0  0  0
  150.4750  144.6800  160.8769 H   0  0  0  0  0  0  0  0  0  0  0  0
  150.1581  146.1736  159.9898 H   0  0  0  0  0  0  0  0  0  0  0  0
  151.9635  135.2715  156.5351 H   0  0  0  0  0  0  0  0  0  0  0  0
  150.5795  135.4533  157.5984 H   0  0  0  0  0  0  0  0  0  0  0  0
  1  2  1  0  0  0  0
  1 29  1  0  0  0  0
  1 30  1  0  0  0  0
  2  3  2  0  0  0  0
  2  4  1  0  0  0  0
  4  5  1  0  0  0  0
  4 31  1  0  0  0  0
  4 32  1  0  0  0  0
  5 27  1  0  0  0  0
  5  6  1  0  0  0  0
  6  7  1  0  0  0  0
  6 33  1  0  0  0  0
  6 34  1  0  0  0  0
  7  8  1  0  0  0  0
  7 35  1  0  0  0  0
  7 36  1  0  0  0  0
  8  9  1  0  0  0  0
  8 26  1  0  0  0  0
  9 14  1  0  0  0  0
  9 10  2  0  0  0  0
 10 11  1  0  0  0  0
 11 12  2  0  0  0  0
 11 37  1  0  0  0  0
 12 13  1  0  0  0  0
 13 17  1  0  0  0  0
 13 14  2  0  0  0  0
 14 15  1  0  0  0  0
 15 16  2  0  0  0  0
 16 17  1  0  0  0  0
 16 38  1  0  0  0  0
 17 18  1  0  0  0  0
 18 19  1  0  0  0  0
 18 39  1  0  0  0  0
 18 40  1  0  0  0  0
 19 20  1  0  0  0  0
 19 21  1  0  0  0  0
 19 41  1  0  0  0  0
 20 42  1  0  0  0  0
 21 25  1  0  0  0  0
 21 22  1  0  0  0  0
 21 43  1  0  0  0  0
 22 23  1  0  0  0  0
 22 44  1  0  0  0  0
 22 45  1  0  0  0  0
 23 24  1  0  0  0  0
 23 46  1  0  0  0  0
 23 47  1  0  0  0  0
 24 25  1  0  0  0  0
 24 48  1  0  0  0  0
 24 49  1  0  0  0  0
 26 27  1  0  0  0  0
 26 50  1  0  0  0  0
 26 51  1  0  0  0  0
 27 28  2  0  0  0  0
M  END
> <s_m_source_file>
AV-unprocessed.smi

> <i_m_source_file_index>
174

> <i_lp_mmshare_version>
43012

> <i_f3d_flags>
0

> <s_epik_input>
W05IMl1DKD1PKVtDSDJdTjFbQ0gyXVtDSDJdTihbQ0gyXUMxPU8pYyhuW2NIXW4yKWMoYzIzKW5bY0hdbjNbQ0gyXVtDQEhdKFtPSF0pW0NAQEhdNFtDSDJdW0NIMl1bQ0gyXU80

> <s_epik_cmdline>
J2VwaWtfcHl0aG9uJywgJy1waCcsICc3LjAnLCAnLXRuJywgJzgnLCAnLW1hJywgJzIwMCcsICctbWV0YWxfYmluZGluZycsICctaW1hZScsICc8aW5maWxlLm1hZT4nLCAnLW9tYWUnLCAnPG91dGZpbGUubWFlPic=

> <r_lp_tautomer_probability>
1

> <r_epik_Ionization_Penalty>
0.000250477

> <r_epik_Ionization_Penalty_Charging>
0

> <r_epik_Ionization_Penalty_Neutral>
0.000250477

> <r_epik_State_Penalty>
-0

> <r_epik_Charging_Adjusted_Penalty>
0

> <i_epik_Tot_Q>
0

> <i_epik_Tot_abs_Q>
0

> <r_epik_Metal_State_Penalty>
-0

> <b_epik_Metal_Only>
0

> <s_lp_Force_Field>
OPLS_2005

> <r_lp_Energy>
38.8972

> <b_lp_Chiralities_Consistent>
1

> <s_lp_Variant>
AV-unprocessed.smi:174-1

> <Gold.Version>
5.8.1

> <Gold.Id.Protein>
6NUR|6NUR_protein|mol2

> <Gold.PLP.Fitness>
50.8486

> <Gold.PLP.PLP>
-40.5248

> <Gold.PLP.part.hbond>
-3.0000

> <Gold.PLP.part.metal>
0.0000

> <Gold.PLP.part.buried>
-5.9263

> <Gold.PLP.part.nonpolar>
-34.0807

> <Gold.PLP.part.repulsive>
1.9854

> <Gold.PLP.ligand.clash>
0.0000

> <Gold.PLP.ligand.torsion>
0.6586

> <Gold.PLP.Chemscore.Hbond>
2.7913

> <Gold.PLP.Chemscore.CHOScore>
1.0000

> <Gold.PLP.Chemscore.Metal>
0.0000

> <Gold.Chemscore.Hbonds>
donor molecule, donor type, donor heavy atom, donor atom, acceptor molecule, acceptor atom, score
      L1  H    20    42       P1  8028  0.90
      P1  H  6896  6907       L1    28  0.93
      P1  H  7989  7998       L1    12  0.95
      L1  C    11    37       P1  7957  1.00

> <Gold.PLP.Chemscore.Internal.Correction>
0.2672

> <Gold.Rescore>
     Score         DG    S(hbond)    S(metal)    S(lipo)     H(rot)  DE(clash)    DE(int)     intcor
     10.00     -14.61       2.53        0.00      81.53       3.46       2.00       2.60       ----

> <Gold.Chemscore.Fitness>
9.9982

> <Gold.Chemscore.DG>
-14.6051

> <Gold.Chemscore.ZeroCoef>
-5.4800

> <Gold.Chemscore.Hbond>
2.5273

> <Gold.Chemscore.Metal>
0.0000

> <Gold.Chemscore.Lipo>
81.5327

> <Gold.Chemscore.Internal_Hbond>
0.0000

> <Gold.Chemscore.DEClash>
2.0045

> <Gold.Chemscore.DEInternal>
2.6024

> <Gold.Chemscore.Rot>
3.4591

> <Gold.Chemscore.Internal.Correction>
   9.000000E+99

> <Gold.Chemscore.Hbonds>
donor molecule, donor type, donor heavy atom, donor atom, acceptor molecule, acceptor atom, score
      L1  H    20    42       P1  8028  0.88
      P1  H  6896  6907       L1    28  0.88
      P1  H  7989  7998       L1    12  0.22

> <Gold.Chemscore.Hbond.Weighted>
-8.4411

> <Gold.Chemscore.Metal.Weighted>
-0.0000

> <Gold.Chemscore.Lipo.Weighted>
-9.5393

> <Gold.Chemscore.Internal_Hbond.Weighted>
0.0000

> <Gold.Chemscore.DEClash.Weighted>
2.0045

> <Gold.Chemscore.DEInternal.Weighted>
2.6024

> <Gold.Chemscore.Rot.Weighted>
8.8553

> <Gold.Chemscore.Internal.Correction.Weighted>
   9.000000E+99

> <Gold.Protein.RotatedTorsions>
[ 6907 6896 6895 6894 ] final -170.33 input  -60.11 | X-H torsion
[ 7974 7965 7964 7962 ] final  -88.16 input  175.53 | X-H torsion
[ 8008 7997 7996 7995 ] final  -65.48 input   59.86 | X-H torsion
[ 10167 10162 10161 10158 ] final -125.25 input  -65.29 | X-H torsion
[ 10718 10713 10712 10709 ] final  -43.14 input   66.30 | X-H torsion
[ 10763 10752 10751 10750 ] final   46.51 input  -60.55 | X-H torsion
[ 11005 11000 10999 10996 ] final   43.79 input  -57.11 | X-H torsion

> <Gold.Protein.ActiveResidues>
 VAL166  LYS551  ARG553  GLY616  TRP617  ASP618  TYR619  PRO620  LYS621  CYS622 
 ASP623  PHE694  ASN695  SER759  ASP760  ASP761  ALA762  ILE779  LEU786  VAL792 
 PHE793  MET794  SER795  GLU796  ALA797  LYS798  CYS799  TRP800  GLU811  SER814 

> <Gold.Protein.RotatedAtoms>
  151.5059  133.3494  159.2876 H   0  0  0  0  0  0  0  0  0  0  0  0  # atno 6907 bound_to 6896
  150.8743  134.8125  159.7189 H   0  0  0  0  0  0  0  0  0  0  0  0  # atno 6908 bound_to 6896
  152.4720  134.4948  159.9758 H   0  0  0  0  0  0  0  0  0  0  0  0  # atno 6909 bound_to 6896
  145.4568  140.9561  143.1992 H   0  0  0  0  0  0  0  0  0  0  0  0  # atno 7974 bound_to 7965
  154.4674  140.0932  156.7057 H   0  0  0  0  0  0  0  0  0  0  0  0  # atno 8008 bound_to 7997
  155.4818  140.3468  155.4323 H   0  0  0  0  0  0  0  0  0  0  0  0  # atno 8009 bound_to 7997
  156.0981  140.1415  156.9493 H   0  0  0  0  0  0  0  0  0  0  0  0  # atno 8010 bound_to 7997
  139.9841  143.5711  152.2367 H   0  0  0  0  0  0  0  0  0  0  0  0  # atno 10167 bound_to 10162
  156.2521  130.4189  149.8637 H   0  0  0  0  0  0  0  0  0  0  0  0  # atno 10718 bound_to 10713
  152.9810  135.6006  154.3612 H   0  0  0  0  0  0  0  0  0  0  0  0  # atno 10763 bound_to 10752
  154.3293  135.2769  155.2482 H   0  0  0  0  0  0  0  0  0  0  0  0  # atno 10764 bound_to 10752
  154.4613  135.5965  153.6313 H   0  0  0  0  0  0  0  0  0  0  0  0  # atno 10765 bound_to 10752
  140.1612  134.4339  155.8317 H   0  0  0  0  0  0  0  0  0  0  0  0  # atno 11005 bound_to 11000
  144.8027  139.6110  143.7064 LP  0  0  0  0  0  0  0  0  0  0  0  0  # atno 17320 bound_to 7965
  146.2473  139.6126  142.9451 LP  0  0  0  0  0  0  0  0  0  0  0  0  # atno 17321 bound_to 7965
  139.6388  144.7652  151.2381 LP  0  0  0  0  0  0  0  0  0  0  0  0  # atno 17342 bound_to 10162
  140.7479  143.6352  150.8386 LP  0  0  0  0  0  0  0  0  0  0  0  0  # atno 17343 bound_to 10162
  156.6182  130.8615  151.3469 LP  0  0  0  0  0  0  0  0  0  0  0  0  # atno 17370 bound_to 10713
  157.7218  130.9569  150.1471 LP  0  0  0  0  0  0  0  0  0  0  0  0  # atno 17371 bound_to 10713
  141.2209  133.6914  156.7597 LP  0  0  0  0  0  0  0  0  0  0  0  0  # atno 17394 bound_to 11000
  140.2488  134.8557  157.3647 LP  0  0  0  0  0  0  0  0  0  0  0  0  # atno 17395 bound_to 11000

$$$$
