AV-unprocessed.smi:1389|AV-procd|sdf|5655|dock6
  -GOLD-   22720 5283D 1   1.00000     0.00000
 Structure written by MMmdl.
 52 54  0  0  0  0  0  0  0  0  4 V2000
  148.4675  140.8227  154.7834 C   0  0  0  0  0  0  0  0  0  0  0  0
  147.2032  140.5580  153.9318 C   0  0  1  0  0  0  0  0  0  0  0  0
  146.9325  139.0491  153.6806 C   0  0  0  0  0  0  0  0  0  0  0  0
  147.0333  138.7331  152.2518 N   0  5  0  0  0  0  0  0  0  0  0  0
  146.5592  137.5973  151.6734 C   0  0  0  0  0  0  0  0  0  0  0  0
  146.2403  137.4275  150.4911 O   0  0  0  0  0  0  0  0  0  0  0  0
  146.4621  136.5849  152.5516 N   0  0  0  0  0  0  0  0  0  0  0  0
  146.0942  135.2345  152.2985 C   0  0  0  0  0  0  0  0  0  0  0  0
  146.1622  134.6949  150.9892 C   0  0  0  0  0  0  0  0  0  0  0  0
  145.7237  133.3792  150.7486 C   0  0  0  0  0  0  0  0  0  0  0  0
  145.2058  132.6294  151.8188 C   0  0  0  0  0  0  0  0  0  0  0  0
  145.1401  133.1772  153.0500 N   0  3  0  0  0  0  0  0  0  0  0  0
  145.5610  134.4322  153.3477 C   0  0  0  0  0  0  0  0  0  0  0  0
  145.4436  134.8704  154.6864 N   0  0  0  0  0  0  0  0  0  0  0  0
  144.1322  135.1462  155.2617 C   0  0  0  0  0  0  0  0  0  0  0  0
  144.3679  135.2198  156.7678 C   0  0  0  0  0  0  0  0  0  0  0  0
  145.4627  134.1783  156.9793 C   0  0  0  0  0  0  0  0  0  0  0  0
  146.3052  134.2741  155.7032 C   0  0  0  0  0  0  0  0  0  0  0  0
  145.9824  141.2448  154.4592 N   0  3  0  0  0  0  0  0  0  0  0  0
  145.4832  140.7982  155.7887 C   0  0  0  0  0  0  0  0  0  0  0  0
  144.1346  141.4688  156.0939 C   0  0  0  0  0  0  0  0  0  0  0  0
  144.2893  142.8826  156.0546 O   0  0  0  0  0  0  0  0  0  0  0  0
  144.6987  143.3397  154.7711 C   0  0  0  0  0  0  0  0  0  0  0  0
  146.0606  142.7249  154.4068 C   0  0  0  0  0  0  0  0  0  0  0  0
  149.3662  140.4304  154.3035 H   0  0  0  0  0  0  0  0  0  0  0  0
  148.4099  140.3761  155.7777 H   0  0  0  0  0  0  0  0  0  0  0  0
  148.6277  141.8931  154.9151 H   0  0  0  0  0  0  0  0  0  0  0  0
  147.4154  140.9847  152.9501 H   0  0  0  0  0  0  0  0  0  0  0  0
  147.6249  138.4555  154.2789 H   0  0  0  0  0  0  0  0  0  0  0  0
  145.9413  138.8024  154.0615 H   0  0  0  0  0  0  0  0  0  0  0  0
  146.8320  136.7733  153.4719 H   0  0  0  0  0  0  0  0  0  0  0  0
  146.5273  135.2831  150.1606 H   0  0  0  0  0  0  0  0  0  0  0  0
  145.7727  132.9574  149.7554 H   0  0  0  0  0  0  0  0  0  0  0  0
  144.8403  131.6168  151.7286 H   0  0  0  0  0  0  0  0  0  0  0  0
  143.7132  136.0743  154.8716 H   0  0  0  0  0  0  0  0  0  0  0  0
  143.4386  134.3340  155.0399 H   0  0  0  0  0  0  0  0  0  0  0  0
  144.7384  136.2089  157.0411 H   0  0  0  0  0  0  0  0  0  0  0  0
  143.4677  135.0202  157.3498 H   0  0  0  0  0  0  0  0  0  0  0  0
  146.0450  134.3482  157.8853 H   0  0  0  0  0  0  0  0  0  0  0  0
  145.0141  133.1863  157.0492 H   0  0  0  0  0  0  0  0  0  0  0  0
  146.6830  133.2956  155.4032 H   0  0  0  0  0  0  0  0  0  0  0  0
  147.1596  134.9316  155.8686 H   0  0  0  0  0  0  0  0  0  0  0  0
  145.3640  139.7146  155.8096 H   0  0  0  0  0  0  0  0  0  0  0  0
  146.1991  141.0601  156.5686 H   0  0  0  0  0  0  0  0  0  0  0  0
  143.3705  141.1520  155.3820 H   0  0  0  0  0  0  0  0  0  0  0  0
  143.7869  141.1793  157.0856 H   0  0  0  0  0  0  0  0  0  0  0  0
  143.9450  143.0834  154.0247 H   0  0  0  0  0  0  0  0  0  0  0  0
  144.7706  144.4273  154.7898 H   0  0  0  0  0  0  0  0  0  0  0  0
  146.8327  143.0780  155.0917 H   0  0  0  0  0  0  0  0  0  0  0  0
  146.3436  143.0497  153.4046 H   0  0  0  0  0  0  0  0  0  0  0  0
  145.2631  140.9961  153.7936 H   0  0  0  0  0  0  0  0  0  0  0  0
  144.7582  132.6088  153.8058 H   0  0  0  0  0  0  0  0  0  0  0  0
  1  2  1  0  0  0  0
  1 25  1  0  0  0  0
  1 26  1  0  0  0  0
  1 27  1  0  0  0  0
  2  3  1  0  0  0  0
  2 19  1  0  0  0  0
  2 28  1  0  0  0  0
  3  4  1  0  0  0  0
  3 29  1  0  0  0  0
  3 30  1  0  0  0  0
  4  5  1  0  0  0  0
  5  6  2  0  0  0  0
  5  7  1  0  0  0  0
  7  8  1  0  0  0  0
  7 31  1  0  0  0  0
  8 13  1  0  0  0  0
  8  9  2  0  0  0  0
  9 10  1  0  0  0  0
  9 32  1  0  0  0  0
 10 11  2  0  0  0  0
 10 33  1  0  0  0  0
 11 12  1  0  0  0  0
 11 34  1  0  0  0  0
 12 13  2  0  0  0  0
 12 52  1  0  0  0  0
 13 14  1  0  0  0  0
 14 18  1  0  0  0  0
 14 15  1  0  0  0  0
 15 16  1  0  0  0  0
 15 35  1  0  0  0  0
 15 36  1  0  0  0  0
 16 17  1  0  0  0  0
 16 37  1  0  0  0  0
 16 38  1  0  0  0  0
 17 18  1  0  0  0  0
 17 39  1  0  0  0  0
 17 40  1  0  0  0  0
 18 41  1  0  0  0  0
 18 42  1  0  0  0  0
 19 24  1  0  0  0  0
 19 20  1  0  0  0  0
 19 51  1  0  0  0  0
 20 21  1  0  0  0  0
 20 43  1  0  0  0  0
 20 44  1  0  0  0  0
 21 22  1  0  0  0  0
 21 45  1  0  0  0  0
 21 46  1  0  0  0  0
 22 23  1  0  0  0  0
 23 24  1  0  0  0  0
 23 47  1  0  0  0  0
 23 48  1  0  0  0  0
 24 49  1  0  0  0  0
 24 50  1  0  0  0  0
M  CHG  1   4  -1
M  CHG  1  12   1
M  CHG  1  19   1
M  END
> <s_m_source_file>
AV-unprocessed.smi

> <i_m_source_file_index>
1389

> <i_lp_mmshare_version>
43012

> <i_f3d_flags>
0

> <s_epik_input>
W0NIMl0xW0NIMl1PW0NIMl1bQ0gyXU4xW0NASF0oW0NIM10pW0NIMl1bTkhdQyg9TylbTkhdYzJbY0hdW2NIXVtjSF1uYzJOM1tDSDJdW0NIMl1bQ0gyXVtDSDJdMw==

> <s_epik_cmdline>
J2VwaWtfcHl0aG9uJywgJy1waCcsICc3LjAnLCAnLXRuJywgJzgnLCAnLW1hJywgJzIwMCcsICctbWV0YWxfYmluZGluZycsICctaW1hZScsICc8aW5maWxlLm1hZT4nLCAnLW9tYWUnLCAnPG91dGZpbGUubWFlPic=

> <r_lp_tautomer_probability>
0.999994

> <r_epik_Ionization_Penalty>
8.58362

> <r_epik_Ionization_Penalty_Charging>
8.58361

> <r_epik_Ionization_Penalty_Neutral>
3.55275e-06

> <r_epik_State_Penalty>
8.57766

> <r_epik_Charging_Adjusted_Penalty>
17.1613

> <i_epik_Tot_Q>
1

> <i_epik_Tot_abs_Q>
3

> <r_epik_Metal_State_Penalty>
4.57399

> <b_epik_Metal_Only>
1

> <s_lp_Force_Field>
OPLS_2005

> <r_lp_Energy>
47.3553

> <b_lp_Chiralities_Consistent>
1

> <s_lp_Variant>
AV-unprocessed.smi:1389-10

> <Gold.Version>
5.8.1

> <Gold.Id.Protein>
6NUR|6NUR_protein|mol2

> <Gold.PLP.Fitness>
38.0405

> <Gold.PLP.PLP>
-25.9464

> <Gold.PLP.part.hbond>
-4.0000

> <Gold.PLP.part.metal>
0.0000

> <Gold.PLP.part.buried>
-6.0014

> <Gold.PLP.part.nonpolar>
-22.4885

> <Gold.PLP.part.repulsive>
3.7719

> <Gold.PLP.ligand.clash>
0.0000

> <Gold.PLP.ligand.torsion>
1.3239

> <Gold.PLP.Chemscore.Hbond>
4.6865

> <Gold.PLP.Chemscore.CHOScore>
0.0000

> <Gold.PLP.Chemscore.Metal>
0.0000

> <Gold.Chemscore.Hbonds>
donor molecule, donor type, donor heavy atom, donor atom, acceptor molecule, acceptor atom, score
      L1  H    19    51       P1 10175  1.59
      P1  H  7954  7966       L1     6  0.46

> <Gold.PLP.Chemscore.Internal.Correction>
0.6825

> <Gold.Rescore>
     Score         DG    S(hbond)    S(metal)    S(lipo)     H(rot)  DE(clash)    DE(int)     intcor
      8.99     -14.02       1.75        0.00      58.62       1.63       2.21       2.82       ----

> <Gold.Chemscore.Fitness>
8.9895

> <Gold.Chemscore.DG>
-14.0211

> <Gold.Chemscore.ZeroCoef>
-5.4800

> <Gold.Chemscore.Hbond>
1.7538

> <Gold.Chemscore.Metal>
0.0000

> <Gold.Chemscore.Lipo>
58.6156

> <Gold.Chemscore.Internal_Hbond>
0.0000

> <Gold.Chemscore.DEClash>
2.2067

> <Gold.Chemscore.DEInternal>
2.8249

> <Gold.Chemscore.Rot>
1.6307

> <Gold.Chemscore.Internal.Correction>
   9.000000E+99

> <Gold.Chemscore.Hbonds>
donor molecule, donor type, donor heavy atom, donor atom, acceptor molecule, acceptor atom, score
      L1  H    12    52       P1 10957  0.02
      L1  H    19    51       P1 10175  0.62
      P1  H  7954  7966       L1     6  0.02

> <Gold.Chemscore.Hbond.Weighted>
-5.8576

> <Gold.Chemscore.Metal.Weighted>
-0.0000

> <Gold.Chemscore.Lipo.Weighted>
-6.8580

> <Gold.Chemscore.Internal_Hbond.Weighted>
0.0000

> <Gold.Chemscore.DEClash.Weighted>
2.2067

> <Gold.Chemscore.DEInternal.Weighted>
2.8249

> <Gold.Chemscore.Rot.Weighted>
4.1746

> <Gold.Chemscore.Internal.Correction.Weighted>
   9.000000E+99

> <Gold.Protein.RotatedTorsions>
[ 6907 6896 6895 6894 ] final  -14.74 input  -60.11 | X-H torsion
[ 7974 7965 7964 7962 ] final  -90.24 input  175.53 | X-H torsion
[ 8008 7997 7996 7995 ] final   -5.30 input   59.86 | X-H torsion
[ 10167 10162 10161 10158 ] final   55.79 input  -65.29 | X-H torsion
[ 10718 10713 10712 10709 ] final   41.95 input   66.30 | X-H torsion
[ 10763 10752 10751 10750 ] final  135.06 input  -60.55 | X-H torsion
[ 11005 11000 10999 10996 ] final -159.75 input  -57.11 | X-H torsion

> <Gold.Protein.ActiveResidues>
 VAL166  LYS551  ARG553  GLY616  TRP617  ASP618  TYR619  PRO620  LYS621  CYS622 
 ASP623  PHE694  ASN695  SER759  ASP760  ASP761  ALA762  ILE779  LEU786  VAL792 
 PHE793  MET794  SER795  GLU796  ALA797  LYS798  CYS799  TRP800  GLU811  SER814 

> <Gold.Protein.RotatedAtoms>
  151.3347  135.0850  159.9350 H   0  0  0  0  0  0  0  0  0  0  0  0  # atno 6907 bound_to 6896
  152.5226  133.9508  159.7681 H   0  0  0  0  0  0  0  0  0  0  0  0  # atno 6908 bound_to 6896
  150.9853  133.6151  159.2746 H   0  0  0  0  0  0  0  0  0  0  0  0  # atno 6909 bound_to 6896
  145.4290  140.9555  143.2138 H   0  0  0  0  0  0  0  0  0  0  0  0  # atno 7974 bound_to 7965
  154.6053  140.2462  155.7738 H   0  0  0  0  0  0  0  0  0  0  0  0  # atno 8008 bound_to 7997
  156.2337  140.2957  156.0207 H   0  0  0  0  0  0  0  0  0  0  0  0  # atno 8009 bound_to 7997
  155.2142  140.0398  157.2928 H   0  0  0  0  0  0  0  0  0  0  0  0  # atno 8010 bound_to 7997
  140.2157  144.3842  150.6471 H   0  0  0  0  0  0  0  0  0  0  0  0  # atno 10167 bound_to 10162
  157.3993  130.7851  149.7335 H   0  0  0  0  0  0  0  0  0  0  0  0  # atno 10718 bound_to 10713
  153.8338  135.3100  155.3421 H   0  0  0  0  0  0  0  0  0  0  0  0  # atno 10763 bound_to 10752
  154.7962  135.4754  154.0169 H   0  0  0  0  0  0  0  0  0  0  0  0  # atno 10764 bound_to 10752
  153.1618  135.6862  153.8823 H   0  0  0  0  0  0  0  0  0  0  0  0  # atno 10765 bound_to 10752
  140.6391  134.4570  157.5233 H   0  0  0  0  0  0  0  0  0  0  0  0  # atno 11005 bound_to 11000
  144.8195  139.5817  143.6993 LP  0  0  0  0  0  0  0  0  0  0  0  0  # atno 17320 bound_to 7965
  146.2617  139.6425  142.9357 LP  0  0  0  0  0  0  0  0  0  0  0  0  # atno 17321 bound_to 7965
  140.6291  143.2185  151.6533 LP  0  0  0  0  0  0  0  0  0  0  0  0  # atno 17342 bound_to 10162
  139.5163  144.3351  152.0791 LP  0  0  0  0  0  0  0  0  0  0  0  0  # atno 17343 bound_to 10162
  155.9819  130.4015  150.3447 LP  0  0  0  0  0  0  0  0  0  0  0  0  # atno 17370 bound_to 10713
  157.1573  131.0336  151.2857 LP  0  0  0  0  0  0  0  0  0  0  0  0  # atno 17371 bound_to 10713
  139.9087  134.8392  156.1609 LP  0  0  0  0  0  0  0  0  0  0  0  0  # atno 17394 bound_to 11000
  141.0620  133.6837  156.1970 LP  0  0  0  0  0  0  0  0  0  0  0  0  # atno 17395 bound_to 11000

$$$$
