AV-unprocessed.smi:1401|AV-procd|sdf|5690|dock7
  -GOLD-   22720 5313D 1   1.00000     0.00000
 Structure written by MMmdl.
 48 50  0  0  0  0  0  0  0  0  1 V2000
  148.5890  139.6875  154.1235 C   0  0  0  0  0  0  0  0  0  0  0  0
  149.6440  138.8473  154.7912 C   0  0  0  0  0  0  0  0  0  0  0  0
  149.6338  137.5828  154.5241 N   0  0  0  0  0  0  0  0  0  0  0  0
  150.5535  136.7207  155.0893 N   0  0  0  0  0  0  0  0  0  0  0  0
  150.3825  135.3159  154.6912 C   0  0  0  0  0  0  0  0  0  0  0  0
  148.9715  134.7752  154.9640 C   0  0  0  0  0  0  0  0  0  0  0  0
  148.6080  134.5110  156.1110 O   0  0  0  0  0  0  0  0  0  0  0  0
  148.1791  134.6358  153.8903 N   0  0  0  0  0  0  0  0  0  0  0  0
  146.7945  134.1687  153.9105 C   0  0  2  0  0  0  0  0  0  0  0  0
  146.7390  132.7783  154.5697 C   0  0  0  0  0  0  0  0  0  0  0  0
  146.2219  134.1581  152.4720 C   0  0  1  0  0  0  0  0  0  0  0  0
  147.0594  133.3178  151.4771 C   0  0  0  0  0  0  0  0  0  0  0  0
  146.0257  132.3562  150.8645 C   0  0  2  0  0  0  0  0  0  0  0  0
  145.0565  133.1443  149.9649 C   0  0  0  0  0  0  0  0  0  0  0  0
  144.2037  133.9196  150.9864 C   0  0  0  0  0  0  0  0  0  0  0  0
  144.8231  133.5015  152.3339 C   0  0  1  0  0  0  0  0  0  0  0  0
  145.1542  132.0360  152.0714 C   0  0  0  0  0  0  0  0  0  0  0  0
  151.5393  137.0951  155.9548 C   0  0  0  0  0  0  0  0  0  0  0  0
  152.3377  136.2905  156.4375 O   0  0  0  0  0  0  0  0  0  0  0  0
  151.5488  138.5301  156.2479 C   0  0  0  0  0  0  0  0  0  0  0  0
  152.5672  138.9656  157.1482 C   0  0  0  0  0  0  0  0  0  0  0  0
  153.3976  139.3346  157.8653 N   0  0  0  0  0  0  0  0  0  0  0  0
  150.6499  139.3863  155.7007 C   0  0  0  0  0  0  0  0  0  0  0  0
  150.6159  140.8838  155.9735 C   0  0  0  0  0  0  0  0  0  0  0  0
  149.0443  140.4255  153.4625 H   0  0  0  0  0  0  0  0  0  0  0  0
  147.9902  140.2185  154.8638 H   0  0  0  0  0  0  0  0  0  0  0  0
  147.9067  139.0833  153.5236 H   0  0  0  0  0  0  0  0  0  0  0  0
  150.5865  135.1992  153.6252 H   0  0  0  0  0  0  0  0  0  0  0  0
  151.1196  134.6903  155.1986 H   0  0  0  0  0  0  0  0  0  0  0  0
  148.5609  134.8793  152.9878 H   0  0  0  0  0  0  0  0  0  0  0  0
  146.2001  134.8590  154.5119 H   0  0  0  0  0  0  0  0  0  0  0  0
  145.7169  132.4070  154.6403 H   0  0  0  0  0  0  0  0  0  0  0  0
  147.1408  132.8056  155.5830 H   0  0  0  0  0  0  0  0  0  0  0  0
  147.3180  132.0478  154.0036 H   0  0  0  0  0  0  0  0  0  0  0  0
  146.1688  135.1915  152.1249 H   0  0  0  0  0  0  0  0  0  0  0  0
  147.5507  133.9351  150.7242 H   0  0  0  0  0  0  0  0  0  0  0  0
  147.8336  132.7448  151.9888 H   0  0  0  0  0  0  0  0  0  0  0  0
  146.4710  131.4896  150.3749 H   0  0  0  0  0  0  0  0  0  0  0  0
  145.5805  133.8044  149.2727 H   0  0  0  0  0  0  0  0  0  0  0  0
  144.4323  132.4693  149.3779 H   0  0  0  0  0  0  0  0  0  0  0  0
  144.2366  134.9979  150.8260 H   0  0  0  0  0  0  0  0  0  0  0  0
  143.1604  133.6070  150.9273 H   0  0  0  0  0  0  0  0  0  0  0  0
  144.1522  133.6721  153.1757 H   0  0  0  0  0  0  0  0  0  0  0  0
  144.2791  131.4320  151.8250 H   0  0  0  0  0  0  0  0  0  0  0  0
  145.6990  131.5576  152.8870 H   0  0  0  0  0  0  0  0  0  0  0  0
  151.4179  141.2012  156.6394 H   0  0  0  0  0  0  0  0  0  0  0  0
  149.6717  141.1655  156.4403 H   0  0  0  0  0  0  0  0  0  0  0  0
  150.7214  141.4453  155.0449 H   0  0  0  0  0  0  0  0  0  0  0  0
  1  2  1  0  0  0  0
  1 25  1  0  0  0  0
  1 26  1  0  0  0  0
  1 27  1  0  0  0  0
  2 23  1  0  0  0  0
  2  3  2  0  0  0  0
  3  4  1  0  0  0  0
  4  5  1  0  0  0  0
  4 18  1  0  0  0  0
  5  6  1  0  0  0  0
  5 28  1  0  0  0  0
  5 29  1  0  0  0  0
  6  7  2  0  0  0  0
  6  8  1  0  0  0  0
  8  9  1  0  0  0  0
  8 30  1  0  0  0  0
  9 10  1  0  0  0  0
  9 11  1  0  0  0  0
  9 31  1  0  0  0  0
 10 32  1  0  0  0  0
 10 33  1  0  0  0  0
 10 34  1  0  0  0  0
 11 16  1  0  0  0  0
 11 12  1  0  0  0  0
 11 35  1  0  0  0  0
 12 13  1  0  0  0  0
 12 36  1  0  0  0  0
 12 37  1  0  0  0  0
 13 17  1  0  0  0  0
 13 14  1  0  0  0  0
 13 38  1  0  0  0  0
 14 15  1  0  0  0  0
 14 39  1  0  0  0  0
 14 40  1  0  0  0  0
 15 16  1  0  0  0  0
 15 41  1  0  0  0  0
 15 42  1  0  0  0  0
 16 17  1  0  0  0  0
 16 43  1  0  0  0  0
 17 44  1  0  0  0  0
 17 45  1  0  0  0  0
 18 19  2  0  0  0  0
 18 20  1  0  0  0  0
 20 21  1  0  0  0  0
 20 23  2  0  0  0  0
 21 22  3  0  0  0  0
 23 24  1  0  0  0  0
 24 46  1  0  0  0  0
 24 47  1  0  0  0  0
 24 48  1  0  0  0  0
M  END
> <s_m_source_file>
AV-unprocessed.smi

> <i_m_source_file_index>
1401

> <i_lp_mmshare_version>
43012

> <i_f3d_flags>
0

> <s_epik_input>
TiNDYyhjMVtDSDNdKWMoPU8pbihuYzFbQ0gzXSlbQ0gyXUMoPU8pW05IXVtDQEhdKFtDSDNdKVtDQEhdKFtDSDJdW0NASF0yMylbQ0BIXShbQ0gyXTMpW0NIMl1bQ0gyXTI=

> <s_epik_cmdline>
J2VwaWtfcHl0aG9uJywgJy1waCcsICc3LjAnLCAnLXRuJywgJzgnLCAnLW1hJywgJzIwMCcsICctbWV0YWxfYmluZGluZycsICctaW1hZScsICc8aW5maWxlLm1hZT4nLCAnLW9tYWUnLCAnPG91dGZpbGUubWFlPic=

> <r_lp_tautomer_probability>
1

> <r_epik_Ionization_Penalty>
2.16501e-08

> <r_epik_Ionization_Penalty_Charging>
2.29436e-11

> <r_epik_Ionization_Penalty_Neutral>
2.16271e-08

> <r_epik_State_Penalty>
-0

> <r_epik_Charging_Adjusted_Penalty>
2.29436e-11

> <i_epik_Tot_Q>
0

> <i_epik_Tot_abs_Q>
0

> <r_epik_Metal_State_Penalty>
-0

> <b_epik_Metal_Only>
0

> <s_lp_Force_Field>
OPLS_2005

> <r_lp_Energy>
65.9265

> <b_lp_Chiralities_Consistent>
1

> <s_lp_Variant>
AV-unprocessed.smi:1401-3

> <Gold.Version>
5.8.1

> <Gold.Id.Protein>
6NUR|6NUR_protein|mol2

> <Gold.PLP.Fitness>
41.5304

> <Gold.PLP.PLP>
-33.2435

> <Gold.PLP.part.hbond>
-3.0000

> <Gold.PLP.part.metal>
0.0000

> <Gold.PLP.part.buried>
-2.2320

> <Gold.PLP.part.nonpolar>
-28.7832

> <Gold.PLP.part.repulsive>
0.8879

> <Gold.PLP.ligand.clash>
0.0000

> <Gold.PLP.ligand.torsion>
0.2598

> <Gold.PLP.Chemscore.Hbond>
2.9280

> <Gold.PLP.Chemscore.CHOScore>
0.0000

> <Gold.PLP.Chemscore.Metal>
0.0000

> <Gold.Chemscore.Hbonds>
donor molecule, donor type, donor heavy atom, donor atom, acceptor molecule, acceptor atom, score
      L1  H     8    30       P1  7948  0.94
      P1  H  7997  8009       L1    22  1.00
      P1  H 10752 10764       L1    19  1.00

> <Gold.PLP.Chemscore.Internal.Correction>
0.0225

> <Gold.Rescore>
     Score         DG    S(hbond)    S(metal)    S(lipo)     H(rot)  DE(clash)    DE(int)     intcor
     17.97     -19.69       2.77        0.00      78.03       1.63       0.37       1.34       ----

> <Gold.Chemscore.Fitness>
17.9693

> <Gold.Chemscore.DG>
-19.6875

> <Gold.Chemscore.ZeroCoef>
-5.4800

> <Gold.Chemscore.Hbond>
2.7683

> <Gold.Chemscore.Metal>
0.0000

> <Gold.Chemscore.Lipo>
78.0278

> <Gold.Chemscore.Internal_Hbond>
0.0000

> <Gold.Chemscore.DEClash>
0.3735

> <Gold.Chemscore.DEInternal>
1.3447

> <Gold.Chemscore.Rot>
1.6281

> <Gold.Chemscore.Internal.Correction>
   9.000000E+99

> <Gold.Chemscore.Hbonds>
donor molecule, donor type, donor heavy atom, donor atom, acceptor molecule, acceptor atom, score
      L1  H     8    30       P1  7948  0.45
      P1  H  7997  8009       L1    22  0.91
      P1  H 10752 10764       L1    19  0.82

> <Gold.Chemscore.Hbond.Weighted>
-9.2461

> <Gold.Chemscore.Metal.Weighted>
-0.0000

> <Gold.Chemscore.Lipo.Weighted>
-9.1293

> <Gold.Chemscore.Internal_Hbond.Weighted>
0.0000

> <Gold.Chemscore.DEClash.Weighted>
0.3735

> <Gold.Chemscore.DEInternal.Weighted>
1.3447

> <Gold.Chemscore.Rot.Weighted>
4.1678

> <Gold.Chemscore.Internal.Correction.Weighted>
   9.000000E+99

> <Gold.Protein.RotatedTorsions>
[ 6907 6896 6895 6894 ] final  -65.32 input  -60.11 | X-H torsion
[ 7974 7965 7964 7962 ] final  130.84 input  175.53 | X-H torsion
[ 8008 7997 7996 7995 ] final  138.15 input   59.86 | X-H torsion
[ 10167 10162 10161 10158 ] final  -78.76 input  -65.29 | X-H torsion
[ 10718 10713 10712 10709 ] final  174.25 input   66.30 | X-H torsion
[ 10763 10752 10751 10750 ] final  -18.83 input  -60.55 | X-H torsion
[ 11005 11000 10999 10996 ] final  -86.88 input  -57.11 | X-H torsion

> <Gold.Protein.ActiveResidues>
 VAL166  LYS551  ARG553  GLY616  TRP617  ASP618  TYR619  PRO620  LYS621  CYS622 
 ASP623  PHE694  ASN695  SER759  ASP760  ASP761  ALA762  ILE779  LEU786  VAL792 
 PHE793  MET794  SER795  GLU796  ALA797  LYS798  CYS799  TRP800  GLU811  SER814 

> <Gold.Protein.RotatedAtoms>
  150.7531  134.6176  159.6118 H   0  0  0  0  0  0  0  0  0  0  0  0  # atno 6907 bound_to 6896
  152.3492  134.7026  160.0250 H   0  0  0  0  0  0  0  0  0  0  0  0  # atno 6908 bound_to 6896
  151.7453  133.3288  159.3413 H   0  0  0  0  0  0  0  0  0  0  0  0  # atno 6909 bound_to 6896
  145.0136  139.4197  143.5232 H   0  0  0  0  0  0  0  0  0  0  0  0  # atno 7974 bound_to 7965
  156.2999  140.2401  156.4026 H   0  0  0  0  0  0  0  0  0  0  0  0  # atno 8008 bound_to 7997
  154.8514  140.0424  157.1626 H   0  0  0  0  0  0  0  0  0  0  0  0  # atno 8009 bound_to 7997
  154.8995  140.2975  155.5329 H   0  0  0  0  0  0  0  0  0  0  0  0  # atno 8010 bound_to 7997
  140.4653  143.2442  151.8287 H   0  0  0  0  0  0  0  0  0  0  0  0  # atno 10167 bound_to 10162
  156.9524  131.0035  151.2946 H   0  0  0  0  0  0  0  0  0  0  0  0  # atno 10718 bound_to 10713
  153.5954  135.7001  153.5406 H   0  0  0  0  0  0  0  0  0  0  0  0  # atno 10763 bound_to 10752
  153.3143  135.4092  155.1362 H   0  0  0  0  0  0  0  0  0  0  0  0  # atno 10764 bound_to 10752
  154.8593  135.3680  154.5487 H   0  0  0  0  0  0  0  0  0  0  0  0  # atno 10765 bound_to 10752
  141.1624  133.7479  156.9226 H   0  0  0  0  0  0  0  0  0  0  0  0  # atno 11005 bound_to 11000
  146.3474  139.9595  142.8719 LP  0  0  0  0  0  0  0  0  0  0  0  0  # atno 17320 bound_to 7965
  145.1989  140.9845  143.4167 LP  0  0  0  0  0  0  0  0  0  0  0  0  # atno 17321 bound_to 7965
  139.4811  144.4958  151.9126 LP  0  0  0  0  0  0  0  0  0  0  0  0  # atno 17342 bound_to 10162
  140.4043  144.2452  150.5891 LP  0  0  0  0  0  0  0  0  0  0  0  0  # atno 17343 bound_to 10162
  157.5713  130.8312  149.8395 LP  0  0  0  0  0  0  0  0  0  0  0  0  # atno 17370 bound_to 10713
  156.0357  130.3752  150.1567 LP  0  0  0  0  0  0  0  0  0  0  0  0  # atno 17371 bound_to 10713
  140.1441  134.9274  157.2506 LP  0  0  0  0  0  0  0  0  0  0  0  0  # atno 17394 bound_to 11000
  140.2801  134.3360  155.7346 LP  0  0  0  0  0  0  0  0  0  0  0  0  # atno 17395 bound_to 11000

$$$$
