AV-unprocessed.smi:2969|AV-procd|sdf|11329|dock3
  -GOLD-   2272016233D 1   1.00000     0.00000
 Structure written by MMmdl.
 40 40  0  0  0  0  0  0  0  0  1 V2000
  148.4596  145.2144  160.4032 C   0  0  0  0  0  0  0  0  0  0  0  0
  149.8926  144.6703  160.3413 C   0  0  0  0  0  0  0  0  0  0  0  0
  150.4158  144.4074  158.9146 C   0  0  0  0  0  0  0  0  0  0  0  0
  151.1017  143.1365  158.7617 N   0  0  0  0  0  0  0  0  0  0  0  0
  150.6892  142.1519  157.8590 C   0  0  0  0  0  0  0  0  0  0  0  0
  149.5633  142.4096  157.0900 N   0  0  0  0  0  0  0  0  0  0  0  0
  151.3449  140.9578  157.7454 C   0  0  0  0  0  0  0  0  0  0  0  0
  150.9515  139.9868  156.8053 N   0  0  0  0  0  0  0  0  0  0  0  0
  149.6054  139.4114  156.9701 C   0  0  0  0  0  0  0  0  0  0  0  0
  149.5947  138.2312  157.9551 C   0  0  0  0  0  0  0  0  0  0  0  0
  148.2550  137.9337  158.3109 O   0  0  0  0  0  0  0  0  0  0  0  0
  148.1580  136.8379  159.2025 C   0  0  0  0  0  0  0  0  0  0  0  0
  151.7674  139.5611  155.8022 C   0  0  0  0  0  0  0  0  0  0  0  0
  152.9436  139.9235  155.7306 O   0  0  0  0  0  0  0  0  0  0  0  0
  151.2252  138.6437  154.6848 C   0  0  0  0  0  0  0  0  0  0  0  0
  150.2164  139.2334  154.0422 F   0  0  0  0  0  0  0  0  0  0  0  0
  152.1940  138.3953  153.8022 F   0  0  0  0  0  0  0  0  0  0  0  0
  150.8196  137.4841  155.1992 F   0  0  0  0  0  0  0  0  0  0  0  0
  152.5462  140.6893  158.5485 C   0  0  0  0  0  0  0  0  0  0  0  0
  153.2365  139.6724  158.4922 O   0  0  0  0  0  0  0  0  0  0  0  0
  152.8987  141.7039  159.4339 N   0  0  0  0  0  0  0  0  0  0  0  0
  152.2290  142.9118  159.5899 C   0  0  0  0  0  0  0  0  0  0  0  0
  152.6354  143.7187  160.4265 O   0  0  0  0  0  0  0  0  0  0  0  0
  153.7107  141.5490  160.0135 H   0  0  0  0  0  0  0  0  0  0  0  0
  148.1283  145.3129  161.4369 H   0  0  0  0  0  0  0  0  0  0  0  0
  147.7633  144.5484  159.8928 H   0  0  0  0  0  0  0  0  0  0  0  0
  148.3865  146.1988  159.9406 H   0  0  0  0  0  0  0  0  0  0  0  0
  150.5590  145.3596  160.8603 H   0  0  0  0  0  0  0  0  0  0  0  0
  149.9345  143.7363  160.9020 H   0  0  0  0  0  0  0  0  0  0  0  0
  149.5942  144.3901  158.1984 H   0  0  0  0  0  0  0  0  0  0  0  0
  151.0665  145.2111  158.5683 H   0  0  0  0  0  0  0  0  0  0  0  0
  149.0495  143.2754  157.1698 H   0  0  0  0  0  0  0  0  0  0  0  0
  149.2329  141.7548  156.3956 H   0  0  0  0  0  0  0  0  0  0  0  0
  148.9118  140.1810  157.3133 H   0  0  0  0  0  0  0  0  0  0  0  0
  149.2080  139.0771  156.0108 H   0  0  0  0  0  0  0  0  0  0  0  0
  150.0848  137.3584  157.5213 H   0  0  0  0  0  0  0  0  0  0  0  0
  150.1504  138.5012  158.8541 H   0  0  0  0  0  0  0  0  0  0  0  0
  147.1113  136.6563  159.4457 H   0  0  0  0  0  0  0  0  0  0  0  0
  148.6915  137.0370  160.1326 H   0  0  0  0  0  0  0  0  0  0  0  0
  148.5608  135.9290  158.7537 H   0  0  0  0  0  0  0  0  0  0  0  0
  1  2  1  0  0  0  0
  1 25  1  0  0  0  0
  1 26  1  0  0  0  0
  1 27  1  0  0  0  0
  2  3  1  0  0  0  0
  2 28  1  0  0  0  0
  2 29  1  0  0  0  0
  3  4  1  0  0  0  0
  3 30  1  0  0  0  0
  3 31  1  0  0  0  0
  4 22  1  0  0  0  0
  4  5  1  0  0  0  0
  5  6  1  0  0  0  0
  5  7  2  0  0  0  0
  6 32  1  0  0  0  0
  6 33  1  0  0  0  0
  7  8  1  0  0  0  0
  7 19  1  0  0  0  0
  8  9  1  0  0  0  0
  8 13  1  0  0  0  0
  9 10  1  0  0  0  0
  9 34  1  0  0  0  0
  9 35  1  0  0  0  0
 10 11  1  0  0  0  0
 10 36  1  0  0  0  0
 10 37  1  0  0  0  0
 11 12  1  0  0  0  0
 12 38  1  0  0  0  0
 12 39  1  0  0  0  0
 12 40  1  0  0  0  0
 13 14  2  0  0  0  0
 13 15  1  0  0  0  0
 15 16  1  0  0  0  0
 15 17  1  0  0  0  0
 15 18  1  0  0  0  0
 19 20  2  0  0  0  0
 19 21  1  0  0  0  0
 21 24  1  0  0  0  0
 21 22  1  0  0  0  0
 22 23  2  0  0  0  0
M  END
> <s_m_source_file>
AV-unprocessed.smi

> <i_m_source_file_index>
2969

> <i_lp_mmshare_version>
43012

> <i_f3d_flags>
0

> <s_epik_input>
W0NIM11bQ0gyXVtDSDJdbjFjKFtOSDJdKWMoYyg9TylbbkhdYzE9TylOKEMoPU8pQyhGKShGKUYpW0NIMl1bQ0gyXU9bQ0gzXQ==

> <s_epik_cmdline>
J2VwaWtfcHl0aG9uJywgJy1waCcsICc3LjAnLCAnLXRuJywgJzgnLCAnLW1hJywgJzIwMCcsICctbWV0YWxfYmluZGluZycsICctaW1hZScsICc8aW5maWxlLm1hZT4nLCAnLW9tYWUnLCAnPG91dGZpbGUubWFlPic=

> <r_lp_tautomer_probability>
1

> <r_epik_Ionization_Penalty>
0.000513649

> <r_epik_Ionization_Penalty_Charging>
0.000443136

> <r_epik_Ionization_Penalty_Neutral>
7.05129e-05

> <r_epik_State_Penalty>
-0

> <r_epik_Charging_Adjusted_Penalty>
0.000443136

> <i_epik_Tot_Q>
0

> <i_epik_Tot_abs_Q>
0

> <r_epik_Metal_State_Penalty>
0.330936

> <b_epik_Metal_Only>
0

> <s_epik_Chemistry_Notes>
This compound has an imine and may undergo hydrolysis.

> <s_lp_Force_Field>
OPLS_2005

> <r_lp_Energy>
31.7287

> <b_lp_Chiralities_Consistent>
1

> <s_lp_Variant>
AV-unprocessed.smi:2969-1

> <Gold.Version>
5.8.1

> <Gold.Id.Protein>
6NUR|6NUR_protein|mol2

> <Gold.PLP.Fitness>
39.7165

> <Gold.PLP.PLP>
-38.9114

> <Gold.PLP.part.hbond>
-3.6449

> <Gold.PLP.part.metal>
0.0000

> <Gold.PLP.part.buried>
-7.3063

> <Gold.PLP.part.nonpolar>
-28.1292

> <Gold.PLP.part.repulsive>
0.1345

> <Gold.PLP.ligand.clash>
3.8748

> <Gold.PLP.ligand.torsion>
1.9054

> <Gold.PLP.Chemscore.Hbond>
1.1363

> <Gold.PLP.Chemscore.CHOScore>
0.0000

> <Gold.PLP.Chemscore.Metal>
0.0000

> <Gold.Chemscore.Hbonds>
donor molecule, donor type, donor heavy atom, donor atom, acceptor molecule, acceptor atom, score
      L1  H     6    32       P1  8028  0.45
      P1  H  7997  8008       L1    20  1.00

> <Gold.PLP.Chemscore.Internal.Correction>
5.0817

> <Gold.Rescore>
     Score         DG    S(hbond)    S(metal)    S(lipo)     H(rot)  DE(clash)    DE(int)     intcor
      3.56      -9.40       1.45        0.00      41.80       2.27       0.48       5.36       ----

> <Gold.Chemscore.Fitness>
3.5610

> <Gold.Chemscore.DG>
-9.3975

> <Gold.Chemscore.ZeroCoef>
-5.4800

> <Gold.Chemscore.Hbond>
1.4453

> <Gold.Chemscore.Metal>
0.0000

> <Gold.Chemscore.Lipo>
41.8002

> <Gold.Chemscore.Internal_Hbond>
0.0000

> <Gold.Chemscore.DEClash>
0.4811

> <Gold.Chemscore.DEInternal>
5.3554

> <Gold.Chemscore.Rot>
2.2658

> <Gold.Chemscore.Internal.Correction>
   9.000000E+99

> <Gold.Chemscore.Hbonds>
donor molecule, donor type, donor heavy atom, donor atom, acceptor molecule, acceptor atom, score
      L1  H     6    32       P1  8028  0.31
      P1  H  7997  8008       L1    20  0.47
      P1  H  7997  8009       L1    14  0.01

> <Gold.Chemscore.Hbond.Weighted>
-4.8274

> <Gold.Chemscore.Metal.Weighted>
-0.0000

> <Gold.Chemscore.Lipo.Weighted>
-4.8906

> <Gold.Chemscore.Internal_Hbond.Weighted>
0.0000

> <Gold.Chemscore.DEClash.Weighted>
0.4811

> <Gold.Chemscore.DEInternal.Weighted>
5.3554

> <Gold.Chemscore.Rot.Weighted>
5.8005

> <Gold.Chemscore.Internal.Correction.Weighted>
   9.000000E+99

> <Gold.Protein.RotatedTorsions>
[ 6907 6896 6895 6894 ] final  175.21 input  -60.11 | X-H torsion
[ 7974 7965 7964 7962 ] final  169.20 input  175.53 | X-H torsion
[ 8008 7997 7996 7995 ] final  -85.76 input   59.86 | X-H torsion
[ 10167 10162 10161 10158 ] final  137.60 input  -65.29 | X-H torsion
[ 10718 10713 10712 10709 ] final -124.22 input   66.30 | X-H torsion
[ 10763 10752 10751 10750 ] final  169.84 input  -60.55 | X-H torsion
[ 11005 11000 10999 10996 ] final   66.80 input  -57.11 | X-H torsion

> <Gold.Protein.ActiveResidues>
 VAL166  LYS551  ARG553  GLY616  TRP617  ASP618  TYR619  PRO620  LYS621  CYS622 
 ASP623  PHE694  ASN695  SER759  ASP760  ASP761  ALA762  ILE779  LEU786  VAL792 
 PHE793  MET794  SER795  GLU796  ALA797  LYS798  CYS799  TRP800  GLU811  SER814 

> <Gold.Protein.RotatedAtoms>
  151.7399  133.3321  159.3362 H   0  0  0  0  0  0  0  0  0  0  0  0  # atno 6907 bound_to 6896
  150.7578  134.6288  159.6184 H   0  0  0  0  0  0  0  0  0  0  0  0  # atno 6908 bound_to 6896
  152.3537  134.6971  160.0280 H   0  0  0  0  0  0  0  0  0  0  0  0  # atno 6909 bound_to 6896
  144.7363  139.9019  143.6410 H   0  0  0  0  0  0  0  0  0  0  0  0  # atno 7974 bound_to 7965
  154.6443  140.0587  156.9882 H   0  0  0  0  0  0  0  0  0  0  0  0  # atno 8008 bound_to 7997
  155.1468  140.3270  155.4421 H   0  0  0  0  0  0  0  0  0  0  0  0  # atno 8009 bound_to 7997
  156.2546  140.1954  156.6582 H   0  0  0  0  0  0  0  0  0  0  0  0  # atno 8010 bound_to 7997
  139.5139  144.6400  151.5593 H   0  0  0  0  0  0  0  0  0  0  0  0  # atno 10167 bound_to 10162
  156.1569  130.6574  150.9995 H   0  0  0  0  0  0  0  0  0  0  0  0  # atno 10718 bound_to 10713
  154.3890  135.2754  155.2166 H   0  0  0  0  0  0  0  0  0  0  0  0  # atno 10763 bound_to 10752
  154.4240  135.5993  153.6031 H   0  0  0  0  0  0  0  0  0  0  0  0  # atno 10764 bound_to 10752
  152.9832  135.5979  154.4143 H   0  0  0  0  0  0  0  0  0  0  0  0  # atno 10765 bound_to 10752
  139.9809  134.6745  156.0264 H   0  0  0  0  0  0  0  0  0  0  0  0  # atno 11005 bound_to 11000
  146.1065  139.4065  143.0314 LP  0  0  0  0  0  0  0  0  0  0  0  0  # atno 17320 bound_to 7965
  145.7504  140.9974  143.1253 LP  0  0  0  0  0  0  0  0  0  0  0  0  # atno 17321 bound_to 7965
  140.6164  143.9341  150.6492 LP  0  0  0  0  0  0  0  0  0  0  0  0  # atno 17342 bound_to 10162
  140.2600  143.3531  152.1331 LP  0  0  0  0  0  0  0  0  0  0  0  0  # atno 17343 bound_to 10162
  157.6702  131.0863  150.7630 LP  0  0  0  0  0  0  0  0  0  0  0  0  # atno 17370 bound_to 10713
  156.7695  130.4824  149.5421 LP  0  0  0  0  0  0  0  0  0  0  0  0  # atno 17371 bound_to 10713
  141.1481  133.6552  156.3930 LP  0  0  0  0  0  0  0  0  0  0  0  0  # atno 17394 bound_to 11000
  140.5098  134.6406  157.5280 LP  0  0  0  0  0  0  0  0  0  0  0  0  # atno 17395 bound_to 11000

$$$$
