AV-unprocessed.smi:2021|AV-procd|sdf|8185|dock3
  -GOLD-   2272010443D 1   1.00000     0.00000
 Structure written by MMmdl.
 40 41  0  0  0  0  0  0  0  0  2 V2000
  152.9228  143.5209  160.1365 C   0  0  0  0  0  0  0  0  0  0  0  0
  152.1974  143.0357  158.8731 C   0  0  0  0  0  0  0  0  0  0  0  0
  151.1839  144.0883  158.3958 C   0  0  0  0  0  0  0  0  0  0  0  0
  151.5266  141.6690  159.1295 C   0  0  0  0  0  0  0  0  0  0  0  0
  150.8446  141.0665  157.9830 N   0  0  0  0  0  0  0  0  0  0  0  0
  151.7255  140.8838  156.8315 C   0  0  0  0  0  0  0  0  0  0  0  0
  150.9991  140.2119  155.6539 C   0  0  0  0  0  0  0  0  0  0  0  0
  150.4463  138.9723  156.0808 O   0  0  0  0  0  0  0  0  0  0  0  0
  149.5264  139.1186  157.1604 C   0  0  1  0  0  0  0  0  0  0  0  0
  148.9753  137.7306  157.5291 C   0  0  0  0  0  0  0  0  0  0  0  0
  148.3102  137.7386  158.8280 N   0  0  0  0  0  0  0  0  0  0  0  0
  148.3395  136.7483  159.7310 C   0  0  0  0  0  0  0  0  0  0  0  0
  148.9670  135.7144  159.4901 O   0  0  0  0  0  0  0  0  0  0  0  0
  147.6422  137.0180  160.8581 N   0  5  0  0  0  0  0  0  0  0  0  0
  146.8824  136.0647  161.4225 C   0  0  0  0  0  0  0  0  0  0  0  0
  145.6169  136.2897  161.8110 N   0  0  0  0  0  0  0  0  0  0  0  0
  145.0130  135.1747  162.3766 N   0  0  0  0  0  0  0  0  0  0  0  0
  145.8459  134.1347  162.4078 C   0  0  0  0  0  0  0  0  0  0  0  0
  147.4433  134.4229  161.7511 S   0  0  0  0  0  0  0  0  0  0  0  0
  150.2626  139.7774  158.3432 C   0  0  0  0  0  0  0  0  0  0  0  0
  152.2261  143.6688  160.9620 H   0  0  0  0  0  0  0  0  0  0  0  0
  153.4338  144.4674  159.9582 H   0  0  0  0  0  0  0  0  0  0  0  0
  153.6733  142.7991  160.4600 H   0  0  0  0  0  0  0  0  0  0  0  0
  152.9590  142.9249  158.1020 H   0  0  0  0  0  0  0  0  0  0  0  0
  150.3960  144.2433  159.1331 H   0  0  0  0  0  0  0  0  0  0  0  0
  150.7104  143.7875  157.4610 H   0  0  0  0  0  0  0  0  0  0  0  0
  151.6689  145.0486  158.2197 H   0  0  0  0  0  0  0  0  0  0  0  0
  152.2721  140.9687  159.5093 H   0  0  0  0  0  0  0  0  0  0  0  0
  150.8072  141.8004  159.9390 H   0  0  0  0  0  0  0  0  0  0  0  0
  152.1137  141.8435  156.4933 H   0  0  0  0  0  0  0  0  0  0  0  0
  152.5871  140.2783  157.1165 H   0  0  0  0  0  0  0  0  0  0  0  0
  150.2085  140.8569  155.2671 H   0  0  0  0  0  0  0  0  0  0  0  0
  151.6937  140.0293  154.8340 H   0  0  0  0  0  0  0  0  0  0  0  0
  148.7046  139.7651  156.8467 H   0  0  0  0  0  0  0  0  0  0  0  0
  148.2570  137.4015  156.7779 H   0  0  0  0  0  0  0  0  0  0  0  0
  149.7778  136.9913  157.5327 H   0  0  0  0  0  0  0  0  0  0  0  0
  147.7898  138.5694  159.0680 H   0  0  0  0  0  0  0  0  0  0  0  0
  145.5190  133.1930  162.8230 H   0  0  0  0  0  0  0  0  0  0  0  0
  151.0453  139.1067  158.7016 H   0  0  0  0  0  0  0  0  0  0  0  0
  149.5640  139.9092  159.1703 H   0  0  0  0  0  0  0  0  0  0  0  0
  1  2  1  0  0  0  0
  1 21  1  0  0  0  0
  1 22  1  0  0  0  0
  1 23  1  0  0  0  0
  2  3  1  0  0  0  0
  2  4  1  0  0  0  0
  2 24  1  0  0  0  0
  3 25  1  0  0  0  0
  3 26  1  0  0  0  0
  3 27  1  0  0  0  0
  4  5  1  0  0  0  0
  4 28  1  0  0  0  0
  4 29  1  0  0  0  0
  5 20  1  0  0  0  0
  5  6  1  0  0  0  0
  6  7  1  0  0  0  0
  6 30  1  0  0  0  0
  6 31  1  0  0  0  0
  7  8  1  0  0  0  0
  7 32  1  0  0  0  0
  7 33  1  0  0  0  0
  8  9  1  0  0  0  0
  9 10  1  0  0  0  0
  9 20  1  0  0  0  0
  9 34  1  0  0  0  0
 10 11  1  0  0  0  0
 10 35  1  0  0  0  0
 10 36  1  0  0  0  0
 11 12  1  0  0  0  0
 11 37  1  0  0  0  0
 12 13  2  0  0  0  0
 12 14  1  0  0  0  0
 14 15  1  0  0  0  0
 15 19  1  0  0  0  0
 15 16  2  0  0  0  0
 16 17  1  0  0  0  0
 17 18  2  0  0  0  0
 18 19  1  0  0  0  0
 18 38  1  0  0  0  0
 20 39  1  0  0  0  0
 20 40  1  0  0  0  0
M  CHG  1  14  -1
M  END
> <s_m_source_file>
AV-unprocessed.smi

> <i_m_source_file_index>
2021

> <i_lp_mmshare_version>
43012

> <i_f3d_flags>
0

> <s_epik_input>
W0NIM11bQ0hdKFtDSDNdKVtDSDJdTjFbQ0gyXVtDSDJdT1tDQEhdKFtDSDJdMSlbQ0gyXVtOSF1DKD1PKVtOSF1jMm5uW2NIXXMy

> <s_epik_cmdline>
J2VwaWtfcHl0aG9uJywgJy1waCcsICc3LjAnLCAnLXRuJywgJzgnLCAnLW1hJywgJzIwMCcsICctbWV0YWxfYmluZGluZycsICctaW1hZScsICc8aW5maWxlLm1hZT4nLCAnLW9tYWUnLCAnPG91dGZpbGUubWFlPic=

> <r_lp_tautomer_probability>
1

> <r_epik_Ionization_Penalty>
4.44864

> <r_epik_Ionization_Penalty_Charging>
3.27383

> <r_epik_Ionization_Penalty_Neutral>
1.17482

> <r_epik_State_Penalty>
4.44168

> <r_epik_Charging_Adjusted_Penalty>
7.7155

> <i_epik_Tot_Q>
-1

> <i_epik_Tot_abs_Q>
1

> <r_epik_Metal_State_Penalty>
1.66628

> <b_epik_Metal_Only>
1

> <s_lp_Force_Field>
OPLS_2005

> <r_lp_Energy>
21.1827

> <b_lp_Chiralities_Consistent>
1

> <s_lp_Variant>
AV-unprocessed.smi:2021-11

> <Gold.Version>
5.8.1

> <Gold.Id.Protein>
6NUR|6NUR_protein|mol2

> <Gold.PLP.Fitness>
45.1607

> <Gold.PLP.PLP>
-32.9463

> <Gold.PLP.part.hbond>
-3.0000

> <Gold.PLP.part.metal>
0.0000

> <Gold.PLP.part.buried>
-5.3299

> <Gold.PLP.part.nonpolar>
-25.2429

> <Gold.PLP.part.repulsive>
0.1930

> <Gold.PLP.ligand.clash>
0.0000

> <Gold.PLP.ligand.torsion>
1.0255

> <Gold.PLP.Chemscore.Hbond>
4.6960

> <Gold.PLP.Chemscore.CHOScore>
0.0000

> <Gold.PLP.Chemscore.Metal>
0.0000

> <Gold.Chemscore.Hbonds>
donor molecule, donor type, donor heavy atom, donor atom, acceptor molecule, acceptor atom, score
      P1  H  6896  6909       L1    13  1.00
      P1  H  6931  6943       L1    14  1.36
      P1  H  6934  6947       L1    14  1.81

> <Gold.PLP.Chemscore.Internal.Correction>
0.1774

> <Gold.Rescore>
     Score         DG    S(hbond)    S(metal)    S(lipo)     H(rot)  DE(clash)    DE(int)     intcor
     15.11     -17.46       2.13        0.00      80.93       1.81       0.11       2.24       ----

> <Gold.Chemscore.Fitness>
15.1105

> <Gold.Chemscore.DG>
-17.4564

> <Gold.Chemscore.ZeroCoef>
-5.4800

> <Gold.Chemscore.Hbond>
2.1346

> <Gold.Chemscore.Metal>
0.0000

> <Gold.Chemscore.Lipo>
80.9323

> <Gold.Chemscore.Internal_Hbond>
0.0000

> <Gold.Chemscore.DEClash>
0.1060

> <Gold.Chemscore.DEInternal>
2.2399

> <Gold.Chemscore.Rot>
1.8056

> <Gold.Chemscore.Internal.Correction>
   9.000000E+99

> <Gold.Chemscore.Hbonds>
donor molecule, donor type, donor heavy atom, donor atom, acceptor molecule, acceptor atom, score
      P1  H  6896  6909       L1    13  0.93
      P1  H  6931  6943       L1    14  0.20
      P1  H  6934  6947       L1    14  0.61

> <Gold.Chemscore.Hbond.Weighted>
-7.1297

> <Gold.Chemscore.Metal.Weighted>
-0.0000

> <Gold.Chemscore.Lipo.Weighted>
-9.4691

> <Gold.Chemscore.Internal_Hbond.Weighted>
0.0000

> <Gold.Chemscore.DEClash.Weighted>
0.1060

> <Gold.Chemscore.DEInternal.Weighted>
2.2399

> <Gold.Chemscore.Rot.Weighted>
4.6224

> <Gold.Chemscore.Internal.Correction.Weighted>
   9.000000E+99

> <Gold.Protein.RotatedTorsions>
[ 6907 6896 6895 6894 ] final   54.86 input  -60.11 | X-H torsion
[ 7974 7965 7964 7962 ] final  120.43 input  175.53 | X-H torsion
[ 8008 7997 7996 7995 ] final  161.65 input   59.86 | X-H torsion
[ 10167 10162 10161 10158 ] final   28.54 input  -65.29 | X-H torsion
[ 10718 10713 10712 10709 ] final  -34.15 input   66.30 | X-H torsion
[ 10763 10752 10751 10750 ] final  165.26 input  -60.55 | X-H torsion
[ 11005 11000 10999 10996 ] final -102.32 input  -57.11 | X-H torsion

> <Gold.Protein.ActiveResidues>
 VAL166  LYS551  ARG553  GLY616  TRP617  ASP618  TYR619  PRO620  LYS621  CYS622 
 ASP623  PHE694  ASN695  SER759  ASP760  ASP761  ALA762  ILE779  LEU786  VAL792 
 PHE793  MET794  SER795  GLU796  ALA797  LYS798  CYS799  TRP800  GLU811  SER814 

> <Gold.Protein.RotatedAtoms>
  152.3481  134.7043  160.0244 H   0  0  0  0  0  0  0  0  0  0  0  0  # atno 6907 bound_to 6896
  151.7405  133.3316  159.3372 H   0  0  0  0  0  0  0  0  0  0  0  0  # atno 6908 bound_to 6896
  150.7522  134.6215  159.6183 H   0  0  0  0  0  0  0  0  0  0  0  0  # atno 6909 bound_to 6896
  145.1313  139.3326  143.4664 H   0  0  0  0  0  0  0  0  0  0  0  0  # atno 7974 bound_to 7965
  156.2088  140.1771  156.7741 H   0  0  0  0  0  0  0  0  0  0  0  0  # atno 8008 bound_to 7997
  154.5693  140.0685  156.8969 H   0  0  0  0  0  0  0  0  0  0  0  0  # atno 8009 bound_to 7997
  155.2703  140.3342  155.4268 H   0  0  0  0  0  0  0  0  0  0  0  0  # atno 8010 bound_to 7997
  140.4844  144.0566  150.6275 H   0  0  0  0  0  0  0  0  0  0  0  0  # atno 10167 bound_to 10162
  156.3540  130.4313  149.7680 H   0  0  0  0  0  0  0  0  0  0  0  0  # atno 10718 bound_to 10713
  154.3214  135.2756  155.2518 H   0  0  0  0  0  0  0  0  0  0  0  0  # atno 10763 bound_to 10752
  154.4869  135.5843  153.6434 H   0  0  0  0  0  0  0  0  0  0  0  0  # atno 10764 bound_to 10752
  152.9876  135.6125  154.3399 H   0  0  0  0  0  0  0  0  0  0  0  0  # atno 10765 bound_to 10752
  141.1194  133.8549  157.1345 H   0  0  0  0  0  0  0  0  0  0  0  0  # atno 11005 bound_to 11000
  146.3513  140.1313  142.8597 LP  0  0  0  0  0  0  0  0  0  0  0  0  # atno 17320 bound_to 7965
  145.0632  140.9103  143.4926 LP  0  0  0  0  0  0  0  0  0  0  0  0  # atno 17321 bound_to 7965
  140.3817  143.2799  152.0162 LP  0  0  0  0  0  0  0  0  0  0  0  0  # atno 17342 bound_to 10162
  139.4839  144.6149  151.7365 LP  0  0  0  0  0  0  0  0  0  0  0  0  # atno 17343 bound_to 10162
  156.4870  130.8067  151.3079 LP  0  0  0  0  0  0  0  0  0  0  0  0  # atno 17370 bound_to 10713
  157.7465  130.9987  150.2864 LP  0  0  0  0  0  0  0  0  0  0  0  0  # atno 17371 bound_to 10713
  140.0139  134.9976  157.0454 LP  0  0  0  0  0  0  0  0  0  0  0  0  # atno 17394 bound_to 11000
  140.4552  134.1541  155.7185 LP  0  0  0  0  0  0  0  0  0  0  0  0  # atno 17395 bound_to 11000

$$$$
