AV-unprocessed.smi:1929|AV-procd|sdf|7805|dock5
  -GOLD-   22720 9543D 1   1.00000     0.00000
 Structure written by MMmdl.
 42 43  0  0  0  0  0  0  0  0  3 V2000
  152.6866  142.7587  160.1609 C   0  0  0  0  0  0  0  0  0  0  0  0
  153.5524  141.6987  159.6587 N   0  5  0  0  0  0  0  0  0  0  0  0
  153.1080  140.6650  158.8947 C   0  0  0  0  0  0  0  0  0  0  0  0
  153.6366  139.5842  158.6138 O   0  0  0  0  0  0  0  0  0  0  0  0
  151.7305  140.9728  158.2966 C   0  0  0  0  0  0  0  0  0  0  0  0
  151.2678  139.8338  157.4648 N   0  3  2  0  0  0  0  0  0  0  0  0
  152.0667  139.6487  156.2228 C   0  0  0  0  0  0  0  0  0  0  0  0
  151.6341  138.3813  155.4674 C   0  0  0  0  0  0  0  0  0  0  0  0
  150.1321  138.4109  155.1441 C   0  0  1  0  0  0  0  0  0  0  0  0
  149.7363  137.1570  154.5094 N   0  0  0  0  0  0  0  0  0  0  0  0
  149.9087  135.9368  155.0380 C   0  0  0  0  0  0  0  0  0  0  0  0
  150.4373  135.7416  156.1324 O   0  0  0  0  0  0  0  0  0  0  0  0
  149.4549  134.9795  154.2102 N   0  0  0  0  0  0  0  0  0  0  0  0
  149.4241  133.5729  154.4131 C   0  0  0  0  0  0  0  0  0  0  0  0
  148.7921  132.7809  153.4322 C   0  0  0  0  0  0  0  0  0  0  0  0
  148.7314  131.3857  153.6214 C   0  0  0  0  0  0  0  0  0  0  0  0
  149.2403  130.7610  154.7040 N   0  0  0  0  0  0  0  0  0  0  0  0
  149.8320  131.5219  155.6489 C   0  0  0  0  0  0  0  0  0  0  0  0
  149.9475  132.9235  155.5572 C   0  0  0  0  0  0  0  0  0  0  0  0
  149.3312  138.6444  156.4376 C   0  0  0  0  0  0  0  0  0  0  0  0
  149.8142  139.9062  157.1710 C   0  0  0  0  0  0  0  0  0  0  0  0
  153.2472  143.5096  160.7168 H   0  0  0  0  0  0  0  0  0  0  0  0
  151.9199  142.3817  160.8383 H   0  0  0  0  0  0  0  0  0  0  0  0
  152.1687  143.2886  159.3610 H   0  0  0  0  0  0  0  0  0  0  0  0
  151.0492  141.1219  159.1354 H   0  0  0  0  0  0  0  0  0  0  0  0
  151.7151  141.9010  157.7207 H   0  0  0  0  0  0  0  0  0  0  0  0
  151.9539  140.5250  155.5827 H   0  0  0  0  0  0  0  0  0  0  0  0
  153.1273  139.5694  156.4616 H   0  0  0  0  0  0  0  0  0  0  0  0
  152.2130  138.2864  154.5480 H   0  0  0  0  0  0  0  0  0  0  0  0
  151.8679  137.5040  156.0726 H   0  0  0  0  0  0  0  0  0  0  0  0
  149.9472  139.2381  154.4554 H   0  0  0  0  0  0  0  0  0  0  0  0
  149.2986  137.2243  153.6021 H   0  0  0  0  0  0  0  0  0  0  0  0
  149.1323  135.2904  153.3059 H   0  0  0  0  0  0  0  0  0  0  0  0
  148.3644  133.2284  152.5468 H   0  0  0  0  0  0  0  0  0  0  0  0
  148.2579  130.7547  152.8837 H   0  0  0  0  0  0  0  0  0  0  0  0
  150.2202  130.9984  156.5099 H   0  0  0  0  0  0  0  0  0  0  0  0
  150.4171  133.4651  156.3637 H   0  0  0  0  0  0  0  0  0  0  0  0
  148.2681  138.7375  156.2118 H   0  0  0  0  0  0  0  0  0  0  0  0
  149.4326  137.7819  157.0981 H   0  0  0  0  0  0  0  0  0  0  0  0
  149.2544  140.0138  158.1008 H   0  0  0  0  0  0  0  0  0  0  0  0
  149.6076  140.7939  156.5710 H   0  0  0  0  0  0  0  0  0  0  0  0
  151.4052  139.0080  158.0298 H   0  0  0  0  0  0  0  0  0  0  0  0
  1  2  1  0  0  0  0
  1 22  1  0  0  0  0
  1 23  1  0  0  0  0
  1 24  1  0  0  0  0
  2  3  1  0  0  0  0
  3  4  2  0  0  0  0
  3  5  1  0  0  0  0
  5  6  1  0  0  0  0
  5 25  1  0  0  0  0
  5 26  1  0  0  0  0
  6 21  1  0  0  0  0
  6  7  1  0  0  0  0
  6 42  1  0  0  0  0
  7  8  1  0  0  0  0
  7 27  1  0  0  0  0
  7 28  1  0  0  0  0
  8  9  1  0  0  0  0
  8 29  1  0  0  0  0
  8 30  1  0  0  0  0
  9 10  1  0  0  0  0
  9 20  1  0  0  0  0
  9 31  1  0  0  0  0
 10 11  1  0  0  0  0
 10 32  1  0  0  0  0
 11 12  2  0  0  0  0
 11 13  1  0  0  0  0
 13 14  1  0  0  0  0
 13 33  1  0  0  0  0
 14 19  1  0  0  0  0
 14 15  2  0  0  0  0
 15 16  1  0  0  0  0
 15 34  1  0  0  0  0
 16 17  2  0  0  0  0
 16 35  1  0  0  0  0
 17 18  1  0  0  0  0
 18 19  2  0  0  0  0
 18 36  1  0  0  0  0
 19 37  1  0  0  0  0
 20 21  1  0  0  0  0
 20 38  1  0  0  0  0
 20 39  1  0  0  0  0
 21 40  1  0  0  0  0
 21 41  1  0  0  0  0
M  CHG  1   2  -1
M  CHG  1   6   1
M  END
> <s_m_source_file>
AV-unprocessed.smi

> <i_m_source_file_index>
1929

> <i_lp_mmshare_version>
43012

> <i_f3d_flags>
0

> <s_epik_input>
W0NIM11bTkhdQyg9TylbQ0gyXU4xW0NIMl1bQ0gyXVtDSF0oW0NIMl1bQ0gyXTEpW05IXUMoPU8pW05IXWMyW2NIXVtjSF1uW2NIXVtjSF0y

> <s_epik_cmdline>
J2VwaWtfcHl0aG9uJywgJy1waCcsICc3LjAnLCAnLXRuJywgJzgnLCAnLW1hJywgJzIwMCcsICctbWV0YWxfYmluZGluZycsICctaW1hZScsICc8aW5maWxlLm1hZT4nLCAnLW9tYWUnLCAnPG91dGZpbGUubWFlPic=

> <r_epik_Ionization_Penalty>
6.23856

> <r_epik_Ionization_Penalty_Charging>
6.13946

> <r_epik_Ionization_Penalty_Neutral>
0.0990993

> <r_epik_State_Penalty>
7.04382

> <r_epik_Charging_Adjusted_Penalty>
13.1833

> <i_epik_Tot_Q>
0

> <i_epik_Tot_abs_Q>
2

> <r_epik_Metal_State_Penalty>
3.07449

> <b_epik_Metal_Only>
1

> <s_lp_Force_Field>
OPLS_2005

> <r_lp_Energy>
14.2578

> <b_lp_Chiralities_Consistent>
1

> <s_lp_Variant>
AV-unprocessed.smi:1929-7

> <Gold.Version>
5.8.1

> <Gold.Id.Protein>
6NUR|6NUR_protein|mol2

> <Gold.PLP.Fitness>
42.6664

> <Gold.PLP.PLP>
-31.8590

> <Gold.PLP.part.hbond>
-3.1265

> <Gold.PLP.part.metal>
0.0000

> <Gold.PLP.part.buried>
-3.8760

> <Gold.PLP.part.nonpolar>
-24.7429

> <Gold.PLP.part.repulsive>
0.1847

> <Gold.PLP.ligand.clash>
0.0000

> <Gold.PLP.ligand.torsion>
0.1575

> <Gold.PLP.Chemscore.Hbond>
2.8268

> <Gold.PLP.Chemscore.CHOScore>
0.8600

> <Gold.PLP.Chemscore.Metal>
0.0000

> <Gold.Chemscore.Hbonds>
donor molecule, donor type, donor heavy atom, donor atom, acceptor molecule, acceptor atom, score
      L1  H    10    32       P1  7948  0.88
      L1  H    13    33       P1  7948  1.00
      P1  H  7997  8009       L1     4  1.00
      L1  C    16    35       P1 10747  0.50

> <Gold.PLP.Chemscore.Internal.Correction>
0.0619

> <Gold.Rescore>
     Score         DG    S(hbond)    S(metal)    S(lipo)     H(rot)  DE(clash)    DE(int)     intcor
     11.96     -15.90       2.19        0.00      62.39       1.63       0.02       3.92       ----

> <Gold.Chemscore.Fitness>
11.9638

> <Gold.Chemscore.DG>
-15.9039

> <Gold.Chemscore.ZeroCoef>
-5.4800

> <Gold.Chemscore.Hbond>
2.1866

> <Gold.Chemscore.Metal>
0.0000

> <Gold.Chemscore.Lipo>
62.3869

> <Gold.Chemscore.Internal_Hbond>
0.0000

> <Gold.Chemscore.DEClash>
0.0234

> <Gold.Chemscore.DEInternal>
3.9166

> <Gold.Chemscore.Rot>
1.6323

> <Gold.Chemscore.Internal.Correction>
   9.000000E+99

> <Gold.Chemscore.Hbonds>
donor molecule, donor type, donor heavy atom, donor atom, acceptor molecule, acceptor atom, score
      L1  H    10    32       P1  7948  0.81
      L1  H    13    33       P1  7948  0.30
      P1  H  7997  8009       L1     4  0.35

> <Gold.Chemscore.Hbond.Weighted>
-7.3032

> <Gold.Chemscore.Metal.Weighted>
-0.0000

> <Gold.Chemscore.Lipo.Weighted>
-7.2993

> <Gold.Chemscore.Internal_Hbond.Weighted>
0.0000

> <Gold.Chemscore.DEClash.Weighted>
0.0234

> <Gold.Chemscore.DEInternal.Weighted>
3.9166

> <Gold.Chemscore.Rot.Weighted>
4.1786

> <Gold.Chemscore.Internal.Correction.Weighted>
   9.000000E+99

> <Gold.Protein.RotatedTorsions>
[ 6907 6896 6895 6894 ] final  121.40 input  -60.11 | X-H torsion
[ 7974 7965 7964 7962 ] final -169.63 input  175.53 | X-H torsion
[ 8008 7997 7996 7995 ] final  146.66 input   59.86 | X-H torsion
[ 10167 10162 10161 10158 ] final -169.76 input  -65.29 | X-H torsion
[ 10718 10713 10712 10709 ] final -135.51 input   66.30 | X-H torsion
[ 10763 10752 10751 10750 ] final   62.55 input  -60.55 | X-H torsion
[ 11005 11000 10999 10996 ] final -157.34 input  -57.11 | X-H torsion

> <Gold.Protein.ActiveResidues>
 VAL166  LYS551  ARG553  GLY616  TRP617  ASP618  TYR619  PRO620  LYS621  CYS622 
 ASP623  PHE694  ASN695  SER759  ASP760  ASP761  ALA762  ILE779  LEU786  VAL792 
 PHE793  MET794  SER795  GLU796  ALA797  LYS798  CYS799  TRP800  GLU811  SER814 

> <Gold.Protein.RotatedAtoms>
  152.4324  133.7301  159.6582 H   0  0  0  0  0  0  0  0  0  0  0  0  # atno 6907 bound_to 6896
  150.8205  133.8251  159.3147 H   0  0  0  0  0  0  0  0  0  0  0  0  # atno 6908 bound_to 6896
  151.5935  135.1054  160.0096 H   0  0  0  0  0  0  0  0  0  0  0  0  # atno 6909 bound_to 6896
  144.7182  140.2192  143.6318 H   0  0  0  0  0  0  0  0  0  0  0  0  # atno 7974 bound_to 7965
  156.2848  140.2176  156.5413 H   0  0  0  0  0  0  0  0  0  0  0  0  # atno 8008 bound_to 7997
  154.7367  140.0491  157.0797 H   0  0  0  0  0  0  0  0  0  0  0  0  # atno 8009 bound_to 7997
  155.0283  140.3132  155.4771 H   0  0  0  0  0  0  0  0  0  0  0  0  # atno 8010 bound_to 7997
  139.5903  144.1228  152.1626 H   0  0  0  0  0  0  0  0  0  0  0  0  # atno 10167 bound_to 10162
  156.2670  130.7243  151.1197 H   0  0  0  0  0  0  0  0  0  0  0  0  # atno 10718 bound_to 10713
  152.9986  135.5461  154.6211 H   0  0  0  0  0  0  0  0  0  0  0  0  # atno 10763 bound_to 10752
  154.5510  135.2826  155.1011 H   0  0  0  0  0  0  0  0  0  0  0  0  # atno 10764 bound_to 10752
  154.2251  135.6444  153.5209 H   0  0  0  0  0  0  0  0  0  0  0  0  # atno 10765 bound_to 10752
  140.6657  134.4301  157.5233 H   0  0  0  0  0  0  0  0  0  0  0  0  # atno 11005 bound_to 11000
  145.8517  139.2179  143.1768 LP  0  0  0  0  0  0  0  0  0  0  0  0  # atno 17320 bound_to 7965
  146.0254  140.8308  142.9902 LP  0  0  0  0  0  0  0  0  0  0  0  0  # atno 17321 bound_to 7965
  140.0801  144.5707  150.7128 LP  0  0  0  0  0  0  0  0  0  0  0  0  # atno 17342 bound_to 10162
  140.7167  143.2551  151.4411 LP  0  0  0  0  0  0  0  0  0  0  0  0  # atno 17343 bound_to 10162
  157.7270  131.0642  150.5882 LP  0  0  0  0  0  0  0  0  0  0  0  0  # atno 17370 bound_to 10713
  156.5975  130.4345  149.5911 LP  0  0  0  0  0  0  0  0  0  0  0  0  # atno 17371 bound_to 10713
  139.8998  134.8583  156.1945 LP  0  0  0  0  0  0  0  0  0  0  0  0  # atno 17394 bound_to 11000
  141.0431  133.6927  156.1633 LP  0  0  0  0  0  0  0  0  0  0  0  0  # atno 17395 bound_to 11000

$$$$
