AV-unprocessed.smi:2163|AV-procd|sdf|8804|dock4
  -GOLD-   2272011593D 1   1.00000     0.00000
 Structure written by MMmdl.
 43 45  0  0  0  0  0  0  0  0  1 V2000
  152.0386  138.6123  154.9315 C   0  0  0  0  0  0  0  0  0  0  0  0
  151.9415  139.6489  156.0056 C   0  0  0  0  0  0  0  0  0  0  0  0
  152.6376  139.5642  157.1396 N   0  0  0  0  0  0  0  0  0  0  0  0
  152.2537  140.7056  157.8170 C   0  0  0  0  0  0  0  0  0  0  0  0
  152.6406  141.1961  159.0847 C   0  0  0  0  0  0  0  0  0  0  0  0
  152.1075  142.4066  159.5746 C   0  0  0  0  0  0  0  0  0  0  0  0
  151.1823  143.1427  158.8061 C   0  0  0  0  0  0  0  0  0  0  0  0
  150.7825  142.6711  157.5408 C   0  0  0  0  0  0  0  0  0  0  0  0
  151.3171  141.4621  157.0572 C   0  0  0  0  0  0  0  0  0  0  0  0
  151.1371  140.7340  155.8857 N   0  0  0  0  0  0  0  0  0  0  0  0
  150.2631  141.0956  154.7784 C   0  0  0  0  0  0  0  0  0  0  0  0
  149.0381  140.1666  154.6663 C   0  0  2  0  0  0  0  0  0  0  0  0
  149.3081  139.1201  153.7550 O   0  0  0  0  0  0  0  0  0  0  0  0
  147.7799  140.9122  154.1984 C   0  0  0  0  0  0  0  0  0  0  0  0
  147.1995  141.5711  155.3163 O   0  0  0  0  0  0  0  0  0  0  0  0
  146.2293  142.5219  155.0853 C   0  0  0  0  0  0  0  0  0  0  0  0
  145.2256  142.8821  156.0199 C   0  0  0  0  0  0  0  0  0  0  0  0
  144.2731  143.8687  155.6978 C   0  0  0  0  0  0  0  0  0  0  0  0
  144.3089  144.5076  154.4429 C   0  0  0  0  0  0  0  0  0  0  0  0
  143.2880  145.5720  154.0992 C   0  0  0  0  0  0  0  0  0  0  0  0
  143.4289  146.7643  154.9488 C   0  0  0  0  0  0  0  0  0  0  0  0
  143.5395  147.7022  155.6170 N   0  0  0  0  0  0  0  0  0  0  0  0
  145.3034  144.1549  153.5103 C   0  0  0  0  0  0  0  0  0  0  0  0
  146.2550  143.1686  153.8325 C   0  0  0  0  0  0  0  0  0  0  0  0
  152.7007  137.8024  155.2394 H   0  0  0  0  0  0  0  0  0  0  0  0
  152.4380  139.0530  154.0178 H   0  0  0  0  0  0  0  0  0  0  0  0
  151.0558  138.1903  154.7211 H   0  0  0  0  0  0  0  0  0  0  0  0
  153.3490  140.6402  159.6806 H   0  0  0  0  0  0  0  0  0  0  0  0
  152.4103  142.7723  160.5448 H   0  0  0  0  0  0  0  0  0  0  0  0
  150.7795  144.0692  159.1884 H   0  0  0  0  0  0  0  0  0  0  0  0
  150.0738  143.2313  156.9490 H   0  0  0  0  0  0  0  0  0  0  0  0
  149.9380  142.1249  154.9340 H   0  0  0  0  0  0  0  0  0  0  0  0
  150.8288  141.0967  153.8467 H   0  0  0  0  0  0  0  0  0  0  0  0
  148.8352  139.7092  155.6356 H   0  0  0  0  0  0  0  0  0  0  0  0
  149.6728  139.4962  152.9683 H   0  0  0  0  0  0  0  0  0  0  0  0
  148.0371  141.6285  153.4160 H   0  0  0  0  0  0  0  0  0  0  0  0
  147.0633  140.2005  153.7844 H   0  0  0  0  0  0  0  0  0  0  0  0
  145.1656  142.4175  156.9921 H   0  0  0  0  0  0  0  0  0  0  0  0
  143.5149  144.1358  156.4193 H   0  0  0  0  0  0  0  0  0  0  0  0
  143.4004  145.8746  153.0578 H   0  0  0  0  0  0  0  0  0  0  0  0
  142.2782  145.1790  154.2194 H   0  0  0  0  0  0  0  0  0  0  0  0
  145.3398  144.6411  152.5464 H   0  0  0  0  0  0  0  0  0  0  0  0
  147.0134  142.9052  153.1099 H   0  0  0  0  0  0  0  0  0  0  0  0
  1  2  1  0  0  0  0
  1 25  1  0  0  0  0
  1 26  1  0  0  0  0
  1 27  1  0  0  0  0
  2 10  1  0  0  0  0
  2  3  2  0  0  0  0
  3  4  1  0  0  0  0
  4  9  2  0  0  0  0
  4  5  1  0  0  0  0
  5  6  2  0  0  0  0
  5 28  1  0  0  0  0
  6  7  1  0  0  0  0
  6 29  1  0  0  0  0
  7  8  2  0  0  0  0
  7 30  1  0  0  0  0
  8  9  1  0  0  0  0
  8 31  1  0  0  0  0
  9 10  1  0  0  0  0
 10 11  1  0  0  0  0
 11 12  1  0  0  0  0
 11 32  1  0  0  0  0
 11 33  1  0  0  0  0
 12 13  1  0  0  0  0
 12 14  1  0  0  0  0
 12 34  1  0  0  0  0
 13 35  1  0  0  0  0
 14 15  1  0  0  0  0
 14 36  1  0  0  0  0
 14 37  1  0  0  0  0
 15 16  1  0  0  0  0
 16 24  1  0  0  0  0
 16 17  2  0  0  0  0
 17 18  1  0  0  0  0
 17 38  1  0  0  0  0
 18 19  2  0  0  0  0
 18 39  1  0  0  0  0
 19 20  1  0  0  0  0
 19 23  1  0  0  0  0
 20 21  1  0  0  0  0
 20 40  1  0  0  0  0
 20 41  1  0  0  0  0
 21 22  3  0  0  0  0
 23 24  2  0  0  0  0
 23 42  1  0  0  0  0
 24 43  1  0  0  0  0
M  END
> <s_m_source_file>
AV-unprocessed.smi

> <i_m_source_file_index>
2163

> <i_lp_mmshare_version>
43012

> <i_f3d_flags>
0

> <s_epik_input>
W2NIXTFbY0hdW2NIXVtjSF1jKGMxMiluKGMobjIpW0NIM10pW0NIMl1bQ0BIXShbT0hdKVtDSDJdT2MzW2NIXVtjSF1jKFtDSDJdQyNOKVtjSF1bY0hdMw==

> <s_epik_cmdline>
J2VwaWtfcHl0aG9uJywgJy1waCcsICc3LjAnLCAnLXRuJywgJzgnLCAnLW1hJywgJzIwMCcsICctbWV0YWxfYmluZGluZycsICctaW1hZScsICc8aW5maWxlLm1hZT4nLCAnLW9tYWUnLCAnPG91dGZpbGUubWFlPic=

> <r_lp_tautomer_probability>
1

> <r_epik_Ionization_Penalty>
0.114213

> <r_epik_Ionization_Penalty_Charging>
0

> <r_epik_Ionization_Penalty_Neutral>
0.114213

> <r_epik_State_Penalty>
0.103875

> <r_epik_Charging_Adjusted_Penalty>
0.103875

> <i_epik_Tot_Q>
0

> <i_epik_Tot_abs_Q>
0

> <r_epik_Metal_State_Penalty>
0.000113526

> <b_epik_Metal_Only>
0

> <s_lp_Force_Field>
OPLS_2005

> <r_lp_Energy>
15.1167

> <b_lp_Chiralities_Consistent>
1

> <s_lp_Variant>
AV-unprocessed.smi:2163-1

> <Gold.Version>
5.8.1

> <Gold.Id.Protein>
6NUR|6NUR_protein|mol2

> <Gold.PLP.Fitness>
52.9167

> <Gold.PLP.PLP>
-49.3404

> <Gold.PLP.part.hbond>
-3.0000

> <Gold.PLP.part.metal>
0.0000

> <Gold.PLP.part.buried>
-3.3149

> <Gold.PLP.part.nonpolar>
-42.6228

> <Gold.PLP.part.repulsive>
0.1178

> <Gold.PLP.ligand.clash>
0.0803

> <Gold.PLP.ligand.torsion>
1.2173

> <Gold.PLP.Chemscore.Hbond>
2.0000

> <Gold.PLP.Chemscore.CHOScore>
0.0000

> <Gold.PLP.Chemscore.Metal>
0.0000

> <Gold.Chemscore.Hbonds>
donor molecule, donor type, donor heavy atom, donor atom, acceptor molecule, acceptor atom, score
      L1  H    13    35       P1  7957  1.00
      P1  H  7997  8010       L1     3  0.95

> <Gold.PLP.Chemscore.Internal.Correction>
0.0912

> <Gold.Rescore>
     Score         DG    S(hbond)    S(metal)    S(lipo)     H(rot)  DE(clash)    DE(int)     intcor
     13.24     -16.01       1.03        0.00     115.59       2.51       1.56       1.22       ----

> <Gold.Chemscore.Fitness>
13.2415

> <Gold.Chemscore.DG>
-16.0129

> <Gold.Chemscore.ZeroCoef>
-5.4800

> <Gold.Chemscore.Hbond>
1.0293

> <Gold.Chemscore.Metal>
0.0000

> <Gold.Chemscore.Lipo>
115.5942

> <Gold.Chemscore.Internal_Hbond>
0.0000

> <Gold.Chemscore.DEClash>
1.5559

> <Gold.Chemscore.DEInternal>
1.2155

> <Gold.Chemscore.Rot>
2.5115

> <Gold.Chemscore.Internal.Correction>
   9.000000E+99

> <Gold.Chemscore.Hbonds>
donor molecule, donor type, donor heavy atom, donor atom, acceptor molecule, acceptor atom, score
      L1  H    13    35       P1  7957  0.97
      P1  H  7997  8010       L1     3  0.09

> <Gold.Chemscore.Hbond.Weighted>
-3.4379

> <Gold.Chemscore.Metal.Weighted>
-0.0000

> <Gold.Chemscore.Lipo.Weighted>
-13.5245

> <Gold.Chemscore.Internal_Hbond.Weighted>
0.0000

> <Gold.Chemscore.DEClash.Weighted>
1.5559

> <Gold.Chemscore.DEInternal.Weighted>
1.2155

> <Gold.Chemscore.Rot.Weighted>
6.4296

> <Gold.Chemscore.Internal.Correction.Weighted>
   9.000000E+99

> <Gold.Protein.RotatedTorsions>
[ 6907 6896 6895 6894 ] final  175.93 input  -60.11 | X-H torsion
[ 7974 7965 7964 7962 ] final  131.94 input  175.53 | X-H torsion
[ 8008 7997 7996 7995 ] final   61.67 input   59.86 | X-H torsion
[ 10167 10162 10161 10158 ] final  -31.49 input  -65.29 | X-H torsion
[ 10718 10713 10712 10709 ] final  126.62 input   66.30 | X-H torsion
[ 10763 10752 10751 10750 ] final  -46.44 input  -60.55 | X-H torsion
[ 11005 11000 10999 10996 ] final    2.01 input  -57.11 | X-H torsion

> <Gold.Protein.ActiveResidues>
 VAL166  LYS551  ARG553  GLY616  TRP617  ASP618  TYR619  PRO620  LYS621  CYS622 
 ASP623  PHE694  ASN695  SER759  ASP760  ASP761  ALA762  ILE779  LEU786  VAL792 
 PHE793  MET794  SER795  GLU796  ALA797  LYS798  CYS799  TRP800  GLU811  SER814 

> <Gold.Protein.RotatedAtoms>
  151.7283  133.3317  159.3333 H   0  0  0  0  0  0  0  0  0  0  0  0  # atno 6907 bound_to 6896
  150.7623  134.6386  159.6234 H   0  0  0  0  0  0  0  0  0  0  0  0  # atno 6908 bound_to 6896
  152.3608  134.6877  160.0259 H   0  0  0  0  0  0  0  0  0  0  0  0  # atno 6909 bound_to 6896
  145.0021  139.4302  143.5287 H   0  0  0  0  0  0  0  0  0  0  0  0  # atno 7974 bound_to 7965
  155.6021  140.3494  155.4597 H   0  0  0  0  0  0  0  0  0  0  0  0  # atno 8008 bound_to 7997
  156.0220  140.1255  157.0372 H   0  0  0  0  0  0  0  0  0  0  0  0  # atno 8009 bound_to 7997
  154.4319  140.1060  156.5963 H   0  0  0  0  0  0  0  0  0  0  0  0  # atno 8010 bound_to 7997
  140.7235  143.3767  151.1677 H   0  0  0  0  0  0  0  0  0  0  0  0  # atno 10167 bound_to 10162
  157.5403  131.1097  150.8869 H   0  0  0  0  0  0  0  0  0  0  0  0  # atno 10718 bound_to 10713
  154.0451  135.6639  153.4794 H   0  0  0  0  0  0  0  0  0  0  0  0  # atno 10763 bound_to 10752
  153.0486  135.5099  154.7805 H   0  0  0  0  0  0  0  0  0  0  0  0  # atno 10764 bound_to 10752
  154.6793  135.3042  154.9601 H   0  0  0  0  0  0  0  0  0  0  0  0  # atno 10765 bound_to 10752
  140.6091  133.9765  155.8168 H   0  0  0  0  0  0  0  0  0  0  0  0  # atno 11005 bound_to 11000
  146.3454  139.9415  142.8740 LP  0  0  0  0  0  0  0  0  0  0  0  0  # atno 17320 bound_to 7965
  145.2139  140.9907  143.4084 LP  0  0  0  0  0  0  0  0  0  0  0  0  # atno 17321 bound_to 7965
  139.7348  143.9016  152.3031 LP  0  0  0  0  0  0  0  0  0  0  0  0  # atno 17342 bound_to 10162
  139.8817  144.7014  150.8870 LP  0  0  0  0  0  0  0  0  0  0  0  0  # atno 17343 bound_to 10162
  156.9424  130.5389  149.5280 LP  0  0  0  0  0  0  0  0  0  0  0  0  # atno 17370 bound_to 10713
  156.0491  130.5563  150.8949 LP  0  0  0  0  0  0  0  0  0  0  0  0  # atno 17371 bound_to 10713
  141.0820  134.0047  157.3371 LP  0  0  0  0  0  0  0  0  0  0  0  0  # atno 17394 bound_to 11000
  139.9200  135.0200  156.8027 LP  0  0  0  0  0  0  0  0  0  0  0  0  # atno 17395 bound_to 11000

$$$$
