#       Name:                AV-unprocessed.smi:1626
#       Creating user name   scv26
#       Creation time:       Fri Mar 27 07:18:35 2020


#       File generated by GOLD software.
#

@<TRIPOS>MOLECULE
AV-unprocessed.smi:1626
    53    55     1
SMALL
NO_CHARGES


@<TRIPOS>ATOM
      1 ****        -1.6836   5.3376   2.0396 C.3            1 S1                 0.0000
      2 ****        -1.4571   4.2137   1.0437 C.ar           1 S1                 0.0000
      3 ****        -1.6077   4.4781  -0.3367 C.ar           1 S1                 0.0000
      4 ****        -1.4008   3.4623  -1.2957 C.ar           1 S1                 0.0000
      5 ****        -1.4887   3.4961  -2.6773 N.2            1 S1                 0.0000
      6 ****        -1.1768   2.2429  -2.9967 C.2            1 S1                 0.0000
      7 ****        -0.8978   1.4007  -1.9833 N.pl3          1 S1                 0.0000
      8 ****        -0.5242   0.0017  -2.0733 C.3            1 S1                 0.0000
      9 ****         1.0002  -0.1975  -1.9592 C.3            1 S1                 0.0000
     10 ****         1.6286   0.3932  -3.0789 O.3            1 S1                 0.0000
     11 ****         1.4090  -1.6833  -1.9129 C.3            1 S1                 0.0000
     12 ****         0.9194  -2.4390  -0.7579 N.3            1 S1                 0.0000
     13 ****         1.5195  -1.9888   0.5031 C.3            1 S1                 0.0000
     14 ****         0.9734  -2.7489   1.7241 C.3            1 S1                 0.0000
     15 ****         1.1855  -4.2611   1.5526 C.3            1 S1                 0.0000
     16 ****         0.5714  -4.9600   2.6150 O.3            1 S1                 0.0000
     17 ****         0.5967  -4.7211   0.2097 C.3            1 S1                 0.0000
     18 ****         1.1649  -3.8710  -0.9394 C.3            1 S1                 0.0000
     19 ****        -1.0370   2.1650  -0.8312 C.ar           1 S1                 0.0000
     20 ****        -0.8885   1.8876   0.5388 C.ar           1 S1                 0.0000
     21 ****        -1.0999   2.9135   1.4835 C.ar           1 S1                 0.0000
     22 ****        -0.9374   2.6028   2.9608 C.3            1 S1                 0.0000
     23 ****        -1.8576   6.2880   1.5342 H              1 S1                 0.0000
     24 ****        -0.8142   5.4596   2.6862 H              1 S1                 0.0000
     25 ****        -2.5524   5.1239   2.6627 H              1 S1                 0.0000
     26 ****        -1.8826   5.4673  -0.6717 H              1 S1                 0.0000
     27 ****        -1.1435   1.9192  -4.0268 H              1 S1                 0.0000
     28 ****        -1.0382  -0.5314  -1.2725 H              1 S1                 0.0000
     29 ****        -0.9012  -0.4080  -3.0115 H              1 S1                 0.0000
     30 ****         1.3762   0.3255  -1.0805 H              1 S1                 0.0000
     31 ****         1.3197  -0.0400  -3.8596 H              1 S1                 0.0000
     32 ****         1.0462  -2.1568  -2.8264 H              1 S1                 0.0000
     33 ****         2.4970  -1.7580  -1.9526 H              1 S1                 0.0000
     34 ****         2.6039  -2.1012   0.4585 H              1 S1                 0.0000
     35 ****         1.3247  -0.9289   0.6582 H              1 S1                 0.0000
     36 ****         1.4647  -2.3987   2.6324 H              1 S1                 0.0000
     37 ****        -0.0893  -2.5298   1.8393 H              1 S1                 0.0000
     38 ****         2.2537  -4.4814   1.5737 H              1 S1                 0.0000
     39 ****        -0.3557  -4.7773   2.5981 H              1 S1                 0.0000
     40 ****         0.8189  -5.7754   0.0401 H              1 S1                 0.0000
     41 ****        -0.4904  -4.6279   0.2250 H              1 S1                 0.0000
     42 ****         0.7142  -4.2042  -1.8751 H              1 S1                 0.0000
     43 ****         2.2368  -4.0540  -1.0316 H              1 S1                 0.0000
     44 ****        -0.6130   0.8932   0.8582 H              1 S1                 0.0000
     45 ****        -0.7536   1.5407   3.1256 H              1 S1                 0.0000
     46 ****        -1.8383   2.8739   3.5118 H              1 S1                 0.0000
     47 ****        -0.0959   3.1580   3.3759 H              1 S1                 0.0000
     48 ****        -1.7245   4.2609  -3.2769 LP             1 S1                 0.0000
     49 ****         2.6201   0.2869  -3.0042 LP             1 S1                 0.0000
     50 ****         1.3998   1.3658  -3.1199 LP             1 S1                 0.0000
     51 ****        -0.0648  -2.2714  -0.7004 LP             1 S1                 0.0000
     52 ****         0.9589  -4.6580   3.4860 LP             1 S1                 0.0000
     53 ****         0.7237  -5.9422   2.5052 LP             1 S1                 0.0000
@<TRIPOS>BOND
    1    1    2 1     
    2    1   23 1     
    3    1   24 1     
    4    1   25 1     
    5    2   21 ar    
    6    2    3 ar    
    7    3    4 ar    
    8    3   26 1     
    9    4   19 ar    
   10    4    5 1     
   11    5    6 2     
   12    6    7 1     
   13    6   27 1     
   14    7    8 1     
   15    7   19 1     
   16    8    9 1     
   17    8   28 1     
   18    8   29 1     
   19    9   10 1     
   20    9   11 1     
   21    9   30 1     
   22   10   31 1     
   23   11   12 1     
   24   11   32 1     
   25   11   33 1     
   26   12   18 1     
   27   12   13 1     
   28   13   14 1     
   29   13   34 1     
   30   13   35 1     
   31   14   15 1     
   32   14   36 1     
   33   14   37 1     
   34   15   16 1     
   35   15   17 1     
   36   15   38 1     
   37   16   39 1     
   38   17   18 1     
   39   17   40 1     
   40   17   41 1     
   41   18   42 1     
   42   18   43 1     
   43   19   20 ar    
   44   20   21 ar    
   45   20   44 1     
   46   21   22 1     
   47   22   45 1     
   48   22   46 1     
   49   22   47 1     
   50    5   48 1     
   51   10   49 1     
   52   10   50 1     
   53   12   51 1     
   54   16   52 1     
   55   16   53 1     
@<TRIPOS>SUBSTRUCTURE
      1 S1             1
@<TRIPOS>SET
LONE_PAIRS      STATIC     ATOMS    <user>   **** ""
6 48 49 50 51 52 53
DONOR_HYDROGENS      STATIC     ATOMS    <user>   **** ""
2 31 39
ATOM$BLUE        STATIC     ATOMS    COLORGROUP SYSTEM
6 48 49 50 51 52 53
ATOM$RED        STATIC     ATOMS    COLORGROUP SYSTEM
2 31 39
