AV-unprocessed.smi:1557|AV-procd|sdf|6270|dock9
  -GOLD-   22720 6463D 1   1.00000     0.00000
 Structure written by MMmdl.
 41 42  0  0  0  0  0  0  0  0  1 V2000
  151.6628  138.1028  154.9851 C   0  0  0  0  0  0  0  0  0  0  0  0
  150.5913  139.1902  155.0944 C   0  0  0  0  0  0  0  0  0  0  0  0
  149.4151  138.7384  154.4307 O   0  0  0  0  0  0  0  0  0  0  0  0
  148.2629  139.4948  154.5305 C   0  0  0  0  0  0  0  0  0  0  0  0
  148.3360  140.7096  155.1303 N   0  0  0  0  0  0  0  0  0  0  0  0
  147.2097  141.4452  155.2304 C   0  0  0  0  0  0  0  0  0  0  0  0
  145.9604  141.0113  154.7499 C   0  0  0  0  0  0  0  0  0  0  0  0
  145.8822  139.7519  154.1271 C   0  0  0  0  0  0  0  0  0  0  0  0
  147.0593  138.9754  154.0003 C   0  0  0  0  0  0  0  0  0  0  0  0
  147.0884  137.6845  153.4058 N   0  0  0  0  0  0  0  0  0  0  0  0
  146.0666  136.8362  153.2050 C   0  0  0  0  0  0  0  0  0  0  0  0
  144.8981  137.0362  153.5371 O   0  0  0  0  0  0  0  0  0  0  0  0
  146.4763  135.7313  152.5642 N   0  0  0  0  0  0  0  0  0  0  0  0
  145.6108  134.6390  152.1169 C   0  0  2  0  0  0  0  0  0  0  0  0
  146.5142  133.4990  151.5825 C   0  0  0  0  0  0  0  0  0  0  0  0
  145.8248  132.4308  150.7044 C   0  0  0  0  0  0  0  0  0  0  0  0
  144.4587  131.9372  151.2235 C   0  0  0  0  0  0  0  0  0  0  0  0
  143.3349  132.9991  151.3463 C   0  0  0  0  0  0  0  0  0  0  0  0
  143.6215  134.2783  150.6964 N   0  0  0  0  0  0  0  0  0  0  0  0
  144.6392  135.0990  151.0068 C   0  0  0  0  0  0  0  0  0  0  0  0
  144.8100  136.1623  150.4111 O   0  0  0  0  0  0  0  0  0  0  0  0
  152.5823  138.4107  155.4835 H   0  0  0  0  0  0  0  0  0  0  0  0
  151.9019  137.8922  153.9425 H   0  0  0  0  0  0  0  0  0  0  0  0
  151.3266  137.1741  155.4468 H   0  0  0  0  0  0  0  0  0  0  0  0
  150.3821  139.3925  156.1461 H   0  0  0  0  0  0  0  0  0  0  0  0
  150.9567  140.1112  154.6375 H   0  0  0  0  0  0  0  0  0  0  0  0
  147.3060  142.4058  155.7144 H   0  0  0  0  0  0  0  0  0  0  0  0
  145.0810  141.6281  154.8604 H   0  0  0  0  0  0  0  0  0  0  0  0
  144.9247  139.4013  153.7740 H   0  0  0  0  0  0  0  0  0  0  0  0
  147.9731  137.4177  152.9991 H   0  0  0  0  0  0  0  0  0  0  0  0
  147.4543  135.6579  152.3260 H   0  0  0  0  0  0  0  0  0  0  0  0
  145.0397  134.2777  152.9734 H   0  0  0  0  0  0  0  0  0  0  0  0
  147.3423  133.9183  151.0086 H   0  0  0  0  0  0  0  0  0  0  0  0
  146.9739  133.0030  152.4384 H   0  0  0  0  0  0  0  0  0  0  0  0
  145.7056  132.8129  149.6895 H   0  0  0  0  0  0  0  0  0  0  0  0
  146.4960  131.5771  150.6056 H   0  0  0  0  0  0  0  0  0  0  0  0
  144.1125  131.1536  150.5487 H   0  0  0  0  0  0  0  0  0  0  0  0
  144.5931  131.4474  152.1888 H   0  0  0  0  0  0  0  0  0  0  0  0
  142.4131  132.6027  150.9198 H   0  0  0  0  0  0  0  0  0  0  0  0
  143.1100  133.1837  152.3976 H   0  0  0  0  0  0  0  0  0  0  0  0
  142.9928  134.5671  149.9609 H   0  0  0  0  0  0  0  0  0  0  0  0
  1  2  1  0  0  0  0
  1 22  1  0  0  0  0
  1 23  1  0  0  0  0
  1 24  1  0  0  0  0
  2  3  1  0  0  0  0
  2 25  1  0  0  0  0
  2 26  1  0  0  0  0
  3  4  1  0  0  0  0
  4  9  1  0  0  0  0
  4  5  2  0  0  0  0
  5  6  1  0  0  0  0
  6  7  2  0  0  0  0
  6 27  1  0  0  0  0
  7  8  1  0  0  0  0
  7 28  1  0  0  0  0
  8  9  2  0  0  0  0
  8 29  1  0  0  0  0
  9 10  1  0  0  0  0
 10 11  1  0  0  0  0
 10 30  1  0  0  0  0
 11 12  2  0  0  0  0
 11 13  1  0  0  0  0
 13 14  1  0  0  0  0
 13 31  1  0  0  0  0
 14 20  1  0  0  0  0
 14 15  1  0  0  0  0
 14 32  1  0  0  0  0
 15 16  1  0  0  0  0
 15 33  1  0  0  0  0
 15 34  1  0  0  0  0
 16 17  1  0  0  0  0
 16 35  1  0  0  0  0
 16 36  1  0  0  0  0
 17 18  1  0  0  0  0
 17 37  1  0  0  0  0
 17 38  1  0  0  0  0
 18 19  1  0  0  0  0
 18 39  1  0  0  0  0
 18 40  1  0  0  0  0
 19 20  1  0  0  0  0
 19 41  1  0  0  0  0
 20 21  2  0  0  0  0
M  END
> <s_m_source_file>
AV-unprocessed.smi

> <i_m_source_file_index>
1557

> <i_lp_mmshare_version>
43012

> <i_f3d_flags>
0

> <s_epik_input>
W0NIM11bQ0gyXU9jMW5bY0hdW2NIXVtjSF1jMVtOSF1DKD1PKVtOSF1bQ0BASF0yW0NIMl1bQ0gyXVtDSDJdW0NIMl1bTkhdQzI9Tw==

> <s_epik_cmdline>
J2VwaWtfcHl0aG9uJywgJy1waCcsICc3LjAnLCAnLXRuJywgJzgnLCAnLW1hJywgJzIwMCcsICctbWV0YWxfYmluZGluZycsICctaW1hZScsICc8aW5maWxlLm1hZT4nLCAnLW9tYWUnLCAnPG91dGZpbGUubWFlPic=

> <r_lp_tautomer_probability>
1

> <r_epik_Ionization_Penalty>
0.000101084

> <r_epik_Ionization_Penalty_Charging>
0

> <r_epik_Ionization_Penalty_Neutral>
0.000101084

> <r_epik_State_Penalty>
-0

> <r_epik_Charging_Adjusted_Penalty>
0

> <i_epik_Tot_Q>
0

> <i_epik_Tot_abs_Q>
0

> <r_epik_Metal_State_Penalty>
-0

> <b_epik_Metal_Only>
0

> <s_lp_Force_Field>
OPLS_2005

> <r_lp_Energy>
17.7694

> <b_lp_Chiralities_Consistent>
1

> <s_lp_Variant>
AV-unprocessed.smi:1557-1

> <Gold.Version>
5.8.1

> <Gold.Id.Protein>
6NUR|6NUR_protein|mol2

> <Gold.PLP.Fitness>
39.2035

> <Gold.PLP.PLP>
-27.7351

> <Gold.PLP.part.hbond>
-2.8249

> <Gold.PLP.part.metal>
0.0000

> <Gold.PLP.part.buried>
-4.3418

> <Gold.PLP.part.nonpolar>
-25.8616

> <Gold.PLP.part.repulsive>
3.7384

> <Gold.PLP.ligand.clash>
0.0000

> <Gold.PLP.ligand.torsion>
0.1971

> <Gold.PLP.Chemscore.Hbond>
2.9520

> <Gold.PLP.Chemscore.CHOScore>
1.0000

> <Gold.PLP.Chemscore.Metal>
0.0000

> <Gold.Chemscore.Hbonds>
donor molecule, donor type, donor heavy atom, donor atom, acceptor molecule, acceptor atom, score
      L1  H    10    30       P1  7948  0.98
      L1  H    13    31       P1  7948  1.00
      L1  H    19    41       P1 10186  0.75
      L1  C     6    27       P1  8028  0.39

> <Gold.PLP.Chemscore.Internal.Correction>
0.0066

> <Gold.Rescore>
     Score         DG    S(hbond)    S(metal)    S(lipo)     H(rot)  DE(clash)    DE(int)     intcor
     14.86     -18.31       2.69        0.00      65.60       1.49       1.73       1.72       ----

> <Gold.Chemscore.Fitness>
14.8645

> <Gold.Chemscore.DG>
-18.3114

> <Gold.Chemscore.ZeroCoef>
-5.4800

> <Gold.Chemscore.Hbond>
2.6896

> <Gold.Chemscore.Metal>
0.0000

> <Gold.Chemscore.Lipo>
65.5981

> <Gold.Chemscore.Internal_Hbond>
0.0000

> <Gold.Chemscore.DEClash>
1.7289

> <Gold.Chemscore.DEInternal>
1.7180

> <Gold.Chemscore.Rot>
1.4948

> <Gold.Chemscore.Internal.Correction>
   9.000000E+99

> <Gold.Chemscore.Hbonds>
donor molecule, donor type, donor heavy atom, donor atom, acceptor molecule, acceptor atom, score
      L1  H    10    30       P1  7948  0.93
      L1  H    13    31       P1  7948  0.98
      L1  H    19    41       P1 10186  0.60

> <Gold.Chemscore.Hbond.Weighted>
-8.9832

> <Gold.Chemscore.Metal.Weighted>
-0.0000

> <Gold.Chemscore.Lipo.Weighted>
-7.6750

> <Gold.Chemscore.Internal_Hbond.Weighted>
0.0000

> <Gold.Chemscore.DEClash.Weighted>
1.7289

> <Gold.Chemscore.DEInternal.Weighted>
1.7180

> <Gold.Chemscore.Rot.Weighted>
3.8268

> <Gold.Chemscore.Internal.Correction.Weighted>
   9.000000E+99

> <Gold.Protein.RotatedTorsions>
[ 6907 6896 6895 6894 ] final   38.36 input  -60.11 | X-H torsion
[ 7974 7965 7964 7962 ] final -129.57 input  175.53 | X-H torsion
[ 8008 7997 7996 7995 ] final -135.37 input   59.86 | X-H torsion
[ 10167 10162 10161 10158 ] final -115.21 input  -65.29 | X-H torsion
[ 10718 10713 10712 10709 ] final   92.73 input   66.30 | X-H torsion
[ 10763 10752 10751 10750 ] final    3.68 input  -60.55 | X-H torsion
[ 11005 11000 10999 10996 ] final  153.45 input  -57.11 | X-H torsion

> <Gold.Protein.ActiveResidues>
 VAL166  LYS551  ARG553  GLY616  TRP617  ASP618  TYR619  PRO620  LYS621  CYS622 
 ASP623  PHE694  ASN695  SER759  ASP760  ASP761  ALA762  ILE779  LEU786  VAL792 
 PHE793  MET794  SER795  GLU796  ALA797  LYS798  CYS799  TRP800  GLU811  SER814 

> <Gold.Protein.RotatedAtoms>
  152.1554  134.8955  160.0545 H   0  0  0  0  0  0  0  0  0  0  0  0  # atno 6907 bound_to 6896
  151.9971  133.3807  159.4175 H   0  0  0  0  0  0  0  0  0  0  0  0  # atno 6908 bound_to 6896
  150.6881  134.3797  159.5072 H   0  0  0  0  0  0  0  0  0  0  0  0  # atno 6909 bound_to 6896
  144.9559  140.7395  143.4759 H   0  0  0  0  0  0  0  0  0  0  0  0  # atno 7974 bound_to 7965
  155.3775  140.0492  157.3044 H   0  0  0  0  0  0  0  0  0  0  0  0  # atno 8008 bound_to 7997
  154.5099  140.2188  155.9139 H   0  0  0  0  0  0  0  0  0  0  0  0  # atno 8009 bound_to 7997
  156.1570  140.3124  155.8748 H   0  0  0  0  0  0  0  0  0  0  0  0  # atno 8010 bound_to 7997
  140.0926  143.4686  152.1861 H   0  0  0  0  0  0  0  0  0  0  0  0  # atno 10167 bound_to 10162
  157.6957  131.0453  150.3926 H   0  0  0  0  0  0  0  0  0  0  0  0  # atno 10718 bound_to 10713
  153.2804  135.6940  153.7391 H   0  0  0  0  0  0  0  0  0  0  0  0  # atno 10763 bound_to 10752
  153.6380  135.3398  155.3063 H   0  0  0  0  0  0  0  0  0  0  0  0  # atno 10764 bound_to 10752
  154.8493  135.4425  154.1856 H   0  0  0  0  0  0  0  0  0  0  0  0  # atno 10765 bound_to 10752
  140.1399  134.8746  157.2317 H   0  0  0  0  0  0  0  0  0  0  0  0  # atno 11005 bound_to 11000
  145.2773  139.1931  143.4809 LP  0  0  0  0  0  0  0  0  0  0  0  0  # atno 17320 bound_to 7965
  146.3337  140.2729  142.8606 LP  0  0  0  0  0  0  0  0  0  0  0  0  # atno 17321 bound_to 7965
  139.5716  144.7466  151.3875 LP  0  0  0  0  0  0  0  0  0  0  0  0  # atno 17342 bound_to 10162
  140.7020  143.7607  150.7419 LP  0  0  0  0  0  0  0  0  0  0  0  0  # atno 17343 bound_to 10162
  156.4328  130.3975  149.6749 LP  0  0  0  0  0  0  0  0  0  0  0  0  # atno 17370 bound_to 10713
  156.3960  130.7651  151.2656 LP  0  0  0  0  0  0  0  0  0  0  0  0  # atno 17371 bound_to 10713
  140.2735  134.3432  155.7365 LP  0  0  0  0  0  0  0  0  0  0  0  0  # atno 17394 bound_to 11000
  141.2184  133.7437  156.9258 LP  0  0  0  0  0  0  0  0  0  0  0  0  # atno 17395 bound_to 11000

$$$$
