AV-unprocessed.smi:635|AV-procd|sdf|3139|dock9
  -GOLD-   22720 0 63D 1   1.00000     0.00000
 Structure written by MMmdl.
 37 38  0  0  0  0  0  0  0  0  1 V2000
  149.4167  132.2238  154.6021 C   0  0  0  0  0  0  0  0  0  0  0  0
  150.0203  133.3057  155.5043 C   0  0  0  0  0  0  0  0  0  0  0  0
  149.8083  134.7229  154.9496 C   0  0  0  0  0  0  0  0  0  0  0  0
  150.1797  135.8217  155.9532 C   0  0  0  0  0  0  0  0  0  0  0  0
  151.3909  136.4427  155.5378 O   0  0  0  0  0  0  0  0  0  0  0  0
  151.2411  137.4317  154.5232 C   0  0  0  0  0  0  0  0  0  0  0  0
  151.2168  138.8448  155.1165 C   0  0  0  0  0  0  0  0  0  0  0  0
  150.7305  139.7653  154.4601 O   0  0  0  0  0  0  0  0  0  0  0  0
  151.7554  138.9777  156.3432 N   0  0  0  0  0  0  0  0  0  0  0  0
  151.8833  140.1566  157.1227 C   0  0  0  0  0  0  0  0  0  0  0  0
  150.9917  141.1988  156.7933 C   0  0  0  0  0  0  0  0  0  0  0  0
  151.0607  142.3931  157.5305 C   0  0  0  0  0  0  0  0  0  0  0  0
  152.0233  142.4680  158.5543 C   0  0  0  0  0  0  0  0  0  0  0  0
  152.1835  143.6807  159.4172 C   0  0  0  0  0  0  0  0  0  0  0  0
  151.1804  144.8122  159.3779 C   0  0  0  0  0  0  0  0  0  0  0  0
  152.5654  145.0135  158.8150 C   0  0  0  0  0  0  0  0  0  0  0  0
  152.8519  141.4382  158.8364 N   0  0  0  0  0  0  0  0  0  0  0  0
  152.7830  140.3056  158.1293 N   0  0  0  0  0  0  0  0  0  0  0  0
  149.5806  131.2316  155.0231 H   0  0  0  0  0  0  0  0  0  0  0  0
  149.8667  132.2427  153.6091 H   0  0  0  0  0  0  0  0  0  0  0  0
  148.3413  132.3624  154.4864 H   0  0  0  0  0  0  0  0  0  0  0  0
  149.5777  133.2291  156.4979 H   0  0  0  0  0  0  0  0  0  0  0  0
  151.0871  133.1164  155.6270 H   0  0  0  0  0  0  0  0  0  0  0  0
  150.4121  134.8474  154.0500 H   0  0  0  0  0  0  0  0  0  0  0  0
  148.7697  134.8491  154.6414 H   0  0  0  0  0  0  0  0  0  0  0  0
  149.3781  136.5588  156.0185 H   0  0  0  0  0  0  0  0  0  0  0  0
  150.2954  135.3797  156.9433 H   0  0  0  0  0  0  0  0  0  0  0  0
  152.0912  137.3607  153.8444 H   0  0  0  0  0  0  0  0  0  0  0  0
  150.3442  137.2447  153.9302 H   0  0  0  0  0  0  0  0  0  0  0  0
  152.1044  138.1316  156.7694 H   0  0  0  0  0  0  0  0  0  0  0  0
  150.2705  141.0886  155.9965 H   0  0  0  0  0  0  0  0  0  0  0  0
  150.3977  143.2187  157.3183 H   0  0  0  0  0  0  0  0  0  0  0  0
  152.6113  143.4194  160.3833 H   0  0  0  0  0  0  0  0  0  0  0  0
  150.3604  144.7501  158.6651 H   0  0  0  0  0  0  0  0  0  0  0  0
  150.9520  145.3224  160.3115 H   0  0  0  0  0  0  0  0  0  0  0  0
  153.2401  145.6516  159.3820 H   0  0  0  0  0  0  0  0  0  0  0  0
  152.6604  145.0743  157.7325 H   0  0  0  0  0  0  0  0  0  0  0  0
  1  2  1  0  0  0  0
  1 19  1  0  0  0  0
  1 20  1  0  0  0  0
  1 21  1  0  0  0  0
  2  3  1  0  0  0  0
  2 22  1  0  0  0  0
  2 23  1  0  0  0  0
  3  4  1  0  0  0  0
  3 24  1  0  0  0  0
  3 25  1  0  0  0  0
  4  5  1  0  0  0  0
  4 26  1  0  0  0  0
  4 27  1  0  0  0  0
  5  6  1  0  0  0  0
  6  7  1  0  0  0  0
  6 28  1  0  0  0  0
  6 29  1  0  0  0  0
  7  8  2  0  0  0  0
  7  9  1  0  0  0  0
  9 10  1  0  0  0  0
  9 30  1  0  0  0  0
 10 18  1  0  0  0  0
 10 11  2  0  0  0  0
 11 12  1  0  0  0  0
 11 31  1  0  0  0  0
 12 13  2  0  0  0  0
 12 32  1  0  0  0  0
 13 14  1  0  0  0  0
 13 17  1  0  0  0  0
 14 16  1  0  0  0  0
 14 15  1  0  0  0  0
 14 33  1  0  0  0  0
 15 16  1  0  0  0  0
 15 34  1  0  0  0  0
 15 35  1  0  0  0  0
 16 36  1  0  0  0  0
 16 37  1  0  0  0  0
 17 18  2  0  0  0  0
M  END
> <s_m_source_file>
AV-unprocessed.smi

> <i_m_source_file_index>
635

> <i_lp_mmshare_version>
43012

> <i_f3d_flags>
0

> <s_epik_input>
W0NIM11bQ0gyXVtDSDJdW0NIMl1PW0NIMl1DKD1PKVtOSF1jMVtjSF1bY0hdYyhubjEpW0NIXTJbQ0gyXVtDSDJdMg==

> <s_epik_cmdline>
J2VwaWtfcHl0aG9uJywgJy1waCcsICc3LjAnLCAnLXRuJywgJzgnLCAnLW1hJywgJzIwMCcsICctbWV0YWxfYmluZGluZycsICctaW1hZScsICc8aW5maWxlLm1hZT4nLCAnLW9tYWUnLCAnPG91dGZpbGUubWFlPic=

> <r_lp_tautomer_probability>
1

> <r_epik_Ionization_Penalty>
0.00559584

> <r_epik_Ionization_Penalty_Charging>
0

> <r_epik_Ionization_Penalty_Neutral>
0.00559584

> <r_epik_State_Penalty>
-0

> <r_epik_Charging_Adjusted_Penalty>
0

> <i_epik_Tot_Q>
0

> <i_epik_Tot_abs_Q>
0

> <r_epik_Metal_State_Penalty>
-0

> <b_epik_Metal_Only>
0

> <s_lp_Force_Field>
OPLS_2005

> <r_lp_Energy>
16.6483

> <b_lp_Chiralities_Consistent>
1

> <s_lp_Variant>
AV-unprocessed.smi:635-1

> <Gold.Version>
5.8.1

> <Gold.Id.Protein>
6NUR|6NUR_protein|mol2

> <Gold.PLP.Fitness>
45.5148

> <Gold.PLP.PLP>
-38.9882

> <Gold.PLP.part.hbond>
-3.0000

> <Gold.PLP.part.metal>
0.0000

> <Gold.PLP.part.buried>
-3.8238

> <Gold.PLP.part.nonpolar>
-32.0323

> <Gold.PLP.part.repulsive>
0.3394

> <Gold.PLP.ligand.clash>
0.0000

> <Gold.PLP.ligand.torsion>
1.2245

> <Gold.PLP.Chemscore.Hbond>
2.9280

> <Gold.PLP.Chemscore.CHOScore>
0.0000

> <Gold.PLP.Chemscore.Metal>
0.0000

> <Gold.Chemscore.Hbonds>
donor molecule, donor type, donor heavy atom, donor atom, acceptor molecule, acceptor atom, score
      P1  H  7989  7998       L1     8  1.00
      P1  H  7997  8008       L1    18  0.54
      P1  H 10752 10763       L1     5  0.75

> <Gold.PLP.Chemscore.Internal.Correction>
0.1915

> <Gold.Rescore>
     Score         DG    S(hbond)    S(metal)    S(lipo)     H(rot)  DE(clash)    DE(int)     intcor
     15.56     -18.24       2.08        0.00      89.43       1.82       0.09       2.59       ----

> <Gold.Chemscore.Fitness>
15.5610

> <Gold.Chemscore.DG>
-18.2372

> <Gold.Chemscore.ZeroCoef>
-5.4800

> <Gold.Chemscore.Hbond>
2.0782

> <Gold.Chemscore.Metal>
0.0000

> <Gold.Chemscore.Lipo>
89.4297

> <Gold.Chemscore.Internal_Hbond>
0.0000

> <Gold.Chemscore.DEClash>
0.0866

> <Gold.Chemscore.DEInternal>
2.5895

> <Gold.Chemscore.Rot>
1.8153

> <Gold.Chemscore.Internal.Correction>
   9.000000E+99

> <Gold.Chemscore.Hbonds>
donor molecule, donor type, donor heavy atom, donor atom, acceptor molecule, acceptor atom, score
      P1  H  7989  7998       L1     8  1.00
      P1  H  7997  8008       L1    18  0.05
      P1  H 10752 10763       L1     5  0.09

> <Gold.Chemscore.Hbond.Weighted>
-6.9411

> <Gold.Chemscore.Metal.Weighted>
-0.0000

> <Gold.Chemscore.Lipo.Weighted>
-10.4633

> <Gold.Chemscore.Internal_Hbond.Weighted>
0.0000

> <Gold.Chemscore.DEClash.Weighted>
0.0866

> <Gold.Chemscore.DEInternal.Weighted>
2.5895

> <Gold.Chemscore.Rot.Weighted>
4.6472

> <Gold.Chemscore.Internal.Correction.Weighted>
   9.000000E+99

> <Gold.Protein.RotatedTorsions>
[ 6907 6896 6895 6894 ] final   61.47 input  -60.11 | X-H torsion
[ 7974 7965 7964 7962 ] final -141.10 input  175.53 | X-H torsion
[ 8008 7997 7996 7995 ] final  -75.80 input   59.86 | X-H torsion
[ 10167 10162 10161 10158 ] final   -1.15 input  -65.29 | X-H torsion
[ 10718 10713 10712 10709 ] final  124.06 input   66.30 | X-H torsion
[ 10763 10752 10751 10750 ] final   64.35 input  -60.55 | X-H torsion
[ 11005 11000 10999 10996 ] final  115.72 input  -57.11 | X-H torsion

> <Gold.Protein.ActiveResidues>
 VAL166  LYS551  ARG553  GLY616  TRP617  ASP618  TYR619  PRO620  LYS621  CYS622 
 ASP623  PHE694  ASN695  SER759  ASP760  ASP761  ALA762  ILE779  LEU786  VAL792 
 PHE793  MET794  SER795  GLU796  ALA797  LYS798  CYS799  TRP800  GLU811  SER814 

> <Gold.Protein.RotatedAtoms>
  152.4091  134.6155  160.0036 H   0  0  0  0  0  0  0  0  0  0  0  0  # atno 6907 bound_to 6896
  151.6337  133.3325  159.3122 H   0  0  0  0  0  0  0  0  0  0  0  0  # atno 6908 bound_to 6896
  150.7984  134.7101  159.6643 H   0  0  0  0  0  0  0  0  0  0  0  0  # atno 6909 bound_to 6896
  144.8545  140.6120  143.5368 H   0  0  0  0  0  0  0  0  0  0  0  0  # atno 7974 bound_to 7965
  154.5449  140.0738  156.8572 H   0  0  0  0  0  0  0  0  0  0  0  0  # atno 8008 bound_to 7997
  155.3107  140.3390  155.4226 H   0  0  0  0  0  0  0  0  0  0  0  0  # atno 8009 bound_to 7997
  156.1909  140.1685  156.8081 H   0  0  0  0  0  0  0  0  0  0  0  0  # atno 8010 bound_to 7997
  140.6798  143.6810  150.8106 H   0  0  0  0  0  0  0  0  0  0  0  0  # atno 10167 bound_to 10162
  157.5615  131.1089  150.8529 H   0  0  0  0  0  0  0  0  0  0  0  0  # atno 10718 bound_to 10713
  153.0052  135.5396  154.6496 H   0  0  0  0  0  0  0  0  0  0  0  0  # atno 10763 bound_to 10752
  154.5732  135.2843  155.0809 H   0  0  0  0  0  0  0  0  0  0  0  0  # atno 10764 bound_to 10752
  154.1967  135.6491  153.5128 H   0  0  0  0  0  0  0  0  0  0  0  0  # atno 10765 bound_to 10752
  139.9019  134.9588  156.7088 H   0  0  0  0  0  0  0  0  0  0  0  0  # atno 11005 bound_to 11000
  145.4433  139.1533  143.3958 LP  0  0  0  0  0  0  0  0  0  0  0  0  # atno 17320 bound_to 7965
  146.2812  140.4556  142.8775 LP  0  0  0  0  0  0  0  0  0  0  0  0  # atno 17321 bound_to 7965
  140.0508  143.5251  152.2674 LP  0  0  0  0  0  0  0  0  0  0  0  0  # atno 17342 bound_to 10162
  139.6113  144.7609  151.2947 LP  0  0  0  0  0  0  0  0  0  0  0  0  # atno 17343 bound_to 10162
  156.9026  130.5252  149.5282 LP  0  0  0  0  0  0  0  0  0  0  0  0  # atno 17370 bound_to 10713
  156.0667  130.5709  150.9303 LP  0  0  0  0  0  0  0  0  0  0  0  0  # atno 17371 bound_to 10713
  140.7092  133.9238  155.8073 LP  0  0  0  0  0  0  0  0  0  0  0  0  # atno 17394 bound_to 11000
  141.0313  134.0752  157.4010 LP  0  0  0  0  0  0  0  0  0  0  0  0  # atno 17395 bound_to 11000

$$$$
