AV-unprocessed.smi:1487|AV-procd|sdf|6014|dock3
  -GOLD-   22720 6113D 1   1.00000     0.00000
 Structure written by MMmdl.
 48 50  0  0  0  0  0  0  0  0  2 V2000
  153.0290  143.0119  160.1306 C   0  0  0  0  0  0  0  0  0  0  0  0
  152.0816  142.2745  159.2007 C   0  0  0  0  0  0  0  0  0  0  0  0
  152.1854  140.8696  159.0873 C   0  0  0  0  0  0  0  0  0  0  0  0
  151.3246  140.1466  158.2330 C   0  0  0  0  0  0  0  0  0  0  0  0
  151.2482  138.7890  157.9722 N   0  0  0  0  0  0  0  0  0  0  0  0
  150.2509  138.7400  157.0943 C   0  0  0  0  0  0  0  0  0  0  0  0
  149.6668  139.9062  156.7586 N   0  0  0  0  0  0  0  0  0  0  0  0
  148.5663  140.0978  155.8305 C   0  0  0  0  0  0  0  0  0  0  0  0
  148.8441  141.2140  154.8054 C   0  0  1  0  0  0  0  0  0  0  0  0
  149.9709  140.8658  154.0237 O   0  0  0  0  0  0  0  0  0  0  0  0
  147.6433  141.4306  153.8635 C   0  0  0  0  0  0  0  0  0  0  0  0
  146.6393  142.3704  154.4254 N   0  3  2  0  0  0  0  0  0  0  0  0
  146.0556  141.9048  155.7125 C   0  0  0  0  0  0  0  0  0  0  0  0
  145.1226  142.9675  156.3177 C   0  0  0  0  0  0  0  0  0  0  0  0
  144.0154  143.3530  155.3284 C   0  0  0  0  0  0  0  0  0  0  0  0
  144.6395  143.8031  153.9997 C   0  0  2  0  0  0  0  0  0  0  0  0
  143.6165  144.0612  153.0622 O   0  0  0  0  0  0  0  0  0  0  0  0
  145.5832  142.7221  153.4410 C   0  0  0  0  0  0  0  0  0  0  0  0
  150.3490  140.8733  157.4895 C   0  0  0  0  0  0  0  0  0  0  0  0
  150.2349  142.2707  157.5949 C   0  0  0  0  0  0  0  0  0  0  0  0
  151.1036  142.9775  158.4523 C   0  0  0  0  0  0  0  0  0  0  0  0
  150.9723  144.4866  158.5591 C   0  0  0  0  0  0  0  0  0  0  0  0
  153.6734  142.3195  160.6733 H   0  0  0  0  0  0  0  0  0  0  0  0
  152.4712  143.5929  160.8653 H   0  0  0  0  0  0  0  0  0  0  0  0
  153.6675  143.6899  159.5638 H   0  0  0  0  0  0  0  0  0  0  0  0
  152.9300  140.3341  159.6577 H   0  0  0  0  0  0  0  0  0  0  0  0
  149.9232  137.8010  156.6726 H   0  0  0  0  0  0  0  0  0  0  0  0
  148.3685  139.1522  155.3244 H   0  0  0  0  0  0  0  0  0  0  0  0
  147.6716  140.3331  156.4083 H   0  0  0  0  0  0  0  0  0  0  0  0
  149.0764  142.1306  155.3472 H   0  0  0  0  0  0  0  0  0  0  0  0
  149.6888  140.7366  153.1302 H   0  0  0  0  0  0  0  0  0  0  0  0
  148.0189  141.8131  152.9128 H   0  0  0  0  0  0  0  0  0  0  0  0
  147.1580  140.4806  153.6347 H   0  0  0  0  0  0  0  0  0  0  0  0
  145.5055  140.9770  155.5482 H   0  0  0  0  0  0  0  0  0  0  0  0
  146.8449  141.6792  156.4286 H   0  0  0  0  0  0  0  0  0  0  0  0
  144.6807  142.5933  157.2418 H   0  0  0  0  0  0  0  0  0  0  0  0
  145.7001  143.8527  156.5870 H   0  0  0  0  0  0  0  0  0  0  0  0
  143.3593  142.4968  155.1633 H   0  0  0  0  0  0  0  0  0  0  0  0
  143.3964  144.1468  155.7483 H   0  0  0  0  0  0  0  0  0  0  0  0
  145.1974  144.7279  154.1539 H   0  0  0  0  0  0  0  0  0  0  0  0
  143.5501  143.3233  152.4748 H   0  0  0  0  0  0  0  0  0  0  0  0
  146.0456  143.0893  152.5237 H   0  0  0  0  0  0  0  0  0  0  0  0
  145.0222  141.8236  153.1773 H   0  0  0  0  0  0  0  0  0  0  0  0
  149.4843  142.7946  157.0217 H   0  0  0  0  0  0  0  0  0  0  0  0
  150.2001  144.8676  157.8901 H   0  0  0  0  0  0  0  0  0  0  0  0
  151.9120  144.9731  158.2963 H   0  0  0  0  0  0  0  0  0  0  0  0
  150.7053  144.7743  159.5763 H   0  0  0  0  0  0  0  0  0  0  0  0
  147.1375  143.2282  154.6172 H   0  0  0  0  0  0  0  0  0  0  0  0
  1  2  1  0  0  0  0
  1 23  1  0  0  0  0
  1 24  1  0  0  0  0
  1 25  1  0  0  0  0
  2 21  1  0  0  0  0
  2  3  2  0  0  0  0
  3  4  1  0  0  0  0
  3 26  1  0  0  0  0
  4 19  2  0  0  0  0
  4  5  1  0  0  0  0
  5  6  2  0  0  0  0
  6  7  1  0  0  0  0
  6 27  1  0  0  0  0
  7  8  1  0  0  0  0
  7 19  1  0  0  0  0
  8  9  1  0  0  0  0
  8 28  1  0  0  0  0
  8 29  1  0  0  0  0
  9 10  1  0  0  0  0
  9 11  1  0  0  0  0
  9 30  1  0  0  0  0
 10 31  1  0  0  0  0
 11 12  1  0  0  0  0
 11 32  1  0  0  0  0
 11 33  1  0  0  0  0
 12 18  1  0  0  0  0
 12 13  1  0  0  0  0
 12 48  1  0  0  0  0
 13 14  1  0  0  0  0
 13 34  1  0  0  0  0
 13 35  1  0  0  0  0
 14 15  1  0  0  0  0
 14 36  1  0  0  0  0
 14 37  1  0  0  0  0
 15 16  1  0  0  0  0
 15 38  1  0  0  0  0
 15 39  1  0  0  0  0
 16 17  1  0  0  0  0
 16 18  1  0  0  0  0
 16 40  1  0  0  0  0
 17 41  1  0  0  0  0
 18 42  1  0  0  0  0
 18 43  1  0  0  0  0
 19 20  1  0  0  0  0
 20 21  2  0  0  0  0
 20 44  1  0  0  0  0
 21 22  1  0  0  0  0
 22 45  1  0  0  0  0
 22 46  1  0  0  0  0
 22 47  1  0  0  0  0
M  CHG  1  12   1
M  END
> <s_m_source_file>
AV-unprocessed.smi

> <i_m_source_file_index>
1487

> <i_lp_mmshare_version>
43012

> <i_f3d_flags>
0

> <s_epik_input>
W0NIM11jKFtjSF0xKWMoW0NIM10pW2NIXWMoYzEyKW4oW2NIXW4yKVtDSDJdW0NASF0oW09IXSlbQ0gyXU4zW0NIMl1bQ0gyXVtDSDJdW0NAQEhdKFtPSF0pW0NIMl0z

> <s_epik_cmdline>
J2VwaWtfcHl0aG9uJywgJy1waCcsICc3LjAnLCAnLXRuJywgJzgnLCAnLW1hJywgJzIwMCcsICctbWV0YWxfYmluZGluZycsICctaW1hZScsICc8aW5maWxlLm1hZT4nLCAnLW9tYWUnLCAnPG91dGZpbGUubWFlPic=

> <r_epik_Ionization_Penalty>
0.0940186

> <r_epik_Ionization_Penalty_Charging>
0.00679686

> <r_epik_Ionization_Penalty_Neutral>
0.0872218

> <r_epik_State_Penalty>
0.0799311

> <r_epik_Charging_Adjusted_Penalty>
0.086728

> <i_epik_Tot_Q>
1

> <i_epik_Tot_abs_Q>
1

> <r_epik_Metal_State_Penalty>
7.95545e-05

> <b_epik_Metal_Only>
0

> <s_lp_Force_Field>
OPLS_2005

> <r_lp_Energy>
21.0759

> <b_lp_Chiralities_Consistent>
1

> <s_lp_Variant>
AV-unprocessed.smi:1487-8

> <Gold.Version>
5.8.1

> <Gold.Id.Protein>
6NUR|6NUR_protein|mol2

> <Gold.PLP.Fitness>
54.3589

> <Gold.PLP.PLP>
-42.8292

> <Gold.PLP.part.hbond>
-5.4873

> <Gold.PLP.part.metal>
0.0000

> <Gold.PLP.part.buried>
-7.7793

> <Gold.PLP.part.nonpolar>
-29.4649

> <Gold.PLP.part.repulsive>
0.1337

> <Gold.PLP.ligand.clash>
0.0000

> <Gold.PLP.ligand.torsion>
0.4368

> <Gold.PLP.Chemscore.Hbond>
4.1104

> <Gold.PLP.Chemscore.CHOScore>
0.0000

> <Gold.PLP.Chemscore.Metal>
0.0000

> <Gold.Chemscore.Hbonds>
donor molecule, donor type, donor heavy atom, donor atom, acceptor molecule, acceptor atom, score
      L1  H    10    31       P1  7957  0.86
      L1  H    17    41       P1 10174  0.21
      P1  H  7989  7998       L1    10  0.24

> <Gold.PLP.Chemscore.Internal.Correction>
0.0723

> <Gold.Rescore>
     Score         DG    S(hbond)    S(metal)    S(lipo)     H(rot)  DE(clash)    DE(int)     intcor
     18.30     -18.75       2.13        0.00     111.09       2.67       0.02       0.43       ----

> <Gold.Chemscore.Fitness>
18.2964

> <Gold.Chemscore.DG>
-18.7485

> <Gold.Chemscore.ZeroCoef>
-5.4800

> <Gold.Chemscore.Hbond>
2.1286

> <Gold.Chemscore.Metal>
0.0000

> <Gold.Chemscore.Lipo>
111.0873

> <Gold.Chemscore.Internal_Hbond>
0.0000

> <Gold.Chemscore.DEClash>
0.0173

> <Gold.Chemscore.DEInternal>
0.4347

> <Gold.Chemscore.Rot>
2.6712

> <Gold.Chemscore.Internal.Correction>
   9.000000E+99

> <Gold.Chemscore.Hbonds>
donor molecule, donor type, donor heavy atom, donor atom, acceptor molecule, acceptor atom, score
      L1  H    10    31       P1  7957  0.84
      L1  H    17    41       P1 10174  0.08
      P1  H  7989  7998       L1    10  0.01

> <Gold.Chemscore.Hbond.Weighted>
-7.1096

> <Gold.Chemscore.Metal.Weighted>
-0.0000

> <Gold.Chemscore.Lipo.Weighted>
-12.9972

> <Gold.Chemscore.Internal_Hbond.Weighted>
0.0000

> <Gold.Chemscore.DEClash.Weighted>
0.0173

> <Gold.Chemscore.DEInternal.Weighted>
0.4347

> <Gold.Chemscore.Rot.Weighted>
6.8383

> <Gold.Chemscore.Internal.Correction.Weighted>
   9.000000E+99

> <Gold.Protein.RotatedTorsions>
[ 6907 6896 6895 6894 ] final  -99.05 input  -60.11 | X-H torsion
[ 7974 7965 7964 7962 ] final   98.70 input  175.53 | X-H torsion
[ 8008 7997 7996 7995 ] final  140.79 input   59.86 | X-H torsion
[ 10167 10162 10161 10158 ] final  105.68 input  -65.29 | X-H torsion
[ 10718 10713 10712 10709 ] final  -75.47 input   66.30 | X-H torsion
[ 10763 10752 10751 10750 ] final -105.07 input  -60.55 | X-H torsion
[ 11005 11000 10999 10996 ] final   62.58 input  -57.11 | X-H torsion

> <Gold.Protein.ActiveResidues>
 VAL166  LYS551  ARG553  GLY616  TRP617  ASP618  TYR619  PRO620  LYS621  CYS622 
 ASP623  PHE694  ASN695  SER759  ASP760  ASP761  ALA762  ILE779  LEU786  VAL792 
 PHE793  MET794  SER795  GLU796  ALA797  LYS798  CYS799  TRP800  GLU811  SER814 

> <Gold.Protein.RotatedAtoms>
  150.7067  134.1101  159.3996 H   0  0  0  0  0  0  0  0  0  0  0  0  # atno 6907 bound_to 6896
  151.9087  135.0345  160.0522 H   0  0  0  0  0  0  0  0  0  0  0  0  # atno 6908 bound_to 6896
  152.2353  133.5056  159.5276 H   0  0  0  0  0  0  0  0  0  0  0  0  # atno 6909 bound_to 6896
  145.4086  139.2337  143.3260 H   0  0  0  0  0  0  0  0  0  0  0  0  # atno 7974 bound_to 7965
  156.2974  140.2332  156.4459 H   0  0  0  0  0  0  0  0  0  0  0  0  # atno 8008 bound_to 7997
  154.8145  140.0441  157.1387 H   0  0  0  0  0  0  0  0  0  0  0  0  # atno 8009 bound_to 7997
  154.9385  140.3026  155.5136 H   0  0  0  0  0  0  0  0  0  0  0  0  # atno 8010 bound_to 7997
  139.7073  144.7084  151.1086 H   0  0  0  0  0  0  0  0  0  0  0  0  # atno 10167 bound_to 10162
  156.0206  130.4441  150.3047 H   0  0  0  0  0  0  0  0  0  0  0  0  # atno 10718 bound_to 10713
  154.7922  135.4762  154.0078 H   0  0  0  0  0  0  0  0  0  0  0  0  # atno 10763 bound_to 10752
  153.1648  135.6815  153.8698 H   0  0  0  0  0  0  0  0  0  0  0  0  # atno 10764 bound_to 10752
  153.8300  135.3193  155.3396 H   0  0  0  0  0  0  0  0  0  0  0  0  # atno 10765 bound_to 10752
  140.0082  134.6337  155.9821 H   0  0  0  0  0  0  0  0  0  0  0  0  # atno 11005 bound_to 11000
  146.2716  140.4795  142.8812 LP  0  0  0  0  0  0  0  0  0  0  0  0  # atno 17320 bound_to 7965
  144.8324  140.6728  143.6282 LP  0  0  0  0  0  0  0  0  0  0  0  0  # atno 17321 bound_to 7965
  140.7724  143.5341  150.9388 LP  0  0  0  0  0  0  0  0  0  0  0  0  # atno 17342 bound_to 10162
  139.9025  143.6818  152.3129 LP  0  0  0  0  0  0  0  0  0  0  0  0  # atno 17343 bound_to 10162
  157.1150  131.0231  151.3033 LP  0  0  0  0  0  0  0  0  0  0  0  0  # atno 17370 bound_to 10713
  157.4674  130.7689  149.7292 LP  0  0  0  0  0  0  0  0  0  0  0  0  # atno 17371 bound_to 10713
  141.1692  133.6537  156.4590 LP  0  0  0  0  0  0  0  0  0  0  0  0  # atno 17394 bound_to 11000
  140.4602  134.6848  157.5082 LP  0  0  0  0  0  0  0  0  0  0  0  0  # atno 17395 bound_to 11000

$$$$
