AV-unprocessed.smi:393|AV-procd|sdf|2484|dock9
  -GOLD-   2262022423D 1   1.00000     0.00000
 Structure written by MMmdl.
 43 44  0  0  0  0  0  0  0  0  1 V2000
  150.8672  144.5184  159.3399 C   0  0  0  0  0  0  0  0  0  0  0  0
  152.0258  144.6822  160.3297 C   0  0  0  0  0  0  0  0  0  0  0  0
  152.7485  143.3579  160.6147 C   0  0  0  0  0  0  0  0  0  0  0  0
  153.3606  142.7372  159.3469 C   0  0  0  0  0  0  0  0  0  0  0  0
  154.0784  141.4182  159.6405 C   0  0  0  0  0  0  0  0  0  0  0  0
  153.6597  140.3647  159.1607 O   0  0  0  0  0  0  0  0  0  0  0  0
  155.1653  141.4897  160.4241 N   0  0  0  0  0  0  0  0  0  0  0  0
  156.0186  140.3582  160.7737 C   0  0  0  0  0  0  0  0  0  0  0  0
  157.2356  140.7142  161.6193 C   0  0  0  0  0  0  0  0  0  0  0  0
  158.1144  139.6957  162.0360 C   0  0  0  0  0  0  0  0  0  0  0  0
  159.2349  140.0499  162.8093 C   0  0  0  0  0  0  0  0  0  0  0  0
  159.5079  141.3182  163.1790 N   0  0  0  0  0  0  0  0  0  0  0  0
  158.6632  142.3083  162.7983 C   0  0  0  0  0  0  0  0  0  0  0  0
  158.9606  143.6308  163.1938 N   0  0  0  0  0  0  0  0  0  0  0  0
  158.0055  144.6527  162.7725 C   0  0  0  0  0  0  0  0  0  0  0  0
  158.5987  146.0570  162.9791 C   0  0  0  0  0  0  0  0  0  0  0  0
  159.0116  146.2119  164.3327 O   0  0  0  0  0  0  0  0  0  0  0  0
  160.0245  145.2760  164.6866 C   0  0  0  0  0  0  0  0  0  0  0  0
  159.4809  143.8444  164.5431 C   0  0  0  0  0  0  0  0  0  0  0  0
  157.5136  142.0418  162.0168 C   0  0  0  0  0  0  0  0  0  0  0  0
  150.3805  145.4749  159.1485 H   0  0  0  0  0  0  0  0  0  0  0  0
  150.1132  143.8330  159.7274 H   0  0  0  0  0  0  0  0  0  0  0  0
  151.2179  144.1266  158.3847 H   0  0  0  0  0  0  0  0  0  0  0  0
  152.7359  145.4087  159.9334 H   0  0  0  0  0  0  0  0  0  0  0  0
  151.6457  145.0990  161.2629 H   0  0  0  0  0  0  0  0  0  0  0  0
  153.5293  143.5279  161.3576 H   0  0  0  0  0  0  0  0  0  0  0  0
  152.0454  142.6535  161.0625 H   0  0  0  0  0  0  0  0  0  0  0  0
  152.5798  142.5743  158.6022 H   0  0  0  0  0  0  0  0  0  0  0  0
  154.0773  143.4276  158.9012 H   0  0  0  0  0  0  0  0  0  0  0  0
  155.4385  142.3947  160.7785 H   0  0  0  0  0  0  0  0  0  0  0  0
  155.4163  139.6394  161.3294 H   0  0  0  0  0  0  0  0  0  0  0  0
  156.3426  139.8509  159.8633 H   0  0  0  0  0  0  0  0  0  0  0  0
  157.9404  138.6649  161.7637 H   0  0  0  0  0  0  0  0  0  0  0  0
  159.9322  139.2943  163.1394 H   0  0  0  0  0  0  0  0  0  0  0  0
  157.7235  144.5391  161.7268 H   0  0  0  0  0  0  0  0  0  0  0  0
  157.0933  144.5440  163.3603 H   0  0  0  0  0  0  0  0  0  0  0  0
  159.4428  146.2247  162.3085 H   0  0  0  0  0  0  0  0  0  0  0  0
  157.8526  146.8168  162.7467 H   0  0  0  0  0  0  0  0  0  0  0  0
  160.9051  145.4222  164.0588 H   0  0  0  0  0  0  0  0  0  0  0  0
  160.3335  145.4585  165.7158 H   0  0  0  0  0  0  0  0  0  0  0  0
  158.6844  143.6725  165.2686 H   0  0  0  0  0  0  0  0  0  0  0  0
  160.2789  143.1327  164.7578 H   0  0  0  0  0  0  0  0  0  0  0  0
  156.8642  142.8470  161.7082 H   0  0  0  0  0  0  0  0  0  0  0  0
  1  2  1  0  0  0  0
  1 21  1  0  0  0  0
  1 22  1  0  0  0  0
  1 23  1  0  0  0  0
  2  3  1  0  0  0  0
  2 24  1  0  0  0  0
  2 25  1  0  0  0  0
  3  4  1  0  0  0  0
  3 26  1  0  0  0  0
  3 27  1  0  0  0  0
  4  5  1  0  0  0  0
  4 28  1  0  0  0  0
  4 29  1  0  0  0  0
  5  6  2  0  0  0  0
  5  7  1  0  0  0  0
  7  8  1  0  0  0  0
  7 30  1  0  0  0  0
  8  9  1  0  0  0  0
  8 31  1  0  0  0  0
  8 32  1  0  0  0  0
  9 20  1  0  0  0  0
  9 10  2  0  0  0  0
 10 11  1  0  0  0  0
 10 33  1  0  0  0  0
 11 12  2  0  0  0  0
 11 34  1  0  0  0  0
 12 13  1  0  0  0  0
 13 14  1  0  0  0  0
 13 20  2  0  0  0  0
 14 19  1  0  0  0  0
 14 15  1  0  0  0  0
 15 16  1  0  0  0  0
 15 35  1  0  0  0  0
 15 36  1  0  0  0  0
 16 17  1  0  0  0  0
 16 37  1  0  0  0  0
 16 38  1  0  0  0  0
 17 18  1  0  0  0  0
 18 19  1  0  0  0  0
 18 39  1  0  0  0  0
 18 40  1  0  0  0  0
 19 41  1  0  0  0  0
 19 42  1  0  0  0  0
 20 43  1  0  0  0  0
M  END
> <s_m_source_file>
AV-unprocessed.smi

> <i_m_source_file_index>
393

> <i_lp_mmshare_version>
43012

> <i_f3d_flags>
0

> <s_epik_input>
W0NIM11bQ0gyXVtDSDJdW0NIMl1DKD1PKVtOSF1bQ0gyXWMxW2NIXVtjSF1uYyhbY0hdMSlOMltDSDJdW0NIMl1PW0NIMl1bQ0gyXTI=

> <s_epik_cmdline>
J2VwaWtfcHl0aG9uJywgJy1waCcsICc3LjAnLCAnLXRuJywgJzgnLCAnLW1hJywgJzIwMCcsICctbWV0YWxfYmluZGluZycsICctaW1hZScsICc8aW5maWxlLm1hZT4nLCAnLW9tYWUnLCAnPG91dGZpbGUubWFlPic=

> <r_lp_tautomer_probability>
1

> <r_epik_Ionization_Penalty>
0.00585334

> <r_epik_Ionization_Penalty_Charging>
0

> <r_epik_Ionization_Penalty_Neutral>
0.00585334

> <r_epik_State_Penalty>
0.00430121

> <r_epik_Charging_Adjusted_Penalty>
0.00430121

> <i_epik_Tot_Q>
0

> <i_epik_Tot_abs_Q>
0

> <r_epik_Metal_State_Penalty>
-0

> <b_epik_Metal_Only>
0

> <s_lp_Force_Field>
OPLS_2005

> <r_lp_Energy>
14.3492

> <b_lp_Chiralities_Consistent>
1

> <s_lp_Variant>
AV-unprocessed.smi:393-1

> <Gold.Version>
5.8.1

> <Gold.Id.Protein>
6NUR|6NUR_protein|mol2

> <Gold.PLP.Fitness>
44.3891

> <Gold.PLP.PLP>
-42.0795

> <Gold.PLP.part.hbond>
-1.5905

> <Gold.PLP.part.metal>
0.0000

> <Gold.PLP.part.buried>
-4.3986

> <Gold.PLP.part.nonpolar>
-35.3659

> <Gold.PLP.part.repulsive>
0.1552

> <Gold.PLP.ligand.clash>
0.0000

> <Gold.PLP.ligand.torsion>
0.3188

> <Gold.PLP.Chemscore.Hbond>
0.8564

> <Gold.PLP.Chemscore.CHOScore>
0.0000

> <Gold.PLP.Chemscore.Metal>
0.0000

> <Gold.Chemscore.Hbonds>
donor molecule, donor type, donor heavy atom, donor atom, acceptor molecule, acceptor atom, score
      P1  H  7997  8009       L1     6  0.27

> <Gold.PLP.Chemscore.Internal.Correction>
0.3780

> <Gold.Rescore>
     Score         DG    S(hbond)    S(metal)    S(lipo)     H(rot)  DE(clash)    DE(int)     intcor
     15.67     -16.22       0.90        0.00     104.77       1.77       0.13       0.41       ----

> <Gold.Chemscore.Fitness>
15.6680

> <Gold.Chemscore.DG>
-16.2159

> <Gold.Chemscore.ZeroCoef>
-5.4800

> <Gold.Chemscore.Hbond>
0.8996

> <Gold.Chemscore.Metal>
0.0000

> <Gold.Chemscore.Lipo>
104.7732

> <Gold.Chemscore.Internal_Hbond>
0.0000

> <Gold.Chemscore.DEClash>
0.1345

> <Gold.Chemscore.DEInternal>
0.4135

> <Gold.Chemscore.Rot>
1.7684

> <Gold.Chemscore.Internal.Correction>
   9.000000E+99

> <Gold.Chemscore.Hbonds>
donor molecule, donor type, donor heavy atom, donor atom, acceptor molecule, acceptor atom, score
      P1  H  7997  8009       L1     6  0.12

> <Gold.Chemscore.Hbond.Weighted>
-3.0045

> <Gold.Chemscore.Metal.Weighted>
-0.0000

> <Gold.Chemscore.Lipo.Weighted>
-12.2585

> <Gold.Chemscore.Internal_Hbond.Weighted>
0.0000

> <Gold.Chemscore.DEClash.Weighted>
0.1345

> <Gold.Chemscore.DEInternal.Weighted>
0.4135

> <Gold.Chemscore.Rot.Weighted>
4.5271

> <Gold.Chemscore.Internal.Correction.Weighted>
   9.000000E+99

> <Gold.Protein.RotatedTorsions>
[ 6907 6896 6895 6894 ] final   74.48 input  -60.11 | X-H torsion
[ 7974 7965 7964 7962 ] final  114.26 input  175.53 | X-H torsion
[ 8008 7997 7996 7995 ] final  127.95 input   59.86 | X-H torsion
[ 10167 10162 10161 10158 ] final   71.30 input  -65.29 | X-H torsion
[ 10718 10713 10712 10709 ] final   37.06 input   66.30 | X-H torsion
[ 10763 10752 10751 10750 ] final -106.94 input  -60.55 | X-H torsion
[ 11005 11000 10999 10996 ] final  -42.96 input  -57.11 | X-H torsion

> <Gold.Protein.ActiveResidues>
 VAL166  LYS551  ARG553  GLY616  TRP617  ASP618  TYR619  PRO620  LYS621  CYS622 
 ASP623  PHE694  ASN695  SER759  ASP760  ASP761  ALA762  ILE779  LEU786  VAL792 
 PHE793  MET794  SER795  GLU796  ALA797  LYS798  CYS799  TRP800  GLU811  SER814 

> <Gold.Protein.RotatedAtoms>
  152.4978  134.4265  159.9497 H   0  0  0  0  0  0  0  0  0  0  0  0  # atno 6907 bound_to 6896
  151.4241  133.3683  159.2768 H   0  0  0  0  0  0  0  0  0  0  0  0  # atno 6908 bound_to 6896
  150.9202  134.8642  159.7543 H   0  0  0  0  0  0  0  0  0  0  0  0  # atno 6909 bound_to 6896
  145.2066  139.2926  143.4290 H   0  0  0  0  0  0  0  0  0  0  0  0  # atno 7974 bound_to 7965
  156.2903  140.2656  156.2356 H   0  0  0  0  0  0  0  0  0  0  0  0  # atno 8008 bound_to 7997
  155.0028  140.0387  157.2385 H   0  0  0  0  0  0  0  0  0  0  0  0  # atno 8009 bound_to 7997
  154.7586  140.2756  155.6237 H   0  0  0  0  0  0  0  0  0  0  0  0  # atno 8010 bound_to 7997
  140.0476  144.5338  150.7387 H   0  0  0  0  0  0  0  0  0  0  0  0  # atno 10167 bound_to 10162
  157.3424  130.7555  149.6921 H   0  0  0  0  0  0  0  0  0  0  0  0  # atno 10718 bound_to 10713
  154.8044  135.4693  154.0355 H   0  0  0  0  0  0  0  0  0  0  0  0  # atno 10763 bound_to 10752
  153.1835  135.6844  153.8453 H   0  0  0  0  0  0  0  0  0  0  0  0  # atno 10764 bound_to 10752
  153.7995  135.3232  155.3366 H   0  0  0  0  0  0  0  0  0  0  0  0  # atno 10765 bound_to 10752
  141.0351  133.6803  156.2667 H   0  0  0  0  0  0  0  0  0  0  0  0  # atno 11005 bound_to 11000
  146.3406  140.2328  142.8593 LP  0  0  0  0  0  0  0  0  0  0  0  0  # atno 17320 bound_to 7965
  144.9896  140.8535  143.5347 LP  0  0  0  0  0  0  0  0  0  0  0  0  # atno 17321 bound_to 7965
  140.7231  143.2609  151.4210 LP  0  0  0  0  0  0  0  0  0  0  0  0  # atno 17342 bound_to 10162
  139.5974  144.1369  152.2159 LP  0  0  0  0  0  0  0  0  0  0  0  0  # atno 17343 bound_to 10162
  155.9709  130.4164  150.4228 LP  0  0  0  0  0  0  0  0  0  0  0  0  # atno 17370 bound_to 10713
  157.2277  131.0497  151.2510 LP  0  0  0  0  0  0  0  0  0  0  0  0  # atno 17371 bound_to 10713
  140.6336  134.5239  157.5562 LP  0  0  0  0  0  0  0  0  0  0  0  0  # atno 17394 bound_to 11000
  139.9235  134.8101  156.1138 LP  0  0  0  0  0  0  0  0  0  0  0  0  # atno 17395 bound_to 11000

$$$$
