AV-unprocessed.smi:869|AV-procd|sdf|4006|dock2
  -GOLD-   22720 1493D 1   1.00000     0.00000
 Structure written by MMmdl.
 47 49  0  0  0  0  0  0  0  0  2 V2000
  147.5796  141.5295  154.2067 C   0  0  0  0  0  0  0  0  0  0  0  0
  148.2945  141.4980  155.4296 O   0  0  0  0  0  0  0  0  0  0  0  0
  149.6866  141.3012  155.2407 C   0  0  0  0  0  0  0  0  0  0  0  0
  150.4791  141.7596  156.4210 C   0  0  0  0  0  0  0  0  0  0  0  0
  150.4477  143.0054  156.9734 N   0  3  0  0  0  0  0  0  0  0  0  0
  151.3174  143.0627  158.0628 C   0  0  0  0  0  0  0  0  0  0  0  0
  151.6232  144.1053  158.9321 C   0  0  0  0  0  0  0  0  0  0  0  0
  152.5622  143.8277  159.9473 C   0  0  0  0  0  0  0  0  0  0  0  0
  153.1573  142.5551  160.0693 C   0  0  0  0  0  0  0  0  0  0  0  0
  152.8389  141.5057  159.1817 C   0  0  0  0  0  0  0  0  0  0  0  0
  151.9099  141.7890  158.1811 C   0  0  0  0  0  0  0  0  0  0  0  0
  151.3629  141.0182  157.1495 N   0  0  0  0  0  0  0  0  0  0  0  0
  151.7819  139.6154  157.0026 C   0  0  0  0  0  0  0  0  0  0  0  0
  151.7452  139.1271  155.5404 C   0  0  1  0  0  0  0  0  0  0  0  0
  152.9771  139.4435  154.9223 O   0  0  0  0  0  0  0  0  0  0  0  0
  151.5255  137.6090  155.4488 C   0  0  0  0  0  0  0  0  0  0  0  0
  150.1767  137.3215  155.7935 O   0  0  0  0  0  0  0  0  0  0  0  0
  149.7069  136.0423  155.5846 C   0  0  0  0  0  0  0  0  0  0  0  0
  150.6556  134.9998  155.6181 C   0  0  0  0  0  0  0  0  0  0  0  0
  150.2665  133.6626  155.4103 C   0  0  0  0  0  0  0  0  0  0  0  0
  148.9147  133.3500  155.1658 C   0  0  0  0  0  0  0  0  0  0  0  0
  148.4912  131.9140  154.9345 C   0  0  0  0  0  0  0  0  0  0  0  0
  147.9579  134.3833  155.1305 C   0  0  0  0  0  0  0  0  0  0  0  0
  148.3478  135.7206  155.3389 C   0  0  0  0  0  0  0  0  0  0  0  0
  146.5191  141.6829  154.4062 H   0  0  0  0  0  0  0  0  0  0  0  0
  147.6871  140.5907  153.6624 H   0  0  0  0  0  0  0  0  0  0  0  0
  147.9233  142.3454  153.5697 H   0  0  0  0  0  0  0  0  0  0  0  0
  149.8930  140.2439  155.0699 H   0  0  0  0  0  0  0  0  0  0  0  0
  150.0224  141.8494  154.3594 H   0  0  0  0  0  0  0  0  0  0  0  0
  151.1686  145.0807  158.8407 H   0  0  0  0  0  0  0  0  0  0  0  0
  152.8308  144.6063  160.6465 H   0  0  0  0  0  0  0  0  0  0  0  0
  153.8727  142.3799  160.8598 H   0  0  0  0  0  0  0  0  0  0  0  0
  153.2985  140.5338  159.2841 H   0  0  0  0  0  0  0  0  0  0  0  0
  152.7907  139.5238  157.4068 H   0  0  0  0  0  0  0  0  0  0  0  0
  151.1424  138.9998  157.6361 H   0  0  0  0  0  0  0  0  0  0  0  0
  150.9438  139.6427  155.0102 H   0  0  0  0  0  0  0  0  0  0  0  0
  152.8010  139.9811  154.1649 H   0  0  0  0  0  0  0  0  0  0  0  0
  151.7762  137.2381  154.4530 H   0  0  0  0  0  0  0  0  0  0  0  0
  152.1783  137.1088  156.1662 H   0  0  0  0  0  0  0  0  0  0  0  0
  151.6950  135.2277  155.8044 H   0  0  0  0  0  0  0  0  0  0  0  0
  151.0098  132.8793  155.4382 H   0  0  0  0  0  0  0  0  0  0  0  0
  148.3991  131.7172  153.8664 H   0  0  0  0  0  0  0  0  0  0  0  0
  147.5279  131.7160  155.4054 H   0  0  0  0  0  0  0  0  0  0  0  0
  149.2200  131.2176  155.3503 H   0  0  0  0  0  0  0  0  0  0  0  0
  146.9195  134.1531  154.9413 H   0  0  0  0  0  0  0  0  0  0  0  0
  147.5836  136.4819  155.3028 H   0  0  0  0  0  0  0  0  0  0  0  0
  149.8684  143.7585  156.6248 H   0  0  0  0  0  0  0  0  0  0  0  0
  1  2  1  0  0  0  0
  1 25  1  0  0  0  0
  1 26  1  0  0  0  0
  1 27  1  0  0  0  0
  2  3  1  0  0  0  0
  3  4  1  0  0  0  0
  3 28  1  0  0  0  0
  3 29  1  0  0  0  0
  4 12  1  0  0  0  0
  4  5  2  0  0  0  0
  5  6  1  0  0  0  0
  5 47  1  0  0  0  0
  6 11  2  0  0  0  0
  6  7  1  0  0  0  0
  7  8  2  0  0  0  0
  7 30  1  0  0  0  0
  8  9  1  0  0  0  0
  8 31  1  0  0  0  0
  9 10  2  0  0  0  0
  9 32  1  0  0  0  0
 10 11  1  0  0  0  0
 10 33  1  0  0  0  0
 11 12  1  0  0  0  0
 12 13  1  0  0  0  0
 13 14  1  0  0  0  0
 13 34  1  0  0  0  0
 13 35  1  0  0  0  0
 14 15  1  0  0  0  0
 14 16  1  0  0  0  0
 14 36  1  0  0  0  0
 15 37  1  0  0  0  0
 16 17  1  0  0  0  0
 16 38  1  0  0  0  0
 16 39  1  0  0  0  0
 17 18  1  0  0  0  0
 18 24  1  0  0  0  0
 18 19  2  0  0  0  0
 19 20  1  0  0  0  0
 19 40  1  0  0  0  0
 20 21  2  0  0  0  0
 20 41  1  0  0  0  0
 21 22  1  0  0  0  0
 21 23  1  0  0  0  0
 22 42  1  0  0  0  0
 22 43  1  0  0  0  0
 22 44  1  0  0  0  0
 23 24  2  0  0  0  0
 23 45  1  0  0  0  0
 24 46  1  0  0  0  0
M  CHG  1   5   1
M  END
> <s_m_source_file>
AV-unprocessed.smi

> <i_m_source_file_index>
869

> <i_lp_mmshare_version>
43012

> <i_f3d_flags>
0

> <s_epik_input>
W2NIXTFbY0hdW2NIXVtjSF1jKGMxMiluKGMobjIpW0NIMl1PW0NIM10pW0NIMl1bQ0BIXShbT0hdKVtDSDJdT2MzW2NIXVtjSF1jKFtDSDNdKVtjSF1bY0hdMw==

> <s_epik_cmdline>
J2VwaWtfcHl0aG9uJywgJy1waCcsICc3LjAnLCAnLXRuJywgJzgnLCAnLW1hJywgJzIwMCcsICctbWV0YWxfYmluZGluZycsICctaW1hZScsICc8aW5maWxlLm1hZT4nLCAnLW9tYWUnLCAnPG91dGZpbGUubWFlPic=

> <r_lp_tautomer_probability>
1

> <r_epik_Ionization_Penalty>
1.5538

> <r_epik_Ionization_Penalty_Charging>
1.5538

> <r_epik_Ionization_Penalty_Neutral>
2.3993e-06

> <r_epik_State_Penalty>
1.64824

> <r_epik_Charging_Adjusted_Penalty>
3.20204

> <i_epik_Tot_Q>
1

> <i_epik_Tot_abs_Q>
1

> <r_epik_Metal_State_Penalty>
5.70315

> <b_epik_Metal_Only>
0

> <s_lp_Force_Field>
OPLS_2005

> <r_lp_Energy>
19.236

> <b_lp_Chiralities_Consistent>
1

> <s_lp_Variant>
AV-unprocessed.smi:869-4

> <Gold.Version>
5.8.1

> <Gold.Id.Protein>
6NUR|6NUR_protein|mol2

> <Gold.PLP.Fitness>
56.8367

> <Gold.PLP.PLP>
-50.2120

> <Gold.PLP.part.hbond>
-3.0000

> <Gold.PLP.part.metal>
0.0000

> <Gold.PLP.part.buried>
-6.0182

> <Gold.PLP.part.nonpolar>
-41.3744

> <Gold.PLP.part.repulsive>
0.2357

> <Gold.PLP.ligand.clash>
0.0000

> <Gold.PLP.ligand.torsion>
1.2783

> <Gold.PLP.Chemscore.Hbond>
3.0000

> <Gold.PLP.Chemscore.CHOScore>
0.0000

> <Gold.PLP.Chemscore.Metal>
0.0000

> <Gold.Chemscore.Hbonds>
donor molecule, donor type, donor heavy atom, donor atom, acceptor molecule, acceptor atom, score
      L1  H     5    47       P1  8028  2.00
      P1  H  7997  8008       L1    15  1.00

> <Gold.PLP.Chemscore.Internal.Correction>
0.1814

> <Gold.Rescore>
     Score         DG    S(hbond)    S(metal)    S(lipo)     H(rot)  DE(clash)    DE(int)     intcor
     19.34     -20.67       1.91        0.00     128.82       2.45       0.10       1.24       ----

> <Gold.Chemscore.Fitness>
19.3380

> <Gold.Chemscore.DG>
-20.6745

> <Gold.Chemscore.ZeroCoef>
-5.4800

> <Gold.Chemscore.Hbond>
1.9141

> <Gold.Chemscore.Metal>
0.0000

> <Gold.Chemscore.Lipo>
128.8198

> <Gold.Chemscore.Internal_Hbond>
0.0000

> <Gold.Chemscore.DEClash>
0.0962

> <Gold.Chemscore.DEInternal>
1.2404

> <Gold.Chemscore.Rot>
2.4494

> <Gold.Chemscore.Internal.Correction>
   9.000000E+99

> <Gold.Chemscore.Hbonds>
donor molecule, donor type, donor heavy atom, donor atom, acceptor molecule, acceptor atom, score
      L1  H     5    47       P1  8028  1.00
      P1  H  7997  8008       L1    15  0.73

> <Gold.Chemscore.Hbond.Weighted>
-6.3931

> <Gold.Chemscore.Metal.Weighted>
-0.0000

> <Gold.Chemscore.Lipo.Weighted>
-15.0719

> <Gold.Chemscore.Internal_Hbond.Weighted>
0.0000

> <Gold.Chemscore.DEClash.Weighted>
0.0962

> <Gold.Chemscore.DEInternal.Weighted>
1.2404

> <Gold.Chemscore.Rot.Weighted>
6.2704

> <Gold.Chemscore.Internal.Correction.Weighted>
   9.000000E+99

> <Gold.Protein.RotatedTorsions>
[ 6907 6896 6895 6894 ] final  -95.38 input  -60.11 | X-H torsion
[ 7974 7965 7964 7962 ] final -130.12 input  175.53 | X-H torsion
[ 8008 7997 7996 7995 ] final  -19.11 input   59.86 | X-H torsion
[ 10167 10162 10161 10158 ] final   14.22 input  -65.29 | X-H torsion
[ 10718 10713 10712 10709 ] final -109.55 input   66.30 | X-H torsion
[ 10763 10752 10751 10750 ] final   44.73 input  -60.55 | X-H torsion
[ 11005 11000 10999 10996 ] final   65.40 input  -57.11 | X-H torsion

> <Gold.Protein.ActiveResidues>
 VAL166  LYS551  ARG553  GLY616  TRP617  ASP618  TYR619  PRO620  LYS621  CYS622 
 ASP623  PHE694  ASN695  SER759  ASP760  ASP761  ALA762  ILE779  LEU786  VAL792 
 PHE793  MET794  SER795  GLU796  ALA797  LYS798  CYS799  TRP800  GLU811  SER814 

> <Gold.Protein.RotatedAtoms>
  150.6962  134.1667  159.4196 H   0  0  0  0  0  0  0  0  0  0  0  0  # atno 6907 bound_to 6896
  151.9646  135.0104  160.0559 H   0  0  0  0  0  0  0  0  0  0  0  0  # atno 6908 bound_to 6896
  152.1896  133.4729  159.5038 H   0  0  0  0  0  0  0  0  0  0  0  0  # atno 6909 bound_to 6896
  144.9505  140.7339  143.4790 H   0  0  0  0  0  0  0  0  0  0  0  0  # atno 7974 bound_to 7965
  154.4859  140.2098  155.9656 H   0  0  0  0  0  0  0  0  0  0  0  0  # atno 8008 bound_to 7997
  156.1236  140.3209  155.8213 H   0  0  0  0  0  0  0  0  0  0  0  0  # atno 8009 bound_to 7997
  155.4424  140.0511  157.3000 H   0  0  0  0  0  0  0  0  0  0  0  0  # atno 8010 bound_to 7997
  140.5950  143.8719  150.6909 H   0  0  0  0  0  0  0  0  0  0  0  0  # atno 10167 bound_to 10162
  156.0543  130.5770  150.8115 H   0  0  0  0  0  0  0  0  0  0  0  0  # atno 10718 bound_to 10713
  152.9836  135.6062  154.3321 H   0  0  0  0  0  0  0  0  0  0  0  0  # atno 10763 bound_to 10752
  154.3023  135.2772  155.2607 H   0  0  0  0  0  0  0  0  0  0  0  0  # atno 10764 bound_to 10752
  154.4853  135.5906  153.6475 H   0  0  0  0  0  0  0  0  0  0  0  0  # atno 10765 bound_to 10752
  139.9897  134.6611  156.0113 H   0  0  0  0  0  0  0  0  0  0  0  0  # atno 11005 bound_to 11000
  145.2851  139.1904  143.4770 LP  0  0  0  0  0  0  0  0  0  0  0  0  # atno 17320 bound_to 7965
  146.3319  140.2819  142.8611 LP  0  0  0  0  0  0  0  0  0  0  0  0  # atno 17321 bound_to 7965
  140.2251  143.3778  152.1611 LP  0  0  0  0  0  0  0  0  0  0  0  0  # atno 17342 bound_to 10162
  139.5252  144.7093  151.5255 LP  0  0  0  0  0  0  0  0  0  0  0  0  # atno 17343 bound_to 10162
  157.5499  131.0943  150.9710 LP  0  0  0  0  0  0  0  0  0  0  0  0  # atno 17370 bound_to 10713
  156.9973  130.5586  149.5308 LP  0  0  0  0  0  0  0  0  0  0  0  0  # atno 17371 bound_to 10713
  141.1555  133.6543  156.4148 LP  0  0  0  0  0  0  0  0  0  0  0  0  # atno 17394 bound_to 11000
  140.4933  134.6555  157.5219 LP  0  0  0  0  0  0  0  0  0  0  0  0  # atno 17395 bound_to 11000

$$$$
