#       Name:                AV-unprocessed.smi:1731
#       Creating user name   scv26
#       Creation time:       Fri Mar 27 08:18:42 2020


#       File generated by GOLD software.
#

@<TRIPOS>MOLECULE
AV-unprocessed.smi:1731
    46    47     1
SMALL
NO_CHARGES


@<TRIPOS>ATOM
      1 ****        -5.9563   1.7475   0.2933 C.3            1 S1                 0.0000
      2 ****        -4.7357   0.8443   0.0673 C.3            1 S1                 0.0000
      3 ****        -3.5975   1.1786   1.0500 C.3            1 S1                 0.0000
      4 ****        -2.3732   0.2766   0.8273 C.3            1 S1                 0.0000
      5 ****        -1.8713   0.3527  -0.6287 C.3            1 S1                 0.0000
      6 ****        -0.7615  -0.5730  -0.8361 N.am           1 S1                 0.0000
      7 ****         0.5212  -0.3246  -0.5350 C.2            1 S1                 0.0000
      8 ****         0.9157   0.7389  -0.0559 O.2            1 S1                 0.0000
      9 ****         1.3017  -1.3809  -0.8164 N.am           1 S1                 0.0000
     10 ****         2.7009  -1.4934  -0.6179 C.2            1 S1                 0.0000
     11 ****         3.4645  -2.6616  -0.8741 C.2            1 S1                 0.0000
     12 ****         4.7445  -2.4680  -0.5952 N.2            1 S1                 0.0000
     13 ****         4.8211  -1.1854  -0.1597 N.pl3          1 S1                 0.0000
     14 ****         6.1055  -0.6346   0.2356 C.3            1 S1                 0.0000
     15 ****         6.2092  -0.5129   1.7572 C.2            1 S1                 0.0000
     16 ****         6.0225   0.6989   2.2869 N.am           1 S1                 0.0000
     17 ****         6.4505  -1.5012   2.4468 O.2            1 S1                 0.0000
     18 ****         3.5894  -0.5594  -0.1656 C.2            1 S1                 0.0000
     19 ****        -3.0085   0.0256  -1.6138 C.3            1 S1                 0.0000
     20 ****        -4.2301   0.9304  -1.3853 C.3            1 S1                 0.0000
     21 ****        -5.7086   2.7971   0.1322 H              1 S1                 0.0000
     22 ****        -6.3354   1.6470   1.3107 H              1 S1                 0.0000
     23 ****        -6.7677   1.4885  -0.3873 H              1 S1                 0.0000
     24 ****        -5.0499  -0.1839   0.2536 H              1 S1                 0.0000
     25 ****        -3.3037   2.2228   0.9334 H              1 S1                 0.0000
     26 ****        -3.9473   1.0699   2.0772 H              1 S1                 0.0000
     27 ****        -1.5784   0.5663   1.5156 H              1 S1                 0.0000
     28 ****        -2.6349  -0.7532   1.0752 H              1 S1                 0.0000
     29 ****        -1.5305   1.3698  -0.8325 H              1 S1                 0.0000
     30 ****        -0.9910  -1.4749  -1.2272 H              1 S1                 0.0000
     31 ****         0.8448  -2.1960  -1.1981 H              1 S1                 0.0000
     32 ****         3.1406  -3.6234  -1.2435 H              1 S1                 0.0000
     33 ****         6.9085  -1.2737  -0.1349 H              1 S1                 0.0000
     34 ****         6.2285   0.3404  -0.2382 H              1 S1                 0.0000
     35 ****         6.0835   0.8292   3.2861 H              1 S1                 0.0000
     36 ****         5.8227   1.4831   1.6829 H              1 S1                 0.0000
     37 ****         3.4669   0.4668   0.1477 H              1 S1                 0.0000
     38 ****        -2.6571   0.1381  -2.6402 H              1 S1                 0.0000
     39 ****        -3.3074  -1.0178  -1.5026 H              1 S1                 0.0000
     40 ****        -5.0265   0.6484  -2.0748 H              1 S1                 0.0000
     41 ****        -3.9670   1.9621  -1.6240 H              1 S1                 0.0000
     42 ****         0.2654   1.4756   0.1292 LP             1 S1                 0.0000
     43 ****         1.8864   0.8658   0.1481 LP             1 S1                 0.0000
     44 ****         5.4928  -3.1251  -0.6860 LP             1 S1                 0.0000
     45 ****         6.5807  -2.3933   2.0140 LP             1 S1                 0.0000
     46 ****         6.5167  -1.4133   3.4407 LP             1 S1                 0.0000
@<TRIPOS>BOND
    1    1    2 1     
    2    1   21 1     
    3    1   22 1     
    4    1   23 1     
    5    2   20 1     
    6    2    3 1     
    7    2   24 1     
    8    3    4 1     
    9    3   25 1     
   10    3   26 1     
   11    4    5 1     
   12    4   27 1     
   13    4   28 1     
   14    5    6 1     
   15    5   19 1     
   16    5   29 1     
   17    6    7 am    
   18    6   30 1     
   19    7    8 2     
   20    7    9 am    
   21    9   10 1     
   22    9   31 1     
   23   10   18 2     
   24   10   11 1     
   25   11   12 2     
   26   11   32 1     
   27   12   13 1     
   28   13   14 1     
   29   13   18 1     
   30   14   15 1     
   31   14   33 1     
   32   14   34 1     
   33   15   16 am    
   34   15   17 2     
   35   16   35 1     
   36   16   36 1     
   37   18   37 1     
   38   19   20 1     
   39   19   38 1     
   40   19   39 1     
   41   20   40 1     
   42   20   41 1     
   43    8   42 1     
   44    8   43 1     
   45   12   44 1     
   46   17   45 1     
   47   17   46 1     
@<TRIPOS>SUBSTRUCTURE
      1 S1             1
@<TRIPOS>SET
LONE_PAIRS      STATIC     ATOMS    <user>   **** ""
5 42 43 44 45 46
DONOR_HYDROGENS      STATIC     ATOMS    <user>   **** ""
4 30 31 35 36
ATOM$BLUE        STATIC     ATOMS    COLORGROUP SYSTEM
5 42 43 44 45 46
ATOM$RED        STATIC     ATOMS    COLORGROUP SYSTEM
4 30 31 35 36
