AV-unprocessed.smi:1381|AV-procd|sdf|5611|dock3
  -GOLD-   22720 5223D 1   1.00000     0.00000
 Structure written by MMmdl.
 41 42  0  0  0  0  0  0  0  0  2 V2000
  145.9858  133.0190  162.1861 C   0  0  0  0  0  0  0  0  0  0  0  0
  146.6690  134.3203  161.9410 C   0  0  0  0  0  0  0  0  0  0  0  0
  147.1383  134.9265  160.8104 C   0  0  0  0  0  0  0  0  0  0  0  0
  147.6657  136.1544  161.2951 C   0  0  0  0  0  0  0  0  0  0  0  0
  148.2539  137.1060  160.5537 N   0  5  0  0  0  0  0  0  0  0  0  0
  149.1330  136.7651  159.5828 C   0  0  0  0  0  0  0  0  0  0  0  0
  149.3264  135.6314  159.1373 O   0  0  0  0  0  0  0  0  0  0  0  0
  149.8347  137.8014  159.1011 N   0  0  0  0  0  0  0  0  0  0  0  0
  150.8516  137.7331  158.0575 C   0  0  0  0  0  0  0  0  0  0  0  0
  150.9035  139.0360  157.2374 C   0  0  0  0  0  0  0  0  0  0  0  0
  151.0386  140.2588  158.0278 N   0  0  0  0  0  0  0  0  0  0  0  0
  151.1202  141.4304  157.1622 C   0  0  0  0  0  0  0  0  0  0  0  0
  151.2655  142.7477  157.9499 C   0  0  1  0  0  0  0  0  0  0  0  0
  149.9667  143.1885  158.6463 C   0  0  0  0  0  0  0  0  0  0  0  0
  152.3558  142.6553  158.8684 O   0  0  0  0  0  0  0  0  0  0  0  0
  152.3234  141.5246  159.7378 C   0  0  2  0  0  0  0  0  0  0  0  0
  153.5961  141.5435  160.5906 C   0  0  0  0  0  0  0  0  0  0  0  0
  152.2048  140.2352  158.9047 C   0  0  0  0  0  0  0  0  0  0  0  0
  147.5455  136.2734  162.6069 N   0  0  0  0  0  0  0  0  0  0  0  0
  146.9007  135.1042  163.0279 O   0  0  0  0  0  0  0  0  0  0  0  0
  146.6429  132.3325  162.7194 H   0  0  0  0  0  0  0  0  0  0  0  0
  145.6953  132.5493  161.2463 H   0  0  0  0  0  0  0  0  0  0  0  0
  145.0857  133.1616  162.7842 H   0  0  0  0  0  0  0  0  0  0  0  0
  147.1058  134.5551  159.7970 H   0  0  0  0  0  0  0  0  0  0  0  0
  149.6430  138.7118  159.4926 H   0  0  0  0  0  0  0  0  0  0  0  0
  151.8263  137.5181  158.4987 H   0  0  0  0  0  0  0  0  0  0  0  0
  150.6020  136.8844  157.4222 H   0  0  0  0  0  0  0  0  0  0  0  0
  151.7128  138.9766  156.5081 H   0  0  0  0  0  0  0  0  0  0  0  0
  149.9831  139.1009  156.6556 H   0  0  0  0  0  0  0  0  0  0  0  0
  151.9764  141.3256  156.4941 H   0  0  0  0  0  0  0  0  0  0  0  0
  150.2384  141.4848  156.5225 H   0  0  0  0  0  0  0  0  0  0  0  0
  151.5279  143.5338  157.2413 H   0  0  0  0  0  0  0  0  0  0  0  0
  149.1752  143.3602  157.9165 H   0  0  0  0  0  0  0  0  0  0  0  0
  150.1161  144.1177  159.1961 H   0  0  0  0  0  0  0  0  0  0  0  0
  149.6033  142.4387  159.3487 H   0  0  0  0  0  0  0  0  0  0  0  0
  151.4642  141.6061  160.4041 H   0  0  0  0  0  0  0  0  0  0  0  0
  153.6159  140.7032  161.2850 H   0  0  0  0  0  0  0  0  0  0  0  0
  153.6576  142.4606  161.1772 H   0  0  0  0  0  0  0  0  0  0  0  0
  154.4897  141.4857  159.9682 H   0  0  0  0  0  0  0  0  0  0  0  0
  152.1468  139.3880  159.5868 H   0  0  0  0  0  0  0  0  0  0  0  0
  153.1099  140.0976  158.3109 H   0  0  0  0  0  0  0  0  0  0  0  0
  1  2  1  0  0  0  0
  1 21  1  0  0  0  0
  1 22  1  0  0  0  0
  1 23  1  0  0  0  0
  2 20  1  0  0  0  0
  2  3  2  0  0  0  0
  3  4  1  0  0  0  0
  3 24  1  0  0  0  0
  4  5  1  0  0  0  0
  4 19  2  0  0  0  0
  5  6  1  0  0  0  0
  6  7  2  0  0  0  0
  6  8  1  0  0  0  0
  8  9  1  0  0  0  0
  8 25  1  0  0  0  0
  9 10  1  0  0  0  0
  9 26  1  0  0  0  0
  9 27  1  0  0  0  0
 10 11  1  0  0  0  0
 10 28  1  0  0  0  0
 10 29  1  0  0  0  0
 11 18  1  0  0  0  0
 11 12  1  0  0  0  0
 12 13  1  0  0  0  0
 12 30  1  0  0  0  0
 12 31  1  0  0  0  0
 13 14  1  0  0  0  0
 13 15  1  0  0  0  0
 13 32  1  0  0  0  0
 14 33  1  0  0  0  0
 14 34  1  0  0  0  0
 14 35  1  0  0  0  0
 15 16  1  0  0  0  0
 16 17  1  0  0  0  0
 16 18  1  0  0  0  0
 16 36  1  0  0  0  0
 17 37  1  0  0  0  0
 17 38  1  0  0  0  0
 17 39  1  0  0  0  0
 18 40  1  0  0  0  0
 18 41  1  0  0  0  0
 19 20  1  0  0  0  0
M  CHG  1   5  -1
M  END
> <s_m_source_file>
AV-unprocessed.smi

> <i_m_source_file_index>
1381

> <i_lp_mmshare_version>
43012

> <i_f3d_flags>
0

> <s_epik_input>
W0NIM11jMVtjSF1jKG5vMSlbTkhdQyg9TylbTkhdW0NIMl1bQ0gyXU4yW0NIMl1bQ0BASF0oW0NIM10pT1tDQEBIXShbQ0gzXSlbQ0gyXTI=

> <s_epik_cmdline>
J2VwaWtfcHl0aG9uJywgJy1waCcsICc3LjAnLCAnLXRuJywgJzgnLCAnLW1hJywgJzIwMCcsICctbWV0YWxfYmluZGluZycsICctaW1hZScsICc8aW5maWxlLm1hZT4nLCAnLW9tYWUnLCAnPG91dGZpbGUubWFlPic=

> <r_epik_Ionization_Penalty>
6.88366

> <r_epik_Ionization_Penalty_Charging>
6.57198

> <r_epik_Ionization_Penalty_Neutral>
0.311678

> <r_epik_State_Penalty>
6.77619

> <r_epik_Charging_Adjusted_Penalty>
13.3482

> <i_epik_Tot_Q>
-1

> <i_epik_Tot_abs_Q>
1

> <r_epik_Metal_State_Penalty>
2.70524

> <b_epik_Metal_Only>
1

> <s_lp_Force_Field>
OPLS_2005

> <r_lp_Energy>
15.952

> <b_lp_Chiralities_Consistent>
1

> <s_lp_Variant>
AV-unprocessed.smi:1381-10

> <Gold.Version>
5.8.1

> <Gold.Id.Protein>
6NUR|6NUR_protein|mol2

> <Gold.PLP.Fitness>
43.1899

> <Gold.PLP.PLP>
-33.3237

> <Gold.PLP.part.hbond>
-3.0000

> <Gold.PLP.part.metal>
0.0000

> <Gold.PLP.part.buried>
-6.6258

> <Gold.PLP.part.nonpolar>
-25.0503

> <Gold.PLP.part.repulsive>
0.2374

> <Gold.PLP.ligand.clash>
0.0000

> <Gold.PLP.ligand.torsion>
0.5920

> <Gold.PLP.Chemscore.Hbond>
3.6738

> <Gold.PLP.Chemscore.CHOScore>
0.0000

> <Gold.PLP.Chemscore.Metal>
0.0000

> <Gold.Chemscore.Hbonds>
donor molecule, donor type, donor heavy atom, donor atom, acceptor molecule, acceptor atom, score
      P1  H  6896  6907       L1     7  1.00
      P1  H  6931  6943       L1     5  1.63
      P1  H  6934  6947       L1     5  0.70

> <Gold.PLP.Chemscore.Internal.Correction>
0.0286

> <Gold.Rescore>
     Score         DG    S(hbond)    S(metal)    S(lipo)     H(rot)  DE(clash)    DE(int)     intcor
     14.39     -16.43       1.86        0.00      74.11       1.54       0.17       1.87       ----

> <Gold.Chemscore.Fitness>
14.3898

> <Gold.Chemscore.DG>
-16.4347

> <Gold.Chemscore.ZeroCoef>
-5.4800

> <Gold.Chemscore.Hbond>
1.8649

> <Gold.Chemscore.Metal>
0.0000

> <Gold.Chemscore.Lipo>
74.1080

> <Gold.Chemscore.Internal_Hbond>
0.0000

> <Gold.Chemscore.DEClash>
0.1739

> <Gold.Chemscore.DEInternal>
1.8710

> <Gold.Chemscore.Rot>
1.5409

> <Gold.Chemscore.Internal.Correction>
   9.000000E+99

> <Gold.Chemscore.Hbonds>
donor molecule, donor type, donor heavy atom, donor atom, acceptor molecule, acceptor atom, score
      P1  H  6896  6907       L1     7  0.95
      P1  H  6931  6943       L1     5  0.26
      P1  H  6934  6947       L1     5  0.24

> <Gold.Chemscore.Hbond.Weighted>
-6.2287

> <Gold.Chemscore.Metal.Weighted>
-0.0000

> <Gold.Chemscore.Lipo.Weighted>
-8.6706

> <Gold.Chemscore.Internal_Hbond.Weighted>
0.0000

> <Gold.Chemscore.DEClash.Weighted>
0.1739

> <Gold.Chemscore.DEInternal.Weighted>
1.8710

> <Gold.Chemscore.Rot.Weighted>
3.9446

> <Gold.Chemscore.Internal.Correction.Weighted>
   9.000000E+99

> <Gold.Protein.RotatedTorsions>
[ 6907 6896 6895 6894 ] final  -82.20 input  -60.11 | X-H torsion
[ 7974 7965 7964 7962 ] final  -48.54 input  175.53 | X-H torsion
[ 8008 7997 7996 7995 ] final  -89.89 input   59.86 | X-H torsion
[ 10167 10162 10161 10158 ] final  126.98 input  -65.29 | X-H torsion
[ 10718 10713 10712 10709 ] final -118.49 input   66.30 | X-H torsion
[ 10763 10752 10751 10750 ] final  -47.09 input  -60.55 | X-H torsion
[ 11005 11000 10999 10996 ] final    3.33 input  -57.11 | X-H torsion

> <Gold.Protein.ActiveResidues>
 VAL166  LYS551  ARG553  GLY616  TRP617  ASP618  TYR619  PRO620  LYS621  CYS622 
 ASP623  PHE694  ASN695  SER759  ASP760  ASP761  ALA762  ILE779  LEU786  VAL792 
 PHE793  MET794  SER795  GLU796  ALA797  LYS798  CYS799  TRP800  GLU811  SER814 

> <Gold.Protein.RotatedAtoms>
  150.6900  134.3700  159.4987 H   0  0  0  0  0  0  0  0  0  0  0  0  # atno 6907 bound_to 6896
  152.1517  134.8980  160.0557 H   0  0  0  0  0  0  0  0  0  0  0  0  # atno 6908 bound_to 6896
  152.0075  133.3814  159.4243 H   0  0  0  0  0  0  0  0  0  0  0  0  # atno 6909 bound_to 6896
  145.9501  140.7581  142.9509 H   0  0  0  0  0  0  0  0  0  0  0  0  # atno 7974 bound_to 7965
  154.6920  140.0536  157.0372 H   0  0  0  0  0  0  0  0  0  0  0  0  # atno 8008 bound_to 7997
  155.0804  140.3209  155.4584 H   0  0  0  0  0  0  0  0  0  0  0  0  # atno 8009 bound_to 7997
  156.2731  140.2066  156.5932 H   0  0  0  0  0  0  0  0  0  0  0  0  # atno 8010 bound_to 7997
  139.5602  144.6877  151.4064 H   0  0  0  0  0  0  0  0  0  0  0  0  # atno 10167 bound_to 10162
  156.1110  130.6249  150.9298 H   0  0  0  0  0  0  0  0  0  0  0  0  # atno 10718 bound_to 10713
  154.0558  135.6625  153.4806 H   0  0  0  0  0  0  0  0  0  0  0  0  # atno 10763 bound_to 10752
  153.0446  135.5123  154.7707 H   0  0  0  0  0  0  0  0  0  0  0  0  # atno 10764 bound_to 10752
  154.6728  135.3032  154.9686 H   0  0  0  0  0  0  0  0  0  0  0  0  # atno 10765 bound_to 10752
  140.5944  133.9894  155.8103 H   0  0  0  0  0  0  0  0  0  0  0  0  # atno 11005 bound_to 11000
  144.6794  140.2420  143.7342 LP  0  0  0  0  0  0  0  0  0  0  0  0  # atno 17320 bound_to 7965
  145.8183  139.2033  143.1953 LP  0  0  0  0  0  0  0  0  0  0  0  0  # atno 17321 bound_to 7965
  140.6881  143.7926  150.7215 LP  0  0  0  0  0  0  0  0  0  0  0  0  # atno 17342 bound_to 10162
  140.1400  143.4450  152.2200 LP  0  0  0  0  0  0  0  0  0  0  0  0  # atno 17343 bound_to 10162
  157.6291  131.0923  150.8475 LP  0  0  0  0  0  0  0  0  0  0  0  0  # atno 17370 bound_to 10713
  156.8586  130.5105  149.5305 LP  0  0  0  0  0  0  0  0  0  0  0  0  # atno 17371 bound_to 10713
  141.0914  133.9911  157.3231 LP  0  0  0  0  0  0  0  0  0  0  0  0  # atno 17394 bound_to 11000
  139.9260  135.0201  156.8235 LP  0  0  0  0  0  0  0  0  0  0  0  0  # atno 17395 bound_to 11000

$$$$
