#       Name:                AV-unprocessed.smi:2280
#       Creating user name   scv26
#       Creation time:       Fri Mar 27 12:40:54 2020


#       File generated by GOLD software.
#

@<TRIPOS>MOLECULE
AV-unprocessed.smi:2280
    48    49     1
SMALL
NO_CHARGES


@<TRIPOS>ATOM
      1 ****        -3.4465   5.3872  -0.0063 C.3            1 S1                 0.0000
      2 ****        -2.9752   3.9446   0.0473 C.2            1 S1                 0.0000
      3 ****        -3.0348   3.3364   1.3045 N.2            1 S1                 0.0000
      4 ****        -2.6548   2.1086   1.4453 C.2            1 S1                 0.0000
      5 ****        -2.1817   1.3532   0.3600 N.am           1 S1                 0.0000
      6 ****        -1.7801  -0.0328   0.6550 C.3            1 S1                 0.0000
      7 ****        -0.2511  -0.1687   0.8386 C.3            1 S1                 0.0000
      8 ****         0.0581   0.1805   2.1738 O.3            1 S1                 0.0000
      9 ****         0.2278  -1.6149   0.6260 C.3            1 S1                 0.0000
     10 ****         1.6292  -1.5996   0.3897 O.3            1 S1                 0.0000
     11 ****         2.2801  -2.7978   0.1782 C.ar           1 S1                 0.0000
     12 ****         1.6218  -4.0544   0.1700 C.ar           1 S1                 0.0000
     13 ****         2.3450  -5.2408  -0.0519 C.ar           1 S1                 0.0000
     14 ****         3.7324  -5.1890  -0.2689 C.ar           1 S1                 0.0000
     15 ****         4.3962  -3.9491  -0.2641 C.ar           1 S1                 0.0000
     16 ****         3.6793  -2.7513  -0.0417 C.ar           1 S1                 0.0000
     17 ****         4.4062  -1.4099  -0.0392 C.3            1 S1                 0.0000
     18 ****         5.7159  -1.5516  -0.2473 F              1 S1                 0.0000
     19 ****         3.9148  -0.6289  -1.0016 F              1 S1                 0.0000
     20 ****         4.2364  -0.8053   1.1368 F              1 S1                 0.0000
     21 ****        -2.0825   1.8721  -0.8983 C.2            1 S1                 0.0000
     22 ****        -1.6529   1.2044  -1.8411 O.2            1 S1                 0.0000
     23 ****        -2.5190   3.2703  -1.0435 C.2            1 S1                 0.0000
     24 ****        -2.4310   3.8808  -2.4366 C.3            1 S1                 0.0000
     25 ****        -4.2751   5.4936  -0.7072 H              1 S1                 0.0000
     26 ****        -2.6342   6.0422  -0.3230 H              1 S1                 0.0000
     27 ****        -3.7899   5.7296   0.9709 H              1 S1                 0.0000
     28 ****        -2.6746   1.5903   2.4055 H              1 S1                 0.0000
     29 ****        -2.3098  -0.4408   1.5188 H              1 S1                 0.0000
     30 ****        -2.1066  -0.6621  -0.1749 H              1 S1                 0.0000
     31 ****         0.2767   0.4922   0.1495 H              1 S1                 0.0000
     32 ****        -0.3593  -0.4396   2.7517 H              1 S1                 0.0000
     33 ****        -0.0328  -2.2412   1.4813 H              1 S1                 0.0000
     34 ****        -0.2588  -2.0335  -0.2564 H              1 S1                 0.0000
     35 ****         0.5580  -4.1377   0.3307 H              1 S1                 0.0000
     36 ****         1.8332  -6.1918  -0.0556 H              1 S1                 0.0000
     37 ****         4.2877  -6.0995  -0.4395 H              1 S1                 0.0000
     38 ****         5.4624  -3.9295  -0.4336 H              1 S1                 0.0000
     39 ****        -1.4052   3.8345  -2.8037 H              1 S1                 0.0000
     40 ****        -2.7431   4.9233  -2.4697 H              1 S1                 0.0000
     41 ****        -3.0639   3.3254  -3.1298 H              1 S1                 0.0000
     42 ****        -3.3708   3.8502   2.0939 LP             1 S1                 0.0000
     43 ****        -0.2790   1.1017   2.3679 LP             1 S1                 0.0000
     44 ****         1.0486   0.1528   2.3086 LP             1 S1                 0.0000
     45 ****         2.0568  -1.1690   1.1846 LP             1 S1                 0.0000
     46 ****         1.7848  -1.0336  -0.4199 LP             1 S1                 0.0000
     47 ****        -1.3665   0.2577  -1.6938 LP             1 S1                 0.0000
     48 ****        -1.5907   1.6094  -2.7533 LP             1 S1                 0.0000
@<TRIPOS>BOND
    1    1    2 1     
    2    1   25 1     
    3    1   26 1     
    4    1   27 1     
    5    2   23 2     
    6    2    3 1     
    7    3    4 2     
    8    4    5 1     
    9    4   28 1     
   10    5    6 1     
   11    5   21 am    
   12    6    7 1     
   13    6   29 1     
   14    6   30 1     
   15    7    8 1     
   16    7    9 1     
   17    7   31 1     
   18    8   32 1     
   19    9   10 1     
   20    9   33 1     
   21    9   34 1     
   22   10   11 1     
   23   11   16 ar    
   24   11   12 ar    
   25   12   13 ar    
   26   12   35 1     
   27   13   14 ar    
   28   13   36 1     
   29   14   15 ar    
   30   14   37 1     
   31   15   16 ar    
   32   15   38 1     
   33   16   17 1     
   34   17   18 1     
   35   17   19 1     
   36   17   20 1     
   37   21   22 2     
   38   21   23 1     
   39   23   24 1     
   40   24   39 1     
   41   24   40 1     
   42   24   41 1     
   43    3   42 1     
   44    8   43 1     
   45    8   44 1     
   46   10   45 1     
   47   10   46 1     
   48   22   47 1     
   49   22   48 1     
@<TRIPOS>SUBSTRUCTURE
      1 S1             1
@<TRIPOS>SET
LONE_PAIRS      STATIC     ATOMS    <user>   **** ""
7 42 43 44 45 46 47 48
DONOR_HYDROGENS      STATIC     ATOMS    <user>   **** ""
1 32
ATOM$BLUE        STATIC     ATOMS    COLORGROUP SYSTEM
7 42 43 44 45 46 47 48
ATOM$RED        STATIC     ATOMS    COLORGROUP SYSTEM
1 32
