AV-unprocessed.smi:1815|AV-procd|sdf|7359|dock6
  -GOLD-   22720 9 23D 1   1.00000     0.00000
 Structure written by MMmdl.
 38 39  0  0  0  0  0  0  0  0  2 V2000
  152.9816  141.8984  161.5233 C   0  0  0  0  0  0  0  0  0  0  0  0
  153.6517  141.9016  160.1385 C   0  0  1  0  0  0  0  0  0  0  0  0
  153.1650  140.7570  159.2309 C   0  0  0  0  0  0  0  0  0  0  0  0
  151.8033  140.9713  158.7424 N   0  0  0  0  0  0  0  0  0  0  0  0
  151.3228  139.8608  157.9163 C   0  0  0  0  0  0  0  0  0  0  0  0
  151.1335  138.5213  158.6589 C   0  0  0  0  0  0  0  0  0  0  0  0
  149.7457  138.2409  159.0158 N   0  0  0  0  0  0  0  0  0  0  0  0
  149.0815  137.1035  158.7590 C   0  0  0  0  0  0  0  0  0  0  0  0
  149.6539  136.1666  158.1968 O   0  0  0  0  0  0  0  0  0  0  0  0
  147.7854  137.1313  159.1444 N   0  5  0  0  0  0  0  0  0  0  0  0
  147.4428  136.6839  160.3633 C   0  0  0  0  0  0  0  0  0  0  0  0
  147.2448  137.4975  161.4071 N   0  0  0  0  0  0  0  0  0  0  0  0
  146.8933  136.8234  162.5777 C   0  0  0  0  0  0  0  0  0  0  0  0
  146.8300  135.4640  162.4236 C   0  0  0  0  0  0  0  0  0  0  0  0
  147.2136  134.9871  160.7940 S   0  0  0  0  0  0  0  0  0  0  0  0
  151.7771  142.2395  158.0265 C   0  0  0  0  0  0  0  0  0  0  0  0
  152.2018  143.4094  158.9347 C   0  0  2  0  0  0  0  0  0  0  0  0
  152.2499  144.7407  158.1779 C   0  0  0  0  0  0  0  0  0  0  0  0
  153.5003  143.1560  159.4698 O   0  0  0  0  0  0  0  0  0  0  0  0
  153.1908  140.9671  162.0510 H   0  0  0  0  0  0  0  0  0  0  0  0
  151.8979  141.9933  161.4550 H   0  0  0  0  0  0  0  0  0  0  0  0
  153.3527  142.7182  162.1381 H   0  0  0  0  0  0  0  0  0  0  0  0
  154.7213  141.7680  160.3020 H   0  0  0  0  0  0  0  0  0  0  0  0
  153.8435  140.6713  158.3810 H   0  0  0  0  0  0  0  0  0  0  0  0
  153.2515  139.8193  159.7716 H   0  0  0  0  0  0  0  0  0  0  0  0
  150.3416  140.1199  157.5166 H   0  0  0  0  0  0  0  0  0  0  0  0
  151.9628  139.7299  157.0424 H   0  0  0  0  0  0  0  0  0  0  0  0
  151.5739  137.7069  158.0816 H   0  0  0  0  0  0  0  0  0  0  0  0
  151.6962  138.5571  159.5917 H   0  0  0  0  0  0  0  0  0  0  0  0
  149.2347  138.9809  159.4740 H   0  0  0  0  0  0  0  0  0  0  0  0
  146.7060  137.3923  163.4761 H   0  0  0  0  0  0  0  0  0  0  0  0
  146.5838  134.7180  163.1639 H   0  0  0  0  0  0  0  0  0  0  0  0
  152.4322  142.1875  157.1553 H   0  0  0  0  0  0  0  0  0  0  0  0
  150.7712  142.4303  157.6505 H   0  0  0  0  0  0  0  0  0  0  0  0
  151.4900  143.5073  159.7551 H   0  0  0  0  0  0  0  0  0  0  0  0
  151.2742  144.9903  157.7608 H   0  0  0  0  0  0  0  0  0  0  0  0
  152.9663  144.7025  157.3569 H   0  0  0  0  0  0  0  0  0  0  0  0
  152.5452  145.5540  158.8411 H   0  0  0  0  0  0  0  0  0  0  0  0
  1  2  1  0  0  0  0
  1 20  1  0  0  0  0
  1 21  1  0  0  0  0
  1 22  1  0  0  0  0
  2 19  1  0  0  0  0
  2  3  1  0  0  0  0
  2 23  1  0  0  0  0
  3  4  1  0  0  0  0
  3 24  1  0  0  0  0
  3 25  1  0  0  0  0
  4  5  1  0  0  0  0
  4 16  1  0  0  0  0
  5  6  1  0  0  0  0
  5 26  1  0  0  0  0
  5 27  1  0  0  0  0
  6  7  1  0  0  0  0
  6 28  1  0  0  0  0
  6 29  1  0  0  0  0
  7  8  1  0  0  0  0
  7 30  1  0  0  0  0
  8  9  2  0  0  0  0
  8 10  1  0  0  0  0
 10 11  1  0  0  0  0
 11 15  1  0  0  0  0
 11 12  2  0  0  0  0
 12 13  1  0  0  0  0
 13 14  2  0  0  0  0
 13 31  1  0  0  0  0
 14 15  1  0  0  0  0
 14 32  1  0  0  0  0
 16 17  1  0  0  0  0
 16 33  1  0  0  0  0
 16 34  1  0  0  0  0
 17 18  1  0  0  0  0
 17 19  1  0  0  0  0
 17 35  1  0  0  0  0
 18 36  1  0  0  0  0
 18 37  1  0  0  0  0
 18 38  1  0  0  0  0
M  CHG  1  10  -1
M  END
> <s_m_source_file>
AV-unprocessed.smi

> <i_m_source_file_index>
1815

> <i_lp_mmshare_version>
43012

> <i_f3d_flags>
0

> <s_epik_input>
W0NIM11bQ0BASF0xW0NIMl1OKFtDSDJdW0NASF0oTzEpW0NIM10pW0NIMl1bQ0gyXVtOSF1DKD1PKVtOSF1jMm5bY0hdW2NIXXMy

> <s_epik_cmdline>
J2VwaWtfcHl0aG9uJywgJy1waCcsICc3LjAnLCAnLXRuJywgJzgnLCAnLW1hJywgJzIwMCcsICctbWV0YWxfYmluZGluZycsICctaW1hZScsICc8aW5maWxlLm1hZT4nLCAnLW9tYWUnLCAnPG91dGZpbGUubWFlPic=

> <r_lp_tautomer_probability>
0.999

> <r_epik_Ionization_Penalty>
7.22374

> <r_epik_Ionization_Penalty_Charging>
5.82415

> <r_epik_Ionization_Penalty_Neutral>
1.39959

> <r_epik_State_Penalty>
6.03347

> <r_epik_Charging_Adjusted_Penalty>
11.8576

> <i_epik_Tot_Q>
-1

> <i_epik_Tot_abs_Q>
1

> <r_epik_Metal_State_Penalty>
2.01024

> <b_epik_Metal_Only>
1

> <s_lp_Force_Field>
OPLS_2005

> <r_lp_Energy>
24.221

> <b_lp_Chiralities_Consistent>
1

> <s_lp_Variant>
AV-unprocessed.smi:1815-10

> <Gold.Version>
5.8.1

> <Gold.Id.Protein>
6NUR|6NUR_protein|mol2

> <Gold.PLP.Fitness>
47.1835

> <Gold.PLP.PLP>
-42.5039

> <Gold.PLP.part.hbond>
-3.0000

> <Gold.PLP.part.metal>
0.0000

> <Gold.PLP.part.buried>
-5.9649

> <Gold.PLP.part.nonpolar>
-33.9866

> <Gold.PLP.part.repulsive>
0.6906

> <Gold.PLP.ligand.clash>
0.0000

> <Gold.PLP.ligand.torsion>
1.8320

> <Gold.PLP.Chemscore.Hbond>
2.7520

> <Gold.PLP.Chemscore.CHOScore>
0.0000

> <Gold.PLP.Chemscore.Metal>
0.0000

> <Gold.Chemscore.Hbonds>
donor molecule, donor type, donor heavy atom, donor atom, acceptor molecule, acceptor atom, score
      P1  H  6896  6908       L1     9  0.34
      P1  H  6931  6943       L1    12  0.72
      P1  H  6934  6947       L1    12  0.96

> <Gold.PLP.Chemscore.Internal.Correction>
0.0875

> <Gold.Rescore>
     Score         DG    S(hbond)    S(metal)    S(lipo)     H(rot)  DE(clash)    DE(int)     intcor
     17.85     -19.76       1.98        0.00      99.81       1.57       0.03       1.89       ----

> <Gold.Chemscore.Fitness>
17.8499

> <Gold.Chemscore.DG>
-19.7629

> <Gold.Chemscore.ZeroCoef>
-5.4800

> <Gold.Chemscore.Hbond>
1.9813

> <Gold.Chemscore.Metal>
0.0000

> <Gold.Chemscore.Lipo>
99.8150

> <Gold.Chemscore.Internal_Hbond>
0.0000

> <Gold.Chemscore.DEClash>
0.0277

> <Gold.Chemscore.DEInternal>
1.8853

> <Gold.Chemscore.Rot>
1.5676

> <Gold.Chemscore.Internal.Correction>
   9.000000E+99

> <Gold.Chemscore.Hbonds>
donor molecule, donor type, donor heavy atom, donor atom, acceptor molecule, acceptor atom, score
      P1  H  6896  6908       L1     9  0.31
      P1  H  6931  6943       L1    12  0.14
      P1  H  6934  6947       L1    12  0.71

> <Gold.Chemscore.Hbond.Weighted>
-6.6176

> <Gold.Chemscore.Metal.Weighted>
-0.0000

> <Gold.Chemscore.Lipo.Weighted>
-11.6784

> <Gold.Chemscore.Internal_Hbond.Weighted>
0.0000

> <Gold.Chemscore.DEClash.Weighted>
0.0277

> <Gold.Chemscore.DEInternal.Weighted>
1.8853

> <Gold.Chemscore.Rot.Weighted>
4.0130

> <Gold.Chemscore.Internal.Correction.Weighted>
   9.000000E+99

> <Gold.Protein.RotatedTorsions>
[ 6907 6896 6895 6894 ] final -176.72 input  -60.11 | X-H torsion
[ 7974 7965 7964 7962 ] final   34.14 input  175.53 | X-H torsion
[ 8008 7997 7996 7995 ] final  138.83 input   59.86 | X-H torsion
[ 10167 10162 10161 10158 ] final   97.77 input  -65.29 | X-H torsion
[ 10718 10713 10712 10709 ] final  -86.70 input   66.30 | X-H torsion
[ 10763 10752 10751 10750 ] final -136.73 input  -60.55 | X-H torsion
[ 11005 11000 10999 10996 ] final  -43.54 input  -57.11 | X-H torsion

> <Gold.Protein.ActiveResidues>
 VAL166  LYS551  ARG553  GLY616  TRP617  ASP618  TYR619  PRO620  LYS621  CYS622 
 ASP623  PHE694  ASN695  SER759  ASP760  ASP761  ALA762  ILE779  LEU786  VAL792 
 PHE793  MET794  SER795  GLU796  ALA797  LYS798  CYS799  TRP800  GLU811  SER814 

> <Gold.Protein.RotatedAtoms>
  151.6094  133.3348  159.3063 H   0  0  0  0  0  0  0  0  0  0  0  0  # atno 6907 bound_to 6896
  150.8164  134.7352  159.6745 H   0  0  0  0  0  0  0  0  0  0  0  0  # atno 6908 bound_to 6896
  152.4260  134.5872  160.0016 H   0  0  0  0  0  0  0  0  0  0  0  0  # atno 6909 bound_to 6896
  146.1373  139.6307  142.9187 H   0  0  0  0  0  0  0  0  0  0  0  0  # atno 7974 bound_to 7965
  156.2994  140.2383  156.4138 H   0  0  0  0  0  0  0  0  0  0  0  0  # atno 8008 bound_to 7997
  154.8417  140.0428  157.1566 H   0  0  0  0  0  0  0  0  0  0  0  0  # atno 8009 bound_to 7997
  154.9095  140.2988  155.5277 H   0  0  0  0  0  0  0  0  0  0  0  0  # atno 8010 bound_to 7997
  139.7770  144.6902  151.0075 H   0  0  0  0  0  0  0  0  0  0  0  0  # atno 10167 bound_to 10162
  155.9988  130.4774  150.4754 H   0  0  0  0  0  0  0  0  0  0  0  0  # atno 10718 bound_to 10713
  154.8677  135.3664  154.5108 H   0  0  0  0  0  0  0  0  0  0  0  0  # atno 10763 bound_to 10752
  153.5743  135.7020  153.5496 H   0  0  0  0  0  0  0  0  0  0  0  0  # atno 10764 bound_to 10752
  153.3514  135.4071  155.1611 H   0  0  0  0  0  0  0  0  0  0  0  0  # atno 10765 bound_to 10752
  141.0390  133.6787  156.2747 H   0  0  0  0  0  0  0  0  0  0  0  0  # atno 11005 bound_to 11000
  145.5127  141.0435  143.2479 LP  0  0  0  0  0  0  0  0  0  0  0  0  # atno 17320 bound_to 7965
  144.7754  139.6643  143.7177 LP  0  0  0  0  0  0  0  0  0  0  0  0  # atno 17321 bound_to 7965
  140.7817  143.4525  151.0393 LP  0  0  0  0  0  0  0  0  0  0  0  0  # atno 17342 bound_to 10162
  139.8206  143.7825  152.3176 LP  0  0  0  0  0  0  0  0  0  0  0  0  # atno 17343 bound_to 10162
  157.2765  131.0598  151.2226 LP  0  0  0  0  0  0  0  0  0  0  0  0  # atno 17370 bound_to 10713
  157.3287  130.6974  149.6311 LP  0  0  0  0  0  0  0  0  0  0  0  0  # atno 17371 bound_to 10713
  140.6268  134.5304  157.5555 LP  0  0  0  0  0  0  0  0  0  0  0  0  # atno 17394 bound_to 11000
  139.9262  134.8052  156.1062 LP  0  0  0  0  0  0  0  0  0  0  0  0  # atno 17395 bound_to 11000

$$$$
