#       Name:                AV-unprocessed.smi:72
#       Creating user name   scv26
#       Creation time:       Thu Mar 26 17:07:03 2020


#       File generated by GOLD software.
#

@<TRIPOS>MOLECULE
AV-unprocessed.smi:72
    41    42     1
SMALL
NO_CHARGES


@<TRIPOS>ATOM
      1 ****        -2.5564   4.4097  -0.9430 N.2            1 S1                 0.0000
      2 ****        -2.1387   3.2745  -0.5864 C.2            1 S1                 0.0000
      3 ****        -0.7194   2.9944  -0.5851 N.2            1 S1                 0.0000
      4 ****        -0.3368   1.8142  -0.2052 C.2            1 S1                 0.0000
      5 ****        -1.2885   0.7943   0.2131 N.am           1 S1                 0.0000
      6 ****        -0.8187  -0.5824   0.6448 C.3            1 S1                 0.0000
      7 ****         0.4235  -0.4633   1.2745 O.3            1 S1                 0.0000
      8 ****         1.2766  -1.5244   0.8581 C.3            1 S1                 0.0000
      9 ****         2.7576  -1.1644   1.0710 C.3            1 S1                 0.0000
     10 ****         3.1361  -1.4294   2.4051 O.3            1 S1                 0.0000
     11 ****         0.8573  -1.7655  -0.5984 C.3            1 S1                 0.0000
     12 ****         1.4926  -0.8445  -1.4702 O.3            1 S1                 0.0000
     13 ****        -0.6532  -1.5649  -0.5352 C.3            1 S1                 0.0000
     14 ****        -1.2135  -1.1542  -1.7710 O.3            1 S1                 0.0000
     15 ****        -2.6775   1.0912   0.1868 C.2            1 S1                 0.0000
     16 ****        -3.4694   0.2068   0.5131 O.2            1 S1                 0.0000
     17 ****        -3.0720   2.3342  -0.2088 N.pl3          1 S1                -1.0000
     18 ****        -1.5337  -0.9353   1.3891 H              1 S1                 0.0000
     19 ****         1.0207  -2.4162   1.4338 H              1 S1                 0.0000
     20 ****         1.1138  -2.7726  -0.9285 H              1 S1                 0.0000
     21 ****        -1.1230  -2.5037  -0.2388 H              1 S1                 0.0000
     22 ****        -3.5624   4.4852  -0.9039 H              1 S1                 0.0000
     23 ****         0.7109   1.5130  -0.1785 H              1 S1                 0.0000
     24 ****         3.3894  -1.7771   0.4271 H              1 S1                 0.0000
     25 ****         2.9524  -0.1207   0.8219 H              1 S1                 0.0000
     26 ****         4.0469  -1.2006   2.5101 H              1 S1                 0.0000
     27 ****         1.1451  -0.9721  -2.3400 H              1 S1                 0.0000
     28 ****        -0.9133  -0.2770  -1.9555 H              1 S1                 0.0000
     29 ****        -1.9559   5.1548  -1.2333 LP             1 S1                 0.0000
     30 ****        -0.0556   3.6870  -0.8675 LP             1 S1                 0.0000
     31 ****         0.2991  -0.5064   2.2658 LP             1 S1                 0.0000
     32 ****         0.8383   0.4127   1.0283 LP             1 S1                 0.0000
     33 ****         3.0072  -2.4006   2.6056 LP             1 S1                 0.0000
     34 ****         2.5772  -0.8832   3.0290 LP             1 S1                 0.0000
     35 ****         2.4794  -1.0067  -1.4730 LP             1 S1                 0.0000
     36 ****         1.3094   0.0905  -1.1665 LP             1 S1                 0.0000
     37 ****        -2.2116  -1.1643  -1.7099 LP             1 S1                 0.0000
     38 ****        -0.9178  -1.7730  -2.4988 LP             1 S1                 0.0000
     39 ****        -3.1292  -0.6927   0.7873 LP             1 S1                 0.0000
     40 ****        -4.4528   0.3879   0.5039 LP             1 S1                 0.0000
     41 ****        -4.0448   2.5651  -0.2251 LP             1 S1                 0.0000
@<TRIPOS>BOND
    1    1    2 2     
    2    1   22 1     
    3    2   17 1     
    4    2    3 1     
    5    3    4 2     
    6    4    5 1     
    7    4   23 1     
    8    5    6 1     
    9    5   15 am    
   10    6   18 1     
   11    6   13 1     
   12    6    7 1     
   13    7    8 1     
   14    8   19 1     
   15    8    9 1     
   16    8   11 1     
   17    9   10 1     
   18    9   24 1     
   19    9   25 1     
   20   10   26 1     
   21   11   20 1     
   22   11   12 1     
   23   11   13 1     
   24   12   27 1     
   25   13   21 1     
   26   13   14 1     
   27   14   28 1     
   28   15   16 2     
   29   15   17 1     
   30    1   29 1     
   31    3   30 1     
   32    7   31 1     
   33    7   32 1     
   34   10   33 1     
   35   10   34 1     
   36   12   35 1     
   37   12   36 1     
   38   14   37 1     
   39   14   38 1     
   40   16   39 1     
   41   16   40 1     
   42   17   41 1     
@<TRIPOS>SUBSTRUCTURE
      1 S1             1
@<TRIPOS>SET
LONE_PAIRS      STATIC     ATOMS    <user>   **** ""
13 29 30 31 32 33 34 35 36 37 38 39 40 41
DONOR_HYDROGENS      STATIC     ATOMS    <user>   **** ""
4 22 26 27 28
ATOM$BLUE        STATIC     ATOMS    COLORGROUP SYSTEM
13 29 30 31 32 33 34 35 36 37 38 39 40 41
ATOM$RED        STATIC     ATOMS    COLORGROUP SYSTEM
4 22 26 27 28
