AV-unprocessed.smi:345|AV-procd|sdf|2391|dock3
  -GOLD-   2262022323D 1   1.00000     0.00000
 Structure written by MMmdl.
 34 36  0  0  0  0  0  0  0  0  1 V2000
  148.7218  130.0313  153.6494 C   0  0  0  0  0  0  0  0  0  0  0  0
  149.0536  131.4219  154.0701 C   0  0  0  0  0  0  0  0  0  0  0  0
  148.9761  132.6301  153.4359 C   0  0  0  0  0  0  0  0  0  0  0  0
  149.4418  133.5397  154.4221 C   0  0  0  0  0  0  0  0  0  0  0  0
  149.5077  134.9310  154.1553 N   0  0  0  0  0  0  0  0  0  0  0  0
  149.8357  135.9146  155.0104 C   0  0  0  0  0  0  0  0  0  0  0  0
  150.1681  135.7504  156.1845 O   0  0  0  0  0  0  0  0  0  0  0  0
  149.7544  137.1170  154.4213 N   0  0  0  0  0  0  0  0  0  0  0  0
  150.0181  138.4000  155.0647 C   0  0  0  0  0  0  0  0  0  0  0  0
  149.7023  139.5816  154.1609 C   0  0  0  0  0  0  0  0  0  0  0  0
  149.4719  140.9638  154.7258 C   0  0  0  0  0  0  0  0  0  0  0  0
  148.3228  140.1961  154.1147 C   0  0  0  0  0  0  0  0  0  0  0  0
  151.4507  138.4880  155.5598 C   0  0  0  0  0  0  0  0  0  0  0  0
  152.1863  139.8063  155.5927 C   0  0  0  0  0  0  0  0  0  0  0  0
  152.6004  138.7333  154.6110 C   0  0  0  0  0  0  0  0  0  0  0  0
  149.7797  132.9406  155.5537 N   0  0  0  0  0  0  0  0  0  0  0  0
  149.5324  131.5804  155.3338 O   0  0  0  0  0  0  0  0  0  0  0  0
  148.4192  130.0023  152.6025 H   0  0  0  0  0  0  0  0  0  0  0  0
  147.9028  129.6327  154.2481 H   0  0  0  0  0  0  0  0  0  0  0  0
  149.5825  129.3736  153.7719 H   0  0  0  0  0  0  0  0  0  0  0  0
  148.6362  132.8282  152.4302 H   0  0  0  0  0  0  0  0  0  0  0  0
  149.2611  135.2089  153.2171 H   0  0  0  0  0  0  0  0  0  0  0  0
  149.4788  137.1501  153.4507 H   0  0  0  0  0  0  0  0  0  0  0  0
  149.3744  138.4756  155.9438 H   0  0  0  0  0  0  0  0  0  0  0  0
  150.2344  139.5510  153.2117 H   0  0  0  0  0  0  0  0  0  0  0  0
  149.4712  141.0813  155.8073 H   0  0  0  0  0  0  0  0  0  0  0  0
  149.8688  141.8075  154.1653 H   0  0  0  0  0  0  0  0  0  0  0  0
  147.9540  140.5261  153.1459 H   0  0  0  0  0  0  0  0  0  0  0  0
  147.5664  139.8071  154.7933 H   0  0  0  0  0  0  0  0  0  0  0  0
  151.6638  137.8113  156.3857 H   0  0  0  0  0  0  0  0  0  0  0  0
  151.6784  140.6819  155.1930 H   0  0  0  0  0  0  0  0  0  0  0  0
  152.8437  139.9940  156.4390 H   0  0  0  0  0  0  0  0  0  0  0  0
  153.5310  138.2040  154.8049 H   0  0  0  0  0  0  0  0  0  0  0  0
  152.3715  138.9048  153.5613 H   0  0  0  0  0  0  0  0  0  0  0  0
  1  2  1  0  0  0  0
  1 18  1  0  0  0  0
  1 19  1  0  0  0  0
  1 20  1  0  0  0  0
  2 17  1  0  0  0  0
  2  3  2  0  0  0  0
  3  4  1  0  0  0  0
  3 21  1  0  0  0  0
  4  5  1  0  0  0  0
  4 16  2  0  0  0  0
  5  6  1  0  0  0  0
  5 22  1  0  0  0  0
  6  7  2  0  0  0  0
  6  8  1  0  0  0  0
  8  9  1  0  0  0  0
  8 23  1  0  0  0  0
  9 10  1  0  0  0  0
  9 13  1  0  0  0  0
  9 24  1  0  0  0  0
 10 12  1  0  0  0  0
 10 11  1  0  0  0  0
 10 25  1  0  0  0  0
 11 12  1  0  0  0  0
 11 26  1  0  0  0  0
 11 27  1  0  0  0  0
 12 28  1  0  0  0  0
 12 29  1  0  0  0  0
 13 15  1  0  0  0  0
 13 14  1  0  0  0  0
 13 30  1  0  0  0  0
 14 15  1  0  0  0  0
 14 31  1  0  0  0  0
 14 32  1  0  0  0  0
 15 33  1  0  0  0  0
 15 34  1  0  0  0  0
 16 17  1  0  0  0  0
M  END
> <s_m_source_file>
AV-unprocessed.smi

> <i_m_source_file_index>
345

> <i_lp_mmshare_version>
43012

> <i_f3d_flags>
0

> <s_epik_input>
W0NIM11jMVtjSF1jKG5vMSlbTkhdQyg9TylbTkhdW0NIXShbQ0hdMltDSDJdW0NIMl0yKVtDSF0zW0NIMl1bQ0gyXTM=

> <s_epik_cmdline>
J2VwaWtfcHl0aG9uJywgJy1waCcsICc3LjAnLCAnLXRuJywgJzgnLCAnLW1hJywgJzIwMCcsICctbWV0YWxfYmluZGluZycsICctaW1hZScsICc8aW5maWxlLm1hZT4nLCAnLW9tYWUnLCAnPG91dGZpbGUubWFlPic=

> <r_lp_tautomer_probability>
1

> <r_epik_Ionization_Penalty>
2.39082e-05

> <r_epik_Ionization_Penalty_Charging>
0

> <r_epik_Ionization_Penalty_Neutral>
2.39082e-05

> <r_epik_State_Penalty>
-0

> <r_epik_Charging_Adjusted_Penalty>
0

> <i_epik_Tot_Q>
0

> <i_epik_Tot_abs_Q>
0

> <r_epik_Metal_State_Penalty>
-0

> <b_epik_Metal_Only>
0

> <s_lp_Force_Field>
OPLS_2005

> <r_lp_Energy>
21.3823

> <b_lp_Chiralities_Consistent>
1

> <s_lp_Variant>
AV-unprocessed.smi:345-1

> <Gold.Version>
5.8.1

> <Gold.Id.Protein>
6NUR|6NUR_protein|mol2

> <Gold.PLP.Fitness>
36.0833

> <Gold.PLP.PLP>
-30.8375

> <Gold.PLP.part.hbond>
-2.0874

> <Gold.PLP.part.metal>
0.0000

> <Gold.PLP.part.buried>
0.6413

> <Gold.PLP.part.nonpolar>
-27.7426

> <Gold.PLP.part.repulsive>
0.0861

> <Gold.PLP.ligand.clash>
0.0000

> <Gold.PLP.ligand.torsion>
1.1204

> <Gold.PLP.Chemscore.Hbond>
1.7920

> <Gold.PLP.Chemscore.CHOScore>
0.0000

> <Gold.PLP.Chemscore.Metal>
0.0000

> <Gold.Chemscore.Hbonds>
donor molecule, donor type, donor heavy atom, donor atom, acceptor molecule, acceptor atom, score
      L1  H     5    22       P1  7948  0.75
      L1  H     8    23       P1  7948  0.99

> <Gold.PLP.Chemscore.Internal.Correction>
2.1107

> <Gold.Rescore>
     Score         DG    S(hbond)    S(metal)    S(lipo)     H(rot)  DE(clash)    DE(int)     intcor
     11.48     -14.59       1.66        0.00      61.49       1.42       0.05       3.06       ----

> <Gold.Chemscore.Fitness>
11.4838

> <Gold.Chemscore.DG>
-14.5929

> <Gold.Chemscore.ZeroCoef>
-5.4800

> <Gold.Chemscore.Hbond>
1.6616

> <Gold.Chemscore.Metal>
0.0000

> <Gold.Chemscore.Lipo>
61.4850

> <Gold.Chemscore.Internal_Hbond>
0.0000

> <Gold.Chemscore.DEClash>
0.0477

> <Gold.Chemscore.DEInternal>
3.0613

> <Gold.Chemscore.Rot>
1.4183

> <Gold.Chemscore.Internal.Correction>
   9.000000E+99

> <Gold.Chemscore.Hbonds>
donor molecule, donor type, donor heavy atom, donor atom, acceptor molecule, acceptor atom, score
      L1  H     5    22       P1  7948  0.09
      L1  H     8    23       P1  7948  0.85

> <Gold.Chemscore.Hbond.Weighted>
-5.5499

> <Gold.Chemscore.Metal.Weighted>
-0.0000

> <Gold.Chemscore.Lipo.Weighted>
-7.1937

> <Gold.Chemscore.Internal_Hbond.Weighted>
0.0000

> <Gold.Chemscore.DEClash.Weighted>
0.0477

> <Gold.Chemscore.DEInternal.Weighted>
3.0613

> <Gold.Chemscore.Rot.Weighted>
3.6308

> <Gold.Chemscore.Internal.Correction.Weighted>
   9.000000E+99

> <Gold.Protein.RotatedTorsions>
[ 6907 6896 6895 6894 ] final  -59.08 input  -60.11 | X-H torsion
[ 7974 7965 7964 7962 ] final -150.67 input  175.53 | X-H torsion
[ 8008 7997 7996 7995 ] final  138.32 input   59.86 | X-H torsion
[ 10167 10162 10161 10158 ] final  138.42 input  -65.29 | X-H torsion
[ 10718 10713 10712 10709 ] final   24.44 input   66.30 | X-H torsion
[ 10763 10752 10751 10750 ] final  -16.96 input  -60.55 | X-H torsion
[ 11005 11000 10999 10996 ] final  -33.82 input  -57.11 | X-H torsion

> <Gold.Protein.ActiveResidues>
 VAL166  LYS551  ARG553  GLY616  TRP617  ASP618  TYR619  PRO620  LYS621  CYS622 
 ASP623  PHE694  ASN695  SER759  ASP760  ASP761  ALA762  ILE779  LEU786  VAL792 
 PHE793  MET794  SER795  GLU796  ALA797  LYS798  CYS799  TRP800  GLU811  SER814 

> <Gold.Protein.RotatedAtoms>
  150.7958  134.7015  159.6552 H   0  0  0  0  0  0  0  0  0  0  0  0  # atno 6907 bound_to 6896
  152.4069  134.6187  160.0055 H   0  0  0  0  0  0  0  0  0  0  0  0  # atno 6908 bound_to 6896
  151.6442  133.3287  159.3173 H   0  0  0  0  0  0  0  0  0  0  0  0  # atno 6909 bound_to 6896
  144.7894  140.4900  143.5783 H   0  0  0  0  0  0  0  0  0  0  0  0  # atno 7974 bound_to 7965
  156.2998  140.2396  156.4055 H   0  0  0  0  0  0  0  0  0  0  0  0  # atno 8008 bound_to 7997
  154.8488  140.0425  157.1610 H   0  0  0  0  0  0  0  0  0  0  0  0  # atno 8009 bound_to 7997
  154.9021  140.2978  155.5316 H   0  0  0  0  0  0  0  0  0  0  0  0  # atno 8010 bound_to 7997
  139.5111  144.6354  151.5710 H   0  0  0  0  0  0  0  0  0  0  0  0  # atno 10167 bound_to 10162
  157.1799  130.6798  149.6109 H   0  0  0  0  0  0  0  0  0  0  0  0  # atno 10718 bound_to 10713
  153.5665  135.7008  153.5523 H   0  0  0  0  0  0  0  0  0  0  0  0  # atno 10763 bound_to 10752
  153.3382  135.4028  155.1550 H   0  0  0  0  0  0  0  0  0  0  0  0  # atno 10764 bound_to 10752
  154.8640  135.3735  154.5185 H   0  0  0  0  0  0  0  0  0  0  0  0  # atno 10765 bound_to 10752
  140.9666  133.7133  156.1455 H   0  0  0  0  0  0  0  0  0  0  0  0  # atno 11005 bound_to 11000
  145.5835  139.1490  143.3222 LP  0  0  0  0  0  0  0  0  0  0  0  0  # atno 17320 bound_to 7965
  146.2140  140.5964  142.9047 LP  0  0  0  0  0  0  0  0  0  0  0  0  # atno 17321 bound_to 7965
  140.6101  143.9451  150.6447 LP  0  0  0  0  0  0  0  0  0  0  0  0  # atno 17342 bound_to 10162
  140.2691  143.3469  152.1254 LP  0  0  0  0  0  0  0  0  0  0  0  0  # atno 17343 bound_to 10162
  155.9726  130.4650  150.6239 LP  0  0  0  0  0  0  0  0  0  0  0  0  # atno 17370 bound_to 10713
  157.3963  131.0803  151.1349 LP  0  0  0  0  0  0  0  0  0  0  0  0  # atno 17371 bound_to 10713
  140.7390  134.4171  157.5557 LP  0  0  0  0  0  0  0  0  0  0  0  0  # atno 17394 bound_to 11000
  139.8897  134.8824  156.2409 LP  0  0  0  0  0  0  0  0  0  0  0  0  # atno 17395 bound_to 11000

$$$$
