#       Name:                AV-unprocessed.smi:3109
#       Creating user name   scv26
#       Creation time:       Fri Mar 27 17:20:04 2020


#       File generated by GOLD software.
#

@<TRIPOS>MOLECULE
AV-unprocessed.smi:3109
    38    39     1
SMALL
NO_CHARGES


@<TRIPOS>ATOM
      1 ****        -4.3317   2.4801   0.3645 C.2            1 S1                 0.0000
      2 ****        -3.3480   3.0865  -0.4653 C.2            1 S1                 0.0000
      3 ****        -2.7196   2.2106  -1.2327 N.2            1 S1                 0.0000
      4 ****        -3.2711   1.0192  -0.9132 N.pl3          1 S1                 0.0000
      5 ****        -2.8343  -0.1912  -1.5899 C.3            1 S1                 0.0000
      6 ****        -1.3082  -0.3859  -1.5547 C.3            1 S1                 0.0000
      7 ****        -0.8109  -0.4976  -0.1660 N.4            1 S1                 1.0000
      8 ****         0.6500  -0.6946  -0.0257 C.3            1 S1                 0.0000
      9 ****         0.9612  -1.2354   1.3858 C.3            1 S1                 0.0000
     10 ****         2.2134  -2.1305   1.4306 C.3            1 S1                 0.0000
     11 ****         3.5521  -1.3873   1.3191 C.3            1 S1                 0.0000
     12 ****         3.7014  -0.5171   0.0607 C.3            1 S1                 0.0000
     13 ****         2.8459   0.7572   0.1217 C.3            1 S1                 0.0000
     14 ****         1.3997   0.6115  -0.3846 C.3            1 S1                 0.0000
     15 ****        -4.2587   1.1557   0.0400 C.2            1 S1                 0.0000
     16 ****        -4.9927   2.9461   1.0803 H              1 S1                 0.0000
     17 ****        -3.0759   4.1295  -0.5343 H              1 S1                 0.0000
     18 ****        -3.3328  -1.0468  -1.1321 H              1 S1                 0.0000
     19 ****        -3.1795  -0.1437  -2.6234 H              1 S1                 0.0000
     20 ****        -1.0467  -1.2938  -2.0991 H              1 S1                 0.0000
     21 ****        -0.8155   0.4398  -2.0678 H              1 S1                 0.0000
     22 ****        -1.0746   0.3338   0.3437 H              1 S1                 0.0000
     23 ****         0.9321  -1.4676  -0.7424 H              1 S1                 0.0000
     24 ****         1.0304  -0.4240   2.1118 H              1 S1                 0.0000
     25 ****         0.1254  -1.8540   1.7164 H              1 S1                 0.0000
     26 ****         2.2123  -2.6788   2.3733 H              1 S1                 0.0000
     27 ****         2.1506  -2.8915   0.6519 H              1 S1                 0.0000
     28 ****         3.7073  -0.7766   2.2094 H              1 S1                 0.0000
     29 ****         4.3535  -2.1270   1.3284 H              1 S1                 0.0000
     30 ****         4.7475  -0.2165  -0.0095 H              1 S1                 0.0000
     31 ****         3.4942  -1.0889  -0.8447 H              1 S1                 0.0000
     32 ****         2.8399   1.1422   1.1422 H              1 S1                 0.0000
     33 ****         3.3294   1.5344  -0.4713 H              1 S1                 0.0000
     34 ****         1.4098   0.7140  -1.4702 H              1 S1                 0.0000
     35 ****         0.8358   1.4703  -0.0168 H              1 S1                 0.0000
     36 ****        -4.8215   0.3094   0.4062 H              1 S1                 0.0000
     37 ****        -1.2712  -1.2910   0.2567 H              1 S1                 0.0000
     38 ****        -1.9973   2.3904  -1.9005 LP             1 S1                 0.0000
@<TRIPOS>BOND
    1    1   15 2     
    2    1    2 1     
    3    1   16 1     
    4    2    3 2     
    5    2   17 1     
    6    3    4 1     
    7    4    5 1     
    8    4   15 1     
    9    5    6 1     
   10    5   18 1     
   11    5   19 1     
   12    6    7 1     
   13    6   20 1     
   14    6   21 1     
   15    7    8 1     
   16    7   22 1     
   17    7   37 1     
   18    8   14 1     
   19    8    9 1     
   20    8   23 1     
   21    9   10 1     
   22    9   24 1     
   23    9   25 1     
   24   10   11 1     
   25   10   26 1     
   26   10   27 1     
   27   11   12 1     
   28   11   28 1     
   29   11   29 1     
   30   12   13 1     
   31   12   30 1     
   32   12   31 1     
   33   13   14 1     
   34   13   32 1     
   35   13   33 1     
   36   14   34 1     
   37   14   35 1     
   38   15   36 1     
   39    3   38 1     
@<TRIPOS>SUBSTRUCTURE
      1 S1             1
@<TRIPOS>SET
LONE_PAIRS      STATIC     ATOMS    <user>   **** ""
1 38
DONOR_HYDROGENS      STATIC     ATOMS    <user>   **** ""
2 22 37
ATOM$BLUE        STATIC     ATOMS    COLORGROUP SYSTEM
1 38
ATOM$RED        STATIC     ATOMS    COLORGROUP SYSTEM
2 22 37
