AV-unprocessed.smi:919|AV-procd|sdf|4167|dock7
  -GOLD-   22720 2 73D 1   1.00000     0.00000
 Structure written by MMmdl.
 43 45  0  0  0  0  0  0  0  0  1 V2000
  145.4000  148.9320  156.5535 C   0  0  0  0  0  0  0  0  0  0  0  0
  144.8995  147.7292  157.3007 C   0  0  0  0  0  0  0  0  0  0  0  0
  144.1213  146.8537  156.6866 N   0  0  0  0  0  0  0  0  0  0  0  0
  143.8295  145.8694  157.6361 O   0  0  0  0  0  0  0  0  0  0  0  0
  144.4518  146.1945  158.7979 C   0  0  0  0  0  0  0  0  0  0  0  0
  144.2560  145.2592  159.9426 C   0  0  0  0  0  0  0  0  0  0  0  0
  145.1511  147.3609  158.6530 C   0  0  0  0  0  0  0  0  0  0  0  0
  145.9848  148.0957  159.6666 C   0  0  0  0  0  0  0  0  0  0  0  0
  146.8771  147.1308  160.4630 C   0  0  0  0  0  0  0  0  0  0  0  0
  147.6784  146.2932  159.5796 N   0  0  0  0  0  0  0  0  0  0  0  0
  148.6775  145.4875  159.9780 C   0  0  0  0  0  0  0  0  0  0  0  0
  149.0173  145.3591  161.1529 O   0  0  0  0  0  0  0  0  0  0  0  0
  149.2920  144.8218  158.9842 N   0  0  0  0  0  0  0  0  0  0  0  0
  150.4059  143.8769  159.0899 C   0  0  1  0  0  0  0  0  0  0  0  0
  150.8842  143.3482  157.7165 C   0  0  0  0  0  0  0  0  0  0  0  0
  152.3691  143.7545  157.6903 C   0  0  2  0  0  0  0  0  0  0  0  0
  153.1519  142.9157  158.7192 C   0  0  0  0  0  0  0  0  0  0  0  0
  152.6849  143.5028  160.0660 C   0  0  0  0  0  0  0  0  0  0  0  0
  151.6716  144.5777  159.6299 C   0  0  1  0  0  0  0  0  0  0  0  0
  152.3273  145.1197  158.3629 C   0  0  0  0  0  0  0  0  0  0  0  0
  145.4310  149.8098  157.1997 H   0  0  0  0  0  0  0  0  0  0  0  0
  144.7607  149.1723  155.7032 H   0  0  0  0  0  0  0  0  0  0  0  0
  146.4082  148.7628  156.1756 H   0  0  0  0  0  0  0  0  0  0  0  0
  144.5732  145.7155  160.8804 H   0  0  0  0  0  0  0  0  0  0  0  0
  144.8339  144.3463  159.7975 H   0  0  0  0  0  0  0  0  0  0  0  0
  143.2059  144.9835  160.0419 H   0  0  0  0  0  0  0  0  0  0  0  0
  146.6089  148.8460  159.1795 H   0  0  0  0  0  0  0  0  0  0  0  0
  145.3432  148.6505  160.3522 H   0  0  0  0  0  0  0  0  0  0  0  0
  147.5266  147.6831  161.1447 H   0  0  0  0  0  0  0  0  0  0  0  0
  146.2605  146.4790  161.0826 H   0  0  0  0  0  0  0  0  0  0  0  0
  147.4668  146.3347  158.5933 H   0  0  0  0  0  0  0  0  0  0  0  0
  148.9394  144.9801  158.0513 H   0  0  0  0  0  0  0  0  0  0  0  0
  150.1198  143.0591  159.7539 H   0  0  0  0  0  0  0  0  0  0  0  0
  150.7494  142.2701  157.6192 H   0  0  0  0  0  0  0  0  0  0  0  0
  150.3479  143.8231  156.8935 H   0  0  0  0  0  0  0  0  0  0  0  0
  152.8075  143.7457  156.6919 H   0  0  0  0  0  0  0  0  0  0  0  0
  152.9361  141.8502  158.6319 H   0  0  0  0  0  0  0  0  0  0  0  0
  154.2272  143.0509  158.5952 H   0  0  0  0  0  0  0  0  0  0  0  0
  152.2429  142.7501  160.7197 H   0  0  0  0  0  0  0  0  0  0  0  0
  153.5234  143.9548  160.5972 H   0  0  0  0  0  0  0  0  0  0  0  0
  151.4740  145.3216  160.4027 H   0  0  0  0  0  0  0  0  0  0  0  0
  153.3160  145.5487  158.5355 H   0  0  0  0  0  0  0  0  0  0  0  0
  151.7104  145.8460  157.8306 H   0  0  0  0  0  0  0  0  0  0  0  0
  1  2  1  0  0  0  0
  1 21  1  0  0  0  0
  1 22  1  0  0  0  0
  1 23  1  0  0  0  0
  2  7  1  0  0  0  0
  2  3  2  0  0  0  0
  3  4  1  0  0  0  0
  4  5  1  0  0  0  0
  5  6  1  0  0  0  0
  5  7  2  0  0  0  0
  6 24  1  0  0  0  0
  6 25  1  0  0  0  0
  6 26  1  0  0  0  0
  7  8  1  0  0  0  0
  8  9  1  0  0  0  0
  8 27  1  0  0  0  0
  8 28  1  0  0  0  0
  9 10  1  0  0  0  0
  9 29  1  0  0  0  0
  9 30  1  0  0  0  0
 10 11  1  0  0  0  0
 10 31  1  0  0  0  0
 11 12  2  0  0  0  0
 11 13  1  0  0  0  0
 13 14  1  0  0  0  0
 13 32  1  0  0  0  0
 14 19  1  0  0  0  0
 14 15  1  0  0  0  0
 14 33  1  0  0  0  0
 15 16  1  0  0  0  0
 15 34  1  0  0  0  0
 15 35  1  0  0  0  0
 16 20  1  0  0  0  0
 16 17  1  0  0  0  0
 16 36  1  0  0  0  0
 17 18  1  0  0  0  0
 17 37  1  0  0  0  0
 17 38  1  0  0  0  0
 18 19  1  0  0  0  0
 18 39  1  0  0  0  0
 18 40  1  0  0  0  0
 19 20  1  0  0  0  0
 19 41  1  0  0  0  0
 20 42  1  0  0  0  0
 20 43  1  0  0  0  0
M  END
> <s_m_source_file>
AV-unprocessed.smi

> <i_m_source_file_index>
919

> <i_lp_mmshare_version>
43012

> <i_f3d_flags>
0

> <s_epik_input>
W0NIM11jMW5vYyhbQ0gzXSljMVtDSDJdW0NIMl1bTkhdQyg9TylbTkhdW0NASF0oW0NIMl1bQ0BASF0yMylbQ0BASF0oW0NIMl0zKVtDSDJdW0NIMl0y

> <s_epik_cmdline>
J2VwaWtfcHl0aG9uJywgJy1waCcsICc3LjAnLCAnLXRuJywgJzgnLCAnLW1hJywgJzIwMCcsICctbWV0YWxfYmluZGluZycsICctaW1hZScsICc8aW5maWxlLm1hZT4nLCAnLW9tYWUnLCAnPG91dGZpbGUubWFlPic=

> <r_lp_tautomer_probability>
1

> <r_epik_Ionization_Penalty>
6.40771e-05

> <r_epik_Ionization_Penalty_Charging>
0

> <r_epik_Ionization_Penalty_Neutral>
6.40771e-05

> <r_epik_State_Penalty>
-0

> <r_epik_Charging_Adjusted_Penalty>
0

> <i_epik_Tot_Q>
0

> <i_epik_Tot_abs_Q>
0

> <r_epik_Metal_State_Penalty>
-0

> <b_epik_Metal_Only>
0

> <s_lp_Force_Field>
OPLS_2005

> <r_lp_Energy>
47.296

> <b_lp_Chiralities_Consistent>
1

> <s_lp_Variant>
AV-unprocessed.smi:919-4

> <Gold.Version>
5.8.1

> <Gold.Id.Protein>
6NUR|6NUR_protein|mol2

> <Gold.PLP.Fitness>
49.1339

> <Gold.PLP.PLP>
-41.0935

> <Gold.PLP.part.hbond>
-2.8038

> <Gold.PLP.part.metal>
0.0000

> <Gold.PLP.part.buried>
-4.3533

> <Gold.PLP.part.nonpolar>
-36.4609

> <Gold.PLP.part.repulsive>
0.5831

> <Gold.PLP.ligand.clash>
0.0000

> <Gold.PLP.ligand.torsion>
0.2754

> <Gold.PLP.Chemscore.Hbond>
2.8560

> <Gold.PLP.Chemscore.CHOScore>
0.0000

> <Gold.PLP.Chemscore.Metal>
0.0000

> <Gold.Chemscore.Hbonds>
donor molecule, donor type, donor heavy atom, donor atom, acceptor molecule, acceptor atom, score
      L1  H    10    31       P1  8029  0.64
      L1  H    13    32       P1  8029  0.80

> <Gold.PLP.Chemscore.Internal.Correction>
0.0232

> <Gold.Rescore>
     Score         DG    S(hbond)    S(metal)    S(lipo)     H(rot)  DE(clash)    DE(int)     intcor
     21.10     -21.71       2.26        0.00     107.41       1.52       0.13       0.48       ----

> <Gold.Chemscore.Fitness>
21.0989

> <Gold.Chemscore.DG>
-21.7065

> <Gold.Chemscore.ZeroCoef>
-5.4800

> <Gold.Chemscore.Hbond>
2.2578

> <Gold.Chemscore.Metal>
0.0000

> <Gold.Chemscore.Lipo>
107.4088

> <Gold.Chemscore.Internal_Hbond>
0.0000

> <Gold.Chemscore.DEClash>
0.1303

> <Gold.Chemscore.DEInternal>
0.4773

> <Gold.Chemscore.Rot>
1.5161

> <Gold.Chemscore.Internal.Correction>
   9.000000E+99

> <Gold.Chemscore.Hbonds>
donor molecule, donor type, donor heavy atom, donor atom, acceptor molecule, acceptor atom, score
      L1  H    10    31       P1  8029  0.61
      L1  H    13    32       P1  8029  0.31

> <Gold.Chemscore.Hbond.Weighted>
-7.5410

> <Gold.Chemscore.Metal.Weighted>
-0.0000

> <Gold.Chemscore.Lipo.Weighted>
-12.5668

> <Gold.Chemscore.Internal_Hbond.Weighted>
0.0000

> <Gold.Chemscore.DEClash.Weighted>
0.1303

> <Gold.Chemscore.DEInternal.Weighted>
0.4773

> <Gold.Chemscore.Rot.Weighted>
3.8813

> <Gold.Chemscore.Internal.Correction.Weighted>
   9.000000E+99

> <Gold.Protein.RotatedTorsions>
[ 6907 6896 6895 6894 ] final   32.65 input  -60.11 | X-H torsion
[ 7974 7965 7964 7962 ] final  130.43 input  175.53 | X-H torsion
[ 8008 7997 7996 7995 ] final  170.30 input   59.86 | X-H torsion
[ 10167 10162 10161 10158 ] final   53.22 input  -65.29 | X-H torsion
[ 10718 10713 10712 10709 ] final  -35.00 input   66.30 | X-H torsion
[ 10763 10752 10751 10750 ] final   37.30 input  -60.55 | X-H torsion
[ 11005 11000 10999 10996 ] final  121.87 input  -57.11 | X-H torsion

> <Gold.Protein.ActiveResidues>
 VAL166  LYS551  ARG553  GLY616  TRP617  ASP618  TYR619  PRO620  LYS621  CYS622 
 ASP623  PHE694  ASN695  SER759  ASP760  ASP761  ALA762  ILE779  LEU786  VAL792 
 PHE793  MET794  SER795  GLU796  ALA797  LYS798  CYS799  TRP800  GLU811  SER814 

> <Gold.Protein.RotatedAtoms>
  152.0775  134.9493  160.0573 H   0  0  0  0  0  0  0  0  0  0  0  0  # atno 6907 bound_to 6896
  152.0795  133.4141  159.4503 H   0  0  0  0  0  0  0  0  0  0  0  0  # atno 6908 bound_to 6896
  150.6836  134.2918  159.4713 H   0  0  0  0  0  0  0  0  0  0  0  0  # atno 6909 bound_to 6896
  145.0180  139.4158  143.5211 H   0  0  0  0  0  0  0  0  0  0  0  0  # atno 7974 bound_to 7965
  156.1378  140.1541  156.8967 H   0  0  0  0  0  0  0  0  0  0  0  0  # atno 8008 bound_to 7997
  154.4962  140.0837  156.7740 H   0  0  0  0  0  0  0  0  0  0  0  0  # atno 8009 bound_to 7997
  155.4135  140.3420  155.4268 H   0  0  0  0  0  0  0  0  0  0  0  0  # atno 8010 bound_to 7997
  140.2431  144.3562  150.6373 H   0  0  0  0  0  0  0  0  0  0  0  0  # atno 10167 bound_to 10162
  156.3438  130.4297  149.7764 H   0  0  0  0  0  0  0  0  0  0  0  0  # atno 10718 bound_to 10713
  153.0043  135.6282  154.2122 H   0  0  0  0  0  0  0  0  0  0  0  0  # atno 10763 bound_to 10752
  154.1865  135.2811  155.3037 H   0  0  0  0  0  0  0  0  0  0  0  0  # atno 10764 bound_to 10752
  154.5793  135.5652  153.7229 H   0  0  0  0  0  0  0  0  0  0  0  0  # atno 10765 bound_to 10752
  139.9244  134.9640  156.8024 H   0  0  0  0  0  0  0  0  0  0  0  0  # atno 11005 bound_to 11000
  146.3481  139.9662  142.8711 LP  0  0  0  0  0  0  0  0  0  0  0  0  # atno 17320 bound_to 7965
  145.1933  140.9822  143.4198 LP  0  0  0  0  0  0  0  0  0  0  0  0  # atno 17321 bound_to 7965
  140.6098  143.2169  151.6908 LP  0  0  0  0  0  0  0  0  0  0  0  0  # atno 17342 bound_to 10162
  139.5071  144.3659  152.0517 LP  0  0  0  0  0  0  0  0  0  0  0  0  # atno 17343 bound_to 10162
  156.4990  130.8120  151.3125 LP  0  0  0  0  0  0  0  0  0  0  0  0  # atno 17370 bound_to 10713
  157.7451  130.9951  150.2730 LP  0  0  0  0  0  0  0  0  0  0  0  0  # atno 17371 bound_to 10713
  140.6379  133.9845  155.7693 LP  0  0  0  0  0  0  0  0  0  0  0  0  # atno 17394 bound_to 11000
  141.0790  134.0091  157.3414 LP  0  0  0  0  0  0  0  0  0  0  0  0  # atno 17395 bound_to 11000

$$$$
