AV-unprocessed.smi:1605|AV-procd|sdf|6454|dock5
  -GOLD-   22720 7103D 1   1.00000     0.00000
 Structure written by MMmdl.
 51 53  0  0  0  0  0  0  0  0  2 V2000
  144.9555  144.0831  157.6238 C   0  0  0  0  0  0  0  0  0  0  0  0
  145.0505  142.7213  157.2355 O   0  0  0  0  0  0  0  0  0  0  0  0
  144.2115  142.3626  156.1436 C   0  0  2  0  0  0  0  0  0  0  0  0
  144.4435  140.8759  155.8352 C   0  0  0  0  0  0  0  0  0  0  0  0
  145.8537  140.6250  155.2733 C   0  0  0  0  0  0  0  0  0  0  0  0
  146.1055  141.4553  154.0680 N   0  3  2  0  0  0  0  0  0  0  0  0
  147.3886  141.1147  153.4015 C   0  0  0  0  0  0  0  0  0  0  0  0
  148.4716  140.5703  154.3651 C   0  0  1  0  0  0  0  0  0  0  0  0
  149.5329  140.0839  153.5713 O   0  0  0  0  0  0  0  0  0  0  0  0
  149.0647  141.6119  155.3401 C   0  0  0  0  0  0  0  0  0  0  0  0
  149.9575  141.0230  156.3215 N   0  0  0  0  0  0  0  0  0  0  0  0
  150.2033  139.7118  156.5069 C   0  0  0  0  0  0  0  0  0  0  0  0
  151.0347  139.3825  157.4907 N   0  0  0  0  0  0  0  0  0  0  0  0
  151.3815  140.6246  157.9925 C   0  0  0  0  0  0  0  0  0  0  0  0
  152.2294  140.9763  159.0650 C   0  0  0  0  0  0  0  0  0  0  0  0
  152.4274  142.3301  159.4179 C   0  0  0  0  0  0  0  0  0  0  0  0
  153.3424  142.6628  160.5831 C   0  0  0  0  0  0  0  0  0  0  0  0
  151.7756  143.3572  158.6892 C   0  0  0  0  0  0  0  0  0  0  0  0
  151.9692  144.8185  159.0533 C   0  0  0  0  0  0  0  0  0  0  0  0
  150.9277  143.0235  157.6129 C   0  0  0  0  0  0  0  0  0  0  0  0
  150.7331  141.6726  157.2763 C   0  0  0  0  0  0  0  0  0  0  0  0
  145.9408  142.9039  154.3562 C   0  0  0  0  0  0  0  0  0  0  0  0
  144.5290  143.2000  154.8902 C   0  0  0  0  0  0  0  0  0  0  0  0
  145.6115  144.2622  158.4755 H   0  0  0  0  0  0  0  0  0  0  0  0
  143.9390  144.3364  157.9277 H   0  0  0  0  0  0  0  0  0  0  0  0
  145.2605  144.7581  156.8246 H   0  0  0  0  0  0  0  0  0  0  0  0
  143.1659  142.4957  156.4267 H   0  0  0  0  0  0  0  0  0  0  0  0
  144.2856  140.2777  156.7330 H   0  0  0  0  0  0  0  0  0  0  0  0
  143.7023  140.5392  155.1101 H   0  0  0  0  0  0  0  0  0  0  0  0
  146.6101  140.8386  156.0300 H   0  0  0  0  0  0  0  0  0  0  0  0
  145.9490  139.5685  155.0199 H   0  0  0  0  0  0  0  0  0  0  0  0
  147.1849  140.3927  152.6087 H   0  0  0  0  0  0  0  0  0  0  0  0
  147.7887  142.0017  152.9078 H   0  0  0  0  0  0  0  0  0  0  0  0
  148.0954  139.7166  154.9273 H   0  0  0  0  0  0  0  0  0  0  0  0
  149.2910  140.1608  152.6606 H   0  0  0  0  0  0  0  0  0  0  0  0
  149.6308  142.3630  154.7871 H   0  0  0  0  0  0  0  0  0  0  0  0
  148.2696  142.1471  155.8609 H   0  0  0  0  0  0  0  0  0  0  0  0
  149.7319  138.9557  155.8958 H   0  0  0  0  0  0  0  0  0  0  0  0
  152.7264  140.1940  159.6198 H   0  0  0  0  0  0  0  0  0  0  0  0
  154.2078  143.2286  160.2376 H   0  0  0  0  0  0  0  0  0  0  0  0
  153.7063  141.7602  161.0745 H   0  0  0  0  0  0  0  0  0  0  0  0
  152.8140  143.2573  161.3286 H   0  0  0  0  0  0  0  0  0  0  0  0
  151.4402  145.4745  158.3614 H   0  0  0  0  0  0  0  0  0  0  0  0
  153.0260  145.0846  159.0234 H   0  0  0  0  0  0  0  0  0  0  0  0
  151.5904  145.0139  160.0566 H   0  0  0  0  0  0  0  0  0  0  0  0
  150.4206  143.7969  157.0552 H   0  0  0  0  0  0  0  0  0  0  0  0
  146.6939  143.2231  155.0781 H   0  0  0  0  0  0  0  0  0  0  0  0
  146.0999  143.4932  153.4545 H   0  0  0  0  0  0  0  0  0  0  0  0
  143.7988  142.9701  154.1132 H   0  0  0  0  0  0  0  0  0  0  0  0
  144.4212  144.2650  155.0923 H   0  0  0  0  0  0  0  0  0  0  0  0
  145.3801  141.2080  153.4097 H   0  0  0  0  0  0  0  0  0  0  0  0
  1  2  1  0  0  0  0
  1 24  1  0  0  0  0
  1 25  1  0  0  0  0
  1 26  1  0  0  0  0
  2  3  1  0  0  0  0
  3 23  1  0  0  0  0
  3  4  1  0  0  0  0
  3 27  1  0  0  0  0
  4  5  1  0  0  0  0
  4 28  1  0  0  0  0
  4 29  1  0  0  0  0
  5  6  1  0  0  0  0
  5 30  1  0  0  0  0
  5 31  1  0  0  0  0
  6  7  1  0  0  0  0
  6 22  1  0  0  0  0
  6 51  1  0  0  0  0
  7  8  1  0  0  0  0
  7 32  1  0  0  0  0
  7 33  1  0  0  0  0
  8  9  1  0  0  0  0
  8 10  1  0  0  0  0
  8 34  1  0  0  0  0
  9 35  1  0  0  0  0
 10 11  1  0  0  0  0
 10 36  1  0  0  0  0
 10 37  1  0  0  0  0
 11 21  1  0  0  0  0
 11 12  1  0  0  0  0
 12 13  2  0  0  0  0
 12 38  1  0  0  0  0
 13 14  1  0  0  0  0
 14 21  2  0  0  0  0
 14 15  1  0  0  0  0
 15 16  2  0  0  0  0
 15 39  1  0  0  0  0
 16 17  1  0  0  0  0
 16 18  1  0  0  0  0
 17 40  1  0  0  0  0
 17 41  1  0  0  0  0
 17 42  1  0  0  0  0
 18 19  1  0  0  0  0
 18 20  2  0  0  0  0
 19 43  1  0  0  0  0
 19 44  1  0  0  0  0
 19 45  1  0  0  0  0
 20 21  1  0  0  0  0
 20 46  1  0  0  0  0
 22 23  1  0  0  0  0
 22 47  1  0  0  0  0
 22 48  1  0  0  0  0
 23 49  1  0  0  0  0
 23 50  1  0  0  0  0
M  CHG  1   6   1
M  END
> <s_m_source_file>
AV-unprocessed.smi

> <i_m_source_file_index>
1605

> <i_lp_mmshare_version>
43012

> <i_f3d_flags>
0

> <s_epik_input>
W0NIM11PW0NIXTFbQ0gyXVtDSDJdTihbQ0gyXVtDSDJdMSlbQ0gyXVtDQEhdKFtPSF0pW0NIMl1uKFtjSF1uMiljKGMyMylbY0hdYyhbQ0gzXSljKFtjSF0zKVtDSDNd

> <s_epik_cmdline>
J2VwaWtfcHl0aG9uJywgJy1waCcsICc3LjAnLCAnLXRuJywgJzgnLCAnLW1hJywgJzIwMCcsICctbWV0YWxfYmluZGluZycsICctaW1hZScsICc8aW5maWxlLm1hZT4nLCAnLW9tYWUnLCAnPG91dGZpbGUubWFlPic=

> <r_epik_Ionization_Penalty>
0.110943

> <r_epik_Ionization_Penalty_Charging>
0.0229283

> <r_epik_Ionization_Penalty_Neutral>
0.0880146

> <r_epik_State_Penalty>
0.0947554

> <r_epik_Charging_Adjusted_Penalty>
0.117684

> <i_epik_Tot_Q>
1

> <i_epik_Tot_abs_Q>
1

> <r_epik_Metal_State_Penalty>
0.0192456

> <b_epik_Metal_Only>
0

> <s_lp_Force_Field>
OPLS_2005

> <r_lp_Energy>
21.431

> <b_lp_Chiralities_Consistent>
1

> <s_lp_Variant>
AV-unprocessed.smi:1605-4

> <Gold.Version>
5.8.1

> <Gold.Id.Protein>
6NUR|6NUR_protein|mol2

> <Gold.PLP.Fitness>
52.1408

> <Gold.PLP.PLP>
-43.7317

> <Gold.PLP.part.hbond>
-2.4324

> <Gold.PLP.part.metal>
0.0000

> <Gold.PLP.part.buried>
-6.5147

> <Gold.PLP.part.nonpolar>
-37.1165

> <Gold.PLP.part.repulsive>
0.0775

> <Gold.PLP.ligand.clash>
0.0000

> <Gold.PLP.ligand.torsion>
0.5775

> <Gold.PLP.Chemscore.Hbond>
3.1507

> <Gold.PLP.Chemscore.CHOScore>
0.0000

> <Gold.PLP.Chemscore.Metal>
0.0000

> <Gold.Chemscore.Hbonds>
donor molecule, donor type, donor heavy atom, donor atom, acceptor molecule, acceptor atom, score
      L1  H     6    51       P1 10175  1.89
      L1  H     9    35       P1  7957  1.00
      P1  H  7989  7998       L1     9  0.31

> <Gold.PLP.Chemscore.Internal.Correction>
0.1120

> <Gold.Rescore>
     Score         DG    S(hbond)    S(metal)    S(lipo)     H(rot)  DE(clash)    DE(int)     intcor
     19.33     -20.15       2.02        0.00     116.18       2.22       0.17       0.66       ----

> <Gold.Chemscore.Fitness>
19.3266

> <Gold.Chemscore.DG>
-20.1523

> <Gold.Chemscore.ZeroCoef>
-5.4800

> <Gold.Chemscore.Hbond>
2.0223

> <Gold.Chemscore.Metal>
0.0000

> <Gold.Chemscore.Lipo>
116.1817

> <Gold.Chemscore.Internal_Hbond>
0.0000

> <Gold.Chemscore.DEClash>
0.1673

> <Gold.Chemscore.DEInternal>
0.6583

> <Gold.Chemscore.Rot>
2.2169

> <Gold.Chemscore.Internal.Correction>
   9.000000E+99

> <Gold.Chemscore.Hbonds>
donor molecule, donor type, donor heavy atom, donor atom, acceptor molecule, acceptor atom, score
      L1  H     6    51       P1 10175  0.31
      L1  H     9    35       P1  7957  0.91
      P1  H  7989  7998       L1     9  0.07

> <Gold.Chemscore.Hbond.Weighted>
-6.7544

> <Gold.Chemscore.Metal.Weighted>
-0.0000

> <Gold.Chemscore.Lipo.Weighted>
-13.5933

> <Gold.Chemscore.Internal_Hbond.Weighted>
0.0000

> <Gold.Chemscore.DEClash.Weighted>
0.1673

> <Gold.Chemscore.DEInternal.Weighted>
0.6583

> <Gold.Chemscore.Rot.Weighted>
5.6753

> <Gold.Chemscore.Internal.Correction.Weighted>
   9.000000E+99

> <Gold.Protein.RotatedTorsions>
[ 6907 6896 6895 6894 ] final -177.16 input  -60.11 | X-H torsion
[ 7974 7965 7964 7962 ] final  -28.00 input  175.53 | X-H torsion
[ 8008 7997 7996 7995 ] final  126.81 input   59.86 | X-H torsion
[ 10167 10162 10161 10158 ] final   12.72 input  -65.29 | X-H torsion
[ 10718 10713 10712 10709 ] final  -19.01 input   66.30 | X-H torsion
[ 10763 10752 10751 10750 ] final   15.48 input  -60.55 | X-H torsion
[ 11005 11000 10999 10996 ] final  137.94 input  -57.11 | X-H torsion

> <Gold.Protein.ActiveResidues>
 VAL166  LYS551  ARG553  GLY616  TRP617  ASP618  TYR619  PRO620  LYS621  CYS622 
 ASP623  PHE694  ASN695  SER759  ASP760  ASP761  ALA762  ILE779  LEU786  VAL792 
 PHE793  MET794  SER795  GLU796  ALA797  LYS798  CYS799  TRP800  GLU811  SER814 

> <Gold.Protein.RotatedAtoms>
  151.6165  133.3342  159.3078 H   0  0  0  0  0  0  0  0  0  0  0  0  # atno 6907 bound_to 6896
  150.8128  134.7297  159.6715 H   0  0  0  0  0  0  0  0  0  0  0  0  # atno 6908 bound_to 6896
  152.4225  134.5934  160.0032 H   0  0  0  0  0  0  0  0  0  0  0  0  # atno 6909 bound_to 6896
  146.1319  140.5226  142.8690 H   0  0  0  0  0  0  0  0  0  0  0  0  # atno 7974 bound_to 7965
  156.2874  140.2684  156.2172 H   0  0  0  0  0  0  0  0  0  0  0  0  # atno 8008 bound_to 7997
  155.0205  140.0386  157.2453 H   0  0  0  0  0  0  0  0  0  0  0  0  # atno 8009 bound_to 7997
  154.7440  140.2730  155.6354 H   0  0  0  0  0  0  0  0  0  0  0  0  # atno 8010 bound_to 7997
  140.6049  143.8528  150.7004 H   0  0  0  0  0  0  0  0  0  0  0  0  # atno 10167 bound_to 10162
  156.5516  130.4703  149.6449 H   0  0  0  0  0  0  0  0  0  0  0  0  # atno 10718 bound_to 10713
  153.1521  135.6780  153.8866 H   0  0  0  0  0  0  0  0  0  0  0  0  # atno 10763 bound_to 10752
  153.8289  135.3120  155.3418 H   0  0  0  0  0  0  0  0  0  0  0  0  # atno 10764 bound_to 10752
  154.7870  135.4856  154.0055 H   0  0  0  0  0  0  0  0  0  0  0  0  # atno 10765 bound_to 10752
  140.0149  134.9423  157.0355 H   0  0  0  0  0  0  0  0  0  0  0  0  # atno 11005 bound_to 11000
  144.7699  140.5614  143.6677 LP  0  0  0  0  0  0  0  0  0  0  0  0  # atno 17320 bound_to 7965
  145.5242  139.1476  143.3535 LP  0  0  0  0  0  0  0  0  0  0  0  0  # atno 17321 bound_to 7965
  140.2082  143.3904  152.1738 LP  0  0  0  0  0  0  0  0  0  0  0  0  # atno 17342 bound_to 10162
  139.5318  144.7167  151.5030 LP  0  0  0  0  0  0  0  0  0  0  0  0  # atno 17343 bound_to 10162
  156.2879  130.7107  151.1949 LP  0  0  0  0  0  0  0  0  0  0  0  0  # atno 17370 bound_to 10713
  157.7386  131.0539  150.5283 LP  0  0  0  0  0  0  0  0  0  0  0  0  # atno 17371 bound_to 10713
  140.4489  134.1603  155.7180 LP  0  0  0  0  0  0  0  0  0  0  0  0  # atno 17394 bound_to 11000
  141.1736  133.8559  157.1493 LP  0  0  0  0  0  0  0  0  0  0  0  0  # atno 17395 bound_to 11000

$$$$
