AV-unprocessed.smi:3163|AV-procd|sdf|12071|dock6
  -GOLD-   2272017503D 1   1.00000     0.00000
 Structure written by MMmdl.
 36 37  0  0  0  0  0  0  0  0  2 V2000
  144.2294  141.7263  155.9669 C   0  0  0  0  0  0  0  0  0  0  0  0
  145.0249  141.6693  154.7227 N   0  3  1  0  0  0  0  0  0  0  0  0
  145.3659  142.9924  154.1493 C   0  0  0  0  0  0  0  0  0  0  0  0
  146.8646  142.9592  153.8289 C   0  0  0  0  0  0  0  0  0  0  0  0
  147.2066  141.4694  153.7709 C   0  0  1  0  0  0  0  0  0  0  0  0
  148.6914  141.1244  153.9933 C   0  0  0  0  0  0  0  0  0  0  0  0
  149.3376  142.0590  154.9097 N   0  0  0  0  0  0  0  0  0  0  0  0
  150.0673  141.7179  155.9819 C   0  0  0  0  0  0  0  0  0  0  0  0
  150.2655  140.5519  156.3227 O   0  0  0  0  0  0  0  0  0  0  0  0
  150.5184  142.8073  156.6277 N   0  0  0  0  0  0  0  0  0  0  0  0
  151.3272  142.8810  157.7945 C   0  0  0  0  0  0  0  0  0  0  0  0
  151.8527  144.1409  158.1483 C   0  0  0  0  0  0  0  0  0  0  0  0
  152.6712  144.2397  159.2912 C   0  0  0  0  0  0  0  0  0  0  0  0
  152.9906  143.1834  160.0680 N   0  0  0  0  0  0  0  0  0  0  0  0
  152.4985  141.9756  159.7204 C   0  0  0  0  0  0  0  0  0  0  0  0
  151.6705  141.7674  158.5990 C   0  0  0  0  0  0  0  0  0  0  0  0
  146.2760  140.8915  154.8370 C   0  0  0  0  0  0  0  0  0  0  0  0
  144.7757  142.2376  156.7606 H   0  0  0  0  0  0  0  0  0  0  0  0
  143.9868  140.7201  156.3098 H   0  0  0  0  0  0  0  0  0  0  0  0
  143.2936  142.2591  155.7959 H   0  0  0  0  0  0  0  0  0  0  0  0
  144.7794  143.1353  153.2413 H   0  0  0  0  0  0  0  0  0  0  0  0
  145.1306  143.8148  154.8266 H   0  0  0  0  0  0  0  0  0  0  0  0
  147.1075  143.4861  152.9057 H   0  0  0  0  0  0  0  0  0  0  0  0
  147.4180  143.4364  154.6391 H   0  0  0  0  0  0  0  0  0  0  0  0
  146.8929  141.0824  152.7997 H   0  0  0  0  0  0  0  0  0  0  0  0
  148.8004  140.0970  154.3450 H   0  0  0  0  0  0  0  0  0  0  0  0
  149.2221  141.1763  153.0422 H   0  0  0  0  0  0  0  0  0  0  0  0
  149.2241  143.0421  154.7086 H   0  0  0  0  0  0  0  0  0  0  0  0
  150.2042  143.6962  156.2673 H   0  0  0  0  0  0  0  0  0  0  0  0
  151.6325  145.0204  157.5609 H   0  0  0  0  0  0  0  0  0  0  0  0
  153.0823  145.1935  159.5874 H   0  0  0  0  0  0  0  0  0  0  0  0
  152.7786  141.1462  160.3529 H   0  0  0  0  0  0  0  0  0  0  0  0
  151.3320  140.7674  158.3769 H   0  0  0  0  0  0  0  0  0  0  0  0
  146.7113  141.0372  155.8276 H   0  0  0  0  0  0  0  0  0  0  0  0
  146.0962  139.8244  154.7027 H   0  0  0  0  0  0  0  0  0  0  0  0
  144.4611  141.2009  154.0276 H   0  0  0  0  0  0  0  0  0  0  0  0
  1  2  1  0  0  0  0
  1 18  1  0  0  0  0
  1 19  1  0  0  0  0
  1 20  1  0  0  0  0
  2 17  1  0  0  0  0
  2  3  1  0  0  0  0
  2 36  1  0  0  0  0
  3  4  1  0  0  0  0
  3 21  1  0  0  0  0
  3 22  1  0  0  0  0
  4  5  1  0  0  0  0
  4 23  1  0  0  0  0
  4 24  1  0  0  0  0
  5  6  1  0  0  0  0
  5 17  1  0  0  0  0
  5 25  1  0  0  0  0
  6  7  1  0  0  0  0
  6 26  1  0  0  0  0
  6 27  1  0  0  0  0
  7  8  1  0  0  0  0
  7 28  1  0  0  0  0
  8  9  2  0  0  0  0
  8 10  1  0  0  0  0
 10 11  1  0  0  0  0
 10 29  1  0  0  0  0
 11 16  1  0  0  0  0
 11 12  2  0  0  0  0
 12 13  1  0  0  0  0
 12 30  1  0  0  0  0
 13 14  2  0  0  0  0
 13 31  1  0  0  0  0
 14 15  1  0  0  0  0
 15 16  2  0  0  0  0
 15 32  1  0  0  0  0
 16 33  1  0  0  0  0
 17 34  1  0  0  0  0
 17 35  1  0  0  0  0
M  CHG  1   2   1
M  END
> <s_m_source_file>
AV-unprocessed.smi

> <i_m_source_file_index>
3163

> <i_lp_mmshare_version>
43012

> <i_f3d_flags>
0

> <s_epik_input>
W0NIM11OMVtDSDJdW0NIMl1bQ0BIXShbQ0gyXTEpW0NIMl1bTkhdQyg9TylbTkhdYzJbY0hdW2NIXW5bY0hdW2NIXTI=

> <s_epik_cmdline>
J2VwaWtfcHl0aG9uJywgJy1waCcsICc3LjAnLCAnLXRuJywgJzgnLCAnLW1hJywgJzIwMCcsICctbWV0YWxfYmluZGluZycsICctaW1hZScsICc8aW5maWxlLm1hZT4nLCAnLW9tYWUnLCAnPG91dGZpbGUubWFlPic=

> <r_epik_Ionization_Penalty>
0.103936

> <r_epik_Ionization_Penalty_Charging>
0.0012301

> <r_epik_Ionization_Penalty_Neutral>
0.102706

> <r_epik_State_Penalty>
0.0926275

> <r_epik_Charging_Adjusted_Penalty>
0.0938576

> <i_epik_Tot_Q>
1

> <i_epik_Tot_abs_Q>
1

> <r_epik_Metal_State_Penalty>
0.0788376

> <b_epik_Metal_Only>
0

> <s_lp_Force_Field>
OPLS_2005

> <r_lp_Energy>
32.4174

> <b_lp_Chiralities_Consistent>
1

> <s_lp_Variant>
AV-unprocessed.smi:3163-1

> <Gold.Version>
5.8.1

> <Gold.Id.Protein>
6NUR|6NUR_protein|mol2

> <Gold.PLP.Fitness>
47.8958

> <Gold.PLP.PLP>
-36.9797

> <Gold.PLP.part.hbond>
-3.0000

> <Gold.PLP.part.metal>
0.0000

> <Gold.PLP.part.buried>
-4.7458

> <Gold.PLP.part.nonpolar>
-29.2780

> <Gold.PLP.part.repulsive>
0.3087

> <Gold.PLP.ligand.clash>
0.0000

> <Gold.PLP.ligand.torsion>
0.3639

> <Gold.PLP.Chemscore.Hbond>
3.8800

> <Gold.PLP.Chemscore.CHOScore>
0.0000

> <Gold.PLP.Chemscore.Metal>
0.0000

> <Gold.Chemscore.Hbonds>
donor molecule, donor type, donor heavy atom, donor atom, acceptor molecule, acceptor atom, score
      L1  H     2    36       P1 10175  2.00
      L1  H     7    28       P1  8028  0.82
      L1  H    10    29       P1  8028  1.00

> <Gold.PLP.Chemscore.Internal.Correction>
0.0039

> <Gold.Rescore>
     Score         DG    S(hbond)    S(metal)    S(lipo)     H(rot)  DE(clash)    DE(int)     intcor
     20.42     -22.26       2.87        0.00      88.83       1.26       0.02       1.82       ----

> <Gold.Chemscore.Fitness>
20.4226

> <Gold.Chemscore.DG>
-22.2567

> <Gold.Chemscore.ZeroCoef>
-5.4800

> <Gold.Chemscore.Hbond>
2.8738

> <Gold.Chemscore.Metal>
0.0000

> <Gold.Chemscore.Lipo>
88.8320

> <Gold.Chemscore.Internal_Hbond>
0.0000

> <Gold.Chemscore.DEClash>
0.0171

> <Gold.Chemscore.DEInternal>
1.8169

> <Gold.Chemscore.Rot>
1.2559

> <Gold.Chemscore.Internal.Correction>
   9.000000E+99

> <Gold.Chemscore.Hbonds>
donor molecule, donor type, donor heavy atom, donor atom, acceptor molecule, acceptor atom, score
      L1  H     2    36       P1 10175  0.60
      L1  H     7    28       P1  8028  0.79
      L1  H    10    29       P1  8028  0.95

> <Gold.Chemscore.Hbond.Weighted>
-9.5984

> <Gold.Chemscore.Metal.Weighted>
-0.0000

> <Gold.Chemscore.Lipo.Weighted>
-10.3933

> <Gold.Chemscore.Internal_Hbond.Weighted>
0.0000

> <Gold.Chemscore.DEClash.Weighted>
0.0171

> <Gold.Chemscore.DEInternal.Weighted>
1.8169

> <Gold.Chemscore.Rot.Weighted>
3.2151

> <Gold.Chemscore.Internal.Correction.Weighted>
   9.000000E+99

> <Gold.Protein.RotatedTorsions>
[ 6907 6896 6895 6894 ] final  172.44 input  -60.11 | X-H torsion
[ 7974 7965 7964 7962 ] final   66.34 input  175.53 | X-H torsion
[ 8008 7997 7996 7995 ] final  -12.31 input   59.86 | X-H torsion
[ 10167 10162 10161 10158 ] final  157.29 input  -65.29 | X-H torsion
[ 10718 10713 10712 10709 ] final  152.42 input   66.30 | X-H torsion
[ 10763 10752 10751 10750 ] final  118.47 input  -60.55 | X-H torsion
[ 11005 11000 10999 10996 ] final -156.60 input  -57.11 | X-H torsion

> <Gold.Protein.ActiveResidues>
 VAL166  LYS551  ARG553  GLY616  TRP617  ASP618  TYR619  PRO620  LYS621  CYS622 
 ASP623  PHE694  ASN695  SER759  ASP760  ASP761  ALA762  ILE779  LEU786  VAL792 
 PHE793  MET794  SER795  GLU796  ALA797  LYS798  CYS799  TRP800  GLU811  SER814 

> <Gold.Protein.RotatedAtoms>
  151.7842  133.3353  159.3480 H   0  0  0  0  0  0  0  0  0  0  0  0  # atno 6907 bound_to 6896
  150.7415  134.5902  159.5993 H   0  0  0  0  0  0  0  0  0  0  0  0  # atno 6908 bound_to 6896
  152.3255  134.7328  160.0354 H   0  0  0  0  0  0  0  0  0  0  0  0  # atno 6909 bound_to 6896
  145.8278  139.3121  143.1005 H   0  0  0  0  0  0  0  0  0  0  0  0  # atno 7974 bound_to 7965
  154.5388  140.2279  155.8676 H   0  0  0  0  0  0  0  0  0  0  0  0  # atno 8008 bound_to 7997
  156.1838  140.3094  155.9161 H   0  0  0  0  0  0  0  0  0  0  0  0  # atno 8009 bound_to 7997
  155.3300  140.0445  157.3033 H   0  0  0  0  0  0  0  0  0  0  0  0  # atno 8010 bound_to 7997
  139.4823  144.4931  151.8279 H   0  0  0  0  0  0  0  0  0  0  0  0  # atno 10167 bound_to 10162
  157.2580  131.0792  151.1685 H   0  0  0  0  0  0  0  0  0  0  0  0  # atno 10718 bound_to 10713
  153.5681  135.3507  155.2826 H   0  0  0  0  0  0  0  0  0  0  0  0  # atno 10763 bound_to 10752
  154.8686  135.4152  154.2756 H   0  0  0  0  0  0  0  0  0  0  0  0  # atno 10764 bound_to 10752
  153.3516  135.7055  153.6854 H   0  0  0  0  0  0  0  0  0  0  0  0  # atno 10765 bound_to 10752
  140.6738  134.4218  157.5230 H   0  0  0  0  0  0  0  0  0  0  0  0  # atno 11005 bound_to 11000
  145.9605  140.8839  143.0213 LP  0  0  0  0  0  0  0  0  0  0  0  0  # atno 17320 bound_to 7965
  144.6742  140.1805  143.7406 LP  0  0  0  0  0  0  0  0  0  0  0  0  # atno 17321 bound_to 7965
  140.4417  144.1977  150.5892 LP  0  0  0  0  0  0  0  0  0  0  0  0  # atno 17342 bound_to 10162
  140.4676  143.2425  151.9133 LP  0  0  0  0  0  0  0  0  0  0  0  0  # atno 17343 bound_to 10162
  157.3206  130.6935  149.6267 LP  0  0  0  0  0  0  0  0  0  0  0  0  # atno 17370 bound_to 10713
  155.9664  130.4336  150.5015 LP  0  0  0  0  0  0  0  0  0  0  0  0  # atno 17371 bound_to 10713
  139.8973  134.8640  156.2050 LP  0  0  0  0  0  0  0  0  0  0  0  0  # atno 17394 bound_to 11000
  141.0371  133.6957  156.1532 LP  0  0  0  0  0  0  0  0  0  0  0  0  # atno 17395 bound_to 11000

$$$$
