#       Name:                AV-unprocessed.smi:1746
#       Creating user name   scv26
#       Creation time:       Fri Mar 27 08:25:17 2020


#       File generated by GOLD software.
#

@<TRIPOS>MOLECULE
AV-unprocessed.smi:1746
    40    41     1
SMALL
NO_CHARGES


@<TRIPOS>ATOM
      1 ****        -6.1112   0.4258  -1.5013 C.3            1 S1                 0.0000
      2 ****        -5.3586   0.1816  -0.1877 C.3            1 S1                 0.0000
      3 ****        -4.0858   0.8752  -0.1610 N.pl3          1 S1                 0.0000
      4 ****        -2.8244   0.3503  -0.3603 C.2            1 S1                 0.0000
      5 ****        -1.9625   1.4032  -0.2373 C.2            1 S1                 0.0000
      6 ****        -0.5492   1.4261  -0.3491 N.am           1 S1                 0.0000
      7 ****         0.2637   0.3893  -0.6099 C.2            1 S1                 0.0000
      8 ****        -0.1059  -0.7694  -0.8018 O.2            1 S1                 0.0000
      9 ****         1.5482   0.7705  -0.6365 N.am           1 S1                 0.0000
     10 ****         2.6779  -0.1189  -0.8815 C.3            1 S1                 0.0000
     11 ****         3.0629  -0.9078   0.3812 C.3            1 S1                 0.0000
     12 ****         4.1893  -1.9135   0.1580 C.3            1 S1                 0.0000
     13 ****         4.7226  -2.0826   1.5622 C.3            1 S1                 0.0000
     14 ****         4.6136  -0.6639   2.1161 C.3            1 S1                 0.0000
     15 ****         3.5606  -0.0328   1.3901 O.3            1 S1                 0.0000
     16 ****        -2.7718   2.5359   0.0380 C.2            1 S1                 0.0000
     17 ****        -4.0545   2.2089   0.0825 N.2            1 S1                 0.0000
     18 ****        -7.0578  -0.1144  -1.5121 H              1 S1                 0.0000
     19 ****        -5.5262   0.0898  -2.3580 H              1 S1                 0.0000
     20 ****        -6.3314   1.4848  -1.6399 H              1 S1                 0.0000
     21 ****        -5.9575   0.5117   0.6622 H              1 S1                 0.0000
     22 ****        -5.1771  -0.8852  -0.0523 H              1 S1                 0.0000
     23 ****        -2.6659  -0.6978  -0.5671 H              1 S1                 0.0000
     24 ****        -0.1114   2.3257  -0.2144 H              1 S1                 0.0000
     25 ****         1.7629   1.7416  -0.4640 H              1 S1                 0.0000
     26 ****         2.4368  -0.8038  -1.6961 H              1 S1                 0.0000
     27 ****         3.5225   0.4809  -1.2215 H              1 S1                 0.0000
     28 ****         2.1971  -1.4344   0.7865 H              1 S1                 0.0000
     29 ****         3.8429  -2.8484  -0.2837 H              1 S1                 0.0000
     30 ****         4.9618  -1.4930  -0.4873 H              1 S1                 0.0000
     31 ****         4.0772  -2.7572   2.1267 H              1 S1                 0.0000
     32 ****         5.7388  -2.4765   1.5929 H              1 S1                 0.0000
     33 ****         4.4170  -0.6549   3.1885 H              1 S1                 0.0000
     34 ****         5.5360  -0.1107   1.9366 H              1 S1                 0.0000
     35 ****        -2.4789   3.5623   0.2030 H              1 S1                 0.0000
     36 ****        -1.0795  -0.9956  -0.7691 LP             1 S1                 0.0000
     37 ****         0.5674  -1.4842  -0.9905 LP             1 S1                 0.0000
     38 ****         2.8194   0.2006   2.0195 LP             1 S1                 0.0000
     39 ****         3.9087   0.8010   0.9614 LP             1 S1                 0.0000
     40 ****        -4.8312   2.8141   0.2576 LP             1 S1                 0.0000
@<TRIPOS>BOND
    1    1    2 1     
    2    1   18 1     
    3    1   19 1     
    4    1   20 1     
    5    2    3 1     
    6    2   21 1     
    7    2   22 1     
    8    3   17 1     
    9    3    4 1     
   10    4    5 2     
   11    4   23 1     
   12    5    6 1     
   13    5   16 1     
   14    6    7 am    
   15    6   24 1     
   16    7    8 2     
   17    7    9 am    
   18    9   10 1     
   19    9   25 1     
   20   10   11 1     
   21   10   26 1     
   22   10   27 1     
   23   11   15 1     
   24   11   12 1     
   25   11   28 1     
   26   12   13 1     
   27   12   29 1     
   28   12   30 1     
   29   13   14 1     
   30   13   31 1     
   31   13   32 1     
   32   14   15 1     
   33   14   33 1     
   34   14   34 1     
   35   16   17 2     
   36   16   35 1     
   37    8   36 1     
   38    8   37 1     
   39   15   38 1     
   40   15   39 1     
   41   17   40 1     
@<TRIPOS>SUBSTRUCTURE
      1 S1             1
@<TRIPOS>SET
LONE_PAIRS      STATIC     ATOMS    <user>   **** ""
5 36 37 38 39 40
DONOR_HYDROGENS      STATIC     ATOMS    <user>   **** ""
2 24 25
ATOM$BLUE        STATIC     ATOMS    COLORGROUP SYSTEM
5 36 37 38 39 40
ATOM$RED        STATIC     ATOMS    COLORGROUP SYSTEM
2 24 25
