AV-unprocessed.smi:2452|AV-procd|sdf|9686|dock8
  -GOLD-   2272013323D 1   1.00000     0.00000
 Structure written by MMmdl.
 34 35  0  0  0  0  0  0  0  0  1 V2000
  151.4464  138.1187  154.2888 C   0  0  0  0  0  0  0  0  0  0  0  0
  150.5533  139.3152  154.4485 C   0  0  0  0  0  0  0  0  0  0  0  0
  151.0064  140.4037  155.0486 N   0  0  0  0  0  0  0  0  0  0  0  0
  149.9453  141.3221  155.0513 O   0  0  0  0  0  0  0  0  0  0  0  0
  148.8644  140.7614  154.4437 C   0  0  0  0  0  0  0  0  0  0  0  0
  147.6237  141.5918  154.4133 C   0  0  0  0  0  0  0  0  0  0  0  0
  149.2119  139.5047  154.0243 C   0  0  0  0  0  0  0  0  0  0  0  0
  148.4287  138.5192  153.3703 N   0  0  0  0  0  0  0  0  0  0  0  0
  147.0943  138.3823  153.4081 C   0  0  0  0  0  0  0  0  0  0  0  0
  146.3235  139.1336  154.0047 O   0  0  0  0  0  0  0  0  0  0  0  0
  146.6920  137.3263  152.6884 N   0  0  0  0  0  0  0  0  0  0  0  0
  145.3055  136.9032  152.5272 C   0  0  0  0  0  0  0  0  0  0  0  0
  145.1923  135.6701  151.6155 C   0  0  1  0  0  0  0  0  0  0  0  0
  146.2390  134.5941  151.8976 C   0  0  0  0  0  0  0  0  0  0  0  0
  145.5710  133.3113  151.4243 C   0  0  0  0  0  0  0  0  0  0  0  0
  144.0997  133.6974  151.2458 C   0  0  0  0  0  0  0  0  0  0  0  0
  143.9772  134.9764  151.8511 O   0  0  0  0  0  0  0  0  0  0  0  0
  150.8654  137.2046  154.1658 H   0  0  0  0  0  0  0  0  0  0  0  0
  152.0896  137.9844  155.1590 H   0  0  0  0  0  0  0  0  0  0  0  0
  152.0871  138.2250  153.4132 H   0  0  0  0  0  0  0  0  0  0  0  0
  146.7361  140.9725  154.5425 H   0  0  0  0  0  0  0  0  0  0  0  0
  147.5368  142.1231  153.4656 H   0  0  0  0  0  0  0  0  0  0  0  0
  147.6308  142.3325  155.2130 H   0  0  0  0  0  0  0  0  0  0  0  0
  148.9283  137.9018  152.7473 H   0  0  0  0  0  0  0  0  0  0  0  0
  147.3941  136.7652  152.2290 H   0  0  0  0  0  0  0  0  0  0  0  0
  144.8688  136.6913  153.5045 H   0  0  0  0  0  0  0  0  0  0  0  0
  144.7382  137.7347  152.1080 H   0  0  0  0  0  0  0  0  0  0  0  0
  145.2403  135.9592  150.5637 H   0  0  0  0  0  0  0  0  0  0  0  0
  147.1866  134.7907  151.3952 H   0  0  0  0  0  0  0  0  0  0  0  0
  146.4343  134.5278  152.9689 H   0  0  0  0  0  0  0  0  0  0  0  0
  145.9945  132.9607  150.4823 H   0  0  0  0  0  0  0  0  0  0  0  0
  145.6915  132.5177  152.1626 H   0  0  0  0  0  0  0  0  0  0  0  0
  143.8503  133.7775  150.1867 H   0  0  0  0  0  0  0  0  0  0  0  0
  143.4184  132.9786  151.7019 H   0  0  0  0  0  0  0  0  0  0  0  0
  1  2  1  0  0  0  0
  1 18  1  0  0  0  0
  1 19  1  0  0  0  0
  1 20  1  0  0  0  0
  2  7  1  0  0  0  0
  2  3  2  0  0  0  0
  3  4  1  0  0  0  0
  4  5  1  0  0  0  0
  5  6  1  0  0  0  0
  5  7  2  0  0  0  0
  6 21  1  0  0  0  0
  6 22  1  0  0  0  0
  6 23  1  0  0  0  0
  7  8  1  0  0  0  0
  8  9  1  0  0  0  0
  8 24  1  0  0  0  0
  9 10  2  0  0  0  0
  9 11  1  0  0  0  0
 11 12  1  0  0  0  0
 11 25  1  0  0  0  0
 12 13  1  0  0  0  0
 12 26  1  0  0  0  0
 12 27  1  0  0  0  0
 13 17  1  0  0  0  0
 13 14  1  0  0  0  0
 13 28  1  0  0  0  0
 14 15  1  0  0  0  0
 14 29  1  0  0  0  0
 14 30  1  0  0  0  0
 15 16  1  0  0  0  0
 15 31  1  0  0  0  0
 15 32  1  0  0  0  0
 16 17  1  0  0  0  0
 16 33  1  0  0  0  0
 16 34  1  0  0  0  0
M  END
> <s_m_source_file>
AV-unprocessed.smi

> <i_m_source_file_index>
2452

> <i_lp_mmshare_version>
43012

> <i_f3d_flags>
0

> <s_epik_input>
W0NIM11jMW5vYyhbQ0gzXSljMVtOSF1DKD1PKVtOSF1bQ0gyXVtDQEBIXTJbQ0gyXVtDSDJdW0NIMl1PMg==

> <s_epik_cmdline>
J2VwaWtfcHl0aG9uJywgJy1waCcsICc3LjAnLCAnLXRuJywgJzgnLCAnLW1hJywgJzIwMCcsICctbWV0YWxfYmluZGluZycsICctaW1hZScsICc8aW5maWxlLm1hZT4nLCAnLW9tYWUnLCAnPG91dGZpbGUubWFlPic=

> <r_lp_tautomer_probability>
1

> <r_epik_Ionization_Penalty>
3.28451e-05

> <r_epik_Ionization_Penalty_Charging>
0

> <r_epik_Ionization_Penalty_Neutral>
3.28451e-05

> <r_epik_State_Penalty>
-0

> <r_epik_Charging_Adjusted_Penalty>
0

> <i_epik_Tot_Q>
0

> <i_epik_Tot_abs_Q>
0

> <r_epik_Metal_State_Penalty>
-0

> <b_epik_Metal_Only>
0

> <s_lp_Force_Field>
OPLS_2005

> <r_lp_Energy>
18.1661

> <b_lp_Chiralities_Consistent>
1

> <s_lp_Variant>
AV-unprocessed.smi:2452-2

> <Gold.Version>
5.8.1

> <Gold.Id.Protein>
6NUR|6NUR_protein|mol2

> <Gold.PLP.Fitness>
37.2647

> <Gold.PLP.PLP>
-31.2236

> <Gold.PLP.part.hbond>
-5.0000

> <Gold.PLP.part.metal>
0.0000

> <Gold.PLP.part.buried>
-1.4377

> <Gold.PLP.part.nonpolar>
-25.5419

> <Gold.PLP.part.repulsive>
0.6138

> <Gold.PLP.ligand.clash>
0.0000

> <Gold.PLP.ligand.torsion>
0.3299

> <Gold.PLP.Chemscore.Hbond>
2.1860

> <Gold.PLP.Chemscore.CHOScore>
0.0000

> <Gold.PLP.Chemscore.Metal>
0.0000

> <Gold.Chemscore.Hbonds>
donor molecule, donor type, donor heavy atom, donor atom, acceptor molecule, acceptor atom, score
      L1  H     8    24       P1  7948  0.96
      L1  H    11    25       P1  7948  1.00
      P1  H  7989  7998       L1     3  0.28

> <Gold.PLP.Chemscore.Internal.Correction>
0.1429

> <Gold.Rescore>
     Score         DG    S(hbond)    S(metal)    S(lipo)     H(rot)  DE(clash)    DE(int)     intcor
     14.42     -15.97       1.94        0.00      61.18       1.23       0.09       1.46       ----

> <Gold.Chemscore.Fitness>
14.4243

> <Gold.Chemscore.DG>
-15.9717

> <Gold.Chemscore.ZeroCoef>
-5.4800

> <Gold.Chemscore.Hbond>
1.9437

> <Gold.Chemscore.Metal>
0.0000

> <Gold.Chemscore.Lipo>
61.1787

> <Gold.Chemscore.Internal_Hbond>
0.0000

> <Gold.Chemscore.DEClash>
0.0862

> <Gold.Chemscore.DEInternal>
1.4612

> <Gold.Chemscore.Rot>
1.2337

> <Gold.Chemscore.Internal.Correction>
   9.000000E+99

> <Gold.Chemscore.Hbonds>
donor molecule, donor type, donor heavy atom, donor atom, acceptor molecule, acceptor atom, score
      L1  H     8    24       P1  7948  0.92
      L1  H    11    25       P1  7948  0.99

> <Gold.Chemscore.Hbond.Weighted>
-6.4920

> <Gold.Chemscore.Metal.Weighted>
-0.0000

> <Gold.Chemscore.Lipo.Weighted>
-7.1579

> <Gold.Chemscore.Internal_Hbond.Weighted>
0.0000

> <Gold.Chemscore.DEClash.Weighted>
0.0862

> <Gold.Chemscore.DEInternal.Weighted>
1.4612

> <Gold.Chemscore.Rot.Weighted>
3.1582

> <Gold.Chemscore.Internal.Correction.Weighted>
   9.000000E+99

> <Gold.Protein.RotatedTorsions>
[ 6907 6896 6895 6894 ] final   31.69 input  -60.11 | X-H torsion
[ 7974 7965 7964 7962 ] final   77.14 input  175.53 | X-H torsion
[ 8008 7997 7996 7995 ] final  -80.08 input   59.86 | X-H torsion
[ 10167 10162 10161 10158 ] final  -58.16 input  -65.29 | X-H torsion
[ 10718 10713 10712 10709 ] final  159.23 input   66.30 | X-H torsion
[ 10763 10752 10751 10750 ] final  -53.47 input  -60.55 | X-H torsion
[ 11005 11000 10999 10996 ] final   55.19 input  -57.11 | X-H torsion

> <Gold.Protein.ActiveResidues>
 VAL166  LYS551  ARG553  GLY616  TRP617  ASP618  TYR619  PRO620  LYS621  CYS622 
 ASP623  PHE694  ASN695  SER759  ASP760  ASP761  ALA762  ILE779  LEU786  VAL792 
 PHE793  MET794  SER795  GLU796  ALA797  LYS798  CYS799  TRP800  GLU811  SER814 

> <Gold.Protein.RotatedAtoms>
  152.0638  134.9577  160.0574 H   0  0  0  0  0  0  0  0  0  0  0  0  # atno 6907 bound_to 6896
  152.0930  133.4205  159.4561 H   0  0  0  0  0  0  0  0  0  0  0  0  # atno 6908 bound_to 6896
  150.6837  134.2769  159.4654 H   0  0  0  0  0  0  0  0  0  0  0  0  # atno 6909 bound_to 6896
  145.6939  139.2561  143.1744 H   0  0  0  0  0  0  0  0  0  0  0  0  # atno 7974 bound_to 7965
  154.5848  140.0668  156.9155 H   0  0  0  0  0  0  0  0  0  0  0  0  # atno 8008 bound_to 7997
  155.2399  140.3344  155.4275 H   0  0  0  0  0  0  0  0  0  0  0  0  # atno 8009 bound_to 7997
  156.2215  140.1801  156.7451 H   0  0  0  0  0  0  0  0  0  0  0  0  # atno 8010 bound_to 7997
  140.6214  143.2421  151.5471 H   0  0  0  0  0  0  0  0  0  0  0  0  # atno 10167 bound_to 10162
  157.1670  131.0601  151.2202 H   0  0  0  0  0  0  0  0  0  0  0  0  # atno 10718 bound_to 10713
  154.1593  135.6477  153.4982 H   0  0  0  0  0  0  0  0  0  0  0  0  # atno 10763 bound_to 10752
  153.0115  135.5357  154.6727 H   0  0  0  0  0  0  0  0  0  0  0  0  # atno 10764 bound_to 10752
  154.6037  135.2946  155.0480 H   0  0  0  0  0  0  0  0  0  0  0  0  # atno 10765 bound_to 10752
  140.0626  134.5580  155.9134 H   0  0  0  0  0  0  0  0  0  0  0  0  # atno 11005 bound_to 11000
  146.0858  140.7712  142.9619 LP  0  0  0  0  0  0  0  0  0  0  0  0  # atno 17320 bound_to 7965
  144.6988  140.3560  143.7173 LP  0  0  0  0  0  0  0  0  0  0  0  0  # atno 17321 bound_to 7965
  139.5442  144.2566  152.1410 LP  0  0  0  0  0  0  0  0  0  0  0  0  # atno 17342 bound_to 10162
  140.1787  144.4865  150.6540 LP  0  0  0  0  0  0  0  0  0  0  0  0  # atno 17343 bound_to 10162
  157.4079  130.7369  149.6816 LP  0  0  0  0  0  0  0  0  0  0  0  0  # atno 17370 bound_to 10713
  155.9744  130.4103  150.3924 LP  0  0  0  0  0  0  0  0  0  0  0  0  # atno 17371 bound_to 10713
  141.1980  133.6599  156.5768 LP  0  0  0  0  0  0  0  0  0  0  0  0  # atno 17394 bound_to 11000
  140.3746  134.7576  157.4621 LP  0  0  0  0  0  0  0  0  0  0  0  0  # atno 17395 bound_to 11000

$$$$
