AV-unprocessed.smi:1703|AV-procd|sdf|6875|dock5
  -GOLD-   22720 8 73D 1   1.00000     0.00000
 Structure written by MMmdl.
 50 52  0  0  0  0  0  0  0  0  3 V2000
  147.5819  132.8506  153.9335 C   0  0  0  0  0  0  0  0  0  0  0  0
  146.3561  132.9408  154.8490 C   0  0  2  0  0  0  0  0  0  0  0  0
  145.4662  134.1491  154.5055 C   0  0  0  0  0  0  0  0  0  0  0  0
  144.3437  134.2557  155.4688 N   0  3  2  0  0  0  0  0  0  0  0  0
  143.3889  135.3472  155.1499 C   0  0  0  0  0  0  0  0  0  0  0  0
  142.5913  135.0847  153.8530 C   0  0  1  0  0  0  0  0  0  0  0  0
  141.2257  135.3648  154.0842 O   0  0  0  0  0  0  0  0  0  0  0  0
  143.0419  135.9543  152.6621 C   0  0  0  0  0  0  0  0  0  0  0  0
  144.3697  135.5823  152.1446 N   0  0  0  0  0  0  0  0  0  0  0  0
  145.5258  136.3071  152.0972 C   0  0  0  0  0  0  0  0  0  0  0  0
  145.7287  137.7122  152.5601 C   0  0  0  0  0  0  0  0  0  0  0  0
  145.8429  138.6180  151.4848 O   0  0  0  0  0  0  0  0  0  0  0  0
  146.4766  135.5157  151.5265 N   0  3  0  0  0  0  0  0  0  0  0  0
  145.9291  134.2730  151.2079 C   0  0  0  0  0  0  0  0  0  0  0  0
  146.5037  133.1521  150.6167 C   0  0  0  0  0  0  0  0  0  0  0  0
  145.6626  132.0371  150.4237 C   0  0  0  0  0  0  0  0  0  0  0  0
  144.3077  132.0646  150.8117 C   0  0  0  0  0  0  0  0  0  0  0  0
  143.7362  133.2071  151.4100 C   0  0  0  0  0  0  0  0  0  0  0  0
  144.5748  134.3064  151.6012 C   0  0  0  0  0  0  0  0  0  0  0  0
  144.8628  134.3449  156.8541 C   0  0  0  0  0  0  0  0  0  0  0  0
  145.7932  133.1592  157.1765 C   0  0  1  0  0  0  0  0  0  0  0  0
  145.0452  131.8290  157.3774 C   0  0  0  0  0  0  0  0  0  0  0  0
  146.8210  133.0588  156.1912 O   0  0  0  0  0  0  0  0  0  0  0  0
  147.2861  132.7500  152.8889 H   0  0  0  0  0  0  0  0  0  0  0  0
  148.1960  131.9866  154.1890 H   0  0  0  0  0  0  0  0  0  0  0  0
  148.2069  133.7397  154.0203 H   0  0  0  0  0  0  0  0  0  0  0  0
  145.7830  132.0204  154.7371 H   0  0  0  0  0  0  0  0  0  0  0  0
  146.0535  135.0687  154.5268 H   0  0  0  0  0  0  0  0  0  0  0  0
  145.0884  134.0390  153.4897 H   0  0  0  0  0  0  0  0  0  0  0  0
  142.6808  135.4725  155.9706 H   0  0  0  0  0  0  0  0  0  0  0  0
  143.9466  136.2821  155.0872 H   0  0  0  0  0  0  0  0  0  0  0  0
  142.6706  134.0391  153.5606 H   0  0  0  0  0  0  0  0  0  0  0  0
  140.9783  135.0165  154.9269 H   0  0  0  0  0  0  0  0  0  0  0  0
  142.3349  135.8525  151.8378 H   0  0  0  0  0  0  0  0  0  0  0  0
  143.0361  137.0109  152.9269 H   0  0  0  0  0  0  0  0  0  0  0  0
  144.8992  138.0148  153.1991 H   0  0  0  0  0  0  0  0  0  0  0  0
  146.6340  137.7660  153.1655 H   0  0  0  0  0  0  0  0  0  0  0  0
  145.1515  138.4369  150.8659 H   0  0  0  0  0  0  0  0  0  0  0  0
  147.5414  133.1290  150.3173 H   0  0  0  0  0  0  0  0  0  0  0  0
  146.0644  131.1432  149.9687 H   0  0  0  0  0  0  0  0  0  0  0  0
  143.6934  131.1912  150.6470 H   0  0  0  0  0  0  0  0  0  0  0  0
  142.6956  133.2101  151.6981 H   0  0  0  0  0  0  0  0  0  0  0  0
  145.4086  135.2830  156.9693 H   0  0  0  0  0  0  0  0  0  0  0  0
  144.0366  134.3709  157.5658 H   0  0  0  0  0  0  0  0  0  0  0  0
  146.2989  133.3803  158.1171 H   0  0  0  0  0  0  0  0  0  0  0  0
  144.3676  131.8922  158.2293 H   0  0  0  0  0  0  0  0  0  0  0  0
  145.7444  131.0159  157.5733 H   0  0  0  0  0  0  0  0  0  0  0  0
  144.4471  131.5538  156.5091 H   0  0  0  0  0  0  0  0  0  0  0  0
  143.8229  133.3918  155.4194 H   0  0  0  0  0  0  0  0  0  0  0  0
  147.4317  135.8093  151.3660 H   0  0  0  0  0  0  0  0  0  0  0  0
  1  2  1  0  0  0  0
  1 24  1  0  0  0  0
  1 25  1  0  0  0  0
  1 26  1  0  0  0  0
  2 23  1  0  0  0  0
  2  3  1  0  0  0  0
  2 27  1  0  0  0  0
  3  4  1  0  0  0  0
  3 28  1  0  0  0  0
  3 29  1  0  0  0  0
  4  5  1  0  0  0  0
  4 20  1  0  0  0  0
  4 49  1  0  0  0  0
  5  6  1  0  0  0  0
  5 30  1  0  0  0  0
  5 31  1  0  0  0  0
  6  7  1  0  0  0  0
  6  8  1  0  0  0  0
  6 32  1  0  0  0  0
  7 33  1  0  0  0  0
  8  9  1  0  0  0  0
  8 34  1  0  0  0  0
  8 35  1  0  0  0  0
  9 19  1  0  0  0  0
  9 10  1  0  0  0  0
 10 11  1  0  0  0  0
 10 13  2  0  0  0  0
 11 12  1  0  0  0  0
 11 36  1  0  0  0  0
 11 37  1  0  0  0  0
 12 38  1  0  0  0  0
 13 14  1  0  0  0  0
 13 50  1  0  0  0  0
 14 19  2  0  0  0  0
 14 15  1  0  0  0  0
 15 16  2  0  0  0  0
 15 39  1  0  0  0  0
 16 17  1  0  0  0  0
 16 40  1  0  0  0  0
 17 18  2  0  0  0  0
 17 41  1  0  0  0  0
 18 19  1  0  0  0  0
 18 42  1  0  0  0  0
 20 21  1  0  0  0  0
 20 43  1  0  0  0  0
 20 44  1  0  0  0  0
 21 22  1  0  0  0  0
 21 23  1  0  0  0  0
 21 45  1  0  0  0  0
 22 46  1  0  0  0  0
 22 47  1  0  0  0  0
 22 48  1  0  0  0  0
M  CHG  1   4   1
M  CHG  1  13   1
M  END
> <s_m_source_file>
AV-unprocessed.smi

> <i_m_source_file_index>
1703

> <i_lp_mmshare_version>
43012

> <i_f3d_flags>
0

> <s_epik_input>
W0NIM11bQ0BASF0xW0NIMl1OKFtDSDJdW0NASF0oTzEpW0NIM10pW0NIMl1bQ0BIXShbT0hdKVtDSDJdbihjKG4yKVtDSDJdW09IXSljKGMyMylbY0hdW2NIXVtjSF1bY0hdMw==

> <s_epik_cmdline>
J2VwaWtfcHl0aG9uJywgJy1waCcsICc3LjAnLCAnLXRuJywgJzgnLCAnLW1hJywgJzIwMCcsICctbWV0YWxfYmluZGluZycsICctaW1hZScsICc8aW5maWxlLm1hZT4nLCAnLW9tYWUnLCAnPG91dGZpbGUubWFlPic=

> <r_epik_Ionization_Penalty>
2.22579

> <r_epik_Ionization_Penalty_Charging>
2.22492

> <r_epik_Ionization_Penalty_Neutral>
0.000870007

> <r_epik_State_Penalty>
2.3141

> <r_epik_Charging_Adjusted_Penalty>
4.53902

> <i_epik_Tot_Q>
2

> <i_epik_Tot_abs_Q>
2

> <r_epik_Metal_State_Penalty>
6.36517

> <b_epik_Metal_Only>
0

> <s_lp_Force_Field>
OPLS_2005

> <r_lp_Energy>
32.2753

> <b_lp_Chiralities_Consistent>
1

> <s_lp_Variant>
AV-unprocessed.smi:1703-23

> <Gold.Version>
5.8.1

> <Gold.Id.Protein>
6NUR|6NUR_protein|mol2

> <Gold.PLP.Fitness>
53.2099

> <Gold.PLP.PLP>
-37.0348

> <Gold.PLP.part.hbond>
-4.7134

> <Gold.PLP.part.metal>
0.0000

> <Gold.PLP.part.buried>
-8.2407

> <Gold.PLP.part.nonpolar>
-25.1814

> <Gold.PLP.part.repulsive>
0.1168

> <Gold.PLP.ligand.clash>
0.0000

> <Gold.PLP.ligand.torsion>
0.9325

> <Gold.PLP.Chemscore.Hbond>
6.0000

> <Gold.PLP.Chemscore.CHOScore>
0.0000

> <Gold.PLP.Chemscore.Metal>
0.0000

> <Gold.Chemscore.Hbonds>
donor molecule, donor type, donor heavy atom, donor atom, acceptor molecule, acceptor atom, score
      L1  H     4    49       P1 10957  1.72
      L1  H     7    33       P1 11000  0.98
      L1  H    12    38       P1 10171  1.00
      L1  H    13    50       P1  7948  2.00

> <Gold.PLP.Chemscore.Internal.Correction>
0.0401

> <Gold.Rescore>
     Score         DG    S(hbond)    S(metal)    S(lipo)     H(rot)  DE(clash)    DE(int)     intcor
     18.60     -19.78       3.97        0.00      75.22       3.04       0.02       1.16       ----

> <Gold.Chemscore.Fitness>
18.5977

> <Gold.Chemscore.DG>
-19.7791

> <Gold.Chemscore.ZeroCoef>
-5.4800

> <Gold.Chemscore.Hbond>
3.9747

> <Gold.Chemscore.Metal>
0.0000

> <Gold.Chemscore.Lipo>
75.2155

> <Gold.Chemscore.Internal_Hbond>
0.0000

> <Gold.Chemscore.DEClash>
0.0181

> <Gold.Chemscore.DEInternal>
1.1633

> <Gold.Chemscore.Rot>
3.0378

> <Gold.Chemscore.Internal.Correction>
   9.000000E+99

> <Gold.Chemscore.Hbonds>
donor molecule, donor type, donor heavy atom, donor atom, acceptor molecule, acceptor atom, score
      L1  H     4    49       P1 10957  0.84
      L1  H     7    33       P1 11000  0.87
      L1  H    12    38       P1 10171  1.00
      L1  H    13    50       P1  7948  0.95

> <Gold.Chemscore.Hbond.Weighted>
-13.2756

> <Gold.Chemscore.Metal.Weighted>
-0.0000

> <Gold.Chemscore.Lipo.Weighted>
-8.8002

> <Gold.Chemscore.Internal_Hbond.Weighted>
0.0000

> <Gold.Chemscore.DEClash.Weighted>
0.0181

> <Gold.Chemscore.DEInternal.Weighted>
1.1633

> <Gold.Chemscore.Rot.Weighted>
7.7767

> <Gold.Chemscore.Internal.Correction.Weighted>
   9.000000E+99

> <Gold.Protein.RotatedTorsions>
[ 6907 6896 6895 6894 ] final  144.22 input  -60.11 | X-H torsion
[ 7974 7965 7964 7962 ] final  -33.26 input  175.53 | X-H torsion
[ 8008 7997 7996 7995 ] final   42.78 input   59.86 | X-H torsion
[ 10167 10162 10161 10158 ] final -145.87 input  -65.29 | X-H torsion
[ 10718 10713 10712 10709 ] final   75.09 input   66.30 | X-H torsion
[ 10763 10752 10751 10750 ] final  110.79 input  -60.55 | X-H torsion
[ 11005 11000 10999 10996 ] final -159.73 input  -57.11 | X-H torsion

> <Gold.Protein.ActiveResidues>
 VAL166  LYS551  ARG553  GLY616  TRP617  ASP618  TYR619  PRO620  LYS621  CYS622 
 ASP623  PHE694  ASN695  SER759  ASP760  ASP761  ALA762  ILE779  LEU786  VAL792 
 PHE793  MET794  SER795  GLU796  ALA797  LYS798  CYS799  TRP800  GLU811  SER814 

> <Gold.Protein.RotatedAtoms>
  152.1965  133.4810  159.5035 H   0  0  0  0  0  0  0  0  0  0  0  0  # atno 6907 bound_to 6896
  150.6961  134.1646  159.4198 H   0  0  0  0  0  0  0  0  0  0  0  0  # atno 6908 bound_to 6896
  151.9562  135.0145  160.0595 H   0  0  0  0  0  0  0  0  0  0  0  0  # atno 6909 bound_to 6896
  146.0925  140.5894  142.8858 H   0  0  0  0  0  0  0  0  0  0  0  0  # atno 7974 bound_to 7965
  155.2918  140.3379  155.4252 H   0  0  0  0  0  0  0  0  0  0  0  0  # atno 8008 bound_to 7997
  156.2042  140.1744  156.7875 H   0  0  0  0  0  0  0  0  0  0  0  0  # atno 8009 bound_to 7997
  154.5599  140.0689  156.8786 H   0  0  0  0  0  0  0  0  0  0  0  0  # atno 8010 bound_to 7997
  139.7765  143.8162  152.2632 H   0  0  0  0  0  0  0  0  0  0  0  0  # atno 10167 bound_to 10162
  157.6619  130.9709  150.1303 H   0  0  0  0  0  0  0  0  0  0  0  0  # atno 10718 bound_to 10713
  153.4540  135.3737  155.2300 H   0  0  0  0  0  0  0  0  0  0  0  0  # atno 10763 bound_to 10752
  154.8756  135.3892  154.4004 H   0  0  0  0  0  0  0  0  0  0  0  0  # atno 10764 bound_to 10752
  153.4568  135.7086  153.6139 H   0  0  0  0  0  0  0  0  0  0  0  0  # atno 10765 bound_to 10752
  140.6394  134.4568  157.5233 H   0  0  0  0  0  0  0  0  0  0  0  0  # atno 11005 bound_to 11000
  144.7371  140.4838  143.6896 LP  0  0  0  0  0  0  0  0  0  0  0  0  # atno 17320 bound_to 7965
  145.6012  139.1504  143.3128 LP  0  0  0  0  0  0  0  0  0  0  0  0  # atno 17321 bound_to 7965
  139.8212  144.7295  150.9570 LP  0  0  0  0  0  0  0  0  0  0  0  0  # atno 17342 bound_to 10162
  140.7816  143.4157  151.0920 LP  0  0  0  0  0  0  0  0  0  0  0  0  # atno 17343 bound_to 10162
  156.2152  130.3669  149.8622 LP  0  0  0  0  0  0  0  0  0  0  0  0  # atno 17370 bound_to 10713
  156.6490  130.8736  151.3528 LP  0  0  0  0  0  0  0  0  0  0  0  0  # atno 17371 bound_to 10713
  139.9086  134.8394  156.1612 LP  0  0  0  0  0  0  0  0  0  0  0  0  # atno 17394 bound_to 11000
  141.0618  133.6838  156.1967 LP  0  0  0  0  0  0  0  0  0  0  0  0  # atno 17395 bound_to 11000

$$$$
