AV-unprocessed.smi:443|AV-procd|sdf|2586|dock4
  -GOLD-   2262022573D 1   1.00000     0.00000
 Structure written by MMmdl.
 48 49  0  0  0  0  0  0  0  0  1 V2000
  147.6896  137.6472  154.6938 C   0  0  0  0  0  0  0  0  0  0  0  0
  149.0028  137.1603  155.2436 C   0  0  0  0  0  0  0  0  0  0  0  0
  150.0002  137.9793  155.1705 N   0  0  0  0  0  0  0  0  0  0  0  0
  151.2501  137.6329  155.6440 N   0  0  0  0  0  0  0  0  0  0  0  0
  152.2494  138.7010  155.5345 C   0  0  0  0  0  0  0  0  0  0  0  0
  151.6486  140.0759  155.9140 C   0  0  1  0  0  0  0  0  0  0  0  0
  150.6966  140.4511  154.9389 O   0  0  0  0  0  0  0  0  0  0  0  0
  150.9364  140.0605  157.2746 C   0  0  0  0  0  0  0  0  0  0  0  0
  151.0850  141.3378  157.8805 O   0  0  0  0  0  0  0  0  0  0  0  0
  151.9981  141.4869  158.9045 C   0  0  0  0  0  0  0  0  0  0  0  0
  152.8248  140.4275  159.3613 C   0  0  0  0  0  0  0  0  0  0  0  0
  153.7328  140.6259  160.4173 C   0  0  0  0  0  0  0  0  0  0  0  0
  153.8291  141.8842  161.0339 C   0  0  0  0  0  0  0  0  0  0  0  0
  153.0190  142.9433  160.5892 C   0  0  0  0  0  0  0  0  0  0  0  0
  152.1053  142.7585  159.5266 C   0  0  0  0  0  0  0  0  0  0  0  0
  151.2551  143.9430  159.0634 C   0  0  0  0  0  0  0  0  0  0  0  0
  151.4682  144.2379  157.5693 C   0  0  0  0  0  0  0  0  0  0  0  0
  151.5019  145.1902  159.9264 C   0  0  0  0  0  0  0  0  0  0  0  0
  151.5618  136.4343  156.2139 C   0  0  0  0  0  0  0  0  0  0  0  0
  152.6912  136.1702  156.6287 O   0  0  0  0  0  0  0  0  0  0  0  0
  150.4277  135.5109  156.2929 C   0  0  0  0  0  0  0  0  0  0  0  0
  150.7092  134.2419  156.8831 C   0  0  0  0  0  0  0  0  0  0  0  0
  150.9520  133.2226  157.3751 N   0  0  0  0  0  0  0  0  0  0  0  0
  149.1922  135.8419  155.8415 C   0  0  0  0  0  0  0  0  0  0  0  0
  147.9832  134.9188  155.9086 C   0  0  0  0  0  0  0  0  0  0  0  0
  147.2247  136.8922  154.0600 H   0  0  0  0  0  0  0  0  0  0  0  0
  147.8149  138.5442  154.0878 H   0  0  0  0  0  0  0  0  0  0  0  0
  146.9983  137.8855  155.5022 H   0  0  0  0  0  0  0  0  0  0  0  0
  153.1312  138.4701  156.1359 H   0  0  0  0  0  0  0  0  0  0  0  0
  152.6266  138.7261  154.5102 H   0  0  0  0  0  0  0  0  0  0  0  0
  152.4221  140.8454  155.9341 H   0  0  0  0  0  0  0  0  0  0  0  0
  149.8413  140.1765  155.2323 H   0  0  0  0  0  0  0  0  0  0  0  0
  149.8768  139.8464  157.1247 H   0  0  0  0  0  0  0  0  0  0  0  0
  151.3560  139.2813  157.9135 H   0  0  0  0  0  0  0  0  0  0  0  0
  152.7817  139.4440  158.9191 H   0  0  0  0  0  0  0  0  0  0  0  0
  154.3545  139.8102  160.7555 H   0  0  0  0  0  0  0  0  0  0  0  0
  154.5246  142.0383  161.8458 H   0  0  0  0  0  0  0  0  0  0  0  0
  153.1058  143.9060  161.0709 H   0  0  0  0  0  0  0  0  0  0  0  0
  150.2009  143.6958  159.1786 H   0  0  0  0  0  0  0  0  0  0  0  0
  151.2234  143.3662  156.9616 H   0  0  0  0  0  0  0  0  0  0  0  0
  152.4997  144.5158  157.3530 H   0  0  0  0  0  0  0  0  0  0  0  0
  150.8348  145.0595  157.2352 H   0  0  0  0  0  0  0  0  0  0  0  0
  151.2977  144.9845  160.9775 H   0  0  0  0  0  0  0  0  0  0  0  0
  150.8530  146.0112  159.6205 H   0  0  0  0  0  0  0  0  0  0  0  0
  152.5321  145.5388  159.8490 H   0  0  0  0  0  0  0  0  0  0  0  0
  148.1671  134.0486  156.5379 H   0  0  0  0  0  0  0  0  0  0  0  0
  147.7255  134.5605  154.9115 H   0  0  0  0  0  0  0  0  0  0  0  0
  147.1181  135.4372  156.3232 H   0  0  0  0  0  0  0  0  0  0  0  0
  1  2  1  0  0  0  0
  1 26  1  0  0  0  0
  1 27  1  0  0  0  0
  1 28  1  0  0  0  0
  2 24  1  0  0  0  0
  2  3  2  0  0  0  0
  3  4  1  0  0  0  0
  4  5  1  0  0  0  0
  4 19  1  0  0  0  0
  5  6  1  0  0  0  0
  5 29  1  0  0  0  0
  5 30  1  0  0  0  0
  6  7  1  0  0  0  0
  6  8  1  0  0  0  0
  6 31  1  0  0  0  0
  7 32  1  0  0  0  0
  8  9  1  0  0  0  0
  8 33  1  0  0  0  0
  8 34  1  0  0  0  0
  9 10  1  0  0  0  0
 10 15  1  0  0  0  0
 10 11  2  0  0  0  0
 11 12  1  0  0  0  0
 11 35  1  0  0  0  0
 12 13  2  0  0  0  0
 12 36  1  0  0  0  0
 13 14  1  0  0  0  0
 13 37  1  0  0  0  0
 14 15  2  0  0  0  0
 14 38  1  0  0  0  0
 15 16  1  0  0  0  0
 16 17  1  0  0  0  0
 16 18  1  0  0  0  0
 16 39  1  0  0  0  0
 17 40  1  0  0  0  0
 17 41  1  0  0  0  0
 17 42  1  0  0  0  0
 18 43  1  0  0  0  0
 18 44  1  0  0  0  0
 18 45  1  0  0  0  0
 19 20  2  0  0  0  0
 19 21  1  0  0  0  0
 21 22  1  0  0  0  0
 21 24  2  0  0  0  0
 22 23  3  0  0  0  0
 24 25  1  0  0  0  0
 25 46  1  0  0  0  0
 25 47  1  0  0  0  0
 25 48  1  0  0  0  0
M  END
> <s_m_source_file>
AV-unprocessed.smi

> <i_m_source_file_index>
443

> <i_lp_mmshare_version>
43012

> <i_f3d_flags>
0

> <s_epik_input>
TiNDYyhjMVtDSDNdKWMoPU8pbihuYzFbQ0gzXSlbQ0gyXVtDQEhdKFtPSF0pW0NIMl1PYzJbY0hdW2NIXVtjSF1bY0hdYzJbQ0hdKFtDSDNdKVtDSDNd

> <s_epik_cmdline>
J2VwaWtfcHl0aG9uJywgJy1waCcsICc3LjAnLCAnLXRuJywgJzgnLCAnLW1hJywgJzIwMCcsICctbWV0YWxfYmluZGluZycsICctaW1hZScsICc8aW5maWxlLm1hZT4nLCAnLW9tYWUnLCAnPG91dGZpbGUubWFlPic=

> <r_lp_tautomer_probability>
1

> <r_epik_Ionization_Penalty>
1.17331e-07

> <r_epik_Ionization_Penalty_Charging>
1.57223e-10

> <r_epik_Ionization_Penalty_Neutral>
1.17174e-07

> <r_epik_State_Penalty>
-0

> <r_epik_Charging_Adjusted_Penalty>
1.57223e-10

> <i_epik_Tot_Q>
0

> <i_epik_Tot_abs_Q>
0

> <r_epik_Metal_State_Penalty>
-0

> <b_epik_Metal_Only>
0

> <s_lp_Force_Field>
OPLS_2005

> <r_lp_Energy>
30.2937

> <b_lp_Chiralities_Consistent>
1

> <s_lp_Variant>
AV-unprocessed.smi:443-2

> <Gold.Version>
5.8.1

> <Gold.Id.Protein>
6NUR|6NUR_protein|mol2

> <Gold.PLP.Fitness>
53.9509

> <Gold.PLP.PLP>
-46.8137

> <Gold.PLP.part.hbond>
-2.8374

> <Gold.PLP.part.metal>
0.0000

> <Gold.PLP.part.buried>
-6.3215

> <Gold.PLP.part.nonpolar>
-39.4048

> <Gold.PLP.part.repulsive>
0.1532

> <Gold.PLP.ligand.clash>
0.0000

> <Gold.PLP.ligand.torsion>
1.0148

> <Gold.PLP.Chemscore.Hbond>
3.0000

> <Gold.PLP.Chemscore.CHOScore>
0.0000

> <Gold.PLP.Chemscore.Metal>
0.0000

> <Gold.Chemscore.Hbonds>
donor molecule, donor type, donor heavy atom, donor atom, acceptor molecule, acceptor atom, score
      P1  H  6896  6908       L1    23  0.86
      P1  H  7989  7998       L1     7  1.00
      P1  H 10752 10763       L1    20  0.75

> <Gold.PLP.Chemscore.Internal.Correction>
0.1669

> <Gold.Rescore>
     Score         DG    S(hbond)    S(metal)    S(lipo)     H(rot)  DE(clash)    DE(int)     intcor
     19.29     -21.39       2.29        0.00     123.35       2.41       0.01       2.09       ----

> <Gold.Chemscore.Fitness>
19.2860

> <Gold.Chemscore.DG>
-21.3888

> <Gold.Chemscore.ZeroCoef>
-5.4800

> <Gold.Chemscore.Hbond>
2.2880

> <Gold.Chemscore.Metal>
0.0000

> <Gold.Chemscore.Lipo>
123.3538

> <Gold.Chemscore.Internal_Hbond>
0.0000

> <Gold.Chemscore.DEClash>
0.0142

> <Gold.Chemscore.DEInternal>
2.0886

> <Gold.Chemscore.Rot>
2.4084

> <Gold.Chemscore.Internal.Correction>
   9.000000E+99

> <Gold.Chemscore.Hbonds>
donor molecule, donor type, donor heavy atom, donor atom, acceptor molecule, acceptor atom, score
      P1  H  6896  6908       L1    23  0.47
      P1  H  7989  7998       L1     7  0.54
      P1  H 10752 10763       L1    20  0.09

> <Gold.Chemscore.Hbond.Weighted>
-7.6419

> <Gold.Chemscore.Metal.Weighted>
-0.0000

> <Gold.Chemscore.Lipo.Weighted>
-14.4324

> <Gold.Chemscore.Internal_Hbond.Weighted>
0.0000

> <Gold.Chemscore.DEClash.Weighted>
0.0142

> <Gold.Chemscore.DEInternal.Weighted>
2.0886

> <Gold.Chemscore.Rot.Weighted>
6.1655

> <Gold.Chemscore.Internal.Correction.Weighted>
   9.000000E+99

> <Gold.Protein.RotatedTorsions>
[ 6907 6896 6895 6894 ] final  100.39 input  -60.11 | X-H torsion
[ 7974 7965 7964 7962 ] final  -70.56 input  175.53 | X-H torsion
[ 8008 7997 7996 7995 ] final   73.37 input   59.86 | X-H torsion
[ 10167 10162 10161 10158 ] final   64.58 input  -65.29 | X-H torsion
[ 10718 10713 10712 10709 ] final -175.61 input   66.30 | X-H torsion
[ 10763 10752 10751 10750 ] final   95.68 input  -60.55 | X-H torsion
[ 11005 11000 10999 10996 ] final -130.82 input  -57.11 | X-H torsion

> <Gold.Protein.ActiveResidues>
 VAL166  LYS551  ARG553  GLY616  TRP617  ASP618  TYR619  PRO620  LYS621  CYS622 
 ASP623  PHE694  ASN695  SER759  ASP760  ASP761  ALA762  ILE779  LEU786  VAL792 
 PHE793  MET794  SER795  GLU796  ALA797  LYS798  CYS799  TRP800  GLU811  SER814 

> <Gold.Protein.RotatedAtoms>
  152.5373  134.0283  159.8013 H   0  0  0  0  0  0  0  0  0  0  0  0  # atno 6907 bound_to 6896
  151.0458  133.5658  159.2654 H   0  0  0  0  0  0  0  0  0  0  0  0  # atno 6908 bound_to 6896
  151.2611  135.0662  159.9152 H   0  0  0  0  0  0  0  0  0  0  0  0  # atno 6909 bound_to 6896
  145.6893  140.9159  143.0790 H   0  0  0  0  0  0  0  0  0  0  0  0  # atno 7974 bound_to 7965
  155.7827  140.3481  155.5306 H   0  0  0  0  0  0  0  0  0  0  0  0  # atno 8008 bound_to 7997
  155.8713  140.0987  157.1569 H   0  0  0  0  0  0  0  0  0  0  0  0  # atno 8009 bound_to 7997
  154.4018  140.1340  156.4068 H   0  0  0  0  0  0  0  0  0  0  0  0  # atno 8010 bound_to 7997
  140.1206  144.4734  150.6922 H   0  0  0  0  0  0  0  0  0  0  0  0  # atno 10167 bound_to 10162
  156.8025  130.9557  151.3118 H   0  0  0  0  0  0  0  0  0  0  0  0  # atno 10718 bound_to 10713
  153.2561  135.4245  155.0847 H   0  0  0  0  0  0  0  0  0  0  0  0  # atno 10763 bound_to 10752
  154.8401  135.3437  154.6444 H   0  0  0  0  0  0  0  0  0  0  0  0  # atno 10764 bound_to 10752
  153.6865  135.7036  153.5159 H   0  0  0  0  0  0  0  0  0  0  0  0  # atno 10765 bound_to 10752
  140.9313  134.1316  157.4232 H   0  0  0  0  0  0  0  0  0  0  0  0  # atno 11005 bound_to 11000
  144.7001  139.8801  143.7446 LP  0  0  0  0  0  0  0  0  0  0  0  0  # atno 17320 bound_to 7965
  146.0895  139.3885  143.0414 LP  0  0  0  0  0  0  0  0  0  0  0  0  # atno 17321 bound_to 7965
  140.6874  143.2357  151.5224 LP  0  0  0  0  0  0  0  0  0  0  0  0  # atno 17342 bound_to 10162
  139.5570  144.2250  152.1629 LP  0  0  0  0  0  0  0  0  0  0  0  0  # atno 17343 bound_to 10162
  157.6547  130.8914  149.9704 LP  0  0  0  0  0  0  0  0  0  0  0  0  # atno 17370 bound_to 10713
  156.1093  130.3651  150.0078 LP  0  0  0  0  0  0  0  0  0  0  0  0  # atno 17371 bound_to 10713
  139.8797  135.0006  156.6018 LP  0  0  0  0  0  0  0  0  0  0  0  0  # atno 17394 bound_to 11000
  140.7859  133.8622  155.8606 LP  0  0  0  0  0  0  0  0  0  0  0  0  # atno 17395 bound_to 11000

$$$$
