AV-unprocessed.smi:907|AV-procd|sdf|4112|dock10
  -GOLD-   22720 2 13D 1   1.00000     0.00000
 Structure written by MMmdl.
 54 57  0  0  0  0  0  0  0  0  3 V2000
  149.8991  140.2334  153.7232 O   0  0  0  0  0  0  0  0  0  0  0  0
  148.9349  140.8064  154.2315 C   0  0  0  0  0  0  0  0  0  0  0  0
  149.0551  141.5547  155.3403 N   0  0  0  0  0  0  0  0  0  0  0  0
  150.3058  141.7781  156.0528 C   0  0  0  0  0  0  0  0  0  0  0  0
  150.1018  141.6335  157.5672 C   0  0  0  0  0  0  0  0  0  0  0  0
  150.8596  142.6883  158.3508 C   0  0  0  0  0  0  0  0  0  0  0  0
  151.8199  142.3516  159.3295 C   0  0  0  0  0  0  0  0  0  0  0  0
  152.4939  143.3829  160.0169 C   0  0  0  0  0  0  0  0  0  0  0  0
  152.1952  144.7268  159.7106 C   0  0  0  0  0  0  0  0  0  0  0  0
  151.2282  145.0061  158.7236 C   0  0  0  0  0  0  0  0  0  0  0  0
  150.6031  143.9905  158.0879 N   0  3  0  0  0  0  0  0  0  0  0  0
  147.6698  140.6962  153.7539 N   0  0  0  0  0  0  0  0  0  0  0  0
  147.2677  140.0783  152.4848 C   0  0  0  0  0  0  0  0  0  0  0  0
  146.6168  138.7168  152.7842 C   0  0  0  0  0  0  0  0  0  0  0  0
  145.4596  138.8366  153.7214 N   0  3  0  0  0  0  0  0  0  0  0  0
  144.8417  137.5039  154.0048 C   0  0  2  0  0  0  0  0  0  0  0  0
  144.7201  136.6403  152.7209 C   0  0  0  0  0  0  0  0  0  0  0  0
  143.2354  136.2426  152.6888 C   0  0  1  0  0  0  0  0  0  0  0  0
  142.9443  135.2496  153.8261 C   0  0  0  0  0  0  0  0  0  0  0  0
  143.0102  136.1464  155.0743 C   0  0  0  0  0  0  0  0  0  0  0  0
  143.3642  137.5292  154.4907 C   0  0  2  0  0  0  0  0  0  0  0  0
  142.5700  137.5174  153.1897 C   0  0  0  0  0  0  0  0  0  0  0  0
  145.8055  139.6287  154.9389 C   0  0  0  0  0  0  0  0  0  0  0  0
  146.4966  140.9598  154.5878 C   0  0  0  0  0  0  0  0  0  0  0  0
  148.2234  141.9813  155.7221 H   0  0  0  0  0  0  0  0  0  0  0  0
  151.0486  141.0591  155.7039 H   0  0  0  0  0  0  0  0  0  0  0  0
  150.6858  142.7742  155.8196 H   0  0  0  0  0  0  0  0  0  0  0  0
  149.0409  141.7064  157.8115 H   0  0  0  0  0  0  0  0  0  0  0  0
  150.4257  140.6445  157.8949 H   0  0  0  0  0  0  0  0  0  0  0  0
  152.0408  141.3175  159.5513 H   0  0  0  0  0  0  0  0  0  0  0  0
  153.2323  143.1457  160.7690 H   0  0  0  0  0  0  0  0  0  0  0  0
  152.7014  145.5311  160.2247 H   0  0  0  0  0  0  0  0  0  0  0  0
  150.9388  146.0032  158.4246 H   0  0  0  0  0  0  0  0  0  0  0  0
  146.5543  140.7298  151.9779 H   0  0  0  0  0  0  0  0  0  0  0  0
  148.0879  139.9433  151.7797 H   0  0  0  0  0  0  0  0  0  0  0  0
  146.3066  138.2637  151.8435 H   0  0  0  0  0  0  0  0  0  0  0  0
  147.3620  138.0483  153.2188 H   0  0  0  0  0  0  0  0  0  0  0  0
  145.4597  137.0005  154.7506 H   0  0  0  0  0  0  0  0  0  0  0  0
  144.9493  137.2127  151.8211 H   0  0  0  0  0  0  0  0  0  0  0  0
  145.3826  135.7741  152.7388 H   0  0  0  0  0  0  0  0  0  0  0  0
  142.8964  135.8992  151.7108 H   0  0  0  0  0  0  0  0  0  0  0  0
  141.9507  134.8126  153.7185 H   0  0  0  0  0  0  0  0  0  0  0  0
  143.6684  134.4344  153.8586 H   0  0  0  0  0  0  0  0  0  0  0  0
  142.0401  136.1744  155.5724 H   0  0  0  0  0  0  0  0  0  0  0  0
  143.7448  135.7977  155.8013 H   0  0  0  0  0  0  0  0  0  0  0  0
  143.0963  138.3225  155.1847 H   0  0  0  0  0  0  0  0  0  0  0  0
  142.7611  138.3863  152.5574 H   0  0  0  0  0  0  0  0  0  0  0  0
  141.4936  137.4130  153.3395 H   0  0  0  0  0  0  0  0  0  0  0  0
  144.9101  139.8748  155.5057 H   0  0  0  0  0  0  0  0  0  0  0  0
  146.4492  139.0337  155.5886 H   0  0  0  0  0  0  0  0  0  0  0  0
  146.7428  141.5037  155.5010 H   0  0  0  0  0  0  0  0  0  0  0  0
  145.8070  141.6052  154.0413 H   0  0  0  0  0  0  0  0  0  0  0  0
  144.7572  139.3774  153.2371 H   0  0  0  0  0  0  0  0  0  0  0  0
  149.9083  144.2171  157.3759 H   0  0  0  0  0  0  0  0  0  0  0  0
  1  2  2  0  0  0  0
  2  3  1  0  0  0  0
  2 12  1  0  0  0  0
  3  4  1  0  0  0  0
  3 25  1  0  0  0  0
  4  5  1  0  0  0  0
  4 26  1  0  0  0  0
  4 27  1  0  0  0  0
  5  6  1  0  0  0  0
  5 28  1  0  0  0  0
  5 29  1  0  0  0  0
  6 11  1  0  0  0  0
  6  7  2  0  0  0  0
  7  8  1  0  0  0  0
  7 30  1  0  0  0  0
  8  9  2  0  0  0  0
  8 31  1  0  0  0  0
  9 10  1  0  0  0  0
  9 32  1  0  0  0  0
 10 11  2  0  0  0  0
 10 33  1  0  0  0  0
 11 54  1  0  0  0  0
 12 24  1  0  0  0  0
 12 13  1  0  0  0  0
 13 14  1  0  0  0  0
 13 34  1  0  0  0  0
 13 35  1  0  0  0  0
 14 15  1  0  0  0  0
 14 36  1  0  0  0  0
 14 37  1  0  0  0  0
 15 16  1  0  0  0  0
 15 23  1  0  0  0  0
 15 53  1  0  0  0  0
 16 21  1  0  0  0  0
 16 17  1  0  0  0  0
 16 38  1  0  0  0  0
 17 18  1  0  0  0  0
 17 39  1  0  0  0  0
 17 40  1  0  0  0  0
 18 22  1  0  0  0  0
 18 19  1  0  0  0  0
 18 41  1  0  0  0  0
 19 20  1  0  0  0  0
 19 42  1  0  0  0  0
 19 43  1  0  0  0  0
 20 21  1  0  0  0  0
 20 44  1  0  0  0  0
 20 45  1  0  0  0  0
 21 22  1  0  0  0  0
 21 46  1  0  0  0  0
 22 47  1  0  0  0  0
 22 48  1  0  0  0  0
 23 24  1  0  0  0  0
 23 49  1  0  0  0  0
 23 50  1  0  0  0  0
 24 51  1  0  0  0  0
 24 52  1  0  0  0  0
M  CHG  1  11   1
M  CHG  1  15   1
M  END
> <s_m_source_file>
AV-unprocessed.smi

> <i_m_source_file_index>
907

> <i_lp_mmshare_version>
43012

> <i_f3d_flags>
0

> <s_epik_input>
W0NIMl0xW0NIMl1bQ0BASF0oW0NIMl0yKVtDQEBIXShbQ0gyXVtDQEhdMTIpTihbQ0gyXVtDSDJdMylbQ0gyXVtDSDJdTjNDKD1PKVtOSF1bQ0gyXVtDSDJdYzRbY0hdW2NIXVtjSF1bY0hdbjQ=

> <s_epik_cmdline>
J2VwaWtfcHl0aG9uJywgJy1waCcsICc3LjAnLCAnLXRuJywgJzgnLCAnLW1hJywgJzIwMCcsICctbWV0YWxfYmluZGluZycsICctaW1hZScsICc8aW5maWxlLm1hZT4nLCAnLW9tYWUnLCAnPG91dGZpbGUubWFlPic=

> <r_epik_Ionization_Penalty>
1.63018

> <r_epik_Ionization_Penalty_Charging>
1.63015

> <r_epik_Ionization_Penalty_Neutral>
2.64641e-05

> <r_epik_State_Penalty>
1.72761

> <r_epik_Charging_Adjusted_Penalty>
3.35777

> <i_epik_Tot_Q>
2

> <i_epik_Tot_abs_Q>
2

> <r_epik_Metal_State_Penalty>
1.76501

> <b_epik_Metal_Only>
0

> <s_lp_Force_Field>
OPLS_2005

> <r_lp_Energy>
104.955

> <b_lp_Chiralities_Consistent>
1

> <s_lp_Variant>
AV-unprocessed.smi:907-7

> <Gold.Version>
5.8.1

> <Gold.Id.Protein>
6NUR|6NUR_protein|mol2

> <Gold.PLP.Fitness>
53.1970

> <Gold.PLP.PLP>
-41.3026

> <Gold.PLP.part.hbond>
-3.6907

> <Gold.PLP.part.metal>
0.0000

> <Gold.PLP.part.buried>
-3.2430

> <Gold.PLP.part.nonpolar>
-38.7579

> <Gold.PLP.part.repulsive>
3.9372

> <Gold.PLP.ligand.clash>
0.6349

> <Gold.PLP.ligand.torsion>
0.7675

> <Gold.PLP.Chemscore.Hbond>
4.6560

> <Gold.PLP.Chemscore.CHOScore>
0.0000

> <Gold.PLP.Chemscore.Metal>
0.0000

> <Gold.Chemscore.Hbonds>
donor molecule, donor type, donor heavy atom, donor atom, acceptor molecule, acceptor atom, score
      L1  H    11    54       P1  8028  1.98
      L1  H    15    53       P1 10175  2.00
      P1  H  7989  7998       L1     1  0.69

> <Gold.PLP.Chemscore.Internal.Correction>
0.0962

> <Gold.Rescore>
     Score         DG    S(hbond)    S(metal)    S(lipo)     H(rot)  DE(clash)    DE(int)     intcor
     19.96     -23.65       2.68        0.00     110.74       1.46       2.83       0.86       ----

> <Gold.Chemscore.Fitness>
19.9588

> <Gold.Chemscore.DG>
-23.6516

> <Gold.Chemscore.ZeroCoef>
-5.4800

> <Gold.Chemscore.Hbond>
2.6781

> <Gold.Chemscore.Metal>
0.0000

> <Gold.Chemscore.Lipo>
110.7446

> <Gold.Chemscore.Internal_Hbond>
0.0000

> <Gold.Chemscore.DEClash>
2.8321

> <Gold.Chemscore.DEInternal>
0.8607

> <Gold.Chemscore.Rot>
1.4572

> <Gold.Chemscore.Internal.Correction>
   9.000000E+99

> <Gold.Chemscore.Hbonds>
donor molecule, donor type, donor heavy atom, donor atom, acceptor molecule, acceptor atom, score
      L1  H    11    54       P1  8028  0.46
      L1  H    15    53       P1 10175  1.00
      P1  H  7989  7998       L1     1  0.68

> <Gold.Chemscore.Hbond.Weighted>
-8.9450

> <Gold.Chemscore.Metal.Weighted>
-0.0000

> <Gold.Chemscore.Lipo.Weighted>
-12.9571

> <Gold.Chemscore.Internal_Hbond.Weighted>
0.0000

> <Gold.Chemscore.DEClash.Weighted>
2.8321

> <Gold.Chemscore.DEInternal.Weighted>
0.8607

> <Gold.Chemscore.Rot.Weighted>
3.7305

> <Gold.Chemscore.Internal.Correction.Weighted>
   9.000000E+99

> <Gold.Protein.RotatedTorsions>
[ 6907 6896 6895 6894 ] final  -32.46 input  -60.11 | X-H torsion
[ 7974 7965 7964 7962 ] final  102.85 input  175.53 | X-H torsion
[ 8008 7997 7996 7995 ] final  -84.13 input   59.86 | X-H torsion
[ 10167 10162 10161 10158 ] final  -60.47 input  -65.29 | X-H torsion
[ 10718 10713 10712 10709 ] final   55.51 input   66.30 | X-H torsion
[ 10763 10752 10751 10750 ] final   65.94 input  -60.55 | X-H torsion
[ 11005 11000 10999 10996 ] final   64.87 input  -57.11 | X-H torsion

> <Gold.Protein.ActiveResidues>
 VAL166  LYS551  ARG553  GLY616  TRP617  ASP618  TYR619  PRO620  LYS621  CYS622 
 ASP623  PHE694  ASN695  SER759  ASP760  ASP761  ALA762  ILE779  LEU786  VAL792 
 PHE793  MET794  SER795  GLU796  ALA797  LYS798  CYS799  TRP800  GLU811  SER814 

> <Gold.Protein.RotatedAtoms>
  151.0785  134.9843  159.8343 H   0  0  0  0  0  0  0  0  0  0  0  0  # atno 6907 bound_to 6896
  152.5417  134.2211  159.8798 H   0  0  0  0  0  0  0  0  0  0  0  0  # atno 6908 bound_to 6896
  151.2240  133.4443  159.2635 H   0  0  0  0  0  0  0  0  0  0  0  0  # atno 6909 bound_to 6896
  145.3537  139.2433  143.3544 H   0  0  0  0  0  0  0  0  0  0  0  0  # atno 7974 bound_to 7965
  154.6265  140.0609  156.9679 H   0  0  0  0  0  0  0  0  0  0  0  0  # atno 8008 bound_to 7997
  155.1734  140.3293  155.4370 H   0  0  0  0  0  0  0  0  0  0  0  0  # atno 8009 bound_to 7997
  156.2460  140.1910  156.6835 H   0  0  0  0  0  0  0  0  0  0  0  0  # atno 8010 bound_to 7997
  140.6069  143.2376  151.5800 H   0  0  0  0  0  0  0  0  0  0  0  0  # atno 10167 bound_to 10162
  157.5351  130.8657  149.8742 H   0  0  0  0  0  0  0  0  0  0  0  0  # atno 10718 bound_to 10713
  153.0118  135.5338  154.6746 H   0  0  0  0  0  0  0  0  0  0  0  0  # atno 10763 bound_to 10752
  154.5922  135.2860  155.0626 H   0  0  0  0  0  0  0  0  0  0  0  0  # atno 10764 bound_to 10752
  154.1714  135.6531  153.5063 H   0  0  0  0  0  0  0  0  0  0  0  0  # atno 10765 bound_to 10752
  139.9931  134.6560  156.0057 H   0  0  0  0  0  0  0  0  0  0  0  0  # atno 11005 bound_to 11000
  146.2957  140.4158  142.8722 LP  0  0  0  0  0  0  0  0  0  0  0  0  # atno 17320 bound_to 7965
  144.8698  140.7257  143.6054 LP  0  0  0  0  0  0  0  0  0  0  0  0  # atno 17321 bound_to 7965
  139.5332  144.2857  152.1193 LP  0  0  0  0  0  0  0  0  0  0  0  0  # atno 17342 bound_to 10162
  140.2048  144.4621  150.6414 LP  0  0  0  0  0  0  0  0  0  0  0  0  # atno 17343 bound_to 10162
  156.0452  130.3729  150.1335 LP  0  0  0  0  0  0  0  0  0  0  0  0  # atno 17370 bound_to 10713
  156.9518  130.9777  151.3496 LP  0  0  0  0  0  0  0  0  0  0  0  0  # atno 17371 bound_to 10713
  141.1582  133.6541  156.4231 LP  0  0  0  0  0  0  0  0  0  0  0  0  # atno 17394 bound_to 11000
  140.4870  134.6611  157.5195 LP  0  0  0  0  0  0  0  0  0  0  0  0  # atno 17395 bound_to 11000

$$$$
