AV-unprocessed.smi:538|AV-procd|sdf|2866|dock4
  -GOLD-   2262023353D 1   1.00000     0.00000
 Structure written by MMmdl.
 43 44  0  0  0  0  0  0  0  0  1 V2000
  146.1469  142.9349  153.7782 C   0  0  0  0  0  0  0  0  0  0  0  0
  146.3576  142.0589  154.8713 O   0  0  0  0  0  0  0  0  0  0  0  0
  147.2495  141.0025  154.5549 C   0  0  0  0  0  0  0  0  0  0  0  0
  148.6449  141.5826  154.2917 C   0  0  0  0  0  0  0  0  0  0  0  0
  149.6768  140.8692  155.0216 N   0  0  0  0  0  0  0  0  0  0  0  0
  150.4131  141.1963  156.1535 C   0  0  0  0  0  0  0  0  0  0  0  0
  150.2882  142.3379  156.8338 N   0  0  0  0  0  0  0  0  0  0  0  0
  151.2245  142.1931  157.8481 C   0  0  0  0  0  0  0  0  0  0  0  0
  151.8676  141.0055  157.7507 C   0  0  0  0  0  0  0  0  0  0  0  0
  152.9186  140.5919  158.6859 C   0  0  0  0  0  0  0  0  0  0  0  0
  153.4950  139.5091  158.5697 O   0  0  0  0  0  0  0  0  0  0  0  0
  153.1846  141.5080  159.6684 N   0  0  0  0  0  0  0  0  0  0  0  0
  154.2346  141.1260  160.6312 C   0  0  0  0  0  0  0  0  0  0  0  0
  152.5447  142.7275  159.8159 C   0  0  0  0  0  0  0  0  0  0  0  0
  152.8261  143.4971  160.7382 O   0  0  0  0  0  0  0  0  0  0  0  0
  151.5759  143.0709  158.9060 N   0  0  0  0  0  0  0  0  0  0  0  0
  150.8799  144.3551  159.0270 C   0  0  0  0  0  0  0  0  0  0  0  0
  151.3382  140.3360  156.6466 N   0  0  0  0  0  0  0  0  0  0  0  0
  151.6985  139.0171  156.1341 C   0  0  0  0  0  0  0  0  0  0  0  0
  152.2063  139.0789  154.6869 C   0  0  0  0  0  0  0  0  0  0  0  0
  153.6007  139.3383  154.6814 O   0  0  0  0  0  0  0  0  0  0  0  0
  154.3691  138.1753  154.4307 C   0  0  0  0  0  0  0  0  0  0  0  0
  145.4536  143.7239  154.0694 H   0  0  0  0  0  0  0  0  0  0  0  0
  145.7179  142.4070  152.9256 H   0  0  0  0  0  0  0  0  0  0  0  0
  147.0799  143.4058  153.4658 H   0  0  0  0  0  0  0  0  0  0  0  0
  147.2974  140.3089  155.3955 H   0  0  0  0  0  0  0  0  0  0  0  0
  146.8951  140.4395  153.6898 H   0  0  0  0  0  0  0  0  0  0  0  0
  148.8736  141.5589  153.2261 H   0  0  0  0  0  0  0  0  0  0  0  0
  148.6733  142.6282  154.5990 H   0  0  0  0  0  0  0  0  0  0  0  0
  149.8803  139.9565  154.6404 H   0  0  0  0  0  0  0  0  0  0  0  0
  154.4989  141.8964  161.3558 H   0  0  0  0  0  0  0  0  0  0  0  0
  155.1595  140.8705  160.1113 H   0  0  0  0  0  0  0  0  0  0  0  0
  153.9205  140.2512  161.2030 H   0  0  0  0  0  0  0  0  0  0  0  0
  151.5914  145.1819  159.0054 H   0  0  0  0  0  0  0  0  0  0  0  0
  150.3294  144.4032  159.9677 H   0  0  0  0  0  0  0  0  0  0  0  0
  150.1641  144.5258  158.2225 H   0  0  0  0  0  0  0  0  0  0  0  0
  152.4521  138.5758  156.7854 H   0  0  0  0  0  0  0  0  0  0  0  0
  150.8353  138.3544  156.1980 H   0  0  0  0  0  0  0  0  0  0  0  0
  151.9993  138.1373  154.1760 H   0  0  0  0  0  0  0  0  0  0  0  0
  151.6794  139.8656  154.1450 H   0  0  0  0  0  0  0  0  0  0  0  0
  155.4286  138.4310  154.4265 H   0  0  0  0  0  0  0  0  0  0  0  0
  154.1234  137.7408  153.4608 H   0  0  0  0  0  0  0  0  0  0  0  0
  154.2075  137.4227  155.2034 H   0  0  0  0  0  0  0  0  0  0  0  0
  1  2  1  0  0  0  0
  1 23  1  0  0  0  0
  1 24  1  0  0  0  0
  1 25  1  0  0  0  0
  2  3  1  0  0  0  0
  3  4  1  0  0  0  0
  3 26  1  0  0  0  0
  3 27  1  0  0  0  0
  4  5  1  0  0  0  0
  4 28  1  0  0  0  0
  4 29  1  0  0  0  0
  5  6  1  0  0  0  0
  5 30  1  0  0  0  0
  6 18  1  0  0  0  0
  6  7  2  0  0  0  0
  7  8  1  0  0  0  0
  8 16  1  0  0  0  0
  8  9  2  0  0  0  0
  9 10  1  0  0  0  0
  9 18  1  0  0  0  0
 10 11  2  0  0  0  0
 10 12  1  0  0  0  0
 12 13  1  0  0  0  0
 12 14  1  0  0  0  0
 13 31  1  0  0  0  0
 13 32  1  0  0  0  0
 13 33  1  0  0  0  0
 14 15  2  0  0  0  0
 14 16  1  0  0  0  0
 16 17  1  0  0  0  0
 17 34  1  0  0  0  0
 17 35  1  0  0  0  0
 17 36  1  0  0  0  0
 18 19  1  0  0  0  0
 19 20  1  0  0  0  0
 19 37  1  0  0  0  0
 19 38  1  0  0  0  0
 20 21  1  0  0  0  0
 20 39  1  0  0  0  0
 20 40  1  0  0  0  0
 21 22  1  0  0  0  0
 22 41  1  0  0  0  0
 22 42  1  0  0  0  0
 22 43  1  0  0  0  0
M  END
> <s_m_source_file>
AV-unprocessed.smi

> <i_m_source_file_index>
538

> <i_lp_mmshare_version>
43012

> <i_f3d_flags>
0

> <s_epik_input>
W0NIM11PW0NIMl1bQ0gyXVtOSF1jKG4xKW4oW0NIMl1bQ0gyXU9bQ0gzXSljKGMxMiljKD1PKW4oW0NIM10pYyg9TyluMltDSDNd

> <s_epik_cmdline>
J2VwaWtfcHl0aG9uJywgJy1waCcsICc3LjAnLCAnLXRuJywgJzgnLCAnLW1hJywgJzIwMCcsICctbWV0YWxfYmluZGluZycsICctaW1hZScsICc8aW5maWxlLm1hZT4nLCAnLW9tYWUnLCAnPG91dGZpbGUubWFlPic=

> <r_lp_tautomer_probability>
1

> <r_epik_Ionization_Penalty>
5.57243e-05

> <r_epik_Ionization_Penalty_Charging>
2.44156e-09

> <r_epik_Ionization_Penalty_Neutral>
5.57218e-05

> <r_epik_State_Penalty>
-0

> <r_epik_Charging_Adjusted_Penalty>
2.44156e-09

> <i_epik_Tot_Q>
0

> <i_epik_Tot_abs_Q>
0

> <r_epik_Metal_State_Penalty>
-0

> <b_epik_Metal_Only>
0

> <s_lp_Force_Field>
OPLS_2005

> <r_lp_Energy>
28.2468

> <b_lp_Chiralities_Consistent>
1

> <s_lp_Variant>
AV-unprocessed.smi:538-1

> <Gold.Version>
5.8.1

> <Gold.Id.Protein>
6NUR|6NUR_protein|mol2

> <Gold.PLP.Fitness>
46.1491

> <Gold.PLP.PLP>
-41.9035

> <Gold.PLP.part.hbond>
-2.3920

> <Gold.PLP.part.metal>
0.0000

> <Gold.PLP.part.buried>
-1.9851

> <Gold.PLP.part.nonpolar>
-38.3364

> <Gold.PLP.part.repulsive>
1.3334

> <Gold.PLP.ligand.clash>
0.0000

> <Gold.PLP.ligand.torsion>
0.9003

> <Gold.PLP.Chemscore.Hbond>
2.0000

> <Gold.PLP.Chemscore.CHOScore>
0.0000

> <Gold.PLP.Chemscore.Metal>
0.0000

> <Gold.Chemscore.Hbonds>
donor molecule, donor type, donor heavy atom, donor atom, acceptor molecule, acceptor atom, score
      P1  H  7997  8008       L1    21  1.00
      P1  H  7997  8010       L1    11  1.00

> <Gold.PLP.Chemscore.Internal.Correction>
0.0463

> <Gold.Rescore>
     Score         DG    S(hbond)    S(metal)    S(lipo)     H(rot)  DE(clash)    DE(int)     intcor
      9.74     -12.00       1.25        0.00      70.01       2.28       1.36       0.90       ----

> <Gold.Chemscore.Fitness>
9.7449

> <Gold.Chemscore.DG>
-12.0035

> <Gold.Chemscore.ZeroCoef>
-5.4800

> <Gold.Chemscore.Hbond>
1.2481

> <Gold.Chemscore.Metal>
0.0000

> <Gold.Chemscore.Lipo>
70.0077

> <Gold.Chemscore.Internal_Hbond>
0.0000

> <Gold.Chemscore.DEClash>
1.3566

> <Gold.Chemscore.DEInternal>
0.9020

> <Gold.Chemscore.Rot>
2.2797

> <Gold.Chemscore.Internal.Correction>
   9.000000E+99

> <Gold.Chemscore.Hbonds>
donor molecule, donor type, donor heavy atom, donor atom, acceptor molecule, acceptor atom, score
      P1  H  7997  8008       L1    21  0.25
      P1  H  7997  8010       L1    11  0.23

> <Gold.Chemscore.Hbond.Weighted>
-4.1688

> <Gold.Chemscore.Metal.Weighted>
-0.0000

> <Gold.Chemscore.Lipo.Weighted>
-8.1909

> <Gold.Chemscore.Internal_Hbond.Weighted>
0.0000

> <Gold.Chemscore.DEClash.Weighted>
1.3566

> <Gold.Chemscore.DEInternal.Weighted>
0.9020

> <Gold.Chemscore.Rot.Weighted>
5.8361

> <Gold.Chemscore.Internal.Correction.Weighted>
   9.000000E+99

> <Gold.Protein.RotatedTorsions>
[ 6907 6896 6895 6894 ] final   29.60 input  -60.11 | X-H torsion
[ 7974 7965 7964 7962 ] final  -48.03 input  175.53 | X-H torsion
[ 8008 7997 7996 7995 ] final    7.25 input   59.86 | X-H torsion
[ 10167 10162 10161 10158 ] final    4.23 input  -65.29 | X-H torsion
[ 10718 10713 10712 10709 ] final   93.79 input   66.30 | X-H torsion
[ 10763 10752 10751 10750 ] final  -34.00 input  -60.55 | X-H torsion
[ 11005 11000 10999 10996 ] final  154.13 input  -57.11 | X-H torsion

> <Gold.Protein.ActiveResidues>
 VAL166  LYS551  ARG553  GLY616  TRP617  ASP618  TYR619  PRO620  LYS621  CYS622 
 ASP623  PHE694  ASN695  SER759  ASP760  ASP761  ALA762  ILE779  LEU786  VAL792 
 PHE793  MET794  SER795  GLU796  ALA797  LYS798  CYS799  TRP800  GLU811  SER814 

> <Gold.Protein.RotatedAtoms>
  152.0339  134.9752  160.0572 H   0  0  0  0  0  0  0  0  0  0  0  0  # atno 6907 bound_to 6896
  152.1217  133.4352  159.4687 H   0  0  0  0  0  0  0  0  0  0  0  0  # atno 6908 bound_to 6896
  150.6849  134.2445  159.4529 H   0  0  0  0  0  0  0  0  0  0  0  0  # atno 6909 bound_to 6896
  145.9555  140.7531  142.9483 H   0  0  0  0  0  0  0  0  0  0  0  0  # atno 7974 bound_to 7965
  154.7514  140.2767  155.6289 H   0  0  0  0  0  0  0  0  0  0  0  0  # atno 8008 bound_to 7997
  156.2896  140.2677  156.2195 H   0  0  0  0  0  0  0  0  0  0  0  0  # atno 8009 bound_to 7997
  155.0132  140.0372  157.2397 H   0  0  0  0  0  0  0  0  0  0  0  0  # atno 8010 bound_to 7997
  140.6545  143.7461  150.7631 H   0  0  0  0  0  0  0  0  0  0  0  0  # atno 10167 bound_to 10162
  157.6952  131.0490  150.4088 H   0  0  0  0  0  0  0  0  0  0  0  0  # atno 10718 bound_to 10713
  153.8395  135.6859  153.4804 H   0  0  0  0  0  0  0  0  0  0  0  0  # atno 10763 bound_to 10752
  153.1462  135.4637  154.9568 H   0  0  0  0  0  0  0  0  0  0  0  0  # atno 10764 bound_to 10752
  154.7851  135.3282  154.7850 H   0  0  0  0  0  0  0  0  0  0  0  0  # atno 10765 bound_to 10752
  140.1461  134.8706  157.2394 H   0  0  0  0  0  0  0  0  0  0  0  0  # atno 11005 bound_to 11000
  144.6804  140.2504  143.7332 LP  0  0  0  0  0  0  0  0  0  0  0  0  # atno 17320 bound_to 7965
  145.8113  139.2004  143.1991 LP  0  0  0  0  0  0  0  0  0  0  0  0  # atno 17321 bound_to 7965
  140.1118  143.4692  152.2365 LP  0  0  0  0  0  0  0  0  0  0  0  0  # atno 17342 bound_to 10162
  139.5766  144.7490  151.3750 LP  0  0  0  0  0  0  0  0  0  0  0  0  # atno 17343 bound_to 10162
  156.4474  130.4004  149.6658 LP  0  0  0  0  0  0  0  0  0  0  0  0  # atno 17370 bound_to 10713
  156.3820  130.7583  151.2577 LP  0  0  0  0  0  0  0  0  0  0  0  0  # atno 17371 bound_to 10713
  140.2662  134.3513  155.7389 LP  0  0  0  0  0  0  0  0  0  0  0  0  # atno 17394 bound_to 11000
  141.2193  133.7397  156.9154 LP  0  0  0  0  0  0  0  0  0  0  0  0  # atno 17395 bound_to 11000

$$$$
