AV-unprocessed.smi:1407|AV-procd|sdf|5725|dock7
  -GOLD-   22720 5363D 1   1.00000     0.00000
 Structure written by MMmdl.
 50 51  0  0  0  0  0  0  0  0  2 V2000
  149.6653  135.4646  155.2233 C   0  0  0  0  0  0  0  0  0  0  0  0
  148.7950  136.5275  154.6519 N   0  3  0  0  0  0  0  0  0  0  0  0
  147.3762  136.0733  154.6545 C   0  0  0  0  0  0  0  0  0  0  0  0
  149.0468  137.9314  155.1602 C   0  0  0  0  0  0  0  0  0  0  0  0
  148.2936  138.0952  156.5232 C   0  0  0  0  0  0  0  0  0  0  0  0
  148.7714  137.1805  157.5583 N   0  0  0  0  0  0  0  0  0  0  0  0
  148.0759  136.7111  158.6070 C   0  0  0  0  0  0  0  0  0  0  0  0
  146.8995  137.0043  158.8123 O   0  0  0  0  0  0  0  0  0  0  0  0
  148.8027  135.7877  159.6000 C   0  0  0  0  0  0  0  0  0  0  0  0
  147.9298  135.1654  160.6124 N   0  0  0  0  0  0  0  0  0  0  0  0
  147.8223  133.7605  160.5827 C   0  0  0  0  0  0  0  0  0  0  0  0
  147.0382  133.0899  161.4413 C   0  0  0  0  0  0  0  0  0  0  0  0
  146.2943  133.8473  162.4196 C   0  0  0  0  0  0  0  0  0  0  0  0
  146.3881  135.1915  162.4556 C   0  0  0  0  0  0  0  0  0  0  0  0
  147.2354  135.9292  161.5115 C   0  0  0  0  0  0  0  0  0  0  0  0
  147.3071  137.1579  161.5199 O   0  0  0  0  0  0  0  0  0  0  0  0
  150.5828  138.1265  155.3997 C   0  0  0  0  0  0  0  0  0  0  0  0
  151.2376  139.4871  155.0921 C   0  0  0  0  0  0  0  0  0  0  0  0
  150.5502  140.7300  155.6704 C   0  0  0  0  0  0  0  0  0  0  0  0
  149.4802  141.2925  154.7275 C   0  0  0  0  0  0  0  0  0  0  0  0
  148.2259  140.4222  154.5913 C   0  0  0  0  0  0  0  0  0  0  0  0
  148.4690  138.9658  154.1273 C   0  0  0  0  0  0  0  0  0  0  0  0
  149.5854  135.4199  156.3094 H   0  0  0  0  0  0  0  0  0  0  0  0
  150.7131  135.5998  154.9585 H   0  0  0  0  0  0  0  0  0  0  0  0
  149.3833  134.4862  154.8320 H   0  0  0  0  0  0  0  0  0  0  0  0
  147.0208  135.8481  155.6598 H   0  0  0  0  0  0  0  0  0  0  0  0
  147.2835  135.1576  154.0699 H   0  0  0  0  0  0  0  0  0  0  0  0
  146.6879  136.7868  154.2090 H   0  0  0  0  0  0  0  0  0  0  0  0
  148.3148  139.1191  156.8925 H   0  0  0  0  0  0  0  0  0  0  0  0
  147.2307  137.9014  156.3996 H   0  0  0  0  0  0  0  0  0  0  0  0
  149.7312  136.8773  157.4712 H   0  0  0  0  0  0  0  0  0  0  0  0
  149.3124  135.0112  159.0275 H   0  0  0  0  0  0  0  0  0  0  0  0
  149.6043  136.3548  160.0762 H   0  0  0  0  0  0  0  0  0  0  0  0
  148.4079  133.2714  159.8175 H   0  0  0  0  0  0  0  0  0  0  0  0
  146.9653  132.0130  161.4010 H   0  0  0  0  0  0  0  0  0  0  0  0
  145.6611  133.3336  163.1283 H   0  0  0  0  0  0  0  0  0  0  0  0
  145.8255  135.7411  163.1960 H   0  0  0  0  0  0  0  0  0  0  0  0
  150.8221  137.8521  156.4281 H   0  0  0  0  0  0  0  0  0  0  0  0
  151.1469  137.4182  154.7944 H   0  0  0  0  0  0  0  0  0  0  0  0
  152.2548  139.4510  155.4840 H   0  0  0  0  0  0  0  0  0  0  0  0
  151.3583  139.6024  154.0143 H   0  0  0  0  0  0  0  0  0  0  0  0
  150.1552  140.5430  156.6679 H   0  0  0  0  0  0  0  0  0  0  0  0
  151.3089  141.5031  155.7988 H   0  0  0  0  0  0  0  0  0  0  0  0
  149.1785  142.2771  155.0864 H   0  0  0  0  0  0  0  0  0  0  0  0
  149.9154  141.4608  153.7416 H   0  0  0  0  0  0  0  0  0  0  0  0
  147.6421  140.4660  155.5086 H   0  0  0  0  0  0  0  0  0  0  0  0
  147.5870  140.9001  153.8477 H   0  0  0  0  0  0  0  0  0  0  0  0
  149.0884  138.9932  153.2301 H   0  0  0  0  0  0  0  0  0  0  0  0
  147.4959  138.6017  153.7941 H   0  0  0  0  0  0  0  0  0  0  0  0
  149.0487  136.5673  153.6748 H   0  0  0  0  0  0  0  0  0  0  0  0
  1  2  1  0  0  0  0
  1 23  1  0  0  0  0
  1 24  1  0  0  0  0
  1 25  1  0  0  0  0
  2  3  1  0  0  0  0
  2  4  1  0  0  0  0
  2 50  1  0  0  0  0
  3 26  1  0  0  0  0
  3 27  1  0  0  0  0
  3 28  1  0  0  0  0
  4 22  1  0  0  0  0
  4  5  1  0  0  0  0
  4 17  1  0  0  0  0
  5  6  1  0  0  0  0
  5 29  1  0  0  0  0
  5 30  1  0  0  0  0
  6  7  1  0  0  0  0
  6 31  1  0  0  0  0
  7  8  2  0  0  0  0
  7  9  1  0  0  0  0
  9 10  1  0  0  0  0
  9 32  1  0  0  0  0
  9 33  1  0  0  0  0
 10 15  1  0  0  0  0
 10 11  1  0  0  0  0
 11 12  2  0  0  0  0
 11 34  1  0  0  0  0
 12 13  1  0  0  0  0
 12 35  1  0  0  0  0
 13 14  2  0  0  0  0
 13 36  1  0  0  0  0
 14 15  1  0  0  0  0
 14 37  1  0  0  0  0
 15 16  2  0  0  0  0
 17 18  1  0  0  0  0
 17 38  1  0  0  0  0
 17 39  1  0  0  0  0
 18 19  1  0  0  0  0
 18 40  1  0  0  0  0
 18 41  1  0  0  0  0
 19 20  1  0  0  0  0
 19 42  1  0  0  0  0
 19 43  1  0  0  0  0
 20 21  1  0  0  0  0
 20 44  1  0  0  0  0
 20 45  1  0  0  0  0
 21 22  1  0  0  0  0
 21 46  1  0  0  0  0
 21 47  1  0  0  0  0
 22 48  1  0  0  0  0
 22 49  1  0  0  0  0
M  CHG  1   2   1
M  END
> <s_m_source_file>
AV-unprocessed.smi

> <i_m_source_file_index>
1407

> <i_lp_mmshare_version>
43012

> <i_f3d_flags>
0

> <s_epik_input>
W0NIMl0xW0NIMl1bQ0gyXVtDSDJdW0NIMl1bQ0gyXUMxKE4oW0NIM10pW0NIM10pW0NIMl1bTkhdQyg9TylbQ0gyXW4yW2NIXVtjSF1bY0hdW2NIXWMyPU8=

> <s_epik_cmdline>
J2VwaWtfcHl0aG9uJywgJy1waCcsICc3LjAnLCAnLXRuJywgJzgnLCAnLW1hJywgJzIwMCcsICctbWV0YWxfYmluZGluZycsICctaW1hZScsICc8aW5maWxlLm1hZT4nLCAnLW9tYWUnLCAnPG91dGZpbGUubWFlPic=

> <r_lp_tautomer_probability>
1

> <r_epik_Ionization_Penalty>
0.00225809

> <r_epik_Ionization_Penalty_Charging>
0.00225802

> <r_epik_Ionization_Penalty_Neutral>
7.38919e-08

> <r_epik_State_Penalty>
0.00155497

> <r_epik_Charging_Adjusted_Penalty>
0.00381299

> <i_epik_Tot_Q>
1

> <i_epik_Tot_abs_Q>
1

> <r_epik_Metal_State_Penalty>
-0

> <b_epik_Metal_Only>
0

> <s_lp_Force_Field>
OPLS_2005

> <r_lp_Energy>
50.9808

> <b_lp_Chiralities_Consistent>
1

> <s_lp_Variant>
AV-unprocessed.smi:1407-1

> <Gold.Version>
5.8.1

> <Gold.Id.Protein>
6NUR|6NUR_protein|mol2

> <Gold.PLP.Fitness>
46.4363

> <Gold.PLP.PLP>
-36.3805

> <Gold.PLP.part.hbond>
-3.0000

> <Gold.PLP.part.metal>
0.0000

> <Gold.PLP.part.buried>
-0.7186

> <Gold.PLP.part.nonpolar>
-31.9626

> <Gold.PLP.part.repulsive>
0.0328

> <Gold.PLP.ligand.clash>
0.0000

> <Gold.PLP.ligand.torsion>
0.7063

> <Gold.PLP.Chemscore.Hbond>
3.7760

> <Gold.PLP.Chemscore.CHOScore>
0.0000

> <Gold.PLP.Chemscore.Metal>
0.0000

> <Gold.Chemscore.Hbonds>
donor molecule, donor type, donor heavy atom, donor atom, acceptor molecule, acceptor atom, score
      L1  H     2    50       P1  7948  2.00
      P1  H  6931  6943       L1    16  0.80
      P1  H  6934  6947       L1    16  0.93

> <Gold.PLP.Chemscore.Internal.Correction>
0.1403

> <Gold.Rescore>
     Score         DG    S(hbond)    S(metal)    S(lipo)     H(rot)  DE(clash)    DE(int)     intcor
     18.15     -19.34       2.62        0.00      83.47       1.81       0.15       1.03       ----

> <Gold.Chemscore.Fitness>
18.1546

> <Gold.Chemscore.DG>
-19.3378

> <Gold.Chemscore.ZeroCoef>
-5.4800

> <Gold.Chemscore.Hbond>
2.6160

> <Gold.Chemscore.Metal>
0.0000

> <Gold.Chemscore.Lipo>
83.4661

> <Gold.Chemscore.Internal_Hbond>
0.0000

> <Gold.Chemscore.DEClash>
0.1519

> <Gold.Chemscore.DEInternal>
1.0313

> <Gold.Chemscore.Rot>
1.8145

> <Gold.Chemscore.Internal.Correction>
   9.000000E+99

> <Gold.Chemscore.Hbonds>
donor molecule, donor type, donor heavy atom, donor atom, acceptor molecule, acceptor atom, score
      L1  H     2    50       P1  7948  0.99
      P1  H  6931  6943       L1    16  0.75
      P1  H  6934  6947       L1    16  0.90

> <Gold.Chemscore.Hbond.Weighted>
-8.7374

> <Gold.Chemscore.Metal.Weighted>
-0.0000

> <Gold.Chemscore.Lipo.Weighted>
-9.7655

> <Gold.Chemscore.Internal_Hbond.Weighted>
0.0000

> <Gold.Chemscore.DEClash.Weighted>
0.1519

> <Gold.Chemscore.DEInternal.Weighted>
1.0313

> <Gold.Chemscore.Rot.Weighted>
4.6451

> <Gold.Chemscore.Internal.Correction.Weighted>
   9.000000E+99

> <Gold.Protein.RotatedTorsions>
[ 6907 6896 6895 6894 ] final   95.26 input  -60.11 | X-H torsion
[ 7974 7965 7964 7962 ] final  -36.91 input  175.53 | X-H torsion
[ 8008 7997 7996 7995 ] final  159.13 input   59.86 | X-H torsion
[ 10167 10162 10161 10158 ] final   66.28 input  -65.29 | X-H torsion
[ 10718 10713 10712 10709 ] final  -13.97 input   66.30 | X-H torsion
[ 10763 10752 10751 10750 ] final  -34.63 input  -60.55 | X-H torsion
[ 11005 11000 10999 10996 ] final  -62.42 input  -57.11 | X-H torsion

> <Gold.Protein.ActiveResidues>
 VAL166  LYS551  ARG553  GLY616  TRP617  ASP618  TYR619  PRO620  LYS621  CYS622 
 ASP623  PHE694  ASN695  SER759  ASP760  ASP761  ALA762  ILE779  LEU786  VAL792 
 PHE793  MET794  SER795  GLU796  ALA797  LYS798  CYS799  TRP800  GLU811  SER814 

> <Gold.Protein.RotatedAtoms>
  152.5445  134.1067  159.8340 H   0  0  0  0  0  0  0  0  0  0  0  0  # atno 6907 bound_to 6896
  151.1139  133.5146  159.2612 H   0  0  0  0  0  0  0  0  0  0  0  0  # atno 6908 bound_to 6896
  151.1854  135.0389  159.8864 H   0  0  0  0  0  0  0  0  0  0  0  0  # atno 6909 bound_to 6896
  146.0621  140.6334  142.8992 H   0  0  0  0  0  0  0  0  0  0  0  0  # atno 7974 bound_to 7965
  156.2258  140.1839  156.7366 H   0  0  0  0  0  0  0  0  0  0  0  0  # atno 8008 bound_to 7997
  154.5939  140.0646  156.9305 H   0  0  0  0  0  0  0  0  0  0  0  0  # atno 8009 bound_to 7997
  155.2289  140.3313  155.4308 H   0  0  0  0  0  0  0  0  0  0  0  0  # atno 8010 bound_to 7997
  140.1021  144.4894  150.7031 H   0  0  0  0  0  0  0  0  0  0  0  0  # atno 10167 bound_to 10162
  156.6226  130.4879  149.6159 H   0  0  0  0  0  0  0  0  0  0  0  0  # atno 10718 bound_to 10713
  153.8498  135.6850  153.4793 H   0  0  0  0  0  0  0  0  0  0  0  0  # atno 10763 bound_to 10752
  153.1404  135.4660  154.9484 H   0  0  0  0  0  0  0  0  0  0  0  0  # atno 10764 bound_to 10752
  154.7807  135.3268  154.7943 H   0  0  0  0  0  0  0  0  0  0  0  0  # atno 10765 bound_to 10752
  141.1359  133.6640  156.5525 H   0  0  0  0  0  0  0  0  0  0  0  0  # atno 11005 bound_to 11000
  144.7181  140.4279  143.7029 LP  0  0  0  0  0  0  0  0  0  0  0  0  # atno 17320 bound_to 7965
  145.6542  139.1570  143.2845 LP  0  0  0  0  0  0  0  0  0  0  0  0  # atno 17321 bound_to 7965
  140.6972  143.2411  151.4967 LP  0  0  0  0  0  0  0  0  0  0  0  0  # atno 17342 bound_to 10162
  139.5665  144.2029  152.1773 LP  0  0  0  0  0  0  0  0  0  0  0  0  # atno 17343 bound_to 10162
  156.2299  130.6788  151.1453 LP  0  0  0  0  0  0  0  0  0  0  0  0  # atno 17370 bound_to 10713
  157.7223  131.0673  150.6082 LP  0  0  0  0  0  0  0  0  0  0  0  0  # atno 17371 bound_to 10713
  140.4052  134.7321  157.4803 LP  0  0  0  0  0  0  0  0  0  0  0  0  # atno 17394 bound_to 11000
  140.0467  134.6189  155.8912 LP  0  0  0  0  0  0  0  0  0  0  0  0  # atno 17395 bound_to 11000

$$$$
