AV-unprocessed.smi:2494|AV-procd|sdf|9821|dock4
  -GOLD-   2272013453D 1   1.00000     0.00000
 Structure written by MMmdl.
 30 31  0  0  0  0  0  0  0  0  1 V2000
  148.5937  140.5903  153.5520 O   0  0  0  0  0  0  0  0  0  0  0  0
  149.2693  139.8477  154.5440 C   0  0  0  0  0  0  0  0  0  0  0  0
  150.7500  140.2602  154.5835 C   0  0  0  0  0  0  0  0  0  0  0  0
  151.6671  139.2608  155.3385 C   0  0  2  0  0  0  0  0  0  0  0  0
  151.3379  137.8054  154.9218 C   0  0  0  0  0  0  0  0  0  0  0  0
  152.1200  136.8723  155.6551 O   0  0  0  0  0  0  0  0  0  0  0  0
  151.8587  136.9566  157.0471 C   0  0  0  0  0  0  0  0  0  0  0  0
  152.2633  138.3515  157.5373 C   0  0  0  0  0  0  0  0  0  0  0  0
  151.5550  139.3941  156.8002 N   0  0  0  0  0  0  0  0  0  0  0  0
  151.6706  140.6410  157.4015 C   0  0  0  0  0  0  0  0  0  0  0  0
  150.8579  141.6189  156.9781 N   0  0  0  0  0  0  0  0  0  0  0  0
  151.0041  142.8326  157.5523 C   0  0  0  0  0  0  0  0  0  0  0  0
  151.9749  143.0657  158.5464 C   0  0  0  0  0  0  0  0  0  0  0  0
  152.1674  144.6143  159.2816 Cl  0  0  0  0  0  0  0  0  0  0  0  0
  152.7820  141.9684  158.9066 C   0  0  0  0  0  0  0  0  0  0  0  0
  152.6292  140.7578  158.3271 N   0  0  0  0  0  0  0  0  0  0  0  0
  149.1452  140.6406  152.7860 H   0  0  0  0  0  0  0  0  0  0  0  0
  148.7780  140.0300  155.4992 H   0  0  0  0  0  0  0  0  0  0  0  0
  149.1718  138.7853  154.3191 H   0  0  0  0  0  0  0  0  0  0  0  0
  151.0785  140.3710  153.5507 H   0  0  0  0  0  0  0  0  0  0  0  0
  150.8420  141.2506  155.0316 H   0  0  0  0  0  0  0  0  0  0  0  0
  152.7044  139.4682  155.0717 H   0  0  0  0  0  0  0  0  0  0  0  0
  150.2776  137.5882  155.0633 H   0  0  0  0  0  0  0  0  0  0  0  0
  151.5536  137.6482  153.8658 H   0  0  0  0  0  0  0  0  0  0  0  0
  150.8062  136.7550  157.2533 H   0  0  0  0  0  0  0  0  0  0  0  0
  152.4391  136.1930  157.5651 H   0  0  0  0  0  0  0  0  0  0  0  0
  152.0545  138.4354  158.6047 H   0  0  0  0  0  0  0  0  0  0  0  0
  153.3376  138.4937  157.4114 H   0  0  0  0  0  0  0  0  0  0  0  0
  150.3459  143.6194  157.2142 H   0  0  0  0  0  0  0  0  0  0  0  0
  153.5524  142.0604  159.6577 H   0  0  0  0  0  0  0  0  0  0  0  0
  1  2  1  0  0  0  0
  1 17  1  0  0  0  0
  2  3  1  0  0  0  0
  2 18  1  0  0  0  0
  2 19  1  0  0  0  0
  3  4  1  0  0  0  0
  3 20  1  0  0  0  0
  3 21  1  0  0  0  0
  4  9  1  0  0  0  0
  4  5  1  0  0  0  0
  4 22  1  0  0  0  0
  5  6  1  0  0  0  0
  5 23  1  0  0  0  0
  5 24  1  0  0  0  0
  6  7  1  0  0  0  0
  7  8  1  0  0  0  0
  7 25  1  0  0  0  0
  7 26  1  0  0  0  0
  8  9  1  0  0  0  0
  8 27  1  0  0  0  0
  8 28  1  0  0  0  0
  9 10  1  0  0  0  0
 10 16  1  0  0  0  0
 10 11  2  0  0  0  0
 11 12  1  0  0  0  0
 12 13  2  0  0  0  0
 12 29  1  0  0  0  0
 13 14  1  0  0  0  0
 13 15  1  0  0  0  0
 15 16  2  0  0  0  0
 15 30  1  0  0  0  0
M  END
> <s_m_source_file>
AV-unprocessed.smi

> <i_m_source_file_index>
2494

> <i_lp_mmshare_version>
43012

> <i_f3d_flags>
0

> <s_epik_input>
W09IXVtDSDJdW0NIMl1bQ0BASF0xW0NIMl1PW0NIMl1bQ0gyXU4xYzJuW2NIXWMoQ2wpW2NIXW4y

> <s_epik_cmdline>
J2VwaWtfcHl0aG9uJywgJy1waCcsICc3LjAnLCAnLXRuJywgJzgnLCAnLW1hJywgJzIwMCcsICctbWV0YWxfYmluZGluZycsICctaW1hZScsICc8aW5maWxlLm1hZT4nLCAnLW9tYWUnLCAnPG91dGZpbGUubWFlPic=

> <r_lp_tautomer_probability>
1

> <r_epik_Ionization_Penalty>
3.66811e-07

> <r_epik_Ionization_Penalty_Charging>
0

> <r_epik_Ionization_Penalty_Neutral>
3.66811e-07

> <r_epik_State_Penalty>
-0

> <r_epik_Charging_Adjusted_Penalty>
0

> <i_epik_Tot_Q>
0

> <i_epik_Tot_abs_Q>
0

> <r_epik_Metal_State_Penalty>
-0

> <b_epik_Metal_Only>
0

> <s_lp_Force_Field>
OPLS_2005

> <r_lp_Energy>
15.3646

> <b_lp_Chiralities_Consistent>
1

> <s_lp_Variant>
AV-unprocessed.smi:2494-1

> <Gold.Version>
5.8.1

> <Gold.Id.Protein>
6NUR|6NUR_protein|mol2

> <Gold.PLP.Fitness>
36.1371

> <Gold.PLP.PLP>
-27.5800

> <Gold.PLP.part.hbond>
-2.2991

> <Gold.PLP.part.metal>
0.0000

> <Gold.PLP.part.buried>
-0.8334

> <Gold.PLP.part.nonpolar>
-24.5588

> <Gold.PLP.part.repulsive>
0.0897

> <Gold.PLP.ligand.clash>
0.0000

> <Gold.PLP.ligand.torsion>
0.3789

> <Gold.PLP.Chemscore.Hbond>
2.0000

> <Gold.PLP.Chemscore.CHOScore>
1.0000

> <Gold.PLP.Chemscore.Metal>
0.0000

> <Gold.Chemscore.Hbonds>
donor molecule, donor type, donor heavy atom, donor atom, acceptor molecule, acceptor atom, score
      L1  H     1    17       P1  7957  1.00
      P1  H 10752 10763       L1     6  1.00
      L1  C    12    29       P1  8028  1.00

> <Gold.PLP.Chemscore.Internal.Correction>
0.3150

> <Gold.Rescore>
     Score         DG    S(hbond)    S(metal)    S(lipo)     H(rot)  DE(clash)    DE(int)     intcor
     13.10     -16.27       1.98        0.00      80.42       2.04       1.38       1.79       ----

> <Gold.Chemscore.Fitness>
13.1017

> <Gold.Chemscore.DG>
-16.2683

> <Gold.Chemscore.ZeroCoef>
-5.4800

> <Gold.Chemscore.Hbond>
1.9783

> <Gold.Chemscore.Metal>
0.0000

> <Gold.Chemscore.Lipo>
80.4207

> <Gold.Chemscore.Internal_Hbond>
0.0000

> <Gold.Chemscore.DEClash>
1.3806

> <Gold.Chemscore.DEInternal>
1.7860

> <Gold.Chemscore.Rot>
2.0424

> <Gold.Chemscore.Internal.Correction>
   9.000000E+99

> <Gold.Chemscore.Hbonds>
donor molecule, donor type, donor heavy atom, donor atom, acceptor molecule, acceptor atom, score
      L1  H     1    17       P1  7957  0.95
      P1  H 10752 10763       L1     6  0.93

> <Gold.Chemscore.Hbond.Weighted>
-6.6075

> <Gold.Chemscore.Metal.Weighted>
-0.0000

> <Gold.Chemscore.Lipo.Weighted>
-9.4092

> <Gold.Chemscore.Internal_Hbond.Weighted>
0.0000

> <Gold.Chemscore.DEClash.Weighted>
1.3806

> <Gold.Chemscore.DEInternal.Weighted>
1.7860

> <Gold.Chemscore.Rot.Weighted>
5.2285

> <Gold.Chemscore.Internal.Correction.Weighted>
   9.000000E+99

> <Gold.Protein.RotatedTorsions>
[ 6907 6896 6895 6894 ] final -146.91 input  -60.11 | X-H torsion
[ 7974 7965 7964 7962 ] final   21.45 input  175.53 | X-H torsion
[ 8008 7997 7996 7995 ] final -120.25 input   59.86 | X-H torsion
[ 10167 10162 10161 10158 ] final  121.89 input  -65.29 | X-H torsion
[ 10718 10713 10712 10709 ] final   -6.32 input   66.30 | X-H torsion
[ 10763 10752 10751 10750 ] final   73.42 input  -60.55 | X-H torsion
[ 11005 11000 10999 10996 ] final    4.20 input  -57.11 | X-H torsion

> <Gold.Protein.ActiveResidues>
 VAL166  LYS551  ARG553  GLY616  TRP617  ASP618  TYR619  PRO620  LYS621  CYS622 
 ASP623  PHE694  ASN695  SER759  ASP760  ASP761  ALA762  ILE779  LEU786  VAL792 
 PHE793  MET794  SER795  GLU796  ALA797  LYS798  CYS799  TRP800  GLU811  SER814 

> <Gold.Protein.RotatedAtoms>
  151.1483  133.4925  159.2595 H   0  0  0  0  0  0  0  0  0  0  0  0  # atno 6907 bound_to 6896
  151.1581  135.0260  159.8708 H   0  0  0  0  0  0  0  0  0  0  0  0  # atno 6908 bound_to 6896
  152.5463  134.1359  159.8512 H   0  0  0  0  0  0  0  0  0  0  0  0  # atno 6909 bound_to 6896
  146.2070  139.8025  142.8718 H   0  0  0  0  0  0  0  0  0  0  0  0  # atno 7974 bound_to 7965
  155.1288  140.0400  157.2769 H   0  0  0  0  0  0  0  0  0  0  0  0  # atno 8008 bound_to 7997
  154.6558  140.2579  155.7137 H   0  0  0  0  0  0  0  0  0  0  0  0  # atno 8009 bound_to 7997
  156.2597  140.2827  156.1010 H   0  0  0  0  0  0  0  0  0  0  0  0  # atno 8010 bound_to 7997
  139.5892  144.7018  151.3332 H   0  0  0  0  0  0  0  0  0  0  0  0  # atno 10167 bound_to 10162
  156.7336  130.5188  149.5840 H   0  0  0  0  0  0  0  0  0  0  0  0  # atno 10718 bound_to 10713
  153.0520  135.5063  154.7891 H   0  0  0  0  0  0  0  0  0  0  0  0  # atno 10763 bound_to 10752
  154.6745  135.2958  154.9699 H   0  0  0  0  0  0  0  0  0  0  0  0  # atno 10764 bound_to 10752
  154.0506  135.6704  153.4852 H   0  0  0  0  0  0  0  0  0  0  0  0  # atno 10765 bound_to 10752
  140.5845  133.9981  155.8062 H   0  0  0  0  0  0  0  0  0  0  0  0  # atno 11005 bound_to 11000
  145.3281  141.0260  143.3462 LP  0  0  0  0  0  0  0  0  0  0  0  0  # atno 17320 bound_to 7965
  144.8818  139.4893  143.6719 LP  0  0  0  0  0  0  0  0  0  0  0  0  # atno 17321 bound_to 7965
  140.7158  143.7269  150.7653 LP  0  0  0  0  0  0  0  0  0  0  0  0  # atno 17342 bound_to 10162
  140.0821  143.4959  152.2524 LP  0  0  0  0  0  0  0  0  0  0  0  0  # atno 17343 bound_to 10162
  156.1512  130.6311  151.0598 LP  0  0  0  0  0  0  0  0  0  0  0  0  # atno 17370 bound_to 10713
  157.6848  131.0828  150.7272 LP  0  0  0  0  0  0  0  0  0  0  0  0  # atno 17371 bound_to 10713
  141.0975  133.9821  157.3136 LP  0  0  0  0  0  0  0  0  0  0  0  0  # atno 17394 bound_to 11000
  139.9302  135.0200  156.8373 LP  0  0  0  0  0  0  0  0  0  0  0  0  # atno 17395 bound_to 11000

$$$$
