AV-unprocessed.smi:2949|AV-procd|sdf|11285|dock8
  -GOLD-   2272016173D 1   1.00000     0.00000
 Structure written by MMmdl.
 35 36  0  0  0  0  0  0  0  0  2 V2000
  146.2498  140.9299  153.2261 N   0  0  0  0  0  0  0  0  0  0  0  0
  146.2406  141.4485  154.4565 C   0  0  0  0  0  0  0  0  0  0  0  0
  144.8048  141.8908  155.3305 S   0  0  0  0  0  0  0  0  0  0  0  0
  145.7723  142.3981  156.6820 C   0  0  0  0  0  0  0  0  0  0  0  0
  147.1084  142.2210  156.4368 C   0  0  0  0  0  0  0  0  0  0  0  0
  147.3585  141.6852  155.1749 N   0  3  0  0  0  0  0  0  0  0  0  0
  148.7210  141.3938  154.6845 C   0  0  0  0  0  0  0  0  0  0  0  0
  149.7269  141.1223  155.8123 C   0  0  0  0  0  0  0  0  0  0  0  0
  149.8930  139.9719  156.2266 O   0  0  0  0  0  0  0  0  0  0  0  0
  150.3701  142.2228  156.2652 N   0  0  0  0  0  0  0  0  0  0  0  0
  151.3024  142.3732  157.2365 C   0  0  0  0  0  0  0  0  0  0  0  0
  151.9131  141.3991  157.6728 O   0  0  0  0  0  0  0  0  0  0  0  0
  151.5212  143.6218  157.6903 N   0  0  0  0  0  0  0  0  0  0  0  0
  152.4967  143.9925  158.7113 C   0  0  0  0  0  0  0  0  0  0  0  0
  152.5491  142.9589  159.8562 C   0  0  0  0  0  0  0  0  0  0  0  0
  152.4142  143.7560  161.1551 C   0  0  0  0  0  0  0  0  0  0  0  0
  151.5997  144.9841  160.7618 C   0  0  0  0  0  0  0  0  0  0  0  0
  152.1072  145.3317  159.3625 C   0  0  0  0  0  0  0  0  0  0  0  0
  147.1048  140.6793  152.7509 H   0  0  0  0  0  0  0  0  0  0  0  0
  145.3012  142.7909  157.5711 H   0  0  0  0  0  0  0  0  0  0  0  0
  147.9472  142.4362  157.0834 H   0  0  0  0  0  0  0  0  0  0  0  0
  148.6811  140.5455  153.9995 H   0  0  0  0  0  0  0  0  0  0  0  0
  149.0597  142.2511  154.1011 H   0  0  0  0  0  0  0  0  0  0  0  0
  150.1116  143.0828  155.8036 H   0  0  0  0  0  0  0  0  0  0  0  0
  150.9753  144.3717  157.2900 H   0  0  0  0  0  0  0  0  0  0  0  0
  153.4802  144.0974  158.2494 H   0  0  0  0  0  0  0  0  0  0  0  0
  151.7162  142.2578  159.7823 H   0  0  0  0  0  0  0  0  0  0  0  0
  153.4668  142.3702  159.8350 H   0  0  0  0  0  0  0  0  0  0  0  0
  151.9483  143.1801  161.9552 H   0  0  0  0  0  0  0  0  0  0  0  0
  153.4014  144.0670  161.4998 H   0  0  0  0  0  0  0  0  0  0  0  0
  150.5414  144.7239  160.7157 H   0  0  0  0  0  0  0  0  0  0  0  0
  151.7116  145.8081  161.4669 H   0  0  0  0  0  0  0  0  0  0  0  0
  152.9957  145.9587  159.4509 H   0  0  0  0  0  0  0  0  0  0  0  0
  151.3729  145.8978  158.7874 H   0  0  0  0  0  0  0  0  0  0  0  0
  145.4005  140.7381  152.7142 H   0  0  0  0  0  0  0  0  0  0  0  0
  1  2  1  0  0  0  0
  1 19  1  0  0  0  0
  1 35  1  0  0  0  0
  2  6  2  0  0  0  0
  2  3  1  0  0  0  0
  3  4  1  0  0  0  0
  4  5  2  0  0  0  0
  4 20  1  0  0  0  0
  5  6  1  0  0  0  0
  5 21  1  0  0  0  0
  6  7  1  0  0  0  0
  7  8  1  0  0  0  0
  7 22  1  0  0  0  0
  7 23  1  0  0  0  0
  8  9  2  0  0  0  0
  8 10  1  0  0  0  0
 10 11  1  0  0  0  0
 10 24  1  0  0  0  0
 11 12  2  0  0  0  0
 11 13  1  0  0  0  0
 13 14  1  0  0  0  0
 13 25  1  0  0  0  0
 14 18  1  0  0  0  0
 14 15  1  0  0  0  0
 14 26  1  0  0  0  0
 15 16  1  0  0  0  0
 15 27  1  0  0  0  0
 15 28  1  0  0  0  0
 16 17  1  0  0  0  0
 16 29  1  0  0  0  0
 16 30  1  0  0  0  0
 17 18  1  0  0  0  0
 17 31  1  0  0  0  0
 17 32  1  0  0  0  0
 18 33  1  0  0  0  0
 18 34  1  0  0  0  0
M  CHG  1   6   1
M  END
> <s_m_source_file>
AV-unprocessed.smi

> <i_m_source_file_index>
2949

> <i_lp_mmshare_version>
43012

> <i_f3d_flags>
0

> <s_epik_input>
W0hdL049YzFcc1tjSF1bY0hdbjFbQ0gyXUMoPU8pW05IXUMoPU8pW05IXVtDSF0yW0NIMl1bQ0gyXVtDSDJdW0NIMl0y

> <s_epik_cmdline>
J2VwaWtfcHl0aG9uJywgJy1waCcsICc3LjAnLCAnLXRuJywgJzgnLCAnLW1hJywgJzIwMCcsICctbWV0YWxfYmluZGluZycsICctaW1hZScsICc8aW5maWxlLm1hZT4nLCAnLW9tYWUnLCAnPG91dGZpbGUubWFlPic=

> <r_lp_tautomer_probability>
1

> <r_epik_Ionization_Penalty>
0.019454

> <r_epik_Ionization_Penalty_Charging>
0

> <r_epik_Ionization_Penalty_Neutral>
0.019454

> <r_epik_State_Penalty>
0.0306361

> <r_epik_Charging_Adjusted_Penalty>
0.0306361

> <i_epik_Tot_Q>
1

> <i_epik_Tot_abs_Q>
1

> <r_epik_Metal_State_Penalty>
0.0306361

> <b_epik_Metal_Only>
0

> <s_lp_Force_Field>
OPLS_2005

> <r_lp_Energy>
26.5716

> <b_lp_Chiralities_Consistent>
1

> <s_lp_Variant>
AV-unprocessed.smi:2949-1

> <Gold.Version>
5.8.1

> <Gold.Id.Protein>
6NUR|6NUR_protein|mol2

> <Gold.PLP.Fitness>
42.5255

> <Gold.PLP.PLP>
-35.7188

> <Gold.PLP.part.hbond>
-2.0000

> <Gold.PLP.part.metal>
0.0000

> <Gold.PLP.part.buried>
-2.9985

> <Gold.PLP.part.nonpolar>
-31.1168

> <Gold.PLP.part.repulsive>
0.1224

> <Gold.PLP.ligand.clash>
0.0000

> <Gold.PLP.ligand.torsion>
1.0945

> <Gold.PLP.Chemscore.Hbond>
2.9920

> <Gold.PLP.Chemscore.CHOScore>
0.0000

> <Gold.PLP.Chemscore.Metal>
0.0000

> <Gold.Chemscore.Hbonds>
donor molecule, donor type, donor heavy atom, donor atom, acceptor molecule, acceptor atom, score
      L1  H     1    35       P1 10175  2.00
      L1  H    10    24       P1  8028  0.96

> <Gold.PLP.Chemscore.Internal.Correction>
0.0197

> <Gold.Rescore>
     Score         DG    S(hbond)    S(metal)    S(lipo)     H(rot)  DE(clash)    DE(int)     intcor
     12.97     -17.06       2.08        0.00      77.28       1.73       0.21       3.88       ----

> <Gold.Chemscore.Fitness>
12.9727

> <Gold.Chemscore.DG>
-17.0575

> <Gold.Chemscore.ZeroCoef>
-5.4800

> <Gold.Chemscore.Hbond>
2.0844

> <Gold.Chemscore.Metal>
0.0000

> <Gold.Chemscore.Lipo>
77.2838

> <Gold.Chemscore.Internal_Hbond>
0.0000

> <Gold.Chemscore.DEClash>
0.2093

> <Gold.Chemscore.DEInternal>
3.8755

> <Gold.Chemscore.Rot>
1.7291

> <Gold.Chemscore.Internal.Correction>
   9.000000E+99

> <Gold.Chemscore.Hbonds>
donor molecule, donor type, donor heavy atom, donor atom, acceptor molecule, acceptor atom, score
      L1  H     1    35       P1 10175  0.39
      L1  H    10    24       P1  8028  0.87

> <Gold.Chemscore.Hbond.Weighted>
-6.9617

> <Gold.Chemscore.Metal.Weighted>
-0.0000

> <Gold.Chemscore.Lipo.Weighted>
-9.0422

> <Gold.Chemscore.Internal_Hbond.Weighted>
0.0000

> <Gold.Chemscore.DEClash.Weighted>
0.2093

> <Gold.Chemscore.DEInternal.Weighted>
3.8755

> <Gold.Chemscore.Rot.Weighted>
4.4265

> <Gold.Chemscore.Internal.Correction.Weighted>
   9.000000E+99

> <Gold.Protein.RotatedTorsions>
[ 6907 6896 6895 6894 ] final -139.84 input  -60.11 | X-H torsion
[ 7974 7965 7964 7962 ] final   72.09 input  175.53 | X-H torsion
[ 8008 7997 7996 7995 ] final  -42.90 input   59.86 | X-H torsion
[ 10167 10162 10161 10158 ] final  -96.11 input  -65.29 | X-H torsion
[ 10718 10713 10712 10709 ] final  160.11 input   66.30 | X-H torsion
[ 10763 10752 10751 10750 ] final    6.55 input  -60.55 | X-H torsion
[ 11005 11000 10999 10996 ] final  133.62 input  -57.11 | X-H torsion

> <Gold.Protein.ActiveResidues>
 VAL166  LYS551  ARG553  GLY616  TRP617  ASP618  TYR619  PRO620  LYS621  CYS622 
 ASP623  PHE694  ASN695  SER759  ASP760  ASP761  ALA762  ILE779  LEU786  VAL792 
 PHE793  MET794  SER795  GLU796  ALA797  LYS798  CYS799  TRP800  GLU811  SER814 

> <Gold.Protein.RotatedAtoms>
  151.0530  133.5608  159.2640 H   0  0  0  0  0  0  0  0  0  0  0  0  # atno 6907 bound_to 6896
  151.2612  135.0654  159.9109 H   0  0  0  0  0  0  0  0  0  0  0  0  # atno 6908 bound_to 6896
  152.5385  134.0275  159.8063 H   0  0  0  0  0  0  0  0  0  0  0  0  # atno 6909 bound_to 6896
  145.7577  139.2787  143.1394 H   0  0  0  0  0  0  0  0  0  0  0  0  # atno 7974 bound_to 7965
  154.3997  140.1461  156.3431 H   0  0  0  0  0  0  0  0  0  0  0  0  # atno 8008 bound_to 7997
  155.8338  140.3465  155.5568 H   0  0  0  0  0  0  0  0  0  0  0  0  # atno 8009 bound_to 7997
  155.8160  140.0891  157.1867 H   0  0  0  0  0  0  0  0  0  0  0  0  # atno 8010 bound_to 7997
  140.2972  143.3185  152.0286 H   0  0  0  0  0  0  0  0  0  0  0  0  # atno 10167 bound_to 10162
  157.1549  131.0573  151.2262 H   0  0  0  0  0  0  0  0  0  0  0  0  # atno 10718 bound_to 10713
  153.2465  135.6909  153.7726 H   0  0  0  0  0  0  0  0  0  0  0  0  # atno 10763 bound_to 10752
  153.6836  135.3324  155.3185 H   0  0  0  0  0  0  0  0  0  0  0  0  # atno 10764 bound_to 10752
  154.8377  135.4528  154.1406 H   0  0  0  0  0  0  0  0  0  0  0  0  # atno 10765 bound_to 10752
  139.9863  134.9531  156.9751 H   0  0  0  0  0  0  0  0  0  0  0  0  # atno 11005 bound_to 11000
  146.0294  140.8272  142.9883 LP  0  0  0  0  0  0  0  0  0  0  0  0  # atno 17320 bound_to 7965
  144.6836  140.2747  143.7301 LP  0  0  0  0  0  0  0  0  0  0  0  0  # atno 17321 bound_to 7965
  139.4924  144.6482  151.6732 LP  0  0  0  0  0  0  0  0  0  0  0  0  # atno 17342 bound_to 10162
  140.5682  144.0153  150.6203 LP  0  0  0  0  0  0  0  0  0  0  0  0  # atno 17343 bound_to 10162
  157.4187  130.7425  149.6896 LP  0  0  0  0  0  0  0  0  0  0  0  0  # atno 17370 bound_to 10713
  155.9764  130.4076  150.3782 LP  0  0  0  0  0  0  0  0  0  0  0  0  # atno 17371 bound_to 10713
  140.4996  134.1111  155.7248 LP  0  0  0  0  0  0  0  0  0  0  0  0  # atno 17394 bound_to 11000
  141.1527  133.8939  157.2056 LP  0  0  0  0  0  0  0  0  0  0  0  0  # atno 17395 bound_to 11000

$$$$
