AV-unprocessed.smi:1205|AV-procd|sdf|5039|dock10
  -GOLD-   22720 4 63D 1   1.00000     0.00000
 Structure written by MMmdl.
 49 50  0  0  0  0  0  0  0  0  2 V2000
  139.0316  136.7017  154.1853 C   0  0  0  0  0  0  0  0  0  0  0  0
  140.4581  136.6576  153.7225 C   0  0  0  0  0  0  0  0  0  0  0  0
  141.2461  137.7265  153.2050 C   0  0  0  0  0  0  0  0  0  0  0  0
  142.4464  137.1206  152.9519 C   0  0  0  0  0  0  0  0  0  0  0  0
  143.5852  137.6596  152.4406 N   0  0  0  0  0  0  0  0  0  0  0  0
  144.7836  137.8071  153.0322 C   0  0  0  0  0  0  0  0  0  0  0  0
  145.0620  137.4649  154.1816 O   0  0  0  0  0  0  0  0  0  0  0  0
  145.6648  138.3896  152.2063 N   0  0  0  0  0  0  0  0  0  0  0  0
  147.0516  138.6934  152.5466 C   0  0  0  0  0  0  0  0  0  0  0  0
  147.1800  139.8898  153.5192 C   0  0  2  0  0  0  0  0  0  0  0  0
  146.5646  141.1889  152.9544 C   0  0  0  0  0  0  0  0  0  0  0  0
  148.5948  140.0590  153.9633 N   0  3  1  0  0  0  0  0  0  0  0  0
  148.8164  141.0974  155.0068 C   0  0  0  0  0  0  0  0  0  0  0  0
  150.3183  141.3519  155.2093 C   0  0  0  0  0  0  0  0  0  0  0  0
  151.0505  140.0515  155.5670 C   0  0  0  0  0  0  0  0  0  0  0  0
  150.7809  138.9736  154.5024 C   0  0  1  0  0  0  0  0  0  0  0  0
  151.4802  137.6523  154.8510 C   0  0  0  0  0  0  0  0  0  0  0  0
  149.2632  138.7767  154.3128 C   0  0  0  0  0  0  0  0  0  0  0  0
  142.3559  135.7912  153.2998 N   0  0  0  0  0  0  0  0  0  0  0  0
  143.3566  134.7454  153.2136 C   0  0  0  0  0  0  0  0  0  0  0  0
  141.1236  135.5094  153.7754 N   0  0  0  0  0  0  0  0  0  0  0  0
  138.6141  137.7031  154.0794 H   0  0  0  0  0  0  0  0  0  0  0  0
  138.9504  136.4184  155.2351 H   0  0  0  0  0  0  0  0  0  0  0  0
  138.4091  136.0201  153.6053 H   0  0  0  0  0  0  0  0  0  0  0  0
  140.9574  138.7556  153.0533 H   0  0  0  0  0  0  0  0  0  0  0  0
  143.5143  137.9871  151.4885 H   0  0  0  0  0  0  0  0  0  0  0  0
  145.3574  138.6361  151.2765 H   0  0  0  0  0  0  0  0  0  0  0  0
  147.5242  137.8058  152.9714 H   0  0  0  0  0  0  0  0  0  0  0  0
  147.5721  138.8988  151.6117 H   0  0  0  0  0  0  0  0  0  0  0  0
  146.6052  139.6251  154.4077 H   0  0  0  0  0  0  0  0  0  0  0  0
  145.4950  141.0726  152.7784 H   0  0  0  0  0  0  0  0  0  0  0  0
  147.0179  141.4737  152.0048 H   0  0  0  0  0  0  0  0  0  0  0  0
  146.6809  142.0233  153.6458 H   0  0  0  0  0  0  0  0  0  0  0  0
  148.3334  142.0325  154.7258 H   0  0  0  0  0  0  0  0  0  0  0  0
  148.3717  140.7805  155.9511 H   0  0  0  0  0  0  0  0  0  0  0  0
  150.7451  141.7769  154.2997 H   0  0  0  0  0  0  0  0  0  0  0  0
  150.4686  142.0913  155.9966 H   0  0  0  0  0  0  0  0  0  0  0  0
  152.1211  140.2404  155.6533 H   0  0  0  0  0  0  0  0  0  0  0  0
  150.7165  139.7006  156.5447 H   0  0  0  0  0  0  0  0  0  0  0  0
  151.1956  139.3235  153.5558 H   0  0  0  0  0  0  0  0  0  0  0  0
  151.1154  137.2467  155.7951 H   0  0  0  0  0  0  0  0  0  0  0  0
  152.5577  137.7906  154.9427 H   0  0  0  0  0  0  0  0  0  0  0  0
  151.3096  136.9020  154.0785 H   0  0  0  0  0  0  0  0  0  0  0  0
  148.8205  138.3646  155.2206 H   0  0  0  0  0  0  0  0  0  0  0  0
  149.0962  138.0469  153.5195 H   0  0  0  0  0  0  0  0  0  0  0  0
  144.2873  135.0881  153.6666 H   0  0  0  0  0  0  0  0  0  0  0  0
  143.5380  134.4990  152.1673 H   0  0  0  0  0  0  0  0  0  0  0  0
  143.0209  133.8491  153.7368 H   0  0  0  0  0  0  0  0  0  0  0  0
  149.0836  140.3874  153.1426 H   0  0  0  0  0  0  0  0  0  0  0  0
  1  2  1  0  0  0  0
  1 22  1  0  0  0  0
  1 23  1  0  0  0  0
  1 24  1  0  0  0  0
  2 21  2  0  0  0  0
  2  3  1  0  0  0  0
  3  4  2  0  0  0  0
  3 25  1  0  0  0  0
  4  5  1  0  0  0  0
  4 19  1  0  0  0  0
  5  6  1  0  0  0  0
  5 26  1  0  0  0  0
  6  7  2  0  0  0  0
  6  8  1  0  0  0  0
  8  9  1  0  0  0  0
  8 27  1  0  0  0  0
  9 10  1  0  0  0  0
  9 28  1  0  0  0  0
  9 29  1  0  0  0  0
 10 11  1  0  0  0  0
 10 12  1  0  0  0  0
 10 30  1  0  0  0  0
 11 31  1  0  0  0  0
 11 32  1  0  0  0  0
 11 33  1  0  0  0  0
 12 18  1  0  0  0  0
 12 13  1  0  0  0  0
 12 49  1  0  0  0  0
 13 14  1  0  0  0  0
 13 34  1  0  0  0  0
 13 35  1  0  0  0  0
 14 15  1  0  0  0  0
 14 36  1  0  0  0  0
 14 37  1  0  0  0  0
 15 16  1  0  0  0  0
 15 38  1  0  0  0  0
 15 39  1  0  0  0  0
 16 17  1  0  0  0  0
 16 18  1  0  0  0  0
 16 40  1  0  0  0  0
 17 41  1  0  0  0  0
 17 42  1  0  0  0  0
 17 43  1  0  0  0  0
 18 44  1  0  0  0  0
 18 45  1  0  0  0  0
 19 20  1  0  0  0  0
 19 21  1  0  0  0  0
 20 46  1  0  0  0  0
 20 47  1  0  0  0  0
 20 48  1  0  0  0  0
M  CHG  1  12   1
M  END
> <s_m_source_file>
AV-unprocessed.smi

> <i_m_source_file_index>
1205

> <i_lp_mmshare_version>
43012

> <i_f3d_flags>
0

> <s_epik_input>
W0NIM11jMVtjSF1jKG4objEpW0NIM10pW05IXUMoPU8pW05IXVtDSDJdW0NASF0oW0NIM10pTjJbQ0gyXVtDSDJdW0NIMl1bQ0BASF0oW0NIM10pW0NIMl0y

> <s_epik_cmdline>
J2VwaWtfcHl0aG9uJywgJy1waCcsICc3LjAnLCAnLXRuJywgJzgnLCAnLW1hJywgJzIwMCcsICctbWV0YWxfYmluZGluZycsICctaW1hZScsICc8aW5maWxlLm1hZT4nLCAnLW9tYWUnLCAnPG91dGZpbGUubWFlPic=

> <r_lp_tautomer_probability>
1

> <r_epik_Ionization_Penalty>
0.0020309

> <r_epik_Ionization_Penalty_Charging>
0.00195276

> <r_epik_Ionization_Penalty_Neutral>
7.81448e-05

> <r_epik_State_Penalty>
0.00133177

> <r_epik_Charging_Adjusted_Penalty>
0.00328452

> <i_epik_Tot_Q>
1

> <i_epik_Tot_abs_Q>
1

> <r_epik_Metal_State_Penalty>
-0

> <b_epik_Metal_Only>
0

> <s_lp_Force_Field>
OPLS_2005

> <r_lp_Energy>
21.646

> <b_lp_Chiralities_Consistent>
1

> <s_lp_Variant>
AV-unprocessed.smi:1205-1

> <Gold.Version>
5.8.1

> <Gold.Id.Protein>
6NUR|6NUR_protein|mol2

> <Gold.PLP.Fitness>
44.6563

> <Gold.PLP.PLP>
-37.2569

> <Gold.PLP.part.hbond>
-5.0982

> <Gold.PLP.part.metal>
0.0000

> <Gold.PLP.part.buried>
0.0097

> <Gold.PLP.part.nonpolar>
-32.1236

> <Gold.PLP.part.repulsive>
0.4130

> <Gold.PLP.ligand.clash>
0.0000

> <Gold.PLP.ligand.torsion>
0.7972

> <Gold.PLP.Chemscore.Hbond>
2.9595

> <Gold.PLP.Chemscore.CHOScore>
0.0000

> <Gold.PLP.Chemscore.Metal>
0.0000

> <Gold.Chemscore.Hbonds>
donor molecule, donor type, donor heavy atom, donor atom, acceptor molecule, acceptor atom, score
      L1  H     5    26       P1 10171  1.00
      L1  H     8    27       P1 10171  0.87
      L1  H    12    49       P1  7957  0.84

> <Gold.PLP.Chemscore.Internal.Correction>
0.1156

> <Gold.Rescore>
     Score         DG    S(hbond)    S(metal)    S(lipo)     H(rot)  DE(clash)    DE(int)     intcor
     16.04     -20.56       2.48        0.00      90.07       1.47       3.78       0.74       ----

> <Gold.Chemscore.Fitness>
16.0390

> <Gold.Chemscore.DG>
-20.5601

> <Gold.Chemscore.ZeroCoef>
-5.4800

> <Gold.Chemscore.Hbond>
2.4832

> <Gold.Chemscore.Metal>
0.0000

> <Gold.Chemscore.Lipo>
90.0748

> <Gold.Chemscore.Internal_Hbond>
0.0000

> <Gold.Chemscore.DEClash>
3.7777

> <Gold.Chemscore.DEInternal>
0.7434

> <Gold.Chemscore.Rot>
1.4658

> <Gold.Chemscore.Internal.Correction>
   9.000000E+99

> <Gold.Chemscore.Hbonds>
donor molecule, donor type, donor heavy atom, donor atom, acceptor molecule, acceptor atom, score
      L1  H     5    26       P1 10171  0.91
      L1  H     8    27       P1 10171  0.81
      L1  H    12    49       P1  7957  0.79

> <Gold.Chemscore.Hbond.Weighted>
-8.2939

> <Gold.Chemscore.Metal.Weighted>
-0.0000

> <Gold.Chemscore.Lipo.Weighted>
-10.5388

> <Gold.Chemscore.Internal_Hbond.Weighted>
0.0000

> <Gold.Chemscore.DEClash.Weighted>
3.7777

> <Gold.Chemscore.DEInternal.Weighted>
0.7434

> <Gold.Chemscore.Rot.Weighted>
3.7526

> <Gold.Chemscore.Internal.Correction.Weighted>
   9.000000E+99

> <Gold.Protein.RotatedTorsions>
[ 6907 6896 6895 6894 ] final -107.76 input  -60.11 | X-H torsion
[ 7974 7965 7964 7962 ] final   89.40 input  175.53 | X-H torsion
[ 8008 7997 7996 7995 ] final -104.79 input   59.86 | X-H torsion
[ 10167 10162 10161 10158 ] final -162.01 input  -65.29 | X-H torsion
[ 10718 10713 10712 10709 ] final -170.97 input   66.30 | X-H torsion
[ 10763 10752 10751 10750 ] final -123.49 input  -60.55 | X-H torsion
[ 11005 11000 10999 10996 ] final  154.67 input  -57.11 | X-H torsion

> <Gold.Protein.ActiveResidues>
 VAL166  LYS551  ARG553  GLY616  TRP617  ASP618  TYR619  PRO620  LYS621  CYS622 
 ASP623  PHE694  ASN695  SER759  ASP760  ASP761  ALA762  ILE779  LEU786  VAL792 
 PHE793  MET794  SER795  GLU796  ALA797  LYS798  CYS799  TRP800  GLU811  SER814 

> <Gold.Protein.RotatedAtoms>
  150.7462  133.9778  159.3566 H   0  0  0  0  0  0  0  0  0  0  0  0  # atno 6907 bound_to 6896
  151.7717  135.0782  160.0370 H   0  0  0  0  0  0  0  0  0  0  0  0  # atno 6908 bound_to 6896
  152.3335  133.5948  159.5862 H   0  0  0  0  0  0  0  0  0  0  0  0  # atno 6909 bound_to 6896
  145.5328  139.2284  143.2609 H   0  0  0  0  0  0  0  0  0  0  0  0  # atno 7974 bound_to 7965
  154.8904  140.0416  157.1835 H   0  0  0  0  0  0  0  0  0  0  0  0  # atno 8008 bound_to 7997
  154.8546  140.2934  155.5556 H   0  0  0  0  0  0  0  0  0  0  0  0  # atno 8009 bound_to 7997
  156.2997  140.2458  156.3511 H   0  0  0  0  0  0  0  0  0  0  0  0  # atno 8010 bound_to 7997
  139.6423  144.0236  152.2101 H   0  0  0  0  0  0  0  0  0  0  0  0  # atno 10167 bound_to 10162
  156.7340  130.9317  151.3106 H   0  0  0  0  0  0  0  0  0  0  0  0  # atno 10718 bound_to 10713
  154.8708  135.4096  154.2951 H   0  0  0  0  0  0  0  0  0  0  0  0  # atno 10763 bound_to 10752
  153.3820  135.7012  153.6563 H   0  0  0  0  0  0  0  0  0  0  0  0  # atno 10764 bound_to 10752
  153.5382  135.3653  155.2678 H   0  0  0  0  0  0  0  0  0  0  0  0  # atno 10765 bound_to 10752
  140.1511  134.8674  157.2455 H   0  0  0  0  0  0  0  0  0  0  0  0  # atno 11005 bound_to 11000
  146.2032  140.6145  142.9093 LP  0  0  0  0  0  0  0  0  0  0  0  0  # atno 17320 bound_to 7965
  144.7617  140.5436  143.6731 LP  0  0  0  0  0  0  0  0  0  0  0  0  # atno 17321 bound_to 7965
  139.9929  144.6349  150.7798 LP  0  0  0  0  0  0  0  0  0  0  0  0  # atno 17342 bound_to 10162
  140.7497  143.2943  151.3246 LP  0  0  0  0  0  0  0  0  0  0  0  0  # atno 17343 bound_to 10162
  157.6847  130.9173  150.0355 LP  0  0  0  0  0  0  0  0  0  0  0  0  # atno 17370 bound_to 10713
  156.1509  130.3642  149.9439 LP  0  0  0  0  0  0  0  0  0  0  0  0  # atno 17371 bound_to 10713
  140.2604  134.3578  155.7409 LP  0  0  0  0  0  0  0  0  0  0  0  0  # atno 17394 bound_to 11000
  141.2199  133.7366  156.9071 LP  0  0  0  0  0  0  0  0  0  0  0  0  # atno 17395 bound_to 11000

$$$$
