#       Name:                AV-unprocessed.smi:876
#       Creating user name   scv26
#       Creation time:       Fri Mar 27 01:51:22 2020


#       File generated by GOLD software.
#

@<TRIPOS>MOLECULE
AV-unprocessed.smi:876
    45    46     1
SMALL
NO_CHARGES


@<TRIPOS>ATOM
      1 ****        -6.4984   0.2895   1.0658 C.3            1 S1                 0.0000
      2 ****        -5.6727   1.3450   0.4920 N.pl3          1 S1                 0.0000
      3 ****        -6.2805   2.6138   0.1039 C.3            1 S1                 0.0000
      4 ****        -4.2940   1.1273   0.2675 C.ar           1 S1                 0.0000
      5 ****        -3.6663  -0.0876   0.6394 C.ar           1 S1                 0.0000
      6 ****        -2.2902  -0.2585   0.3940 C.ar           1 S1                 0.0000
      7 ****        -1.5685   0.7872  -0.2262 C.ar           1 S1                 0.0000
      8 ****        -0.1767   0.7478  -0.5124 N.am           1 S1                 0.0000
      9 ****         0.6333  -0.3207  -0.6062 C.2            1 S1                 0.0000
     10 ****         0.2863  -1.4946  -0.4777 O.2            1 S1                 0.0000
     11 ****         1.8921   0.0499  -0.8793 N.am           1 S1                 0.0000
     12 ****         3.0115  -0.8685  -1.0545 C.3            1 S1                 0.0000
     13 ****         4.2054  -0.1470  -1.6162 C.2            1 S1                 0.0000
     14 ****         5.2801  -0.2476  -0.8376 C.2            1 S1                 0.0000
     15 ****         5.0217  -1.0386   0.4195 C.3            1 S1                 0.0000
     16 ****         5.9686  -2.2417   0.5705 C.3            1 S1                 0.0000
     17 ****         7.3010  -1.8081   0.7483 O.3            1 S1                 0.0000
     18 ****         3.5327  -1.4489   0.2870 C.3            1 S1                 0.0000
     19 ****        -2.2744   1.9627  -0.5476 C.ar           1 S1                 0.0000
     20 ****        -3.5925   2.1304  -0.3147 N.ar           1 S1                 0.0000
     21 ****         2.7375  -1.6690  -1.7438 H              1 S1                 0.0000
     22 ****         5.1393  -0.3688   1.2727 H              1 S1                 0.0000
     23 ****        -6.1545   0.0369   2.0692 H              1 S1                 0.0000
     24 ****        -6.4607  -0.6070   0.4461 H              1 S1                 0.0000
     25 ****        -7.5415   0.5973   1.1399 H              1 S1                 0.0000
     26 ****        -6.1888   2.7685  -0.9717 H              1 S1                 0.0000
     27 ****        -5.7946   3.4447   0.6163 H              1 S1                 0.0000
     28 ****        -7.3403   2.6418   0.3567 H              1 S1                 0.0000
     29 ****        -4.2101  -0.8907   1.1130 H              1 S1                 0.0000
     30 ****        -1.8201  -1.1800   0.6993 H              1 S1                 0.0000
     31 ****         0.2454   1.6415  -0.7181 H              1 S1                 0.0000
     32 ****         2.0913   1.0351  -0.9731 H              1 S1                 0.0000
     33 ****         4.1698   0.3773  -2.5599 H              1 S1                 0.0000
     34 ****         6.2436   0.1919  -1.0512 H              1 S1                 0.0000
     35 ****         5.6832  -2.8414   1.4353 H              1 S1                 0.0000
     36 ****         5.9155  -2.8904  -0.3047 H              1 S1                 0.0000
     37 ****         7.8549  -2.5687   0.8377 H              1 S1                 0.0000
     38 ****         2.9646  -1.0726   1.1390 H              1 S1                 0.0000
     39 ****         3.4165  -2.5335   0.2927 H              1 S1                 0.0000
     40 ****        -1.7683   2.7972  -1.0109 H              1 S1                 0.0000
     41 ****        -0.6702  -1.7153  -0.2867 LP             1 S1                 0.0000
     42 ****         0.9608  -2.2278  -0.5643 LP             1 S1                 0.0000
     43 ****         7.3653  -1.2454   1.5724 LP             1 S1                 0.0000
     44 ****         7.5898  -1.2720  -0.0449 LP             1 S1                 0.0000
     45 ****        -4.0466   2.9844  -0.5685 LP             1 S1                 0.0000
@<TRIPOS>BOND
    1    1    2 1     
    2    1   23 1     
    3    1   24 1     
    4    1   25 1     
    5    2    3 1     
    6    2    4 1     
    7    3   26 1     
    8    3   27 1     
    9    3   28 1     
   10    4   20 ar    
   11    4    5 ar    
   12    5    6 ar    
   13    5   29 1     
   14    6    7 ar    
   15    6   30 1     
   16    7    8 1     
   17    7   19 ar    
   18    8    9 am    
   19    8   31 1     
   20    9   10 2     
   21    9   11 am    
   22   11   12 1     
   23   11   32 1     
   24   12   21 1     
   25   12   18 1     
   26   12   13 1     
   27   13   14 2     
   28   13   33 1     
   29   14   15 1     
   30   14   34 1     
   31   15   22 1     
   32   15   16 1     
   33   15   18 1     
   34   16   17 1     
   35   16   35 1     
   36   16   36 1     
   37   17   37 1     
   38   18   38 1     
   39   18   39 1     
   40   19   20 ar    
   41   19   40 1     
   42   10   41 1     
   43   10   42 1     
   44   17   43 1     
   45   17   44 1     
   46   20   45 1     
@<TRIPOS>SUBSTRUCTURE
      1 S1             1
@<TRIPOS>SET
LONE_PAIRS      STATIC     ATOMS    <user>   **** ""
5 41 42 43 44 45
DONOR_HYDROGENS      STATIC     ATOMS    <user>   **** ""
3 31 32 37
ATOM$BLUE        STATIC     ATOMS    COLORGROUP SYSTEM
5 41 42 43 44 45
ATOM$RED        STATIC     ATOMS    COLORGROUP SYSTEM
3 31 32 37
