#       Name:                AV-unprocessed.smi:1883
#       Creating user name   scv26
#       Creation time:       Fri Mar 27 09:37:18 2020


#       File generated by GOLD software.
#

@<TRIPOS>MOLECULE
AV-unprocessed.smi:1883
    38    40     1
SMALL
NO_CHARGES


@<TRIPOS>ATOM
      1 ****        -2.0335  -0.1825   1.7876 C.3            1 S1                 0.0000
      2 ****        -1.7133   0.3751   0.4410 C.2            1 S1                 0.0000
      3 ****        -2.0051   1.6334   0.0064 N.pl3          1 S1                 1.0000
      4 ****        -1.5495   1.7990  -1.3025 C.ar           1 S1                 0.0000
      5 ****        -1.6123   2.8940  -2.1587 C.ar           1 S1                 0.0000
      6 ****        -1.0463   2.7285  -3.4401 C.ar           1 S1                 0.0000
      7 ****        -0.4494   1.5112  -3.8281 C.ar           1 S1                 0.0000
      8 ****        -0.3922   0.4078  -2.9514 C.ar           1 S1                 0.0000
      9 ****        -0.9523   0.5811  -1.6860 C.ar           1 S1                 0.0000
     10 ****        -1.0707  -0.2649  -0.5782 N.pl3          1 S1                 0.0000
     11 ****        -0.5200  -1.6265  -0.6548 C.3            1 S1                 0.0000
     12 ****         1.0117  -1.6613  -0.4761 C.3            1 S1                 0.0000
     13 ****         1.4489  -2.9818  -0.7240 O.3            1 S1                 0.0000
     14 ****         1.4455  -1.1516   0.8937 C.ar           1 S1                 0.0000
     15 ****         1.3797  -1.9974   2.0238 C.ar           1 S1                 0.0000
     16 ****         1.7620  -1.5221   3.2928 C.ar           1 S1                 0.0000
     17 ****         1.6940  -2.3394   4.3700 F              1 S1                 0.0000
     18 ****         2.2108  -0.1965   3.4422 C.ar           1 S1                 0.0000
     19 ****         2.2742   0.6541   2.3224 C.ar           1 S1                 0.0000
     20 ****         1.8924   0.1807   1.0519 C.ar           1 S1                 0.0000
     21 ****         1.9466   1.0178  -0.0122 F              1 S1                 0.0000
     22 ****        -2.6259   0.5276   2.3649 H              1 S1                 0.0000
     23 ****        -1.1160  -0.3925   2.3367 H              1 S1                 0.0000
     24 ****        -2.6018  -1.1076   1.6888 H              1 S1                 0.0000
     25 ****        -2.0690   3.8277  -1.8647 H              1 S1                 0.0000
     26 ****        -1.0706   3.5514  -4.1397 H              1 S1                 0.0000
     27 ****        -0.0263   1.4214  -4.8182 H              1 S1                 0.0000
     28 ****         0.0680  -0.5201  -3.2573 H              1 S1                 0.0000
     29 ****        -1.0094  -2.2337   0.1077 H              1 S1                 0.0000
     30 ****        -0.8094  -2.0511  -1.6171 H              1 S1                 0.0000
     31 ****         1.4792  -1.0458  -1.2447 H              1 S1                 0.0000
     32 ****         2.3940  -2.9915  -0.7204 H              1 S1                 0.0000
     33 ****         1.0287  -3.0141   1.9236 H              1 S1                 0.0000
     34 ****         2.5037   0.1685   4.4156 H              1 S1                 0.0000
     35 ****         2.6140   1.6726   2.4389 H              1 S1                 0.0000
     36 ****        -2.4812   2.3279   0.5677 H              1 S1                 0.0000
     37 ****         1.1121  -3.2867  -1.6149 LP             1 S1                 0.0000
     38 ****         1.1029  -3.5910  -0.0105 LP             1 S1                 0.0000
@<TRIPOS>BOND
    1    1    2 1     
    2    1   22 1     
    3    1   23 1     
    4    1   24 1     
    5    2   10 1     
    6    2    3 2     
    7    3    4 1     
    8    3   36 1     
    9    4    9 ar    
   10    4    5 ar    
   11    5    6 ar    
   12    5   25 1     
   13    6    7 ar    
   14    6   26 1     
   15    7    8 ar    
   16    7   27 1     
   17    8    9 ar    
   18    8   28 1     
   19    9   10 1     
   20   10   11 1     
   21   11   12 1     
   22   11   29 1     
   23   11   30 1     
   24   12   13 1     
   25   12   14 1     
   26   12   31 1     
   27   13   32 1     
   28   14   20 ar    
   29   14   15 ar    
   30   15   16 ar    
   31   15   33 1     
   32   16   17 1     
   33   16   18 ar    
   34   18   19 ar    
   35   18   34 1     
   36   19   20 ar    
   37   19   35 1     
   38   20   21 1     
   39   13   37 1     
   40   13   38 1     
@<TRIPOS>SUBSTRUCTURE
      1 S1             1
@<TRIPOS>SET
LONE_PAIRS      STATIC     ATOMS    <user>   **** ""
2 37 38
DONOR_HYDROGENS      STATIC     ATOMS    <user>   **** ""
2 36 32
ATOM$BLUE        STATIC     ATOMS    COLORGROUP SYSTEM
2 37 38
ATOM$RED        STATIC     ATOMS    COLORGROUP SYSTEM
2 36 32
