AV-unprocessed.smi:1033|AV-procd|sdf|4503|dock5
  -GOLD-   22720 2503D 1   1.00000     0.00000
 Structure written by MMmdl.
 57 59  0  0  0  0  0  0  0  0  3 V2000
  152.4683  143.9730  159.7949 C   0  0  0  0  0  0  0  0  0  0  0  0
  152.0353  142.9490  158.7593 C   0  0  0  0  0  0  0  0  0  0  0  0
  151.0806  143.3320  157.7901 C   0  0  0  0  0  0  0  0  0  0  0  0
  150.7054  142.3739  156.8559 C   0  0  0  0  0  0  0  0  0  0  0  0
  149.8027  142.4358  155.7919 N   0  3  0  0  0  0  0  0  0  0  0  0
  149.7718  141.2339  155.1517 C   0  0  0  0  0  0  0  0  0  0  0  0
  150.6409  140.4063  155.7928 N   0  0  0  0  0  0  0  0  0  0  0  0
  150.9874  139.0059  155.5181 C   0  0  0  0  0  0  0  0  0  0  0  0
  150.0961  138.3692  154.4341 C   0  0  1  0  0  0  0  0  0  0  0  0
  150.6205  137.1009  154.0935 O   0  0  0  0  0  0  0  0  0  0  0  0
  148.6496  138.1851  154.9332 C   0  0  0  0  0  0  0  0  0  0  0  0
  147.7422  139.3093  154.6703 N   0  0  0  0  0  0  0  0  0  0  0  0
  147.3581  139.4041  153.2622 C   0  0  0  0  0  0  0  0  0  0  0  0
  146.3908  138.2879  152.8178 C   0  0  0  0  0  0  0  0  0  0  0  0
  145.1682  138.2934  153.6617 N   0  3  0  0  0  0  0  0  0  0  0  0
  144.1764  137.2768  153.2267 C   0  0  0  0  0  0  0  0  0  0  0  0
  142.7922  137.4793  153.8740 C   0  0  2  0  0  0  0  0  0  0  0  0
  141.7891  136.4045  153.4360 C   0  0  0  0  0  0  0  0  0  0  0  0
  142.2795  138.7404  153.4938 O   0  0  0  0  0  0  0  0  0  0  0  0
  145.5247  138.2023  155.1033 C   0  0  0  0  0  0  0  0  0  0  0  0
  146.5211  139.3175  155.4815 C   0  0  0  0  0  0  0  0  0  0  0  0
  151.2461  141.0736  156.8621 C   0  0  0  0  0  0  0  0  0  0  0  0
  152.1867  140.6786  157.8100 C   0  0  0  0  0  0  0  0  0  0  0  0
  152.5803  141.6385  158.7696 C   0  0  0  0  0  0  0  0  0  0  0  0
  153.6044  141.2370  159.8176 C   0  0  0  0  0  0  0  0  0  0  0  0
  151.9697  144.9307  159.6425 H   0  0  0  0  0  0  0  0  0  0  0  0
  153.5434  144.1450  159.7374 H   0  0  0  0  0  0  0  0  0  0  0  0
  152.2253  143.6271  160.7999 H   0  0  0  0  0  0  0  0  0  0  0  0
  150.6604  144.3272  157.7767 H   0  0  0  0  0  0  0  0  0  0  0  0
  149.1652  140.9814  154.2938 H   0  0  0  0  0  0  0  0  0  0  0  0
  152.0339  138.9828  155.2104 H   0  0  0  0  0  0  0  0  0  0  0  0
  150.9274  138.4472  156.4528 H   0  0  0  0  0  0  0  0  0  0  0  0
  150.1242  139.0009  153.5478 H   0  0  0  0  0  0  0  0  0  0  0  0
  150.1671  136.7862  153.3260 H   0  0  0  0  0  0  0  0  0  0  0  0
  148.2476  137.2836  154.4683 H   0  0  0  0  0  0  0  0  0  0  0  0
  148.6716  137.9715  156.0012 H   0  0  0  0  0  0  0  0  0  0  0  0
  146.8843  140.3712  153.0877 H   0  0  0  0  0  0  0  0  0  0  0  0
  148.2492  139.3945  152.6332 H   0  0  0  0  0  0  0  0  0  0  0  0
  146.1142  138.4491  151.7752 H   0  0  0  0  0  0  0  0  0  0  0  0
  146.8735  137.3107  152.8666 H   0  0  0  0  0  0  0  0  0  0  0  0
  144.0612  137.3169  152.1422 H   0  0  0  0  0  0  0  0  0  0  0  0
  144.5628  136.2818  153.4532 H   0  0  0  0  0  0  0  0  0  0  0  0
  142.8663  137.4535  154.9606 H   0  0  0  0  0  0  0  0  0  0  0  0
  142.1308  135.4100  153.7242 H   0  0  0  0  0  0  0  0  0  0  0  0
  141.6479  136.4065  152.3545 H   0  0  0  0  0  0  0  0  0  0  0  0
  140.8147  136.5636  153.8997 H   0  0  0  0  0  0  0  0  0  0  0  0
  142.8994  139.1597  152.9158 H   0  0  0  0  0  0  0  0  0  0  0  0
  144.6322  138.3096  155.7181 H   0  0  0  0  0  0  0  0  0  0  0  0
  145.9386  137.2185  155.3270 H   0  0  0  0  0  0  0  0  0  0  0  0
  146.7598  139.2578  156.5420 H   0  0  0  0  0  0  0  0  0  0  0  0
  146.0246  140.2807  155.3554 H   0  0  0  0  0  0  0  0  0  0  0  0
  152.6012  139.6815  157.8165 H   0  0  0  0  0  0  0  0  0  0  0  0
  153.9107  140.1972  159.6982 H   0  0  0  0  0  0  0  0  0  0  0  0
  153.1910  141.3488  160.8203 H   0  0  0  0  0  0  0  0  0  0  0  0
  154.4965  141.8584  159.7388 H   0  0  0  0  0  0  0  0  0  0  0  0
  144.7344  139.1950  153.5213 H   0  0  0  0  0  0  0  0  0  0  0  0
  149.2467  143.2363  155.5203 H   0  0  0  0  0  0  0  0  0  0  0  0
  1  2  1  0  0  0  0
  1 26  1  0  0  0  0
  1 27  1  0  0  0  0
  1 28  1  0  0  0  0
  2 24  1  0  0  0  0
  2  3  2  0  0  0  0
  3  4  1  0  0  0  0
  3 29  1  0  0  0  0
  4 22  2  0  0  0  0
  4  5  1  0  0  0  0
  5  6  2  0  0  0  0
  5 57  1  0  0  0  0
  6  7  1  0  0  0  0
  6 30  1  0  0  0  0
  7  8  1  0  0  0  0
  7 22  1  0  0  0  0
  8  9  1  0  0  0  0
  8 31  1  0  0  0  0
  8 32  1  0  0  0  0
  9 10  1  0  0  0  0
  9 11  1  0  0  0  0
  9 33  1  0  0  0  0
 10 34  1  0  0  0  0
 11 12  1  0  0  0  0
 11 35  1  0  0  0  0
 11 36  1  0  0  0  0
 12 21  1  0  0  0  0
 12 13  1  0  0  0  0
 13 14  1  0  0  0  0
 13 37  1  0  0  0  0
 13 38  1  0  0  0  0
 14 15  1  0  0  0  0
 14 39  1  0  0  0  0
 14 40  1  0  0  0  0
 15 16  1  0  0  0  0
 15 20  1  0  0  0  0
 15 56  1  0  0  0  0
 16 17  1  0  0  0  0
 16 41  1  0  0  0  0
 16 42  1  0  0  0  0
 17 18  1  0  0  0  0
 17 19  1  0  0  0  0
 17 43  1  0  0  0  0
 18 44  1  0  0  0  0
 18 45  1  0  0  0  0
 18 46  1  0  0  0  0
 19 47  1  0  0  0  0
 20 21  1  0  0  0  0
 20 48  1  0  0  0  0
 20 49  1  0  0  0  0
 21 50  1  0  0  0  0
 21 51  1  0  0  0  0
 22 23  1  0  0  0  0
 23 24  2  0  0  0  0
 23 52  1  0  0  0  0
 24 25  1  0  0  0  0
 25 53  1  0  0  0  0
 25 54  1  0  0  0  0
 25 55  1  0  0  0  0
M  CHG  1   5   1
M  CHG  1  15   1
M  END
> <s_m_source_file>
AV-unprocessed.smi

> <i_m_source_file_index>
1033

> <i_lp_mmshare_version>
43012

> <i_f3d_flags>
0

> <s_epik_input>
W0NIM11jKFtjSF0xKWMoW0NIM10pW2NIXWMoYzEyKW4oW2NIXW4yKVtDSDJdW0NASF0oW09IXSlbQ0gyXU4zW0NIMl1bQ0gyXU4oW0NIMl1bQ0gyXTMpW0NIMl1bQ0BIXShbQ0gzXSlbT0hd

> <s_epik_cmdline>
J2VwaWtfcHl0aG9uJywgJy1waCcsICc3LjAnLCAnLXRuJywgJzgnLCAnLW1hJywgJzIwMCcsICctbWV0YWxfYmluZGluZycsICctaW1hZScsICc8aW5maWxlLm1hZT4nLCAnLW9tYWUnLCAnPG91dGZpbGUubWFlPic=

> <r_epik_Ionization_Penalty>
1.28617

> <r_epik_Ionization_Penalty_Charging>
1.23646

> <r_epik_Ionization_Penalty_Neutral>
0.0497112

> <r_epik_State_Penalty>
1.79157

> <r_epik_Charging_Adjusted_Penalty>
3.02803

> <i_epik_Tot_Q>
2

> <i_epik_Tot_abs_Q>
2

> <r_epik_Metal_State_Penalty>
5.81739

> <b_epik_Metal_Only>
0

> <s_lp_Force_Field>
OPLS_2005

> <r_lp_Energy>
41.025

> <b_lp_Chiralities_Consistent>
1

> <s_lp_Variant>
AV-unprocessed.smi:1033-14

> <Gold.Version>
5.8.1

> <Gold.Id.Protein>
6NUR|6NUR_protein|mol2

> <Gold.PLP.Fitness>
60.2863

> <Gold.PLP.PLP>
-44.5051

> <Gold.PLP.part.hbond>
-4.3424

> <Gold.PLP.part.metal>
0.0000

> <Gold.PLP.part.buried>
-4.9983

> <Gold.PLP.part.nonpolar>
-36.6266

> <Gold.PLP.part.repulsive>
0.2466

> <Gold.PLP.ligand.clash>
0.0000

> <Gold.PLP.ligand.torsion>
0.6574

> <Gold.PLP.Chemscore.Hbond>
5.6260

> <Gold.PLP.Chemscore.CHOScore>
0.0000

> <Gold.PLP.Chemscore.Metal>
0.0000

> <Gold.Chemscore.Hbonds>
donor molecule, donor type, donor heavy atom, donor atom, acceptor molecule, acceptor atom, score
      L1  H     5    57       P1  8028  1.98
      L1  H    10    34       P1  7948  0.65
      L1  H    15    56       P1 10175  2.00
      L1  H    19    47       P1 10175  0.95

> <Gold.PLP.Chemscore.Internal.Correction>
0.2180

> <Gold.Rescore>
     Score         DG    S(hbond)    S(metal)    S(lipo)     H(rot)  DE(clash)    DE(int)     intcor
     19.51     -21.60       3.58        0.00     104.37       3.15       0.10       2.00       ----

> <Gold.Chemscore.Fitness>
19.5069

> <Gold.Chemscore.DG>
-21.6045

> <Gold.Chemscore.ZeroCoef>
-5.4800

> <Gold.Chemscore.Hbond>
3.5846

> <Gold.Chemscore.Metal>
0.0000

> <Gold.Chemscore.Lipo>
104.3737

> <Gold.Chemscore.Internal_Hbond>
0.0000

> <Gold.Chemscore.DEClash>
0.0971

> <Gold.Chemscore.DEInternal>
2.0004

> <Gold.Chemscore.Rot>
3.1483

> <Gold.Chemscore.Internal.Correction>
   9.000000E+99

> <Gold.Chemscore.Hbonds>
donor molecule, donor type, donor heavy atom, donor atom, acceptor molecule, acceptor atom, score
      L1  H     5    57       P1  8028  0.88
      L1  H    10    34       P1  7948  0.06
      L1  H    15    56       P1 10175  0.95
      L1  H    19    47       P1 10175  0.85

> <Gold.Chemscore.Hbond.Weighted>
-11.9725

> <Gold.Chemscore.Metal.Weighted>
-0.0000

> <Gold.Chemscore.Lipo.Weighted>
-12.2117

> <Gold.Chemscore.Internal_Hbond.Weighted>
0.0000

> <Gold.Chemscore.DEClash.Weighted>
0.0971

> <Gold.Chemscore.DEInternal.Weighted>
2.0004

> <Gold.Chemscore.Rot.Weighted>
8.0597

> <Gold.Chemscore.Internal.Correction.Weighted>
   9.000000E+99

> <Gold.Protein.RotatedTorsions>
[ 6907 6896 6895 6894 ] final -132.73 input  -60.11 | X-H torsion
[ 7974 7965 7964 7962 ] final -123.65 input  175.53 | X-H torsion
[ 8008 7997 7996 7995 ] final   43.83 input   59.86 | X-H torsion
[ 10167 10162 10161 10158 ] final   29.34 input  -65.29 | X-H torsion
[ 10718 10713 10712 10709 ] final -165.58 input   66.30 | X-H torsion
[ 10763 10752 10751 10750 ] final   50.56 input  -60.55 | X-H torsion
[ 11005 11000 10999 10996 ] final  139.04 input  -57.11 | X-H torsion

> <Gold.Protein.ActiveResidues>
 VAL166  LYS551  ARG553  GLY616  TRP617  ASP618  TYR619  PRO620  LYS621  CYS622 
 ASP623  PHE694  ASN695  SER759  ASP760  ASP761  ALA762  ILE779  LEU786  VAL792 
 PHE793  MET794  SER795  GLU796  ALA797  LYS798  CYS799  TRP800  GLU811  SER814 

> <Gold.Protein.RotatedAtoms>
  150.9658  133.6396  159.2746 H   0  0  0  0  0  0  0  0  0  0  0  0  # atno 6907 bound_to 6896
  151.3702  135.0920  159.9473 H   0  0  0  0  0  0  0  0  0  0  0  0  # atno 6908 bound_to 6896
  152.5165  133.9214  159.7591 H   0  0  0  0  0  0  0  0  0  0  0  0  # atno 6909 bound_to 6896
  145.0164  140.7950  143.4407 H   0  0  0  0  0  0  0  0  0  0  0  0  # atno 7974 bound_to 7965
  155.3092  140.3390  155.4244 H   0  0  0  0  0  0  0  0  0  0  0  0  # atno 8008 bound_to 7997
  156.1964  140.1716  156.8028 H   0  0  0  0  0  0  0  0  0  0  0  0  # atno 8009 bound_to 7997
  154.5504  140.0707  156.8642 H   0  0  0  0  0  0  0  0  0  0  0  0  # atno 8010 bound_to 7997
  140.4774  144.0669  150.6255 H   0  0  0  0  0  0  0  0  0  0  0  0  # atno 10167 bound_to 10162
  156.6554  130.9024  151.3020 H   0  0  0  0  0  0  0  0  0  0  0  0  # atno 10718 bound_to 10713
  152.9784  135.5875  154.4272 H   0  0  0  0  0  0  0  0  0  0  0  0  # atno 10763 bound_to 10752
  154.3889  135.2767  155.2168 H   0  0  0  0  0  0  0  0  0  0  0  0  # atno 10764 bound_to 10752
  154.4049  135.6095  153.5973 H   0  0  0  0  0  0  0  0  0  0  0  0  # atno 10765 bound_to 10752
  140.0226  134.9389  157.0505 H   0  0  0  0  0  0  0  0  0  0  0  0  # atno 11005 bound_to 11000
  145.1954  139.2279  143.5221 LP  0  0  0  0  0  0  0  0  0  0  0  0  # atno 17320 bound_to 7965
  146.3478  140.1759  142.8589 LP  0  0  0  0  0  0  0  0  0  0  0  0  # atno 17321 bound_to 7965
  140.3901  143.2757  152.0070 LP  0  0  0  0  0  0  0  0  0  0  0  0  # atno 17342 bound_to 10162
  139.4828  144.6084  151.7479 LP  0  0  0  0  0  0  0  0  0  0  0  0  # atno 17343 bound_to 10162
  157.7127  130.9459  150.1145 LP  0  0  0  0  0  0  0  0  0  0  0  0  # atno 17370 bound_to 10713
  156.2052  130.3663  149.8739 LP  0  0  0  0  0  0  0  0  0  0  0  0  # atno 17371 bound_to 10713
  140.4360  134.1730  155.7171 LP  0  0  0  0  0  0  0  0  0  0  0  0  # atno 17394 bound_to 11000
  141.1783  133.8467  157.1345 LP  0  0  0  0  0  0  0  0  0  0  0  0  # atno 17395 bound_to 11000

$$$$
