AV-unprocessed.smi:3168|AV-procd|sdf|12101|dock10
  -GOLD-   2272017533D 1   1.00000     0.00000
 Structure written by MMmdl.
 33 34  0  0  0  0  0  0  0  0  1 V2000
  148.9898  138.1989  155.1131 C   0  0  0  0  0  0  0  0  0  0  0  0
  149.5199  139.5808  154.6785 C   0  0  2  0  0  0  0  0  0  0  0  0
  150.8083  139.9902  155.4138 C   0  0  0  0  0  0  0  0  0  0  0  0
  151.8962  139.9733  154.8363 O   0  0  0  0  0  0  0  0  0  0  0  0
  150.6653  140.3717  156.6934 N   0  0  0  0  0  0  0  0  0  0  0  0
  151.7430  140.8299  157.5622 C   0  0  0  0  0  0  0  0  0  0  0  0
  151.3366  142.0950  158.3348 C   0  0  1  0  0  0  0  0  0  0  0  0
  152.3589  142.5279  159.3831 C   0  0  0  0  0  0  0  0  0  0  0  0
  152.0185  143.9909  159.5515 C   0  0  0  0  0  0  0  0  0  0  0  0
  151.6686  144.4027  158.1234 C   0  0  0  0  0  0  0  0  0  0  0  0
  151.2277  143.2180  157.4638 O   0  0  0  0  0  0  0  0  0  0  0  0
  148.5009  140.6178  154.8018 N   0  0  0  0  0  0  0  0  0  0  0  0
  147.9811  141.4198  153.8056 C   0  0  0  0  0  0  0  0  0  0  0  0
  147.0798  142.2650  154.3866 C   0  0  0  0  0  0  0  0  0  0  0  0
  147.1207  141.9080  155.7628 C   0  0  0  0  0  0  0  0  0  0  0  0
  147.9747  140.9283  156.0098 N   0  0  0  0  0  0  0  0  0  0  0  0
  149.7402  137.4226  154.9585 H   0  0  0  0  0  0  0  0  0  0  0  0
  148.1096  137.9209  154.5327 H   0  0  0  0  0  0  0  0  0  0  0  0
  148.7090  138.1816  156.1670 H   0  0  0  0  0  0  0  0  0  0  0  0
  149.7750  139.5068  153.6202 H   0  0  0  0  0  0  0  0  0  0  0  0
  149.7372  140.3558  157.0904 H   0  0  0  0  0  0  0  0  0  0  0  0
  151.9614  140.0266  158.2663 H   0  0  0  0  0  0  0  0  0  0  0  0
  152.6609  141.0007  156.9971 H   0  0  0  0  0  0  0  0  0  0  0  0
  150.3701  141.9477  158.8201 H   0  0  0  0  0  0  0  0  0  0  0  0
  152.2830  141.9613  160.3115 H   0  0  0  0  0  0  0  0  0  0  0  0
  153.3746  142.4229  158.9982 H   0  0  0  0  0  0  0  0  0  0  0  0
  151.1462  144.0977  160.1976 H   0  0  0  0  0  0  0  0  0  0  0  0
  152.8333  144.5768  159.9776 H   0  0  0  0  0  0  0  0  0  0  0  0
  150.9038  145.1791  158.0959 H   0  0  0  0  0  0  0  0  0  0  0  0
  152.5508  144.7786  157.6042 H   0  0  0  0  0  0  0  0  0  0  0  0
  148.2932  141.3238  152.7759 H   0  0  0  0  0  0  0  0  0  0  0  0
  146.4844  143.0249  153.9026 H   0  0  0  0  0  0  0  0  0  0  0  0
  146.5619  142.3306  156.5849 H   0  0  0  0  0  0  0  0  0  0  0  0
  1  2  1  0  0  0  0
  1 17  1  0  0  0  0
  1 18  1  0  0  0  0
  1 19  1  0  0  0  0
  2  3  1  0  0  0  0
  2 12  1  0  0  0  0
  2 20  1  0  0  0  0
  3  4  2  0  0  0  0
  3  5  1  0  0  0  0
  5  6  1  0  0  0  0
  5 21  1  0  0  0  0
  6  7  1  0  0  0  0
  6 22  1  0  0  0  0
  6 23  1  0  0  0  0
  7 11  1  0  0  0  0
  7  8  1  0  0  0  0
  7 24  1  0  0  0  0
  8  9  1  0  0  0  0
  8 25  1  0  0  0  0
  8 26  1  0  0  0  0
  9 10  1  0  0  0  0
  9 27  1  0  0  0  0
  9 28  1  0  0  0  0
 10 11  1  0  0  0  0
 10 29  1  0  0  0  0
 10 30  1  0  0  0  0
 12 16  1  0  0  0  0
 12 13  1  0  0  0  0
 13 14  2  0  0  0  0
 13 31  1  0  0  0  0
 14 15  1  0  0  0  0
 14 32  1  0  0  0  0
 15 16  2  0  0  0  0
 15 33  1  0  0  0  0
M  END
> <s_m_source_file>
AV-unprocessed.smi

> <i_m_source_file_index>
3168

> <i_lp_mmshare_version>
43012

> <i_f3d_flags>
0

> <s_epik_input>
bjFbY0hdW2NIXVtjSF1uMVtDQEhdKFtDSDNdKUMoPU8pW05IXVtDSDJdW0NAQEhdMltDSDJdW0NIMl1bQ0gyXU8y

> <s_epik_cmdline>
J2VwaWtfcHl0aG9uJywgJy1waCcsICc3LjAnLCAnLXRuJywgJzgnLCAnLW1hJywgJzIwMCcsICctbWV0YWxfYmluZGluZycsICctaW1hZScsICc8aW5maWxlLm1hZT4nLCAnLW9tYWUnLCAnPG91dGZpbGUubWFlPic=

> <r_lp_tautomer_probability>
1

> <r_epik_Ionization_Penalty>
4.14877e-05

> <r_epik_Ionization_Penalty_Charging>
0

> <r_epik_Ionization_Penalty_Neutral>
4.14877e-05

> <r_epik_State_Penalty>
-0

> <r_epik_Charging_Adjusted_Penalty>
0

> <i_epik_Tot_Q>
0

> <i_epik_Tot_abs_Q>
0

> <r_epik_Metal_State_Penalty>
-0

> <b_epik_Metal_Only>
0

> <s_lp_Force_Field>
OPLS_2005

> <r_lp_Energy>
21.5397

> <b_lp_Chiralities_Consistent>
1

> <s_lp_Variant>
AV-unprocessed.smi:3168-3

> <Gold.Version>
5.8.1

> <Gold.Id.Protein>
6NUR|6NUR_protein|mol2

> <Gold.PLP.Fitness>
38.4165

> <Gold.PLP.PLP>
-33.2386

> <Gold.PLP.part.hbond>
-1.0000

> <Gold.PLP.part.metal>
0.0000

> <Gold.PLP.part.buried>
-4.0040

> <Gold.PLP.part.nonpolar>
-28.8659

> <Gold.PLP.part.repulsive>
0.3101

> <Gold.PLP.ligand.clash>
0.0000

> <Gold.PLP.ligand.torsion>
0.3792

> <Gold.PLP.Chemscore.Hbond>
0.9440

> <Gold.PLP.Chemscore.CHOScore>
1.0000

> <Gold.PLP.Chemscore.Metal>
0.0000

> <Gold.Chemscore.Hbonds>
donor molecule, donor type, donor heavy atom, donor atom, acceptor molecule, acceptor atom, score
      P1  H  7989  7998       L1     4  0.91
      L1  C    13    31       P1  7957  1.00

> <Gold.PLP.Chemscore.Internal.Correction>
0.1042

> <Gold.Rescore>
     Score         DG    S(hbond)    S(metal)    S(lipo)     H(rot)  DE(clash)    DE(int)     intcor
     11.63     -13.52       0.94        0.00      77.20       1.61       0.12       1.76       ----

> <Gold.Chemscore.Fitness>
11.6339

> <Gold.Chemscore.DG>
-13.5154

> <Gold.Chemscore.ZeroCoef>
-5.4800

> <Gold.Chemscore.Hbond>
0.9351

> <Gold.Chemscore.Metal>
0.0000

> <Gold.Chemscore.Lipo>
77.1988

> <Gold.Chemscore.Internal_Hbond>
0.0000

> <Gold.Chemscore.DEClash>
0.1176

> <Gold.Chemscore.DEInternal>
1.7638

> <Gold.Chemscore.Rot>
1.6094

> <Gold.Chemscore.Internal.Correction>
   9.000000E+99

> <Gold.Chemscore.Hbonds>
donor molecule, donor type, donor heavy atom, donor atom, acceptor molecule, acceptor atom, score
      P1  H  7989  7998       L1     4  0.44

> <Gold.Chemscore.Hbond.Weighted>
-3.1232

> <Gold.Chemscore.Metal.Weighted>
-0.0000

> <Gold.Chemscore.Lipo.Weighted>
-9.0323

> <Gold.Chemscore.Internal_Hbond.Weighted>
0.0000

> <Gold.Chemscore.DEClash.Weighted>
0.1176

> <Gold.Chemscore.DEInternal.Weighted>
1.7638

> <Gold.Chemscore.Rot.Weighted>
4.1201

> <Gold.Chemscore.Internal.Correction.Weighted>
   9.000000E+99

> <Gold.Protein.RotatedTorsions>
[ 6907 6896 6895 6894 ] final -133.91 input  -60.11 | X-H torsion
[ 7974 7965 7964 7962 ] final   65.40 input  175.53 | X-H torsion
[ 8008 7997 7996 7995 ] final   -0.74 input   59.86 | X-H torsion
[ 10167 10162 10161 10158 ] final  158.35 input  -65.29 | X-H torsion
[ 10718 10713 10712 10709 ] final  -93.89 input   66.30 | X-H torsion
[ 10763 10752 10751 10750 ] final -113.32 input  -60.55 | X-H torsion
[ 11005 11000 10999 10996 ] final   19.87 input  -57.11 | X-H torsion

> <Gold.Protein.ActiveResidues>
 VAL166  LYS551  ARG553  GLY616  TRP617  ASP618  TYR619  PRO620  LYS621  CYS622 
 ASP623  PHE694  ASN695  SER759  ASP760  ASP761  ALA762  ILE779  LEU786  VAL792 
 PHE793  MET794  SER795  GLU796  ALA797  LYS798  CYS799  TRP800  GLU811  SER814 

> <Gold.Protein.RotatedAtoms>
  150.9796  133.6259  159.2724 H   0  0  0  0  0  0  0  0  0  0  0  0  # atno 6907 bound_to 6896
  151.3519  135.0885  159.9415 H   0  0  0  0  0  0  0  0  0  0  0  0  # atno 6908 bound_to 6896
  152.5211  133.9387  159.7670 H   0  0  0  0  0  0  0  0  0  0  0  0  # atno 6909 bound_to 6896
  145.8389  139.3184  143.0943 H   0  0  0  0  0  0  0  0  0  0  0  0  # atno 7974 bound_to 7965
  154.6546  140.2576  155.7176 H   0  0  0  0  0  0  0  0  0  0  0  0  # atno 8008 bound_to 7997
  156.2591  140.2861  156.0915 H   0  0  0  0  0  0  0  0  0  0  0  0  # atno 8009 bound_to 7997
  155.1399  140.0380  157.2786 H   0  0  0  0  0  0  0  0  0  0  0  0  # atno 8010 bound_to 7997
  139.4826  144.4833  151.8413 H   0  0  0  0  0  0  0  0  0  0  0  0  # atno 10167 bound_to 10162
  156.0019  130.5045  150.5845 H   0  0  0  0  0  0  0  0  0  0  0  0  # atno 10718 bound_to 10713
  154.8391  135.4458  154.1331 H   0  0  0  0  0  0  0  0  0  0  0  0  # atno 10763 bound_to 10752
  153.2536  135.6929  153.7659 H   0  0  0  0  0  0  0  0  0  0  0  0  # atno 10764 bound_to 10752
  153.6962  135.3379  155.3189 H   0  0  0  0  0  0  0  0  0  0  0  0  # atno 10765 bound_to 10752
  140.4089  134.1639  155.7666 H   0  0  0  0  0  0  0  0  0  0  0  0  # atno 11005 bound_to 11000
  145.9487  140.8925  143.0270 LP  0  0  0  0  0  0  0  0  0  0  0  0  # atno 17320 bound_to 7965
  144.6735  140.1650  143.7419 LP  0  0  0  0  0  0  0  0  0  0  0  0  # atno 17321 bound_to 7965
  140.4311  144.2115  150.5888 LP  0  0  0  0  0  0  0  0  0  0  0  0  # atno 17342 bound_to 10162
  140.4779  143.2389  151.8997 LP  0  0  0  0  0  0  0  0  0  0  0  0  # atno 17343 bound_to 10162
  157.3719  131.0767  151.1550 LP  0  0  0  0  0  0  0  0  0  0  0  0  # atno 17370 bound_to 10713
  157.2301  130.6521  149.5846 LP  0  0  0  0  0  0  0  0  0  0  0  0  # atno 17371 bound_to 10713
  141.1829  133.8376  157.1194 LP  0  0  0  0  0  0  0  0  0  0  0  0  # atno 17394 bound_to 11000
  140.0282  134.9914  157.0728 LP  0  0  0  0  0  0  0  0  0  0  0  0  # atno 17395 bound_to 11000

$$$$
