#       Name:                AV-unprocessed.smi:1376
#       Creating user name   scv26
#       Creation time:       Fri Mar 27 05:19:44 2020


#       File generated by GOLD software.
#

@<TRIPOS>MOLECULE
AV-unprocessed.smi:1376
    48    49     1
SMALL
NO_CHARGES


@<TRIPOS>ATOM
      1 ****        -0.9870   0.8733  -0.4877 O.2            1 S1                 0.0000
      2 ****        -1.4608   0.0975   0.3441 C.2            1 S1                 0.0000
      3 ****        -2.9794  -0.0693   0.5018 C.3            1 S1                 0.0000
      4 ****        -3.7647   0.7611  -0.4268 N.am           1 S1                 0.0000
      5 ****        -4.1664   0.1594  -1.6363 C.2            1 S1                 0.0000
      6 ****        -4.8792   0.8252  -2.5585 C.2            1 S1                 0.0000
      7 ****        -5.2357   2.1973  -2.2853 C.2            1 S1                 0.0000
      8 ****        -4.8546   2.7834  -1.1328 C.2            1 S1                 0.0000
      9 ****        -4.0727   2.0600  -0.1230 C.2            1 S1                 0.0000
     10 ****        -3.7156   2.5894   0.9296 O.2            1 S1                 0.0000
     11 ****        -0.7048  -0.6550   1.1582 N.am           1 S1                 0.0000
     12 ****         0.7547  -0.6564   1.1893 C.3            1 S1                 0.0000
     13 ****         1.2454  -1.2424   2.5260 C.3            1 S1                 0.0000
     14 ****         2.7802  -1.3054   2.5826 C.3            1 S1                 0.0000
     15 ****         3.3582  -2.0802   1.3854 C.3            1 S1                 0.0000
     16 ****         2.8755  -1.5007   0.0435 C.3            1 S1                 0.0000
     17 ****         3.4496  -0.2047  -0.0927 O.3            1 S1                 0.0000
     18 ****         3.3914   0.3514  -1.3991 C.3            1 S1                 0.0000
     19 ****         4.1512   1.6831  -1.4100 C.3            1 S1                 0.0000
     20 ****         4.1180   2.1995  -2.6379 F              1 S1                 0.0000
     21 ****         3.5818   2.5445  -0.5674 F              1 S1                 0.0000
     22 ****         5.4234   1.4907  -1.0618 F              1 S1                 0.0000
     23 ****         1.3330  -1.4580   0.0035 C.3            1 S1                 0.0000
     24 ****        -3.2267  -1.1228   0.3628 H              1 S1                 0.0000
     25 ****        -3.2515   0.1518   1.5355 H              1 S1                 0.0000
     26 ****        -3.8534  -0.8666  -1.7654 H              1 S1                 0.0000
     27 ****        -5.1750   0.3485  -3.4813 H              1 S1                 0.0000
     28 ****        -5.8096   2.7570  -3.0092 H              1 S1                 0.0000
     29 ****        -5.1297   3.8112  -0.9464 H              1 S1                 0.0000
     30 ****        -1.1746  -1.2651   1.8115 H              1 S1                 0.0000
     31 ****         1.1021   0.3765   1.1225 H              1 S1                 0.0000
     32 ****         0.8734  -0.6424   3.3573 H              1 S1                 0.0000
     33 ****         0.8380  -2.2454   2.6620 H              1 S1                 0.0000
     34 ****         3.1855  -0.2928   2.5936 H              1 S1                 0.0000
     35 ****         3.0979  -1.7727   3.5149 H              1 S1                 0.0000
     36 ****         4.4480  -2.0707   1.4263 H              1 S1                 0.0000
     37 ****         3.0586  -3.1266   1.4564 H              1 S1                 0.0000
     38 ****         3.2458  -2.1403  -0.7593 H              1 S1                 0.0000
     39 ****         3.8366  -0.3344  -2.1213 H              1 S1                 0.0000
     40 ****         2.3585   0.5230  -1.7011 H              1 S1                 0.0000
     41 ****         0.9510  -2.4792   0.0402 H              1 S1                 0.0000
     42 ****         0.9837  -1.0513  -0.9447 H              1 S1                 0.0000
     43 ****        -1.5941   1.4082  -1.0752 LP             1 S1                 0.0000
     44 ****         0.0047   0.9679  -0.5752 LP             1 S1                 0.0000
     45 ****        -3.1824   2.0679   1.5958 LP             1 S1                 0.0000
     46 ****        -3.9587   3.5408   1.1184 LP             1 S1                 0.0000
     47 ****         4.4112  -0.2631   0.1756 LP             1 S1                 0.0000
     48 ****         2.9673   0.4135   0.5280 LP             1 S1                 0.0000
@<TRIPOS>BOND
    1    1    2 2     
    2    2    3 1     
    3    2   11 am    
    4    3    4 1     
    5    3   24 1     
    6    3   25 1     
    7    4    9 am    
    8    4    5 1     
    9    5    6 2     
   10    5   26 1     
   11    6    7 1     
   12    6   27 1     
   13    7    8 2     
   14    7   28 1     
   15    8    9 1     
   16    8   29 1     
   17    9   10 2     
   18   11   12 1     
   19   11   30 1     
   20   12   23 1     
   21   12   13 1     
   22   12   31 1     
   23   13   14 1     
   24   13   32 1     
   25   13   33 1     
   26   14   15 1     
   27   14   34 1     
   28   14   35 1     
   29   15   16 1     
   30   15   36 1     
   31   15   37 1     
   32   16   17 1     
   33   16   23 1     
   34   16   38 1     
   35   17   18 1     
   36   18   19 1     
   37   18   39 1     
   38   18   40 1     
   39   19   20 1     
   40   19   21 1     
   41   19   22 1     
   42   23   41 1     
   43   23   42 1     
   44    1   43 1     
   45    1   44 1     
   46   10   45 1     
   47   10   46 1     
   48   17   47 1     
   49   17   48 1     
@<TRIPOS>SUBSTRUCTURE
      1 S1             1
@<TRIPOS>SET
LONE_PAIRS      STATIC     ATOMS    <user>   **** ""
6 43 44 45 46 47 48
DONOR_HYDROGENS      STATIC     ATOMS    <user>   **** ""
1 30
ATOM$BLUE        STATIC     ATOMS    COLORGROUP SYSTEM
6 43 44 45 46 47 48
ATOM$RED        STATIC     ATOMS    COLORGROUP SYSTEM
1 30
