AV-unprocessed.smi:1389|AV-procd|sdf|5647|dock4
  -GOLD-   22720 5263D 1   1.00000     0.00000
 Structure written by MMmdl.
 51 53  0  0  0  0  0  0  0  0  1 V2000
  147.5486  136.9045  162.4517 C   0  0  0  0  0  0  0  0  0  0  0  0
  146.7619  136.6392  161.1477 C   0  0  1  0  0  0  0  0  0  0  0  0
  147.7088  135.9350  160.1412 C   0  0  0  0  0  0  0  0  0  0  0  0
  148.0834  136.8158  159.0369 N   0  0  0  0  0  0  0  0  0  0  0  0
  149.3316  137.0357  158.6012 C   0  0  0  0  0  0  0  0  0  0  0  0
  150.3351  136.5502  159.1237 O   0  0  0  0  0  0  0  0  0  0  0  0
  149.3312  137.8214  157.5122 N   0  0  0  0  0  0  0  0  0  0  0  0
  150.4487  138.2494  156.7416 C   0  0  0  0  0  0  0  0  0  0  0  0
  151.7669  137.8144  157.0204 C   0  0  0  0  0  0  0  0  0  0  0  0
  152.8279  138.2870  156.2279 C   0  0  0  0  0  0  0  0  0  0  0  0
  152.5340  139.1866  155.1885 C   0  0  0  0  0  0  0  0  0  0  0  0
  151.2867  139.6235  154.9212 N   0  0  0  0  0  0  0  0  0  0  0  0
  150.2562  139.1707  155.6768 C   0  0  0  0  0  0  0  0  0  0  0  0
  148.9672  139.6677  155.3925 N   0  0  0  0  0  0  0  0  0  0  0  0
  148.9691  140.8556  154.5438 C   0  0  0  0  0  0  0  0  0  0  0  0
  147.7168  140.7620  153.6713 C   0  0  0  0  0  0  0  0  0  0  0  0
  147.4957  139.2589  153.5537 C   0  0  0  0  0  0  0  0  0  0  0  0
  147.9274  138.7500  154.9282 C   0  0  0  0  0  0  0  0  0  0  0  0
  145.4812  135.9307  161.3655 N   0  0  0  0  0  0  0  0  0  0  0  0
  145.6610  134.6334  162.0243 C   0  0  0  0  0  0  0  0  0  0  0  0
  144.3286  133.9029  162.2644 C   0  0  0  0  0  0  0  0  0  0  0  0
  143.4626  134.7276  163.0331 O   0  0  0  0  0  0  0  0  0  0  0  0
  143.2053  135.9739  162.3998 C   0  0  0  0  0  0  0  0  0  0  0  0
  144.5309  136.7163  162.1587 C   0  0  0  0  0  0  0  0  0  0  0  0
  148.5404  137.3053  162.2407 H   0  0  0  0  0  0  0  0  0  0  0  0
  147.6808  135.9910  163.0326 H   0  0  0  0  0  0  0  0  0  0  0  0
  147.0524  137.6377  163.0866 H   0  0  0  0  0  0  0  0  0  0  0  0
  146.5343  137.6173  160.7211 H   0  0  0  0  0  0  0  0  0  0  0  0
  148.6188  135.5887  160.6290 H   0  0  0  0  0  0  0  0  0  0  0  0
  147.2393  135.0223  159.7705 H   0  0  0  0  0  0  0  0  0  0  0  0
  147.3245  137.2543  158.5363 H   0  0  0  0  0  0  0  0  0  0  0  0
  148.4262  138.0518  157.1288 H   0  0  0  0  0  0  0  0  0  0  0  0
  151.9812  137.1394  157.8351 H   0  0  0  0  0  0  0  0  0  0  0  0
  153.8430  137.9706  156.4165 H   0  0  0  0  0  0  0  0  0  0  0  0
  153.3226  139.5727  154.5598 H   0  0  0  0  0  0  0  0  0  0  0  0
  148.9681  141.7672  155.1416 H   0  0  0  0  0  0  0  0  0  0  0  0
  149.8622  140.8666  153.9162 H   0  0  0  0  0  0  0  0  0  0  0  0
  146.8710  141.2201  154.1860 H   0  0  0  0  0  0  0  0  0  0  0  0
  147.8340  141.2552  152.7061 H   0  0  0  0  0  0  0  0  0  0  0  0
  146.4671  138.9947  153.3067 H   0  0  0  0  0  0  0  0  0  0  0  0
  148.1485  138.8464  152.7830 H   0  0  0  0  0  0  0  0  0  0  0  0
  148.2278  137.7028  154.8945 H   0  0  0  0  0  0  0  0  0  0  0  0
  147.0929  138.8163  155.6267 H   0  0  0  0  0  0  0  0  0  0  0  0
  146.2869  133.9803  161.4180 H   0  0  0  0  0  0  0  0  0  0  0  0
  146.1757  134.7699  162.9767 H   0  0  0  0  0  0  0  0  0  0  0  0
  143.8525  133.6458  161.3169 H   0  0  0  0  0  0  0  0  0  0  0  0
  144.4997  132.9695  162.8007 H   0  0  0  0  0  0  0  0  0  0  0  0
  142.6773  135.8115  161.4588 H   0  0  0  0  0  0  0  0  0  0  0  0
  142.5491  136.5674  163.0365 H   0  0  0  0  0  0  0  0  0  0  0  0
  144.9781  136.9779  163.1190 H   0  0  0  0  0  0  0  0  0  0  0  0
  144.2925  137.6520  161.6561 H   0  0  0  0  0  0  0  0  0  0  0  0
  1  2  1  0  0  0  0
  1 25  1  0  0  0  0
  1 26  1  0  0  0  0
  1 27  1  0  0  0  0
  2  3  1  0  0  0  0
  2 19  1  0  0  0  0
  2 28  1  0  0  0  0
  3  4  1  0  0  0  0
  3 29  1  0  0  0  0
  3 30  1  0  0  0  0
  4  5  1  0  0  0  0
  4 31  1  0  0  0  0
  5  6  2  0  0  0  0
  5  7  1  0  0  0  0
  7  8  1  0  0  0  0
  7 32  1  0  0  0  0
  8 13  1  0  0  0  0
  8  9  2  0  0  0  0
  9 10  1  0  0  0  0
  9 33  1  0  0  0  0
 10 11  2  0  0  0  0
 10 34  1  0  0  0  0
 11 12  1  0  0  0  0
 11 35  1  0  0  0  0
 12 13  2  0  0  0  0
 13 14  1  0  0  0  0
 14 18  1  0  0  0  0
 14 15  1  0  0  0  0
 15 16  1  0  0  0  0
 15 36  1  0  0  0  0
 15 37  1  0  0  0  0
 16 17  1  0  0  0  0
 16 38  1  0  0  0  0
 16 39  1  0  0  0  0
 17 18  1  0  0  0  0
 17 40  1  0  0  0  0
 17 41  1  0  0  0  0
 18 42  1  0  0  0  0
 18 43  1  0  0  0  0
 19 24  1  0  0  0  0
 19 20  1  0  0  0  0
 20 21  1  0  0  0  0
 20 44  1  0  0  0  0
 20 45  1  0  0  0  0
 21 22  1  0  0  0  0
 21 46  1  0  0  0  0
 21 47  1  0  0  0  0
 22 23  1  0  0  0  0
 23 24  1  0  0  0  0
 23 48  1  0  0  0  0
 23 49  1  0  0  0  0
 24 50  1  0  0  0  0
 24 51  1  0  0  0  0
M  END
> <s_m_source_file>
AV-unprocessed.smi

> <i_m_source_file_index>
1389

> <i_lp_mmshare_version>
43012

> <i_f3d_flags>
0

> <s_epik_input>
W0NIMl0xW0NIMl1PW0NIMl1bQ0gyXU4xW0NASF0oW0NIM10pW0NIMl1bTkhdQyg9TylbTkhdYzJbY0hdW2NIXVtjSF1uYzJOM1tDSDJdW0NIMl1bQ0gyXVtDSDJdMw==

> <s_epik_cmdline>
J2VwaWtfcHl0aG9uJywgJy1waCcsICc3LjAnLCAnLXRuJywgJzgnLCAnLW1hJywgJzIwMCcsICctbWV0YWxfYmluZGluZycsICctaW1hZScsICc8aW5maWxlLm1hZT4nLCAnLW9tYWUnLCAnPG91dGZpbGUubWFlPic=

> <r_lp_tautomer_probability>
1

> <r_epik_Ionization_Penalty>
0.365229

> <r_epik_Ionization_Penalty_Charging>
0

> <r_epik_Ionization_Penalty_Neutral>
0.365229

> <r_epik_State_Penalty>
0.350519

> <r_epik_Charging_Adjusted_Penalty>
0.350519

> <i_epik_Tot_Q>
0

> <i_epik_Tot_abs_Q>
0

> <r_epik_Metal_State_Penalty>
0.33386

> <b_epik_Metal_Only>
0

> <s_lp_Force_Field>
OPLS_2005

> <r_lp_Energy>
61.7302

> <b_lp_Chiralities_Consistent>
1

> <s_lp_Variant>
AV-unprocessed.smi:1389-2

> <Gold.Version>
5.8.1

> <Gold.Id.Protein>
6NUR|6NUR_protein|mol2

> <Gold.PLP.Fitness>
37.2492

> <Gold.PLP.PLP>
-33.1101

> <Gold.PLP.part.hbond>
-2.0000

> <Gold.PLP.part.metal>
0.0000

> <Gold.PLP.part.buried>
-4.6470

> <Gold.PLP.part.nonpolar>
-26.7125

> <Gold.PLP.part.repulsive>
0.3840

> <Gold.PLP.ligand.clash>
0.0000

> <Gold.PLP.ligand.torsion>
1.0149

> <Gold.PLP.Chemscore.Hbond>
2.0000

> <Gold.PLP.Chemscore.CHOScore>
0.0000

> <Gold.PLP.Chemscore.Metal>
0.0000

> <Gold.Chemscore.Hbonds>
donor molecule, donor type, donor heavy atom, donor atom, acceptor molecule, acceptor atom, score
      P1  H  6896  6907       L1     6  1.00
      P1  H  7989  7998       L1    12  1.00

> <Gold.PLP.Chemscore.Internal.Correction>
0.1690

> <Gold.Rescore>
     Score         DG    S(hbond)    S(metal)    S(lipo)     H(rot)  DE(clash)    DE(int)     intcor
     15.23     -17.73       1.84        0.00      86.43       1.57       0.06       2.44       ----

> <Gold.Chemscore.Fitness>
15.2288

> <Gold.Chemscore.DG>
-17.7290

> <Gold.Chemscore.ZeroCoef>
-5.4800

> <Gold.Chemscore.Hbond>
1.8444

> <Gold.Chemscore.Metal>
0.0000

> <Gold.Chemscore.Lipo>
86.4316

> <Gold.Chemscore.Internal_Hbond>
0.0000

> <Gold.Chemscore.DEClash>
0.0571

> <Gold.Chemscore.DEInternal>
2.4431

> <Gold.Chemscore.Rot>
1.5718

> <Gold.Chemscore.Internal.Correction>
   9.000000E+99

> <Gold.Chemscore.Hbonds>
donor molecule, donor type, donor heavy atom, donor atom, acceptor molecule, acceptor atom, score
      P1  H  6896  6907       L1     6  1.00
      P1  H  7989  7998       L1    12  0.25

> <Gold.Chemscore.Hbond.Weighted>
-6.1604

> <Gold.Chemscore.Metal.Weighted>
-0.0000

> <Gold.Chemscore.Lipo.Weighted>
-10.1125

> <Gold.Chemscore.Internal_Hbond.Weighted>
0.0000

> <Gold.Chemscore.DEClash.Weighted>
0.0571

> <Gold.Chemscore.DEInternal.Weighted>
2.4431

> <Gold.Chemscore.Rot.Weighted>
4.0239

> <Gold.Chemscore.Internal.Correction.Weighted>
   9.000000E+99

> <Gold.Protein.RotatedTorsions>
[ 6907 6896 6895 6894 ] final  -41.27 input  -60.11 | X-H torsion
[ 7974 7965 7964 7962 ] final  133.48 input  175.53 | X-H torsion
[ 8008 7997 7996 7995 ] final  108.75 input   59.86 | X-H torsion
[ 10167 10162 10161 10158 ] final   97.23 input  -65.29 | X-H torsion
[ 10718 10713 10712 10709 ] final  147.06 input   66.30 | X-H torsion
[ 10763 10752 10751 10750 ] final  -17.17 input  -60.55 | X-H torsion
[ 11005 11000 10999 10996 ] final  -98.39 input  -57.11 | X-H torsion

> <Gold.Protein.ActiveResidues>
 VAL166  LYS551  ARG553  GLY616  TRP617  ASP618  TYR619  PRO620  LYS621  CYS622 
 ASP623  PHE694  ASN695  SER759  ASP760  ASP761  ALA762  ILE779  LEU786  VAL792 
 PHE793  MET794  SER795  GLU796  ALA797  LYS798  CYS799  TRP800  GLU811  SER814 

> <Gold.Protein.RotatedAtoms>
  150.9687  134.9064  159.7774 H   0  0  0  0  0  0  0  0  0  0  0  0  # atno 6907 bound_to 6896
  152.5182  134.3570  159.9281 H   0  0  0  0  0  0  0  0  0  0  0  0  # atno 6908 bound_to 6896
  151.3580  133.3859  159.2721 H   0  0  0  0  0  0  0  0  0  0  0  0  # atno 6909 bound_to 6896
  144.9861  139.4454  143.5362 H   0  0  0  0  0  0  0  0  0  0  0  0  # atno 7974 bound_to 7965
  156.1927  140.3070  155.9364 H   0  0  0  0  0  0  0  0  0  0  0  0  # atno 8008 bound_to 7997
  155.3137  140.0452  157.3053 H   0  0  0  0  0  0  0  0  0  0  0  0  # atno 8009 bound_to 7997
  154.5471  140.2280  155.8554 H   0  0  0  0  0  0  0  0  0  0  0  0  # atno 8010 bound_to 7997
  139.7821  144.6884  151.0009 H   0  0  0  0  0  0  0  0  0  0  0  0  # atno 10167 bound_to 10162
  157.3256  131.0911  151.1205 H   0  0  0  0  0  0  0  0  0  0  0  0  # atno 10718 bound_to 10713
  153.5698  135.7008  153.5510 H   0  0  0  0  0  0  0  0  0  0  0  0  # atno 10763 bound_to 10752
  153.3355  135.4035  155.1529 H   0  0  0  0  0  0  0  0  0  0  0  0  # atno 10764 bound_to 10752
  154.8635  135.3729  154.5220 H   0  0  0  0  0  0  0  0  0  0  0  0  # atno 10765 bound_to 10752
  141.1346  133.8242  157.0833 H   0  0  0  0  0  0  0  0  0  0  0  0  # atno 11005 bound_to 11000
  146.3420  139.9164  142.8773 LP  0  0  0  0  0  0  0  0  0  0  0  0  # atno 17320 bound_to 7965
  145.2351  140.9988  143.3968 LP  0  0  0  0  0  0  0  0  0  0  0  0  # atno 17321 bound_to 7965
  140.7818  143.4472  151.0465 LP  0  0  0  0  0  0  0  0  0  0  0  0  # atno 17342 bound_to 10162
  139.8152  143.7895  152.3174 LP  0  0  0  0  0  0  0  0  0  0  0  0  # atno 17343 bound_to 10162
  157.2473  130.6597  149.5916 LP  0  0  0  0  0  0  0  0  0  0  0  0  # atno 17370 bound_to 10713
  155.9690  130.4549  150.5868 LP  0  0  0  0  0  0  0  0  0  0  0  0  # atno 17371 bound_to 10713
  140.0438  134.9841  157.1010 LP  0  0  0  0  0  0  0  0  0  0  0  0  # atno 17394 bound_to 11000
  140.4095  134.1997  155.7163 LP  0  0  0  0  0  0  0  0  0  0  0  0  # atno 17395 bound_to 11000

$$$$
