#       Name:                AV-unprocessed.smi:157
#       Creating user name   scv26
#       Creation time:       Thu Mar 26 19:00:00 2020


#       File generated by GOLD software.
#

@<TRIPOS>MOLECULE
AV-unprocessed.smi:157
    45    47     1
SMALL
NO_CHARGES


@<TRIPOS>ATOM
      1 ****        -4.5727   1.5296  -1.6932 O.3            1 S1                 0.0000
      2 ****        -4.3042   0.1443  -1.6638 C.3            1 S1                 0.0000
      3 ****        -2.7942  -0.0906  -1.5127 C.3            1 S1                 0.0000
      4 ****        -2.4240   0.0131  -0.1406 O.3            1 S1                 0.0000
      5 ****        -1.2836  -0.7548   0.1105 C.3            1 S1                 0.0000
      6 ****        -0.1271   0.1633   0.3527 N.pl3          1 S1                 0.0000
      7 ****        -0.0056   1.4424  -0.0636 C.2            1 S1                 0.0000
      8 ****         1.1296   2.0234   0.2856 N.pl3          1 S1                 1.0000
      9 ****         1.8480   1.0839   0.9943 C.2            1 S1                 0.0000
     10 ****         1.0559  -0.0668   1.0159 C.2            1 S1                 0.0000
     11 ****         1.3076  -1.3221   1.5904 N.2            1 S1                 0.0000
     12 ****         2.4834  -1.6973   1.9777 C.2            1 S1                 0.0000
     13 ****         3.6666  -0.9777   2.0035 N.pl3          1 S1                 0.0000
     14 ****         3.7619   0.3793   2.5118 C.3            1 S1                 0.0000
     15 ****         3.1891   1.4353   1.5578 C.3            1 S1                 0.0000
     16 ****         4.1463   1.7031   0.5539 O.3            1 S1                 0.0000
     17 ****        -1.0234  -1.6059  -1.1364 C.3            1 S1                 0.0000
     18 ****        -2.3529  -1.5138  -1.8578 C.3            1 S1                 0.0000
     19 ****        -2.1907  -1.7085  -3.2477 O.3            1 S1                 0.0000
     20 ****        -2.2196   0.6268  -2.1024 H              1 S1                 0.0000
     21 ****        -1.4004  -1.3277   1.0312 H              1 S1                 0.0000
     22 ****         3.0776   2.3627   2.1207 H              1 S1                 0.0000
     23 ****        -3.0535  -2.2456  -1.4525 H              1 S1                 0.0000
     24 ****        -5.5041   1.6525  -1.7966 H              1 S1                 0.0000
     25 ****        -4.8641  -0.3358  -0.8608 H              1 S1                 0.0000
     26 ****        -4.6586  -0.2785  -2.6043 H              1 S1                 0.0000
     27 ****        -0.7694   1.9459  -0.6286 H              1 S1                 0.0000
     28 ****         2.6154  -2.7133   2.3525 H              1 S1                 0.0000
     29 ****         4.5351  -1.4792   2.1248 H              1 S1                 0.0000
     30 ****         3.2103   0.4154   3.4526 H              1 S1                 0.0000
     31 ****         4.7994   0.6051   2.7606 H              1 S1                 0.0000
     32 ****         3.8674   2.4599   0.0619 H              1 S1                 0.0000
     33 ****        -0.2232  -1.1602  -1.7310 H              1 S1                 0.0000
     34 ****        -0.7399  -2.6240  -0.8678 H              1 S1                 0.0000
     35 ****        -1.5886  -1.0589  -3.5772 H              1 S1                 0.0000
     36 ****         1.4069   2.9742   0.0772 H              1 S1                 0.0000
     37 ****        -4.0897   1.9506  -2.4609 LP             1 S1                 0.0000
     38 ****        -4.2699   1.9501  -0.8379 LP             1 S1                 0.0000
     39 ****        -3.1762  -0.3159   0.4304 LP             1 S1                 0.0000
     40 ****        -2.2330   0.9699   0.0787 LP             1 S1                 0.0000
     41 ****         0.5427  -1.9558   1.7058 LP             1 S1                 0.0000
     42 ****         4.2228   0.9148  -0.0565 LP             1 S1                 0.0000
     43 ****         5.0343   1.8852   0.9761 LP             1 S1                 0.0000
     44 ****        -3.0741  -1.6115  -3.7062 LP             1 S1                 0.0000
     45 ****        -1.8251  -2.6234  -3.4187 LP             1 S1                 0.0000
@<TRIPOS>BOND
    1    1    2 1     
    2    1   24 1     
    3    2    3 1     
    4    2   25 1     
    5    2   26 1     
    6    3   20 1     
    7    3   18 1     
    8    3    4 1     
    9    4    5 1     
   10    5   21 1     
   11    5    6 1     
   12    5   17 1     
   13    6   10 1     
   14    6    7 1     
   15    7    8 2     
   16    7   27 1     
   17    8    9 1     
   18    8   36 1     
   19    9   15 1     
   20    9   10 2     
   21   10   11 1     
   22   11   12 2     
   23   12   13 1     
   24   12   28 1     
   25   13   14 1     
   26   13   29 1     
   27   14   15 1     
   28   14   30 1     
   29   14   31 1     
   30   15   22 1     
   31   15   16 1     
   32   16   32 1     
   33   17   18 1     
   34   17   33 1     
   35   17   34 1     
   36   18   23 1     
   37   18   19 1     
   38   19   35 1     
   39    1   37 1     
   40    1   38 1     
   41    4   39 1     
   42    4   40 1     
   43   11   41 1     
   44   16   42 1     
   45   16   43 1     
   46   19   44 1     
   47   19   45 1     
@<TRIPOS>SUBSTRUCTURE
      1 S1             1
@<TRIPOS>SET
LONE_PAIRS      STATIC     ATOMS    <user>   **** ""
9 37 38 39 40 41 42 43 44 45
DONOR_HYDROGENS      STATIC     ATOMS    <user>   **** ""
5 24 36 29 32 35
ATOM$BLUE        STATIC     ATOMS    COLORGROUP SYSTEM
9 37 38 39 40 41 42 43 44 45
ATOM$RED        STATIC     ATOMS    COLORGROUP SYSTEM
5 24 36 29 32 35
