AV-unprocessed.smi:1985|AV-procd|sdf|8042|dock4
  -GOLD-   2272010233D 1   1.00000     0.00000
 Structure written by MMmdl.
 50 51  0  0  0  0  0  0  0  0  1 V2000
  150.1642  137.0727  157.9626 C   0  0  0  0  0  0  0  0  0  0  0  0
  148.7779  136.7913  157.3585 C   0  0  0  0  0  0  0  0  0  0  0  0
  148.7698  136.4613  155.8286 C   0  0  1  0  0  0  0  0  0  0  0  0
  149.4785  135.0898  155.6705 C   0  0  0  0  0  0  0  0  0  0  0  0
  147.2879  136.2822  155.3623 C   0  0  0  0  0  0  0  0  0  0  0  0
  147.1468  136.2884  153.9125 N   0  0  0  0  0  0  0  0  0  0  0  0
  146.0010  136.3728  153.2205 C   0  0  0  0  0  0  0  0  0  0  0  0
  144.8972  136.4408  153.7588 O   0  0  0  0  0  0  0  0  0  0  0  0
  146.0987  136.3814  151.6842 C   0  0  0  0  0  0  0  0  0  0  0  0
  145.5569  135.1744  151.0374 N   0  0  0  0  0  0  0  0  0  0  0  0
  144.5397  135.2998  150.1083 C   0  0  0  0  0  0  0  0  0  0  0  0
  143.9405  134.2461  149.5126 C   0  0  0  0  0  0  0  0  0  0  0  0
  144.3454  132.8819  149.8267 C   0  0  0  0  0  0  0  0  0  0  0  0
  143.8199  131.8865  149.3266 O   0  0  0  0  0  0  0  0  0  0  0  0
  145.3953  132.7804  150.7675 N   0  0  0  0  0  0  0  0  0  0  0  0
  145.8171  131.4404  151.1194 C   0  0  0  0  0  0  0  0  0  0  0  0
  146.0193  133.8865  151.3899 C   0  0  0  0  0  0  0  0  0  0  0  0
  146.9168  133.7560  152.2251 O   0  0  0  0  0  0  0  0  0  0  0  0
  149.4384  137.5381  155.0387 N   0  0  0  0  0  0  0  0  0  0  0  0
  148.9771  138.9043  155.3231 C   0  0  0  0  0  0  0  0  0  0  0  0
  149.6184  139.9432  154.3880 C   0  0  0  0  0  0  0  0  0  0  0  0
  151.0343  139.8688  154.4885 O   0  0  0  0  0  0  0  0  0  0  0  0
  151.5297  138.5791  154.1531 C   0  0  0  0  0  0  0  0  0  0  0  0
  150.9069  137.5242  155.0835 C   0  0  0  0  0  0  0  0  0  0  0  0
  150.0855  137.2419  159.0364 H   0  0  0  0  0  0  0  0  0  0  0  0
  150.6212  137.9615  157.5283 H   0  0  0  0  0  0  0  0  0  0  0  0
  150.8457  136.2357  157.8120 H   0  0  0  0  0  0  0  0  0  0  0  0
  148.3034  135.9914  157.9251 H   0  0  0  0  0  0  0  0  0  0  0  0
  148.1390  137.6495  157.5700 H   0  0  0  0  0  0  0  0  0  0  0  0
  148.9955  134.3173  156.2699 H   0  0  0  0  0  0  0  0  0  0  0  0
  150.5175  135.1231  155.9962 H   0  0  0  0  0  0  0  0  0  0  0  0
  149.4657  134.7373  154.6397 H   0  0  0  0  0  0  0  0  0  0  0  0
  146.8717  135.3502  155.7472 H   0  0  0  0  0  0  0  0  0  0  0  0
  146.6635  137.0875  155.7502 H   0  0  0  0  0  0  0  0  0  0  0  0
  148.0045  136.2351  153.3826 H   0  0  0  0  0  0  0  0  0  0  0  0
  145.5691  137.2616  151.3171 H   0  0  0  0  0  0  0  0  0  0  0  0
  147.1414  136.5297  151.3987 H   0  0  0  0  0  0  0  0  0  0  0  0
  144.1975  136.2918  149.8501 H   0  0  0  0  0  0  0  0  0  0  0  0
  143.1469  134.4140  148.7993 H   0  0  0  0  0  0  0  0  0  0  0  0
  146.7034  131.4567  151.7530 H   0  0  0  0  0  0  0  0  0  0  0  0
  146.0508  130.9144  150.1918 H   0  0  0  0  0  0  0  0  0  0  0  0
  144.9833  130.9710  151.6445 H   0  0  0  0  0  0  0  0  0  0  0  0
  147.8994  138.9886  155.2028 H   0  0  0  0  0  0  0  0  0  0  0  0
  149.2050  139.1745  156.3542 H   0  0  0  0  0  0  0  0  0  0  0  0
  149.3089  139.7761  153.3552 H   0  0  0  0  0  0  0  0  0  0  0  0
  149.2946  140.9476  154.6603 H   0  0  0  0  0  0  0  0  0  0  0  0
  151.3039  138.3543  153.1095 H   0  0  0  0  0  0  0  0  0  0  0  0
  152.6152  138.5780  154.2530 H   0  0  0  0  0  0  0  0  0  0  0  0
  151.2558  137.7029  156.1005 H   0  0  0  0  0  0  0  0  0  0  0  0
  151.2996  136.5567  154.7778 H   0  0  0  0  0  0  0  0  0  0  0  0
  1  2  1  0  0  0  0
  1 25  1  0  0  0  0
  1 26  1  0  0  0  0
  1 27  1  0  0  0  0
  2  3  1  0  0  0  0
  2 28  1  0  0  0  0
  2 29  1  0  0  0  0
  3  4  1  0  0  0  0
  3  5  1  0  0  0  0
  3 19  1  0  0  0  0
  4 30  1  0  0  0  0
  4 31  1  0  0  0  0
  4 32  1  0  0  0  0
  5  6  1  0  0  0  0
  5 33  1  0  0  0  0
  5 34  1  0  0  0  0
  6  7  1  0  0  0  0
  6 35  1  0  0  0  0
  7  8  2  0  0  0  0
  7  9  1  0  0  0  0
  9 10  1  0  0  0  0
  9 36  1  0  0  0  0
  9 37  1  0  0  0  0
 10 17  1  0  0  0  0
 10 11  1  0  0  0  0
 11 12  2  0  0  0  0
 11 38  1  0  0  0  0
 12 13  1  0  0  0  0
 12 39  1  0  0  0  0
 13 14  2  0  0  0  0
 13 15  1  0  0  0  0
 15 16  1  0  0  0  0
 15 17  1  0  0  0  0
 16 40  1  0  0  0  0
 16 41  1  0  0  0  0
 16 42  1  0  0  0  0
 17 18  2  0  0  0  0
 19 24  1  0  0  0  0
 19 20  1  0  0  0  0
 20 21  1  0  0  0  0
 20 43  1  0  0  0  0
 20 44  1  0  0  0  0
 21 22  1  0  0  0  0
 21 45  1  0  0  0  0
 21 46  1  0  0  0  0
 22 23  1  0  0  0  0
 23 24  1  0  0  0  0
 23 47  1  0  0  0  0
 23 48  1  0  0  0  0
 24 49  1  0  0  0  0
 24 50  1  0  0  0  0
M  END
> <s_m_source_file>
AV-unprocessed.smi

> <i_m_source_file_index>
1985

> <i_lp_mmshare_version>
43012

> <i_f3d_flags>
0

> <s_epik_input>
W0NIMl0xW0NIMl1PW0NIMl1bQ0gyXU4xW0NAQF0oW0NIM10pKFtDSDJdW0NIM10pW0NIMl1bTkhdQyg9TylbQ0gyXW4yW2NIXVtjSF1jKD1PKW4oW0NIM10pYzI9Tw==

> <s_epik_cmdline>
J2VwaWtfcHl0aG9uJywgJy1waCcsICc3LjAnLCAnLXRuJywgJzgnLCAnLW1hJywgJzIwMCcsICctbWV0YWxfYmluZGluZycsICctaW1hZScsICc8aW5maWxlLm1hZT4nLCAnLW9tYWUnLCAnPG91dGZpbGUubWFlPic=

> <r_lp_tautomer_probability>
1

> <r_epik_Ionization_Penalty>
0.318667

> <r_epik_Ionization_Penalty_Charging>
1.17294e-08

> <r_epik_Ionization_Penalty_Neutral>
0.318667

> <r_epik_State_Penalty>
0.313095

> <r_epik_Charging_Adjusted_Penalty>
0.313095

> <i_epik_Tot_Q>
0

> <i_epik_Tot_abs_Q>
0

> <r_epik_Metal_State_Penalty>
0.313065

> <b_epik_Metal_Only>
0

> <s_lp_Force_Field>
OPLS_2005

> <r_lp_Energy>
50.9195

> <b_lp_Chiralities_Consistent>
1

> <s_lp_Variant>
AV-unprocessed.smi:1985-1

> <Gold.Version>
5.8.1

> <Gold.Id.Protein>
6NUR|6NUR_protein|mol2

> <Gold.PLP.Fitness>
41.2997

> <Gold.PLP.PLP>
-30.5630

> <Gold.PLP.part.hbond>
-3.0000

> <Gold.PLP.part.metal>
0.0000

> <Gold.PLP.part.buried>
-0.5748

> <Gold.PLP.part.nonpolar>
-27.2873

> <Gold.PLP.part.repulsive>
0.6863

> <Gold.PLP.ligand.clash>
0.0000

> <Gold.PLP.ligand.torsion>
0.6558

> <Gold.PLP.Chemscore.Hbond>
2.9280

> <Gold.PLP.Chemscore.CHOScore>
1.0000

> <Gold.PLP.Chemscore.Metal>
0.0000

> <Gold.Chemscore.Hbonds>
donor molecule, donor type, donor heavy atom, donor atom, acceptor molecule, acceptor atom, score
      L1  H     6    35       P1  7948  1.00
      P1  H  7989  7998       L1    22  0.99
      P1  H 10785 10796       L1    14  0.80
      L1  C    11    38       P1 10171  1.00

> <Gold.PLP.Chemscore.Internal.Correction>
0.2643

> <Gold.Rescore>
     Score         DG    S(hbond)    S(metal)    S(lipo)     H(rot)  DE(clash)    DE(int)     intcor
     11.72     -16.21       2.48        0.00      68.89       2.20       3.65       0.85       ----

> <Gold.Chemscore.Fitness>
11.7159

> <Gold.Chemscore.DG>
-16.2085

> <Gold.Chemscore.ZeroCoef>
-5.4800

> <Gold.Chemscore.Hbond>
2.4816

> <Gold.Chemscore.Metal>
0.0000

> <Gold.Chemscore.Lipo>
68.8855

> <Gold.Chemscore.Internal_Hbond>
0.0000

> <Gold.Chemscore.DEClash>
3.6472

> <Gold.Chemscore.DEInternal>
0.8454

> <Gold.Chemscore.Rot>
2.1952

> <Gold.Chemscore.Internal.Correction>
   9.000000E+99

> <Gold.Chemscore.Hbonds>
donor molecule, donor type, donor heavy atom, donor atom, acceptor molecule, acceptor atom, score
      L1  H     6    35       P1  7948  0.98
      P1  H  7989  7998       L1    22  0.36
      P1  H 10785 10796       L1    14  0.79

> <Gold.Chemscore.Hbond.Weighted>
-8.2886

> <Gold.Chemscore.Metal.Weighted>
-0.0000

> <Gold.Chemscore.Lipo.Weighted>
-8.0596

> <Gold.Chemscore.Internal_Hbond.Weighted>
0.0000

> <Gold.Chemscore.DEClash.Weighted>
3.6472

> <Gold.Chemscore.DEInternal.Weighted>
0.8454

> <Gold.Chemscore.Rot.Weighted>
5.6197

> <Gold.Chemscore.Internal.Correction.Weighted>
   9.000000E+99

> <Gold.Protein.RotatedTorsions>
[ 6907 6896 6895 6894 ] final -166.61 input  -60.11 | X-H torsion
[ 7974 7965 7964 7962 ] final   11.09 input  175.53 | X-H torsion
[ 8008 7997 7996 7995 ] final  161.13 input   59.86 | X-H torsion
[ 10167 10162 10161 10158 ] final  -90.53 input  -65.29 | X-H torsion
[ 10718 10713 10712 10709 ] final -161.49 input   66.30 | X-H torsion
[ 10763 10752 10751 10750 ] final -124.44 input  -60.55 | X-H torsion
[ 11005 11000 10999 10996 ] final    6.13 input  -57.11 | X-H torsion

> <Gold.Protein.ActiveResidues>
 VAL166  LYS551  ARG553  GLY616  TRP617  ASP618  TYR619  PRO620  LYS621  CYS622 
 ASP623  PHE694  ASN695  SER759  ASP760  ASP761  ALA762  ILE779  LEU786  VAL792 
 PHE793  MET794  SER795  GLU796  ALA797  LYS798  CYS799  TRP800  GLU811  SER814 

> <Gold.Protein.RotatedAtoms>
  151.4463  133.3629  159.2788 H   0  0  0  0  0  0  0  0  0  0  0  0  # atno 6907 bound_to 6896
  150.9122  134.8541  159.7444 H   0  0  0  0  0  0  0  0  0  0  0  0  # atno 6908 bound_to 6896
  152.4938  134.4393  159.9590 H   0  0  0  0  0  0  0  0  0  0  0  0  # atno 6909 bound_to 6896
  146.2377  139.9537  142.8467 H   0  0  0  0  0  0  0  0  0  0  0  0  # atno 7974 bound_to 7965
  156.2124  140.1785  156.7664 H   0  0  0  0  0  0  0  0  0  0  0  0  # atno 8008 bound_to 7997
  154.5742  140.0677  156.9039 H   0  0  0  0  0  0  0  0  0  0  0  0  # atno 8009 bound_to 7997
  155.2618  140.3336  155.4275 H   0  0  0  0  0  0  0  0  0  0  0  0  # atno 8010 bound_to 7997
  140.3539  143.2876  151.9693 H   0  0  0  0  0  0  0  0  0  0  0  0  # atno 10167 bound_to 10162
  156.5969  130.8794  151.2904 H   0  0  0  0  0  0  0  0  0  0  0  0  # atno 10718 bound_to 10713
  154.8723  135.4063  154.3106 H   0  0  0  0  0  0  0  0  0  0  0  0  # atno 10763 bound_to 10752
  153.3950  135.7016  153.6472 H   0  0  0  0  0  0  0  0  0  0  0  0  # atno 10764 bound_to 10752
  153.5239  135.3681  155.2616 H   0  0  0  0  0  0  0  0  0  0  0  0  # atno 10765 bound_to 10752
  140.5629  134.0175  155.7979 H   0  0  0  0  0  0  0  0  0  0  0  0  # atno 11005 bound_to 11000
  145.1837  140.9779  143.4251 LP  0  0  0  0  0  0  0  0  0  0  0  0  # atno 17320 bound_to 7965
  144.9919  139.3681  143.6210 LP  0  0  0  0  0  0  0  0  0  0  0  0  # atno 17321 bound_to 7965
  139.4822  144.6051  151.7535 LP  0  0  0  0  0  0  0  0  0  0  0  0  # atno 17342 bound_to 10162
  140.5192  144.0905  150.6017 LP  0  0  0  0  0  0  0  0  0  0  0  0  # atno 17343 bound_to 10162
  157.7289  130.9664  150.1765 LP  0  0  0  0  0  0  0  0  0  0  0  0  # atno 17370 bound_to 10713
  156.2502  130.3700  149.8241 LP  0  0  0  0  0  0  0  0  0  0  0  0  # atno 17371 bound_to 10713
  141.1103  133.9627  157.2922 LP  0  0  0  0  0  0  0  0  0  0  0  0  # atno 17394 bound_to 11000
  139.9399  135.0192  156.8674 LP  0  0  0  0  0  0  0  0  0  0  0  0  # atno 17395 bound_to 11000

$$$$
