AV-unprocessed.smi:189|AV-procd|sdf|1484|dock1
  -GOLD-   2262019303D 1   1.00000     0.00000
 Structure written by MMmdl.
 53 57  0  0  0  0  0  0  0  0  1 V2000
  147.2534  141.9084  154.9086 C   0  0  0  0  0  0  0  0  0  0  0  0
  148.7043  141.4087  154.7705 C   0  0  1  0  0  0  0  0  0  0  0  0
  149.4877  141.2829  156.0820 C   0  0  0  0  0  0  0  0  0  0  0  0
  150.6803  140.3983  155.6882 C   0  0  1  0  0  0  0  0  0  0  0  0
  151.0585  139.3213  156.7202 C   0  0  0  0  0  0  0  0  0  0  0  0
  152.1927  138.4055  156.2102 C   0  0  0  0  0  0  0  0  0  0  0  0
  152.1154  138.0965  154.6972 C   0  0  0  0  0  0  0  0  0  0  0  0
  150.7060  138.3144  154.1296 C   0  0  0  0  0  0  0  0  0  0  0  0
  150.2857  139.7956  154.3194 C   0  0  1  0  0  0  0  0  0  0  0  0
  148.8772  140.1289  154.0818 N   0  0  0  0  0  0  0  0  0  0  0  0
  147.9739  139.1403  154.3042 C   0  0  0  0  0  0  0  0  0  0  0  0
  147.8966  138.5131  155.5083 N   0  0  0  0  0  0  0  0  0  0  0  0
  147.0229  137.5187  155.6910 C   0  0  0  0  0  0  0  0  0  0  0  0
  146.1590  136.9959  154.8180 N   0  0  0  0  0  0  0  0  0  0  0  0
  146.2454  137.6142  153.6051 C   0  0  0  0  0  0  0  0  0  0  0  0
  147.1148  138.6885  153.2689 C   0  0  0  0  0  0  0  0  0  0  0  0
  146.9244  139.0625  151.9452 N   0  0  0  0  0  0  0  0  0  0  0  0
  145.9945  138.2516  151.5200 C   0  0  0  0  0  0  0  0  0  0  0  0
  145.5382  137.3410  152.4472 N   0  0  0  0  0  0  0  0  0  0  0  0
  144.5261  136.3176  152.2381 C   0  0  0  0  0  0  0  0  0  0  0  0
  144.8610  135.3534  151.0756 C   0  0  2  0  0  0  0  0  0  0  0  0
  144.7991  136.0637  149.8512 O   0  0  0  0  0  0  0  0  0  0  0  0
  143.9330  134.1447  150.9796 C   0  0  0  0  0  0  0  0  0  0  0  0
  144.8500  133.0525  150.4480 C   0  0  0  0  0  0  0  0  0  0  0  0
  146.0590  133.3046  151.1422 O   0  0  0  0  0  0  0  0  0  0  0  0
  146.2585  134.7134  151.1982 C   0  0  0  0  0  0  0  0  0  0  0  0
  147.2351  142.9179  155.3189 H   0  0  0  0  0  0  0  0  0  0  0  0
  146.6580  141.2818  155.5722 H   0  0  0  0  0  0  0  0  0  0  0  0
  146.7555  141.9383  153.9392 H   0  0  0  0  0  0  0  0  0  0  0  0
  149.2223  142.1410  154.1487 H   0  0  0  0  0  0  0  0  0  0  0  0
  149.7980  142.2525  156.4723 H   0  0  0  0  0  0  0  0  0  0  0  0
  148.8809  140.7994  156.8483 H   0  0  0  0  0  0  0  0  0  0  0  0
  151.5507  141.0378  155.5333 H   0  0  0  0  0  0  0  0  0  0  0  0
  151.3462  139.7814  157.6660 H   0  0  0  0  0  0  0  0  0  0  0  0
  150.1806  138.7108  156.9357 H   0  0  0  0  0  0  0  0  0  0  0  0
  153.1593  138.8625  156.4253 H   0  0  0  0  0  0  0  0  0  0  0  0
  152.1703  137.4748  156.7778 H   0  0  0  0  0  0  0  0  0  0  0  0
  152.8102  138.7449  154.1620 H   0  0  0  0  0  0  0  0  0  0  0  0
  152.4486  137.0758  154.5081 H   0  0  0  0  0  0  0  0  0  0  0  0
  150.6707  138.0481  153.0727 H   0  0  0  0  0  0  0  0  0  0  0  0
  150.0337  137.6277  154.6448 H   0  0  0  0  0  0  0  0  0  0  0  0
  150.8340  140.3608  153.5641 H   0  0  0  0  0  0  0  0  0  0  0  0
  147.0186  137.0762  156.6760 H   0  0  0  0  0  0  0  0  0  0  0  0
  145.6192  138.2908  150.5079 H   0  0  0  0  0  0  0  0  0  0  0  0
  144.3976  135.7618  153.1678 H   0  0  0  0  0  0  0  0  0  0  0  0
  143.5756  136.8175  152.0472 H   0  0  0  0  0  0  0  0  0  0  0  0
  145.2741  135.5758  149.1960 H   0  0  0  0  0  0  0  0  0  0  0  0
  143.5870  133.8551  151.9724 H   0  0  0  0  0  0  0  0  0  0  0  0
  143.0528  134.3103  150.3565 H   0  0  0  0  0  0  0  0  0  0  0  0
  144.4721  132.0490  150.6452 H   0  0  0  0  0  0  0  0  0  0  0  0
  145.0102  133.1596  149.3741 H   0  0  0  0  0  0  0  0  0  0  0  0
  146.9228  135.0179  150.3873 H   0  0  0  0  0  0  0  0  0  0  0  0
  146.7526  134.9678  152.1364 H   0  0  0  0  0  0  0  0  0  0  0  0
  1  2  1  0  0  0  0
  1 27  1  0  0  0  0
  1 28  1  0  0  0  0
  1 29  1  0  0  0  0
  2 10  1  0  0  0  0
  2  3  1  0  0  0  0
  2 30  1  0  0  0  0
  3  4  1  0  0  0  0
  3 31  1  0  0  0  0
  3 32  1  0  0  0  0
  4  9  1  0  0  0  0
  4  5  1  0  0  0  0
  4 33  1  0  0  0  0
  5  6  1  0  0  0  0
  5 34  1  0  0  0  0
  5 35  1  0  0  0  0
  6  7  1  0  0  0  0
  6 36  1  0  0  0  0
  6 37  1  0  0  0  0
  7  8  1  0  0  0  0
  7 38  1  0  0  0  0
  7 39  1  0  0  0  0
  8  9  1  0  0  0  0
  8 40  1  0  0  0  0
  8 41  1  0  0  0  0
  9 10  1  0  0  0  0
  9 42  1  0  0  0  0
 10 11  1  0  0  0  0
 11 16  1  0  0  0  0
 11 12  2  0  0  0  0
 12 13  1  0  0  0  0
 13 14  2  0  0  0  0
 13 43  1  0  0  0  0
 14 15  1  0  0  0  0
 15 19  1  0  0  0  0
 15 16  2  0  0  0  0
 16 17  1  0  0  0  0
 17 18  2  0  0  0  0
 18 19  1  0  0  0  0
 18 44  1  0  0  0  0
 19 20  1  0  0  0  0
 20 21  1  0  0  0  0
 20 45  1  0  0  0  0
 20 46  1  0  0  0  0
 21 26  1  0  0  0  0
 21 22  1  0  0  0  0
 21 23  1  0  0  0  0
 22 47  1  0  0  0  0
 23 24  1  0  0  0  0
 23 48  1  0  0  0  0
 23 49  1  0  0  0  0
 24 25  1  0  0  0  0
 24 50  1  0  0  0  0
 24 51  1  0  0  0  0
 25 26  1  0  0  0  0
 26 52  1  0  0  0  0
 26 53  1  0  0  0  0
M  END
> <s_m_source_file>
AV-unprocessed.smi

> <i_m_source_file_index>
189

> <i_lp_mmshare_version>
43012

> <i_f3d_flags>
0

> <s_epik_input>
W0NIMl0xW0NIMl1bQ0gyXVtDSDJdW0NASF0oW0NASF0xMilOKFtDQEhdKFtDSDNdKVtDSDJdMiljKG5bY0hdbjMpYyhjMzQpbltjSF1uNFtDSDJdW0NAQF01KFtPSF0pW0NIMl1bQ0gyXU9bQ0gyXTU=

> <s_epik_cmdline>
J2VwaWtfcHl0aG9uJywgJy1waCcsICc3LjAnLCAnLXRuJywgJzgnLCAnLW1hJywgJzIwMCcsICctbWV0YWxfYmluZGluZycsICctaW1hZScsICc8aW5maWxlLm1hZT4nLCAnLW9tYWUnLCAnPG91dGZpbGUubWFlPic=

> <r_lp_tautomer_probability>
1

> <r_epik_Ionization_Penalty>
0.00594261

> <r_epik_Ionization_Penalty_Charging>
0

> <r_epik_Ionization_Penalty_Neutral>
0.00594261

> <r_epik_State_Penalty>
0.00429776

> <r_epik_Charging_Adjusted_Penalty>
0.00429776

> <i_epik_Tot_Q>
0

> <i_epik_Tot_abs_Q>
0

> <r_epik_Metal_State_Penalty>
-0

> <b_epik_Metal_Only>
0

> <s_lp_Force_Field>
OPLS_2005

> <r_lp_Energy>
66.1404

> <b_lp_Chiralities_Consistent>
1

> <s_lp_Variant>
AV-unprocessed.smi:189-10

> <Gold.Version>
5.8.1

> <Gold.Id.Protein>
6NUR|6NUR_protein|mol2

> <Gold.PLP.Fitness>
44.9119

> <Gold.PLP.PLP>
-39.3028

> <Gold.PLP.part.hbond>
-2.0000

> <Gold.PLP.part.metal>
0.0000

> <Gold.PLP.part.buried>
-3.4130

> <Gold.PLP.part.nonpolar>
-37.9510

> <Gold.PLP.part.repulsive>
3.2406

> <Gold.PLP.ligand.clash>
0.0000

> <Gold.PLP.ligand.torsion>
0.1240

> <Gold.PLP.Chemscore.Hbond>
1.0000

> <Gold.PLP.Chemscore.CHOScore>
0.9329

> <Gold.PLP.Chemscore.Metal>
0.0000

> <Gold.Chemscore.Hbonds>
donor molecule, donor type, donor heavy atom, donor atom, acceptor molecule, acceptor atom, score
      L1  H    22    47       P1  7921  1.00
      L1  C    18    44       P1 10171  0.65

> <Gold.PLP.Chemscore.Internal.Correction>
0.0585

> <Gold.Rescore>
     Score         DG    S(hbond)    S(metal)    S(lipo)     H(rot)  DE(clash)    DE(int)     intcor
     11.05     -14.43       1.00        0.00      92.43       2.03       2.09       1.29       ----

> <Gold.Chemscore.Fitness>
11.0455

> <Gold.Chemscore.DG>
-14.4277

> <Gold.Chemscore.ZeroCoef>
-5.4800

> <Gold.Chemscore.Hbond>
0.9968

> <Gold.Chemscore.Metal>
0.0000

> <Gold.Chemscore.Lipo>
92.4306

> <Gold.Chemscore.Internal_Hbond>
0.0000

> <Gold.Chemscore.DEClash>
2.0886

> <Gold.Chemscore.DEInternal>
1.2937

> <Gold.Chemscore.Rot>
2.0297

> <Gold.Chemscore.Internal.Correction>
   9.000000E+99

> <Gold.Chemscore.Hbonds>
donor molecule, donor type, donor heavy atom, donor atom, acceptor molecule, acceptor atom, score
      L1  H    22    47       P1  7921  1.00

> <Gold.Chemscore.Hbond.Weighted>
-3.3293

> <Gold.Chemscore.Metal.Weighted>
-0.0000

> <Gold.Chemscore.Lipo.Weighted>
-10.8144

> <Gold.Chemscore.Internal_Hbond.Weighted>
0.0000

> <Gold.Chemscore.DEClash.Weighted>
2.0886

> <Gold.Chemscore.DEInternal.Weighted>
1.2937

> <Gold.Chemscore.Rot.Weighted>
5.1960

> <Gold.Chemscore.Internal.Correction.Weighted>
   9.000000E+99

> <Gold.Protein.RotatedTorsions>
[ 6907 6896 6895 6894 ] final  114.17 input  -60.11 | X-H torsion
[ 7974 7965 7964 7962 ] final -131.34 input  175.53 | X-H torsion
[ 8008 7997 7996 7995 ] final -150.06 input   59.86 | X-H torsion
[ 10167 10162 10161 10158 ] final  138.09 input  -65.29 | X-H torsion
[ 10718 10713 10712 10709 ] final   70.74 input   66.30 | X-H torsion
[ 10763 10752 10751 10750 ] final   97.88 input  -60.55 | X-H torsion
[ 11005 11000 10999 10996 ] final -166.15 input  -57.11 | X-H torsion

> <Gold.Protein.ActiveResidues>
 VAL166  LYS551  ARG553  GLY616  TRP617  ASP618  TYR619  PRO620  LYS621  CYS622 
 ASP623  PHE694  ASN695  SER759  ASP760  ASP761  ALA762  ILE779  LEU786  VAL792 
 PHE793  MET794  SER795  GLU796  ALA797  LYS798  CYS799  TRP800  GLU811  SER814 

> <Gold.Protein.RotatedAtoms>
  152.4818  133.8273  159.7084 H   0  0  0  0  0  0  0  0  0  0  0  0  # atno 6907 bound_to 6896
  150.8874  133.7280  159.2921 H   0  0  0  0  0  0  0  0  0  0  0  0  # atno 6908 bound_to 6896
  151.4764  135.1053  159.9818 H   0  0  0  0  0  0  0  0  0  0  0  0  # atno 6909 bound_to 6896
  144.9389  140.7215  143.4859 H   0  0  0  0  0  0  0  0  0  0  0  0  # atno 7974 bound_to 7965
  155.6175  140.0678  157.2688 H   0  0  0  0  0  0  0  0  0  0  0  0  # atno 8008 bound_to 7997
  154.4237  140.1790  156.1385 H   0  0  0  0  0  0  0  0  0  0  0  0  # atno 8009 bound_to 7997
  156.0036  140.3333  155.6873 H   0  0  0  0  0  0  0  0  0  0  0  0  # atno 8010 bound_to 7997
  139.5122  144.6373  151.5663 H   0  0  0  0  0  0  0  0  0  0  0  0  # atno 10167 bound_to 10162
  157.6415  130.9492  150.0692 H   0  0  0  0  0  0  0  0  0  0  0  0  # atno 10718 bound_to 10713
  153.2823  135.4168  155.1090 H   0  0  0  0  0  0  0  0  0  0  0  0  # atno 10763 bound_to 10752
  154.8493  135.3498  154.6095 H   0  0  0  0  0  0  0  0  0  0  0  0  # atno 10764 bound_to 10752
  153.6516  135.7052  153.5265 H   0  0  0  0  0  0  0  0  0  0  0  0  # atno 10765 bound_to 10752
  140.5677  134.5269  157.5156 H   0  0  0  0  0  0  0  0  0  0  0  0  # atno 11005 bound_to 11000
  145.3023  139.1846  143.4683 LP  0  0  0  0  0  0  0  0  0  0  0  0  # atno 17320 bound_to 7965
  146.3278  140.3016  142.8621 LP  0  0  0  0  0  0  0  0  0  0  0  0  # atno 17321 bound_to 7965
  140.6126  143.9407  150.6465 LP  0  0  0  0  0  0  0  0  0  0  0  0  # atno 17342 bound_to 10162
  140.2655  143.3493  152.1285 LP  0  0  0  0  0  0  0  0  0  0  0  0  # atno 17343 bound_to 10162
  156.1701  130.3646  149.9177 LP  0  0  0  0  0  0  0  0  0  0  0  0  # atno 17370 bound_to 10713
  156.7154  130.8986  151.3613 LP  0  0  0  0  0  0  0  0  0  0  0  0  # atno 17371 bound_to 10713
  139.9377  134.7845  156.0760 LP  0  0  0  0  0  0  0  0  0  0  0  0  # atno 17394 bound_to 11000
  141.1075  133.6654  156.2900 LP  0  0  0  0  0  0  0  0  0  0  0  0  # atno 17395 bound_to 11000

$$$$
