#       Name:                AV-unprocessed.smi:1830
#       Creating user name   scv26
#       Creation time:       Fri Mar 27 09:12:28 2020


#       File generated by GOLD software.
#

@<TRIPOS>MOLECULE
AV-unprocessed.smi:1830
    59    62     1
SMALL
NO_CHARGES


@<TRIPOS>ATOM
      1 ****         0.3274   1.2787   1.5453 O.2            1 S1                 0.0000
      2 ****        -0.2076   0.2404   1.1561 C.2            1 S1                 0.0000
      3 ****         0.4772  -0.8685   0.8435 N.am           1 S1                 0.0000
      4 ****         1.9276  -1.0044   0.9278 C.3            1 S1                 0.0000
      5 ****         2.6426  -0.2916  -0.2340 C.3            1 S1                 0.0000
      6 ****         4.1748  -0.3489  -0.0849 C.3            1 S1                 0.0000
      7 ****         4.8660   0.2231  -1.2640 N.4            1 S1                 1.0000
      8 ****         4.9673   1.6984  -1.3178 C.3            1 S1                 0.0000
      9 ****         4.9569   2.0781  -2.8070 C.3            1 S1                 0.0000
     10 ****         4.9307   0.7482  -3.5675 C.3            1 S1                 0.0000
     11 ****         4.3433  -0.2457  -2.5640 C.3            1 S1                 0.0000
     12 ****         2.7977  -0.2512  -2.5830 C.3            1 S1                 0.0000
     13 ****         2.2907  -0.9421  -1.4498 O.3            1 S1                 0.0000
     14 ****        -1.5295   0.0564   1.0033 N.am           1 S1                 0.0000
     15 ****        -2.5859   0.9799   1.2496 C.ar           1 S1                 0.0000
     16 ****        -2.4028   2.3774   1.1042 C.ar           1 S1                 0.0000
     17 ****        -3.4721   3.2469   1.3788 C.ar           1 S1                 0.0000
     18 ****        -4.6940   2.6883   1.7875 C.ar           1 S1                 0.0000
     19 ****        -4.8914   1.3609   1.9111 N.ar           1 S1                 0.0000
     20 ****        -3.8743   0.5077   1.6349 C.ar           1 S1                 0.0000
     21 ****        -4.1501  -0.8735   1.7626 N.3            1 S1                 0.0000
     22 ****        -3.9135  -1.7345   0.6075 C.3            1 S1                 0.0000
     23 ****        -5.0192  -2.7957   0.6225 C.3            1 S1                 0.0000
     24 ****        -5.5042  -2.7928   2.0688 C.3            1 S1                 0.0000
     25 ****        -5.3492  -1.3263   2.4601 C.3            1 S1                 0.0000
     26 ****        -0.0401  -1.6786   0.5343 H              1 S1                 0.0000
     27 ****         2.2716  -0.6078   1.8846 H              1 S1                 0.0000
     28 ****         2.1752  -2.0663   0.9271 H              1 S1                 0.0000
     29 ****         2.3183   0.7497  -0.2674 H              1 S1                 0.0000
     30 ****         4.5007   0.1639   0.8210 H              1 S1                 0.0000
     31 ****         4.4896  -1.3885   0.0137 H              1 S1                 0.0000
     32 ****         4.1292   2.1725  -0.8057 H              1 S1                 0.0000
     33 ****         5.8830   2.0224  -0.8227 H              1 S1                 0.0000
     34 ****         4.0608   2.6574  -3.0337 H              1 S1                 0.0000
     35 ****         5.8184   2.6864  -3.0842 H              1 S1                 0.0000
     36 ****         4.3680   0.8022  -4.5002 H              1 S1                 0.0000
     37 ****         5.9513   0.4531  -3.8158 H              1 S1                 0.0000
     38 ****         4.7068  -1.2563  -2.7547 H              1 S1                 0.0000
     39 ****         2.3929   0.7621  -2.6024 H              1 S1                 0.0000
     40 ****         2.4389  -0.7453  -3.4862 H              1 S1                 0.0000
     41 ****        -1.8237  -0.8818   0.7752 H              1 S1                 0.0000
     42 ****        -1.4634   2.7976   0.7796 H              1 S1                 0.0000
     43 ****        -3.3567   4.3162   1.2806 H              1 S1                 0.0000
     44 ****        -5.5384   3.3224   2.0136 H              1 S1                 0.0000
     45 ****        -3.9108  -1.1756  -0.3294 H              1 S1                 0.0000
     46 ****        -2.9407  -2.2132   0.7202 H              1 S1                 0.0000
     47 ****        -5.8321  -2.4872  -0.0361 H              1 S1                 0.0000
     48 ****        -4.6716  -3.7746   0.2914 H              1 S1                 0.0000
     49 ****        -6.5260  -3.1569   2.1791 H              1 S1                 0.0000
     50 ****        -4.8518  -3.4150   2.6830 H              1 S1                 0.0000
     51 ****        -5.2530  -1.2024   3.5390 H              1 S1                 0.0000
     52 ****        -6.2255  -0.7691   2.1269 H              1 S1                 0.0000
     53 ****         5.8226  -0.0989  -1.2219 H              1 S1                 0.0000
     54 ****         1.3217   1.3231   1.6416 LP             1 S1                 0.0000
     55 ****        -0.2324   2.0777   1.7651 LP             1 S1                 0.0000
     56 ****         1.2939  -0.9862  -1.5167 LP             1 S1                 0.0000
     57 ****         2.6655  -1.8691  -1.4413 LP             1 S1                 0.0000
     58 ****        -5.7802   1.0083   2.2039 LP             1 S1                 0.0000
     59 ****        -3.4009  -0.9970   2.4132 LP             1 S1                 0.0000
@<TRIPOS>BOND
    1    1    2 2     
    2    2    3 am    
    3    2   14 am    
    4    3    4 1     
    5    3   26 1     
    6    4    5 1     
    7    4   27 1     
    8    4   28 1     
    9    5   13 1     
   10    5    6 1     
   11    5   29 1     
   12    6    7 1     
   13    6   30 1     
   14    6   31 1     
   15    7   11 1     
   16    7    8 1     
   17    7   53 1     
   18    8    9 1     
   19    8   32 1     
   20    8   33 1     
   21    9   10 1     
   22    9   34 1     
   23    9   35 1     
   24   10   11 1     
   25   10   36 1     
   26   10   37 1     
   27   11   12 1     
   28   11   38 1     
   29   12   13 1     
   30   12   39 1     
   31   12   40 1     
   32   14   15 1     
   33   14   41 1     
   34   15   20 ar    
   35   15   16 ar    
   36   16   17 ar    
   37   16   42 1     
   38   17   18 ar    
   39   17   43 1     
   40   18   19 ar    
   41   18   44 1     
   42   19   20 ar    
   43   20   21 1     
   44   21   25 1     
   45   21   22 1     
   46   22   23 1     
   47   22   45 1     
   48   22   46 1     
   49   23   24 1     
   50   23   47 1     
   51   23   48 1     
   52   24   25 1     
   53   24   49 1     
   54   24   50 1     
   55   25   51 1     
   56   25   52 1     
   57    1   54 1     
   58    1   55 1     
   59   13   56 1     
   60   13   57 1     
   61   19   58 1     
   62   21   59 1     
@<TRIPOS>SUBSTRUCTURE
      1 S1             1
@<TRIPOS>SET
LONE_PAIRS      STATIC     ATOMS    <user>   **** ""
6 54 55 56 57 58 59
DONOR_HYDROGENS      STATIC     ATOMS    <user>   **** ""
3 26 53 41
ATOM$BLUE        STATIC     ATOMS    COLORGROUP SYSTEM
6 54 55 56 57 58 59
ATOM$RED        STATIC     ATOMS    COLORGROUP SYSTEM
3 26 53 41
