AV-unprocessed.smi:249|AV-procd|sdf|1909|dock9
  -GOLD-   2262020593D 1   1.00000     0.00000
 Structure written by MMmdl.
 64 67  0  0  0  0  0  0  0  0  2 V2000
  145.3072  135.2747  151.2536 C   0  0  0  0  0  0  0  0  0  0  0  0
  145.9808  133.9593  151.6719 C   0  0  0  0  0  0  0  0  0  0  0  0
  147.1225  134.1532  152.6058 N   0  3  1  0  0  0  0  0  0  0  0  0
  146.6874  134.7129  153.9138 C   0  0  0  0  0  0  0  0  0  0  0  0
  147.8898  135.1379  154.7707 C   0  0  0  0  0  0  0  0  0  0  0  0
  148.8682  133.9632  154.9659 C   0  0  2  0  0  0  0  0  0  0  0  0
  150.0034  134.2768  155.8462 N   0  0  0  0  0  0  0  0  0  0  0  0
  150.8826  133.1800  156.2387 C   0  0  0  0  0  0  0  0  0  0  0  0
  149.9824  135.3090  156.7316 C   0  0  0  0  0  0  0  0  0  0  0  0
  148.8238  135.6628  157.3470 N   0  0  0  0  0  0  0  0  0  0  0  0
  148.8019  136.6654  158.2297 C   0  0  0  0  0  0  0  0  0  0  0  0
  149.8108  137.4325  158.6445 N   0  0  0  0  0  0  0  0  0  0  0  0
  150.9800  137.0796  158.0391 C   0  0  0  0  0  0  0  0  0  0  0  0
  151.1527  136.0425  157.0789 C   0  0  0  0  0  0  0  0  0  0  0  0
  152.4818  135.9914  156.6753 N   0  0  0  0  0  0  0  0  0  0  0  0
  153.0620  136.9374  157.3617 C   0  0  0  0  0  0  0  0  0  0  0  0
  152.2379  137.6267  158.2225 N   0  0  0  0  0  0  0  0  0  0  0  0
  152.6173  138.7244  159.0946 C   0  0  0  0  0  0  0  0  0  0  0  0
  151.8268  140.0442  158.8691 C   0  0  2  0  0  0  0  0  0  0  0  0
  151.3762  140.1174  157.3898 C   0  0  0  0  0  0  0  0  0  0  0  0
  152.4528  139.8650  156.5103 O   0  0  0  0  0  0  0  0  0  0  0  0
  152.6251  141.3164  159.2852 C   0  0  1  0  0  0  0  0  0  0  0  0
  151.7904  142.5804  159.4357 C   0  0  0  0  0  0  0  0  0  0  0  0
  152.6965  143.4729  160.2700 C   0  0  0  0  0  0  0  0  0  0  0  0
  153.3034  142.5873  161.1963 O   0  0  0  0  0  0  0  0  0  0  0  0
  153.2963  141.2637  160.6694 C   0  0  0  0  0  0  0  0  0  0  0  0
  149.2742  133.3721  153.5976 C   0  0  0  0  0  0  0  0  0  0  0  0
  148.0460  132.9838  152.7484 C   0  0  1  0  0  0  0  0  0  0  0  0
  147.3543  131.7041  153.2661 C   0  0  0  0  0  0  0  0  0  0  0  0
  144.3963  135.0736  150.6895 H   0  0  0  0  0  0  0  0  0  0  0  0
  145.9511  135.8784  150.6146 H   0  0  0  0  0  0  0  0  0  0  0  0
  145.0312  135.8724  152.1226 H   0  0  0  0  0  0  0  0  0  0  0  0
  145.2277  133.3505  152.1736 H   0  0  0  0  0  0  0  0  0  0  0  0
  146.2900  133.3895  150.7955 H   0  0  0  0  0  0  0  0  0  0  0  0
  146.0545  135.5853  153.7463 H   0  0  0  0  0  0  0  0  0  0  0  0
  146.0747  133.9869  154.4489 H   0  0  0  0  0  0  0  0  0  0  0  0
  148.3826  135.9811  154.2883 H   0  0  0  0  0  0  0  0  0  0  0  0
  147.5358  135.5012  155.7359 H   0  0  0  0  0  0  0  0  0  0  0  0
  148.3201  133.1798  155.4902 H   0  0  0  0  0  0  0  0  0  0  0  0
  151.9042  133.3768  155.9134 H   0  0  0  0  0  0  0  0  0  0  0  0
  150.5693  132.2389  155.7858 H   0  0  0  0  0  0  0  0  0  0  0  0
  150.8856  133.0424  157.3211 H   0  0  0  0  0  0  0  0  0  0  0  0
  147.8393  136.8826  158.6684 H   0  0  0  0  0  0  0  0  0  0  0  0
  154.1169  137.1506  157.2671 H   0  0  0  0  0  0  0  0  0  0  0  0
  152.5059  138.3991  160.1297 H   0  0  0  0  0  0  0  0  0  0  0  0
  153.6846  138.8870  158.9427 H   0  0  0  0  0  0  0  0  0  0  0  0
  150.9196  140.0145  159.4741 H   0  0  0  0  0  0  0  0  0  0  0  0
  150.6161  139.3707  157.1646 H   0  0  0  0  0  0  0  0  0  0  0  0
  150.9449  141.0930  157.1631 H   0  0  0  0  0  0  0  0  0  0  0  0
  152.1677  139.2474  155.8542 H   0  0  0  0  0  0  0  0  0  0  0  0
  153.3932  141.5152  158.5357 H   0  0  0  0  0  0  0  0  0  0  0  0
  151.5295  143.0423  158.4831 H   0  0  0  0  0  0  0  0  0  0  0  0
  150.8695  142.3693  159.9814 H   0  0  0  0  0  0  0  0  0  0  0  0
  153.4712  143.9214  159.6469 H   0  0  0  0  0  0  0  0  0  0  0  0
  152.1545  144.2732  160.7742 H   0  0  0  0  0  0  0  0  0  0  0  0
  152.7355  140.6331  161.3600 H   0  0  0  0  0  0  0  0  0  0  0  0
  154.3156  140.8837  160.6153 H   0  0  0  0  0  0  0  0  0  0  0  0
  149.8611  134.0885  153.0245 H   0  0  0  0  0  0  0  0  0  0  0  0
  149.9186  132.5041  153.7420 H   0  0  0  0  0  0  0  0  0  0  0  0
  148.4375  132.7492  151.7591 H   0  0  0  0  0  0  0  0  0  0  0  0
  148.0759  130.8930  153.3665 H   0  0  0  0  0  0  0  0  0  0  0  0
  146.5848  131.3535  152.5789 H   0  0  0  0  0  0  0  0  0  0  0  0
  146.8903  131.8450  154.2415 H   0  0  0  0  0  0  0  0  0  0  0  0
  147.6824  134.8817  152.1862 H   0  0  0  0  0  0  0  0  0  0  0  0
  1  2  1  0  0  0  0
  1 30  1  0  0  0  0
  1 31  1  0  0  0  0
  1 32  1  0  0  0  0
  2  3  1  0  0  0  0
  2 33  1  0  0  0  0
  2 34  1  0  0  0  0
  3 28  1  0  0  0  0
  3  4  1  0  0  0  0
  3 64  1  0  0  0  0
  4  5  1  0  0  0  0
  4 35  1  0  0  0  0
  4 36  1  0  0  0  0
  5  6  1  0  0  0  0
  5 37  1  0  0  0  0
  5 38  1  0  0  0  0
  6  7  1  0  0  0  0
  6 27  1  0  0  0  0
  6 39  1  0  0  0  0
  7  8  1  0  0  0  0
  7  9  1  0  0  0  0
  8 40  1  0  0  0  0
  8 41  1  0  0  0  0
  8 42  1  0  0  0  0
  9 14  1  0  0  0  0
  9 10  2  0  0  0  0
 10 11  1  0  0  0  0
 11 12  2  0  0  0  0
 11 43  1  0  0  0  0
 12 13  1  0  0  0  0
 13 17  1  0  0  0  0
 13 14  2  0  0  0  0
 14 15  1  0  0  0  0
 15 16  2  0  0  0  0
 16 17  1  0  0  0  0
 16 44  1  0  0  0  0
 17 18  1  0  0  0  0
 18 19  1  0  0  0  0
 18 45  1  0  0  0  0
 18 46  1  0  0  0  0
 19 20  1  0  0  0  0
 19 22  1  0  0  0  0
 19 47  1  0  0  0  0
 20 21  1  0  0  0  0
 20 48  1  0  0  0  0
 20 49  1  0  0  0  0
 21 50  1  0  0  0  0
 22 26  1  0  0  0  0
 22 23  1  0  0  0  0
 22 51  1  0  0  0  0
 23 24  1  0  0  0  0
 23 52  1  0  0  0  0
 23 53  1  0  0  0  0
 24 25  1  0  0  0  0
 24 54  1  0  0  0  0
 24 55  1  0  0  0  0
 25 26  1  0  0  0  0
 26 56  1  0  0  0  0
 26 57  1  0  0  0  0
 27 28  1  0  0  0  0
 27 58  1  0  0  0  0
 27 59  1  0  0  0  0
 28 29  1  0  0  0  0
 28 60  1  0  0  0  0
 29 61  1  0  0  0  0
 29 62  1  0  0  0  0
 29 63  1  0  0  0  0
M  CHG  1   3   1
M  END
> <s_m_source_file>
AV-unprocessed.smi

> <i_m_source_file_index>
249

> <i_lp_mmshare_version>
43012

> <i_f3d_flags>
0

> <s_epik_input>
W0NIM11bQ0gyXU4xW0NIMl1bQ0gyXVtDQEhdKFtDSDJdW0NASF0xW0NIM10pTihbQ0gzXSljKG5bY0hdbjIpYyhjMjMpbltjSF1uM1tDSDJdW0NASF0oW0NIMl1bT0hdKVtDQEBIXTRbQ0gyXVtDSDJdT1tDSDJdNA==

> <s_epik_cmdline>
J2VwaWtfcHl0aG9uJywgJy1waCcsICc3LjAnLCAnLXRuJywgJzgnLCAnLW1hJywgJzIwMCcsICctbWV0YWxfYmluZGluZycsICctaW1hZScsICc8aW5maWxlLm1hZT4nLCAnLW9tYWUnLCAnPG91dGZpbGUubWFlPic=

> <r_lp_tautomer_probability>
1

> <r_epik_Ionization_Penalty>
0.00294688

> <r_epik_Ionization_Penalty_Charging>
0.00169971

> <r_epik_Ionization_Penalty_Neutral>
0.00124717

> <r_epik_State_Penalty>
-0

> <r_epik_Charging_Adjusted_Penalty>
0.00169971

> <i_epik_Tot_Q>
1

> <i_epik_Tot_abs_Q>
1

> <r_epik_Metal_State_Penalty>
-0

> <b_epik_Metal_Only>
0

> <s_lp_Force_Field>
OPLS_2005

> <r_lp_Energy>
54.5732

> <b_lp_Chiralities_Consistent>
1

> <s_lp_Variant>
AV-unprocessed.smi:249-12

> <Gold.Version>
5.8.1

> <Gold.Id.Protein>
6NUR|6NUR_protein|mol2

> <Gold.PLP.Fitness>
55.0443

> <Gold.PLP.PLP>
-45.5965

> <Gold.PLP.part.hbond>
-3.0000

> <Gold.PLP.part.metal>
0.0000

> <Gold.PLP.part.buried>
-5.6078

> <Gold.PLP.part.nonpolar>
-36.3018

> <Gold.PLP.part.repulsive>
0.0257

> <Gold.PLP.ligand.clash>
0.0000

> <Gold.PLP.ligand.torsion>
1.8193

> <Gold.PLP.Chemscore.Hbond>
4.0000

> <Gold.PLP.Chemscore.CHOScore>
0.0000

> <Gold.PLP.Chemscore.Metal>
0.0000

> <Gold.Chemscore.Hbonds>
donor molecule, donor type, donor heavy atom, donor atom, acceptor molecule, acceptor atom, score
      L1  H     3    64       P1  7948  2.00
      P1  H  7997  8008       L1    21  1.00
      P1  H 10752 10765       L1    15  1.00

> <Gold.PLP.Chemscore.Internal.Correction>
1.0865

> <Gold.Rescore>
     Score         DG    S(hbond)    S(metal)    S(lipo)     H(rot)  DE(clash)    DE(int)     intcor
     15.88     -20.31       2.88        0.00     102.49       2.65       0.00       4.43       ----

> <Gold.Chemscore.Fitness>
15.8847

> <Gold.Chemscore.DG>
-20.3139

> <Gold.Chemscore.ZeroCoef>
-5.4800

> <Gold.Chemscore.Hbond>
2.8834

> <Gold.Chemscore.Metal>
0.0000

> <Gold.Chemscore.Lipo>
102.4882

> <Gold.Chemscore.Internal_Hbond>
0.0000

> <Gold.Chemscore.DEClash>
0.0000

> <Gold.Chemscore.DEInternal>
4.4291

> <Gold.Chemscore.Rot>
2.6515

> <Gold.Chemscore.Internal.Correction>
   9.000000E+99

> <Gold.Chemscore.Hbonds>
donor molecule, donor type, donor heavy atom, donor atom, acceptor molecule, acceptor atom, score
      L1  H     3    64       P1  7948  0.82
      P1  H  7997  8008       L1    21  0.85
      P1  H 10752 10765       L1    15  0.98

> <Gold.Chemscore.Hbond.Weighted>
-9.6307

> <Gold.Chemscore.Metal.Weighted>
-0.0000

> <Gold.Chemscore.Lipo.Weighted>
-11.9911

> <Gold.Chemscore.Internal_Hbond.Weighted>
0.0000

> <Gold.Chemscore.DEClash.Weighted>
0.0000

> <Gold.Chemscore.DEInternal.Weighted>
4.4291

> <Gold.Chemscore.Rot.Weighted>
6.7880

> <Gold.Chemscore.Internal.Correction.Weighted>
   9.000000E+99

> <Gold.Protein.RotatedTorsions>
[ 6907 6896 6895 6894 ] final  -89.01 input  -60.11 | X-H torsion
[ 7974 7965 7964 7962 ] final -156.49 input  175.53 | X-H torsion
[ 8008 7997 7996 7995 ] final  -54.53 input   59.86 | X-H torsion
[ 10167 10162 10161 10158 ] final -130.50 input  -65.29 | X-H torsion
[ 10718 10713 10712 10709 ] final   70.94 input   66.30 | X-H torsion
[ 10763 10752 10751 10750 ] final -147.07 input  -60.55 | X-H torsion
[ 11005 11000 10999 10996 ] final  117.49 input  -57.11 | X-H torsion

> <Gold.Protein.ActiveResidues>
 VAL166  LYS551  ARG553  GLY616  TRP617  ASP618  TYR619  PRO620  LYS621  CYS622 
 ASP623  PHE694  ASN695  SER759  ASP760  ASP761  ALA762  ILE779  LEU786  VAL792 
 PHE793  MET794  SER795  GLU796  ALA797  LYS798  CYS799  TRP800  GLU811  SER814 

> <Gold.Protein.RotatedAtoms>
  150.6871  134.2654  159.4565 H   0  0  0  0  0  0  0  0  0  0  0  0  # atno 6907 bound_to 6896
  152.0580  134.9609  160.0584 H   0  0  0  0  0  0  0  0  0  0  0  0  # atno 6908 bound_to 6896
  152.1047  133.4234  159.4640 H   0  0  0  0  0  0  0  0  0  0  0  0  # atno 6909 bound_to 6896
  144.7591  140.4102  143.5990 H   0  0  0  0  0  0  0  0  0  0  0  0  # atno 7974 bound_to 7965
  154.4166  140.1174  156.5331 H   0  0  0  0  0  0  0  0  0  0  0  0  # atno 8008 bound_to 7997
  155.6585  140.3496  155.4755 H   0  0  0  0  0  0  0  0  0  0  0  0  # atno 8009 bound_to 7997
  155.9733  140.1145  157.0782 H   0  0  0  0  0  0  0  0  0  0  0  0  # atno 8010 bound_to 7997
  139.9287  143.6297  152.2535 H   0  0  0  0  0  0  0  0  0  0  0  0  # atno 10167 bound_to 10162
  157.6426  130.9503  150.0720 H   0  0  0  0  0  0  0  0  0  0  0  0  # atno 10718 bound_to 10713
  154.8304  135.3370  154.6761 H   0  0  0  0  0  0  0  0  0  0  0  0  # atno 10763 bound_to 10752
  153.7382  135.6947  153.4978 H   0  0  0  0  0  0  0  0  0  0  0  0  # atno 10764 bound_to 10752
  153.2263  135.4431  155.0497 H   0  0  0  0  0  0  0  0  0  0  0  0  # atno 10765 bound_to 10752
  139.9076  134.9610  156.7358 H   0  0  0  0  0  0  0  0  0  0  0  0  # atno 11005 bound_to 11000
  145.6680  139.1594  143.2771 LP  0  0  0  0  0  0  0  0  0  0  0  0  # atno 17320 bound_to 7965
  146.1634  140.6754  142.9267 LP  0  0  0  0  0  0  0  0  0  0  0  0  # atno 17321 bound_to 7965
  139.6800  144.7656  151.1625 LP  0  0  0  0  0  0  0  0  0  0  0  0  # atno 17342 bound_to 10162
  140.7643  143.5738  150.8967 LP  0  0  0  0  0  0  0  0  0  0  0  0  # atno 17343 bound_to 10162
  156.1722  130.3647  149.9150 LP  0  0  0  0  0  0  0  0  0  0  0  0  # atno 17370 bound_to 10713
  156.7122  130.8974  151.3610 LP  0  0  0  0  0  0  0  0  0  0  0  0  # atno 17371 bound_to 10713
  140.6889  133.9408  155.7954 LP  0  0  0  0  0  0  0  0  0  0  0  0  # atno 17394 bound_to 11000
  141.0456  134.0558  157.3848 LP  0  0  0  0  0  0  0  0  0  0  0  0  # atno 17395 bound_to 11000

$$$$
