AV-unprocessed.smi:1955|AV-procd|sdf|7898|dock1
  -GOLD-   2272010 53D 1   1.00000     0.00000
 Structure written by MMmdl.
 34 35  0  0  0  0  0  0  0  0  1 V2000
  150.0832  140.4661  156.7158 O   0  0  0  0  0  0  0  0  0  0  0  0
  149.7543  141.5903  156.3356 C   0  0  0  0  0  0  0  0  0  0  0  0
  150.2396  142.7483  156.8168 N   0  0  0  0  0  0  0  0  0  0  0  0
  151.2111  142.9375  157.8357 C   0  0  0  0  0  0  0  0  0  0  0  0
  151.5484  144.2846  158.0977 C   0  0  0  0  0  0  0  0  0  0  0  0
  152.5030  144.5795  159.0902 C   0  0  0  0  0  0  0  0  0  0  0  0
  153.0968  143.5180  159.7962 C   0  0  0  0  0  0  0  0  0  0  0  0
  152.7051  142.2057  159.4735 C   0  0  0  0  0  0  0  0  0  0  0  0
  151.7906  141.9210  158.5225 N   0  0  0  0  0  0  0  0  0  0  0  0
  148.8472  141.8079  155.3707 N   0  0  0  0  0  0  0  0  0  0  0  0
  148.1003  140.7682  154.6604 C   0  0  2  0  0  0  0  0  0  0  0  0
  147.1650  140.0670  155.6773 C   0  0  0  0  0  0  0  0  0  0  0  0
  146.5724  138.7089  155.2385 C   0  0  0  0  0  0  0  0  0  0  0  0
  146.0594  138.6582  153.7850 C   0  0  0  0  0  0  0  0  0  0  0  0
  147.1079  138.8972  152.6668 C   0  0  0  0  0  0  0  0  0  0  0  0
  148.5017  138.8858  153.1124 N   0  0  0  0  0  0  0  0  0  0  0  0
  149.0395  139.7272  154.0116 C   0  0  0  0  0  0  0  0  0  0  0  0
  150.2261  139.6539  154.3297 O   0  0  0  0  0  0  0  0  0  0  0  0
  149.8701  143.5937  156.4079 H   0  0  0  0  0  0  0  0  0  0  0  0
  151.0822  145.0880  157.5459 H   0  0  0  0  0  0  0  0  0  0  0  0
  152.7741  145.6025  159.3053 H   0  0  0  0  0  0  0  0  0  0  0  0
  153.8326  143.7037  160.5645 H   0  0  0  0  0  0  0  0  0  0  0  0
  153.1373  141.3623  159.9915 H   0  0  0  0  0  0  0  0  0  0  0  0
  148.6343  142.7636  155.1257 H   0  0  0  0  0  0  0  0  0  0  0  0
  147.4985  141.2475  153.8869 H   0  0  0  0  0  0  0  0  0  0  0  0
  147.6895  139.9129  156.6217 H   0  0  0  0  0  0  0  0  0  0  0  0
  146.3442  140.7477  155.9063 H   0  0  0  0  0  0  0  0  0  0  0  0
  147.3130  137.9211  155.3840 H   0  0  0  0  0  0  0  0  0  0  0  0
  145.7543  138.4537  155.9127 H   0  0  0  0  0  0  0  0  0  0  0  0
  145.6117  137.6763  153.6263 H   0  0  0  0  0  0  0  0  0  0  0  0
  145.2418  139.3698  153.6649 H   0  0  0  0  0  0  0  0  0  0  0  0
  146.9948  138.1363  151.8943 H   0  0  0  0  0  0  0  0  0  0  0  0
  146.9097  139.8466  152.1674 H   0  0  0  0  0  0  0  0  0  0  0  0
  149.1081  138.1946  152.6949 H   0  0  0  0  0  0  0  0  0  0  0  0
  1  2  2  0  0  0  0
  2  3  1  0  0  0  0
  2 10  1  0  0  0  0
  3  4  1  0  0  0  0
  3 19  1  0  0  0  0
  4  9  1  0  0  0  0
  4  5  2  0  0  0  0
  5  6  1  0  0  0  0
  5 20  1  0  0  0  0
  6  7  2  0  0  0  0
  6 21  1  0  0  0  0
  7  8  1  0  0  0  0
  7 22  1  0  0  0  0
  8  9  2  0  0  0  0
  8 23  1  0  0  0  0
 10 11  1  0  0  0  0
 10 24  1  0  0  0  0
 11 17  1  0  0  0  0
 11 12  1  0  0  0  0
 11 25  1  0  0  0  0
 12 13  1  0  0  0  0
 12 26  1  0  0  0  0
 12 27  1  0  0  0  0
 13 14  1  0  0  0  0
 13 28  1  0  0  0  0
 13 29  1  0  0  0  0
 14 15  1  0  0  0  0
 14 30  1  0  0  0  0
 14 31  1  0  0  0  0
 15 16  1  0  0  0  0
 15 32  1  0  0  0  0
 15 33  1  0  0  0  0
 16 17  1  0  0  0  0
 16 34  1  0  0  0  0
 17 18  2  0  0  0  0
M  END
> <s_m_source_file>
AV-unprocessed.smi

> <i_m_source_file_index>
1955

> <i_lp_mmshare_version>
43012

> <i_f3d_flags>
0

> <s_epik_input>
bjFbY0hdW2NIXVtjSF1bY0hdYzFbTkhdQyg9TylbTkhdW0NAQEhdMltDSDJdW0NIMl1bQ0gyXVtDSDJdW05IXUMyPU8=

> <s_epik_cmdline>
J2VwaWtfcHl0aG9uJywgJy1waCcsICc3LjAnLCAnLXRuJywgJzgnLCAnLW1hJywgJzIwMCcsICctbWV0YWxfYmluZGluZycsICctaW1hZScsICc8aW5maWxlLm1hZT4nLCAnLW9tYWUnLCAnPG91dGZpbGUubWFlPic=

> <r_lp_tautomer_probability>
1

> <r_epik_Ionization_Penalty>
4.19487e-05

> <r_epik_Ionization_Penalty_Charging>
0

> <r_epik_Ionization_Penalty_Neutral>
4.19487e-05

> <r_epik_State_Penalty>
-0

> <r_epik_Charging_Adjusted_Penalty>
0

> <i_epik_Tot_Q>
0

> <i_epik_Tot_abs_Q>
0

> <r_epik_Metal_State_Penalty>
-0

> <b_epik_Metal_Only>
0

> <s_lp_Force_Field>
OPLS_2005

> <r_lp_Energy>
16.6797

> <b_lp_Chiralities_Consistent>
1

> <s_lp_Variant>
AV-unprocessed.smi:1955-1

> <Gold.Version>
5.8.1

> <Gold.Id.Protein>
6NUR|6NUR_protein|mol2

> <Gold.PLP.Fitness>
43.5280

> <Gold.PLP.PLP>
-32.8556

> <Gold.PLP.part.hbond>
-4.9416

> <Gold.PLP.part.metal>
0.0000

> <Gold.PLP.part.buried>
-2.8464

> <Gold.PLP.part.nonpolar>
-26.6976

> <Gold.PLP.part.repulsive>
0.4085

> <Gold.PLP.ligand.clash>
0.0000

> <Gold.PLP.ligand.torsion>
0.0309

> <Gold.PLP.Chemscore.Hbond>
3.5777

> <Gold.PLP.Chemscore.CHOScore>
0.0000

> <Gold.PLP.Chemscore.Metal>
0.0000

> <Gold.Chemscore.Hbonds>
donor molecule, donor type, donor heavy atom, donor atom, acceptor molecule, acceptor atom, score
      L1  H     3    19       P1  8028  1.00
      L1  H    10    24       P1  8028  0.91
      L1  H    16    34       P1  7948  0.66
      P1  H  7989  7998       L1    18  1.00

> <Gold.PLP.Chemscore.Internal.Correction>
0.0008

> <Gold.Rescore>
     Score         DG    S(hbond)    S(metal)    S(lipo)     H(rot)  DE(clash)    DE(int)     intcor
     16.45     -21.94       3.30        0.00      68.50       1.00       0.07       5.42       ----

> <Gold.Chemscore.Fitness>
16.4529

> <Gold.Chemscore.DG>
-21.9435

> <Gold.Chemscore.ZeroCoef>
-5.4800

> <Gold.Chemscore.Hbond>
3.2962

> <Gold.Chemscore.Metal>
0.0000

> <Gold.Chemscore.Lipo>
68.4984

> <Gold.Chemscore.Internal_Hbond>
0.0000

> <Gold.Chemscore.DEClash>
0.0727

> <Gold.Chemscore.DEInternal>
5.4179

> <Gold.Chemscore.Rot>
1.0000

> <Gold.Chemscore.Internal.Correction>
   9.000000E+99

> <Gold.Chemscore.Hbonds>
donor molecule, donor type, donor heavy atom, donor atom, acceptor molecule, acceptor atom, score
      L1  H     3    19       P1  8028  1.00
      L1  H    10    24       P1  8028  0.84
      L1  H    16    34       P1  7948  0.63
      P1  H  7989  7998       L1    18  0.92

> <Gold.Chemscore.Hbond.Weighted>
-11.0092

> <Gold.Chemscore.Metal.Weighted>
-0.0000

> <Gold.Chemscore.Lipo.Weighted>
-8.0143

> <Gold.Chemscore.Internal_Hbond.Weighted>
0.0000

> <Gold.Chemscore.DEClash.Weighted>
0.0727

> <Gold.Chemscore.DEInternal.Weighted>
5.4179

> <Gold.Chemscore.Rot.Weighted>
2.5600

> <Gold.Chemscore.Internal.Correction.Weighted>
   9.000000E+99

> <Gold.Protein.RotatedTorsions>
[ 6907 6896 6895 6894 ] final  -59.16 input  -60.11 | X-H torsion
[ 7974 7965 7964 7962 ] final  109.08 input  175.53 | X-H torsion
[ 8008 7997 7996 7995 ] final   21.01 input   59.86 | X-H torsion
[ 10167 10162 10161 10158 ] final -139.46 input  -65.29 | X-H torsion
[ 10718 10713 10712 10709 ] final  177.29 input   66.30 | X-H torsion
[ 10763 10752 10751 10750 ] final  166.92 input  -60.55 | X-H torsion
[ 11005 11000 10999 10996 ] final  -21.72 input  -57.11 | X-H torsion

> <Gold.Protein.ActiveResidues>
 VAL166  LYS551  ARG553  GLY616  TRP617  ASP618  TYR619  PRO620  LYS621  CYS622 
 ASP623  PHE694  ASN695  SER759  ASP760  ASP761  ALA762  ILE779  LEU786  VAL792 
 PHE793  MET794  SER795  GLU796  ALA797  LYS798  CYS799  TRP800  GLU811  SER814 

> <Gold.Protein.RotatedAtoms>
  150.7951  134.7004  159.6546 H   0  0  0  0  0  0  0  0  0  0  0  0  # atno 6907 bound_to 6896
  152.4062  134.6199  160.0058 H   0  0  0  0  0  0  0  0  0  0  0  0  # atno 6908 bound_to 6896
  151.6456  133.3286  159.3176 H   0  0  0  0  0  0  0  0  0  0  0  0  # atno 6909 bound_to 6896
  145.2724  139.2662  143.3959 H   0  0  0  0  0  0  0  0  0  0  0  0  # atno 7974 bound_to 7965
  154.9441  140.3057  155.5106 H   0  0  0  0  0  0  0  0  0  0  0  0  # atno 8008 bound_to 7997
  156.2993  140.2331  156.4451 H   0  0  0  0  0  0  0  0  0  0  0  0  # atno 8009 bound_to 7997
  154.8117  140.0428  157.1336 H   0  0  0  0  0  0  0  0  0  0  0  0  # atno 8010 bound_to 7997
  139.8377  143.7362  152.2664 H   0  0  0  0  0  0  0  0  0  0  0  0  # atno 10167 bound_to 10162
  156.9075  130.9899  151.3026 H   0  0  0  0  0  0  0  0  0  0  0  0  # atno 10718 bound_to 10713
  154.3462  135.2753  155.2396 H   0  0  0  0  0  0  0  0  0  0  0  0  # atno 10763 bound_to 10752
  154.4645  135.5898  153.6282 H   0  0  0  0  0  0  0  0  0  0  0  0  # atno 10764 bound_to 10752
  152.9853  135.6073  154.3668 H   0  0  0  0  0  0  0  0  0  0  0  0  # atno 10765 bound_to 10752
  140.8588  133.7803  156.0051 H   0  0  0  0  0  0  0  0  0  0  0  0  # atno 11005 bound_to 11000
  146.3242  140.3170  142.8630 LP  0  0  0  0  0  0  0  0  0  0  0  0  # atno 17320 bound_to 7965
  144.9323  140.7989  143.5681 LP  0  0  0  0  0  0  0  0  0  0  0  0  # atno 17321 bound_to 7965
  139.7590  144.7512  151.0392 LP  0  0  0  0  0  0  0  0  0  0  0  0  # atno 17342 bound_to 10162
  140.7801  143.4773  151.0066 LP  0  0  0  0  0  0  0  0  0  0  0  0  # atno 17343 bound_to 10162
  157.5988  130.8497  149.8770 LP  0  0  0  0  0  0  0  0  0  0  0  0  # atno 17370 bound_to 10713
  156.0552  130.3710  150.1108 LP  0  0  0  0  0  0  0  0  0  0  0  0  # atno 17371 bound_to 10713
  140.8706  134.2731  157.5192 LP  0  0  0  0  0  0  0  0  0  0  0  0  # atno 17394 bound_to 11000
  139.8706  134.9565  156.4240 LP  0  0  0  0  0  0  0  0  0  0  0  0  # atno 17395 bound_to 11000

$$$$
