#       Name:                AV-unprocessed.smi:515
#       Creating user name   scv26
#       Creation time:       Thu Mar 26 23:25:35 2020


#       File generated by GOLD software.
#

@<TRIPOS>MOLECULE
AV-unprocessed.smi:515
    57    59     1
SMALL
NO_CHARGES


@<TRIPOS>ATOM
      1 ****        -4.3915   3.5397  -2.9542 C.3            1 S1                 0.0000
      2 ****        -3.9990   2.6090  -1.8045 C.3            1 S1                 0.0000
      3 ****        -2.5899   2.6344  -1.6527 O.3            1 S1                 0.0000
      4 ****        -2.1381   1.7925  -0.6055 C.3            1 S1                 0.0000
      5 ****        -0.6127   1.9071  -0.4985 C.3            1 S1                 0.0000
      6 ****        -0.0826   1.0333   0.5430 N.pl3          1 S1                 0.0000
      7 ****         0.3883  -0.2337   0.3980 C.2            1 S1                 0.0000
      8 ****         0.4180  -0.9421  -0.9315 C.3            1 S1                 0.0000
      9 ****         1.2963  -2.1115  -0.9912 N.3            1 S1                 0.0000
     10 ****         1.0669  -2.8827  -2.2073 C.3            1 S1                 0.0000
     11 ****         1.9800  -4.1189  -2.2811 C.3            1 S1                 0.0000
     12 ****         3.3419  -3.7130  -2.1873 O.3            1 S1                 0.0000
     13 ****         3.6196  -2.9886  -0.9930 C.3            1 S1                 0.0000
     14 ****         2.7112  -1.7496  -0.9197 C.3            1 S1                 0.0000
     15 ****         0.7801  -0.7993   1.5453 N.2            1 S1                 0.0000
     16 ****         0.5530   0.1916   2.4872 C.2            1 S1                 0.0000
     17 ****         0.0250   1.3023   1.9102 C.2            1 S1                 0.0000
     18 ****        -0.3533   2.5198   2.6605 C.2            1 S1                 0.0000
     19 ****        -0.8523   3.4878   2.0899 O.2            1 S1                 0.0000
     20 ****        -0.0845   2.4051   3.9998 N.pl3          1 S1                -1.0000
     21 ****         0.4575   1.3027   4.6258 C.2            1 S1                 0.0000
     22 ****         0.6695   1.2828   5.8391 O.2            1 S1                 0.0000
     23 ****         0.7749   0.1901   3.8912 N.am           1 S1                 0.0000
     24 ****         1.3482  -0.9982   4.5294 C.3            1 S1                 0.0000
     25 ****        -5.4722   3.5484  -3.0969 H              1 S1                 0.0000
     26 ****        -3.9326   3.2198  -3.8899 H              1 S1                 0.0000
     27 ****        -4.0718   4.5631  -2.7559 H              1 S1                 0.0000
     28 ****        -4.4832   2.9326  -0.8818 H              1 S1                 0.0000
     29 ****        -4.3365   1.5934  -2.0167 H              1 S1                 0.0000
     30 ****        -2.6045   2.0825   0.3372 H              1 S1                 0.0000
     31 ****        -2.4229   0.7592  -0.8104 H              1 S1                 0.0000
     32 ****        -0.1528   1.6665  -1.4548 H              1 S1                 0.0000
     33 ****        -0.3163   2.9347  -0.2928 H              1 S1                 0.0000
     34 ****        -0.6063  -1.2446  -1.1526 H              1 S1                 0.0000
     35 ****         0.7108  -0.2429  -1.7137 H              1 S1                 0.0000
     36 ****         0.0251  -3.2018  -2.2523 H              1 S1                 0.0000
     37 ****         1.2387  -2.2542  -3.0825 H              1 S1                 0.0000
     38 ****         1.7466  -4.8200  -1.4783 H              1 S1                 0.0000
     39 ****         1.8283  -4.6474  -3.2224 H              1 S1                 0.0000
     40 ****         3.4659  -3.6311  -0.1247 H              1 S1                 0.0000
     41 ****         4.6682  -2.6915  -0.9907 H              1 S1                 0.0000
     42 ****         2.9615  -1.0718  -1.7371 H              1 S1                 0.0000
     43 ****         2.9218  -1.2105   0.0035 H              1 S1                 0.0000
     44 ****         2.3048  -0.7564   4.9948 H              1 S1                 0.0000
     45 ****         1.5242  -1.8106   3.8245 H              1 S1                 0.0000
     46 ****         0.6785  -1.3786   5.3020 H              1 S1                 0.0000
     47 ****        -2.3062   3.5726  -1.4542 LP             1 S1                 0.0000
     48 ****        -2.1703   2.3334  -2.5091 LP             1 S1                 0.0000
     49 ****         1.0703  -2.6676  -0.1914 LP             1 S1                 0.0000
     50 ****         3.5568  -3.1310  -2.9716 LP             1 S1                 0.0000
     51 ****         3.9206  -4.5282  -2.2087 LP             1 S1                 0.0000
     52 ****         1.1487  -1.7177   1.6889 LP             1 S1                 0.0000
     53 ****        -1.0086   3.4603   1.1025 LP             1 S1                 0.0000
     54 ****        -1.1019   4.3026   2.6131 LP             1 S1                 0.0000
     55 ****        -0.3015   3.1934   4.5756 LP             1 S1                 0.0000
     56 ****         0.4473   2.0813   6.3986 LP             1 S1                 0.0000
     57 ****         1.0637   0.4682   6.2645 LP             1 S1                 0.0000
@<TRIPOS>BOND
    1    1    2 1     
    2    1   25 1     
    3    1   26 1     
    4    1   27 1     
    5    2    3 1     
    6    2   28 1     
    7    2   29 1     
    8    3    4 1     
    9    4    5 1     
   10    4   30 1     
   11    4   31 1     
   12    5    6 1     
   13    5   32 1     
   14    5   33 1     
   15    6   17 1     
   16    6    7 1     
   17    7    8 1     
   18    7   15 2     
   19    8    9 1     
   20    8   34 1     
   21    8   35 1     
   22    9   14 1     
   23    9   10 1     
   24   10   11 1     
   25   10   36 1     
   26   10   37 1     
   27   11   12 1     
   28   11   38 1     
   29   11   39 1     
   30   12   13 1     
   31   13   14 1     
   32   13   40 1     
   33   13   41 1     
   34   14   42 1     
   35   14   43 1     
   36   15   16 1     
   37   16   23 1     
   38   16   17 2     
   39   17   18 1     
   40   18   19 2     
   41   18   20 1     
   42   20   21 1     
   43   21   22 2     
   44   21   23 am    
   45   23   24 1     
   46   24   44 1     
   47   24   45 1     
   48   24   46 1     
   49    3   47 1     
   50    3   48 1     
   51    9   49 1     
   52   12   50 1     
   53   12   51 1     
   54   15   52 1     
   55   19   53 1     
   56   19   54 1     
   57   20   55 1     
   58   22   56 1     
   59   22   57 1     
@<TRIPOS>SUBSTRUCTURE
      1 S1             1
@<TRIPOS>SET
LONE_PAIRS      STATIC     ATOMS    <user>   **** ""
11 47 48 49 50 51 52 53 54 55 56 57
ATOM$BLUE        STATIC     ATOMS    COLORGROUP SYSTEM
11 47 48 49 50 51 52 53 54 55 56 57
