#       Name:                AV-unprocessed.smi:3322
#       Creating user name   scv26
#       Creation time:       Fri Mar 27 19:12:00 2020


#       File generated by GOLD software.
#

@<TRIPOS>MOLECULE
AV-unprocessed.smi:3322
    44    45     1
SMALL
NO_CHARGES


@<TRIPOS>ATOM
      1 ****         0.6532   2.3948  -0.5678 C.3            1 S1                 0.0000
      2 ****         0.9058   0.8793  -0.4628 C.3            1 S1                 0.0000
      3 ****         2.3408   0.5828  -0.6324 N.3            1 S1                 0.0000
      4 ****         3.1135   0.7262   0.5974 C.3            1 S1                 0.0000
      5 ****         3.3135  -0.6297   1.3067 C.3            1 S1                 0.0000
      6 ****         2.0823  -1.1855   1.8404 N.pl3          1 S1                 0.0000
      7 ****         1.4238  -0.8482   3.0040 C.2            1 S1                 0.0000
      8 ****         0.2963  -1.6160   3.0699 C.2            1 S1                 0.0000
      9 ****         0.3556  -2.4063   1.8882 C.2            1 S1                 0.0000
     10 ****         1.4276  -2.1497   1.1565 N.2            1 S1                 0.0000
     11 ****         0.0583   0.1216  -1.5067 C.2            1 S1                 0.0000
     12 ****         0.5791  -0.1579  -2.5887 O.2            1 S1                 0.0000
     13 ****        -1.2206  -0.2326  -1.2197 N.am           1 S1                 0.0000
     14 ****        -2.0550  -1.0057  -2.1467 C.3            1 S1                 0.0000
     15 ****        -3.2549  -0.1421  -2.5704 C.3            1 S1                 0.0000
     16 ****        -3.9915   0.2454  -1.4143 O.3            1 S1                 0.0000
     17 ****        -3.2080   0.9821  -0.4803 C.3            1 S1                 0.0000
     18 ****        -1.9980   0.1424  -0.0312 C.3            1 S1                 0.0000
     19 ****        -0.4039   2.6342  -0.4515 H              1 S1                 0.0000
     20 ****         0.9743   2.7845  -1.5349 H              1 S1                 0.0000
     21 ****         1.1923   2.9448   0.2033 H              1 S1                 0.0000
     22 ****         0.6140   0.5349   0.5250 H              1 S1                 0.0000
     23 ****         2.4845  -0.3498  -0.9941 H              1 S1                 0.0000
     24 ****         4.0950   1.1045   0.3112 H              1 S1                 0.0000
     25 ****         2.6868   1.4717   1.2693 H              1 S1                 0.0000
     26 ****         3.7691  -1.3526   0.6279 H              1 S1                 0.0000
     27 ****         4.0105  -0.5073   2.1366 H              1 S1                 0.0000
     28 ****         1.8039  -0.0922   3.6753 H              1 S1                 0.0000
     29 ****        -0.4574  -1.6124   3.8432 H              1 S1                 0.0000
     30 ****        -0.3439  -3.1527   1.5422 H              1 S1                 0.0000
     31 ****        -1.5155  -1.3426  -3.0327 H              1 S1                 0.0000
     32 ****        -2.4026  -1.9112  -1.6472 H              1 S1                 0.0000
     33 ****        -2.9249   0.7415  -3.1193 H              1 S1                 0.0000
     34 ****        -3.9107  -0.7054  -3.2341 H              1 S1                 0.0000
     35 ****        -2.8827   1.9226  -0.9279 H              1 S1                 0.0000
     36 ****        -3.8300   1.2361   0.3779 H              1 S1                 0.0000
     37 ****        -2.3345  -0.7623   0.4771 H              1 S1                 0.0000
     38 ****        -1.4454   0.7133   0.7103 H              1 S1                 0.0000
     39 ****         2.6695   1.2635  -1.2870 LP             1 S1                 0.0000
     40 ****         1.6938  -2.5742   0.2911 LP             1 S1                 0.0000
     41 ****         1.5263   0.1059  -2.7706 LP             1 S1                 0.0000
     42 ****         0.0542  -0.6484  -3.2844 LP             1 S1                 0.0000
     43 ****        -4.3347  -0.5786  -0.9634 LP             1 S1                 0.0000
     44 ****        -4.7625   0.8134  -1.7025 LP             1 S1                 0.0000
@<TRIPOS>BOND
    1    1    2 1     
    2    1   19 1     
    3    1   20 1     
    4    1   21 1     
    5    2    3 1     
    6    2   11 1     
    7    2   22 1     
    8    3    4 1     
    9    3   23 1     
   10    4    5 1     
   11    4   24 1     
   12    4   25 1     
   13    5    6 1     
   14    5   26 1     
   15    5   27 1     
   16    6   10 1     
   17    6    7 1     
   18    7    8 2     
   19    7   28 1     
   20    8    9 1     
   21    8   29 1     
   22    9   10 2     
   23    9   30 1     
   24   11   12 2     
   25   11   13 am    
   26   13   18 1     
   27   13   14 1     
   28   14   15 1     
   29   14   31 1     
   30   14   32 1     
   31   15   16 1     
   32   15   33 1     
   33   15   34 1     
   34   16   17 1     
   35   17   18 1     
   36   17   35 1     
   37   17   36 1     
   38   18   37 1     
   39   18   38 1     
   40    3   39 1     
   41   10   40 1     
   42   12   41 1     
   43   12   42 1     
   44   16   43 1     
   45   16   44 1     
@<TRIPOS>SUBSTRUCTURE
      1 S1             1
@<TRIPOS>SET
LONE_PAIRS      STATIC     ATOMS    <user>   **** ""
6 39 40 41 42 43 44
DONOR_HYDROGENS      STATIC     ATOMS    <user>   **** ""
1 23
ATOM$BLUE        STATIC     ATOMS    COLORGROUP SYSTEM
6 39 40 41 42 43 44
ATOM$RED        STATIC     ATOMS    COLORGROUP SYSTEM
1 23
