AV-unprocessed.smi:287|AV-procd|sdf|2181|dock9
  -GOLD-   2262021553D 1   1.00000     0.00000
 Structure written by MMmdl.
 55 58  0  0  0  0  0  0  0  0  1 V2000
  144.4044  142.6431  156.8357 C   0  0  0  0  0  0  0  0  0  0  0  0
  143.3436  141.7144  156.3529 C   0  0  0  0  0  0  0  0  0  0  0  0
  142.5524  141.6805  155.2418 C   0  0  0  0  0  0  0  0  0  0  0  0
  141.7162  140.5292  155.3486 C   0  0  0  0  0  0  0  0  0  0  0  0
  140.6671  140.0959  154.3335 C   0  0  1  0  0  0  0  0  0  0  0  0
  139.2623  140.2081  154.9503 C   0  0  0  0  0  0  0  0  0  0  0  0
  140.6342  140.9213  153.1852 O   0  0  0  0  0  0  0  0  0  0  0  0
  140.9109  138.6575  153.8246 C   0  0  0  0  0  0  0  0  0  0  0  0
  142.2269  138.4844  153.2229 N   0  0  0  0  0  0  0  0  0  0  0  0
  142.6760  137.2616  152.8703 C   0  0  0  0  0  0  0  0  0  0  0  0
  141.7908  136.2485  153.0285 N   0  0  0  0  0  0  0  0  0  0  0  0
  142.1348  134.9983  152.7074 C   0  0  0  0  0  0  0  0  0  0  0  0
  143.2924  134.5514  152.2170 N   0  0  0  0  0  0  0  0  0  0  0  0
  144.1892  135.5665  152.0536 C   0  0  0  0  0  0  0  0  0  0  0  0
  143.9678  136.9406  152.3557 C   0  0  0  0  0  0  0  0  0  0  0  0
  145.1204  137.6621  152.0616 N   0  0  0  0  0  0  0  0  0  0  0  0
  145.9613  136.7685  151.6162 C   0  0  0  0  0  0  0  0  0  0  0  0
  145.4742  135.4802  151.5642 N   0  0  0  0  0  0  0  0  0  0  0  0
  146.1525  134.2200  151.1215 C   0  0  2  0  0  0  0  0  0  0  0  0
  145.4004  133.6580  150.0878 O   0  0  0  0  0  0  0  0  0  0  0  0
  144.5229  132.6719  150.6219 C   0  0  1  0  0  0  0  0  0  0  0  0
  143.9823  131.7442  149.5196 C   0  0  0  0  0  0  0  0  0  0  0  0
  142.9574  132.3956  148.7994 O   0  0  0  0  0  0  0  0  0  0  0  0
  145.4118  132.0038  151.6777 C   0  0  1  0  0  0  0  0  0  0  0  0
  146.2792  131.0582  151.0725 O   0  0  0  0  0  0  0  0  0  0  0  0
  146.1619  133.1954  152.2728 C   0  0  1  0  0  0  0  0  0  0  0  0
  147.4639  132.8601  152.7151 O   0  0  0  0  0  0  0  0  0  0  0  0
  142.0784  139.9419  156.5376 C   0  0  0  0  0  0  0  0  0  0  0  0
  141.6287  138.7237  157.2750 C   0  0  0  0  0  0  0  0  0  0  0  0
  143.0639  140.6544  157.1518 O   0  0  0  0  0  0  0  0  0  0  0  0
  147.1369  134.5372  150.7747 H   0  0  0  0  0  0  0  0  0  0  0  0
  143.6941  133.1642  151.1344 H   0  0  0  0  0  0  0  0  0  0  0  0
  144.8212  131.4855  152.4339 H   0  0  0  0  0  0  0  0  0  0  0  0
  145.5944  133.5906  153.1170 H   0  0  0  0  0  0  0  0  0  0  0  0
  144.3860  143.5789  156.2766 H   0  0  0  0  0  0  0  0  0  0  0  0
  145.3915  142.1964  156.7160 H   0  0  0  0  0  0  0  0  0  0  0  0
  144.2641  142.8778  157.8910 H   0  0  0  0  0  0  0  0  0  0  0  0
  142.5671  142.4042  154.4406 H   0  0  0  0  0  0  0  0  0  0  0  0
  139.1612  139.5674  155.8270 H   0  0  0  0  0  0  0  0  0  0  0  0
  138.4883  139.9127  154.2405 H   0  0  0  0  0  0  0  0  0  0  0  0
  139.0486  141.2304  155.2656 H   0  0  0  0  0  0  0  0  0  0  0  0
  140.5529  140.3697  152.4222 H   0  0  0  0  0  0  0  0  0  0  0  0
  140.8565  137.9784  154.6764 H   0  0  0  0  0  0  0  0  0  0  0  0
  140.1295  138.3553  153.1257 H   0  0  0  0  0  0  0  0  0  0  0  0
  142.7683  139.3291  153.1067 H   0  0  0  0  0  0  0  0  0  0  0  0
  141.3735  134.2491  152.8670 H   0  0  0  0  0  0  0  0  0  0  0  0
  146.9633  137.0340  151.3117 H   0  0  0  0  0  0  0  0  0  0  0  0
  144.7748  131.4245  148.8421 H   0  0  0  0  0  0  0  0  0  0  0  0
  143.5500  130.8470  149.9635 H   0  0  0  0  0  0  0  0  0  0  0  0
  142.1881  131.8467  148.8101 H   0  0  0  0  0  0  0  0  0  0  0  0
  147.1429  131.4394  151.0218 H   0  0  0  0  0  0  0  0  0  0  0  0
  148.0772  133.4545  152.3098 H   0  0  0  0  0  0  0  0  0  0  0  0
  141.7605  137.8311  156.6635 H   0  0  0  0  0  0  0  0  0  0  0  0
  140.5743  138.8016  157.5409 H   0  0  0  0  0  0  0  0  0  0  0  0
  142.1971  138.5861  158.1954 H   0  0  0  0  0  0  0  0  0  0  0  0
  1  2  1  0  0  0  0
  1 35  1  0  0  0  0
  1 36  1  0  0  0  0
  1 37  1  0  0  0  0
  2 30  1  0  0  0  0
  2  3  2  0  0  0  0
  3  4  1  0  0  0  0
  3 38  1  0  0  0  0
  4  5  1  0  0  0  0
  4 28  2  0  0  0  0
  5  6  1  0  0  0  0
  5  7  1  0  0  0  0
  5  8  1  0  0  0  0
  6 39  1  0  0  0  0
  6 40  1  0  0  0  0
  6 41  1  0  0  0  0
  7 42  1  0  0  0  0
  8  9  1  0  0  0  0
  8 43  1  0  0  0  0
  8 44  1  0  0  0  0
  9 10  1  0  0  0  0
  9 45  1  0  0  0  0
 10 15  1  0  0  0  0
 10 11  2  0  0  0  0
 11 12  1  0  0  0  0
 12 13  2  0  0  0  0
 12 46  1  0  0  0  0
 13 14  1  0  0  0  0
 14 18  1  0  0  0  0
 14 15  2  0  0  0  0
 15 16  1  0  0  0  0
 16 17  2  0  0  0  0
 17 18  1  0  0  0  0
 17 47  1  0  0  0  0
 18 19  1  0  0  0  0
 19 31  1  0  0  0  0
 19 26  1  0  0  0  0
 19 20  1  0  0  0  0
 20 21  1  0  0  0  0
 21 32  1  0  0  0  0
 21 22  1  0  0  0  0
 21 24  1  0  0  0  0
 22 23  1  0  0  0  0
 22 48  1  0  0  0  0
 22 49  1  0  0  0  0
 23 50  1  0  0  0  0
 24 33  1  0  0  0  0
 24 25  1  0  0  0  0
 24 26  1  0  0  0  0
 25 51  1  0  0  0  0
 26 34  1  0  0  0  0
 26 27  1  0  0  0  0
 27 52  1  0  0  0  0
 28 29  1  0  0  0  0
 28 30  1  0  0  0  0
 29 53  1  0  0  0  0
 29 54  1  0  0  0  0
 29 55  1  0  0  0  0
M  END
> <s_m_source_file>
AV-unprocessed.smi

> <i_m_source_file_index>
287

> <i_lp_mmshare_version>
43012

> <i_f3d_flags>
0

> <s_epik_input>
W0NIM11jMVtjSF1jKGMobzEpW0NIM10pW0NAQF0oW0NIM10pKFtPSF0pW0NIMl1bTkhdYyhuW2NIXW4yKWMoYzIzKW5bY0hdbjNbQ0BASF00T1tDQEhdKFtDSDJdW09IXSlbQ0BASF0oW09IXSlbQ0BIXTRbT0hd

> <s_epik_cmdline>
J2VwaWtfcHl0aG9uJywgJy1waCcsICc3LjAnLCAnLXRuJywgJzgnLCAnLW1hJywgJzIwMCcsICctbWV0YWxfYmluZGluZycsICctaW1hZScsICc8aW5maWxlLm1hZT4nLCAnLW9tYWUnLCAnPG91dGZpbGUubWFlPic=

> <r_lp_tautomer_probability>
1

> <r_epik_Ionization_Penalty>
0.000992612

> <r_epik_Ionization_Penalty_Charging>
0

> <r_epik_Ionization_Penalty_Neutral>
0.000992612

> <r_epik_State_Penalty>
-0

> <r_epik_Charging_Adjusted_Penalty>
0

> <i_epik_Tot_Q>
0

> <i_epik_Tot_abs_Q>
0

> <r_epik_Metal_State_Penalty>
-0

> <b_epik_Metal_Only>
0

> <s_epik_Chemistry_Notes>
This compound contains an acetal/aminal-like group ( X-CH(R)-Y where X, Y are N, S, or O) that may be acid/base labile, releasing an aldehyde.

> <s_lp_Force_Field>
OPLS_2005

> <r_lp_Energy>
45.0467

> <b_lp_Chiralities_Consistent>
1

> <s_lp_Variant>
AV-unprocessed.smi:287-5

> <Gold.Version>
5.8.1

> <Gold.Id.Protein>
6NUR|6NUR_protein|mol2

> <Gold.PLP.Fitness>
48.0042

> <Gold.PLP.PLP>
-34.8127

> <Gold.PLP.part.hbond>
-7.2827

> <Gold.PLP.part.metal>
0.0000

> <Gold.PLP.part.buried>
-5.1177

> <Gold.PLP.part.nonpolar>
-25.5400

> <Gold.PLP.part.repulsive>
3.2367

> <Gold.PLP.ligand.clash>
0.0000

> <Gold.PLP.ligand.torsion>
0.2378

> <Gold.PLP.Chemscore.Hbond>
3.5207

> <Gold.PLP.Chemscore.CHOScore>
1.0000

> <Gold.PLP.Chemscore.Metal>
0.0000

> <Gold.Chemscore.Hbonds>
donor molecule, donor type, donor heavy atom, donor atom, acceptor molecule, acceptor atom, score
      L1  H     7    42       P1 10160  0.77
      L1  H     9    45       P1 10175  0.99
      L1  H    23    50       P1 10952  0.70
      L1  H    25    51       P1 10747  0.64
      L1  C    17    47       P1  7948  1.00

> <Gold.PLP.Chemscore.Internal.Correction>
0.1052

> <Gold.Rescore>
     Score         DG    S(hbond)    S(metal)    S(lipo)     H(rot)  DE(clash)    DE(int)     intcor
      4.87      -9.05       3.35        0.00      50.13       5.27       2.41       1.77       ----

> <Gold.Chemscore.Fitness>
4.8725

> <Gold.Chemscore.DG>
-9.0487

> <Gold.Chemscore.ZeroCoef>
-5.4800

> <Gold.Chemscore.Hbond>
3.3497

> <Gold.Chemscore.Metal>
0.0000

> <Gold.Chemscore.Lipo>
50.1255

> <Gold.Chemscore.Internal_Hbond>
0.0000

> <Gold.Chemscore.DEClash>
2.4112

> <Gold.Chemscore.DEInternal>
1.7650

> <Gold.Chemscore.Rot>
5.2672

> <Gold.Chemscore.Internal.Correction>
   9.000000E+99

> <Gold.Chemscore.Hbonds>
donor molecule, donor type, donor heavy atom, donor atom, acceptor molecule, acceptor atom, score
      L1  H     7    42       P1 10160  0.73
      L1  H     9    45       P1 10175  0.92
      L1  H    23    50       P1 10952  0.68
      L1  H    25    51       P1 10747  0.64

> <Gold.Chemscore.Hbond.Weighted>
-11.1879

> <Gold.Chemscore.Metal.Weighted>
-0.0000

> <Gold.Chemscore.Lipo.Weighted>
-5.8647

> <Gold.Chemscore.Internal_Hbond.Weighted>
0.0000

> <Gold.Chemscore.DEClash.Weighted>
2.4112

> <Gold.Chemscore.DEInternal.Weighted>
1.7650

> <Gold.Chemscore.Rot.Weighted>
13.4839

> <Gold.Chemscore.Internal.Correction.Weighted>
   9.000000E+99

> <Gold.Protein.RotatedTorsions>
[ 6907 6896 6895 6894 ] final  179.61 input  -60.11 | X-H torsion
[ 7974 7965 7964 7962 ] final -153.23 input  175.53 | X-H torsion
[ 8008 7997 7996 7995 ] final -156.37 input   59.86 | X-H torsion
[ 10167 10162 10161 10158 ] final   63.27 input  -65.29 | X-H torsion
[ 10718 10713 10712 10709 ] final  135.77 input   66.30 | X-H torsion
[ 10763 10752 10751 10750 ] final  -27.96 input  -60.55 | X-H torsion
[ 11005 11000 10999 10996 ] final  145.71 input  -57.11 | X-H torsion

> <Gold.Protein.ActiveResidues>
 VAL166  LYS551  ARG553  GLY616  TRP617  ASP618  TYR619  PRO620  LYS621  CYS622 
 ASP623  PHE694  ASN695  SER759  ASP760  ASP761  ALA762  ILE779  LEU786  VAL792 
 PHE793  MET794  SER795  GLU796  ALA797  LYS798  CYS799  TRP800  GLU811  SER814 

> <Gold.Protein.RotatedAtoms>
  151.6688  133.3314  159.3191 H   0  0  0  0  0  0  0  0  0  0  0  0  # atno 6907 bound_to 6896
  150.7878  134.6880  159.6490 H   0  0  0  0  0  0  0  0  0  0  0  0  # atno 6908 bound_to 6896
  152.3951  134.6382  160.0144 H   0  0  0  0  0  0  0  0  0  0  0  0  # atno 6909 bound_to 6896
  144.7751  140.4554  143.5879 H   0  0  0  0  0  0  0  0  0  0  0  0  # atno 7974 bound_to 7965
  155.7161  140.0784  157.2350 H   0  0  0  0  0  0  0  0  0  0  0  0  # atno 8008 bound_to 7997
  154.4051  140.1621  156.2404 H   0  0  0  0  0  0  0  0  0  0  0  0  # atno 8009 bound_to 7997
  155.9238  140.3396  155.6197 H   0  0  0  0  0  0  0  0  0  0  0  0  # atno 8010 bound_to 7997
  140.1349  144.4608  150.6843 H   0  0  0  0  0  0  0  0  0  0  0  0  # atno 10167 bound_to 10162
  157.4536  131.1068  151.0004 H   0  0  0  0  0  0  0  0  0  0  0  0  # atno 10718 bound_to 10713
  153.7406  135.6933  153.4968 H   0  0  0  0  0  0  0  0  0  0  0  0  # atno 10763 bound_to 10752
  153.2072  135.4416  155.0335 H   0  0  0  0  0  0  0  0  0  0  0  0  # atno 10764 bound_to 10752
  154.8222  135.3427  154.6932 H   0  0  0  0  0  0  0  0  0  0  0  0  # atno 10765 bound_to 10752
  140.0734  134.9138  157.1383 H   0  0  0  0  0  0  0  0  0  0  0  0  # atno 11005 bound_to 11000
  145.6208  139.1524  143.3023 LP  0  0  0  0  0  0  0  0  0  0  0  0  # atno 17320 bound_to 7965
  146.1926  140.6318  142.9139 LP  0  0  0  0  0  0  0  0  0  0  0  0  # atno 17321 bound_to 7965
  140.6795  143.2320  151.5421 LP  0  0  0  0  0  0  0  0  0  0  0  0  # atno 17342 bound_to 10162
  139.5501  144.2418  152.1514 LP  0  0  0  0  0  0  0  0  0  0  0  0  # atno 17343 bound_to 10162
  157.0826  130.5909  149.5423 LP  0  0  0  0  0  0  0  0  0  0  0  0  # atno 17370 bound_to 10713
  155.9997  130.5074  150.7618 LP  0  0  0  0  0  0  0  0  0  0  0  0  # atno 17371 bound_to 10713
  140.3593  134.2512  155.7189 LP  0  0  0  0  0  0  0  0  0  0  0  0  # atno 17394 bound_to 11000
  141.2020  133.7947  157.0410 LP  0  0  0  0  0  0  0  0  0  0  0  0  # atno 17395 bound_to 11000

$$$$
