AV-unprocessed.smi:3186|AV-procd|sdf|12173|dock2
  -GOLD-   2272018 13D 1   1.00000     0.00000
 Structure written by MMmdl.
 37 38  0  0  0  0  0  0  0  0  2 V2000
  150.6653  138.2259  155.3063 C   0  0  0  0  0  0  0  0  0  0  0  0
  149.6524  139.2689  154.8683 C   0  0  0  0  0  0  0  0  0  0  0  0
  148.5263  138.8755  154.1124 C   0  0  0  0  0  0  0  0  0  0  0  0
  147.5772  139.7336  153.6836 N   0  0  0  0  0  0  0  0  0  0  0  0
  147.7163  141.0374  153.9996 C   0  0  0  0  0  0  0  0  0  0  0  0
  148.7987  141.5392  154.7482 C   0  0  0  0  0  0  0  0  0  0  0  0
  149.7902  140.6410  155.1957 C   0  0  0  0  0  0  0  0  0  0  0  0
  150.9673  141.1706  155.9996 C   0  0  0  0  0  0  0  0  0  0  0  0
  150.5296  142.1800  157.0702 C   0  0  0  0  0  0  0  0  0  0  0  0
  151.2602  143.4564  156.9245 N   0  3  0  0  0  0  0  0  0  0  0  0
  151.9070  143.9576  158.1580 C   0  0  2  0  0  0  0  0  0  0  0  0
  152.3252  142.7887  159.0779 C   0  0  0  0  0  0  0  0  0  0  0  0
  153.0499  143.2585  160.3502 C   0  0  0  0  0  0  0  0  0  0  0  0
  152.1790  144.1748  161.2201 C   0  0  0  0  0  0  0  0  0  0  0  0
  151.7283  145.6857  160.3266 S   0  0  0  0  0  0  0  0  0  0  0  0
  150.9462  144.9192  158.8811 C   0  0  0  0  0  0  0  0  0  0  0  0
  150.4452  137.2533  154.8644 H   0  0  0  0  0  0  0  0  0  0  0  0
  150.6487  138.1125  156.3903 H   0  0  0  0  0  0  0  0  0  0  0  0
  151.6726  138.5080  155.0012 H   0  0  0  0  0  0  0  0  0  0  0  0
  148.3799  137.8400  153.8416 H   0  0  0  0  0  0  0  0  0  0  0  0
  146.9430  141.7021  153.6439 H   0  0  0  0  0  0  0  0  0  0  0  0
  148.8617  142.5942  154.9714 H   0  0  0  0  0  0  0  0  0  0  0  0
  151.4746  140.3287  156.4730 H   0  0  0  0  0  0  0  0  0  0  0  0
  151.7015  141.6201  155.3308 H   0  0  0  0  0  0  0  0  0  0  0  0
  149.4571  142.3544  156.9945 H   0  0  0  0  0  0  0  0  0  0  0  0
  150.7174  141.7716  158.0643 H   0  0  0  0  0  0  0  0  0  0  0  0
  151.9849  143.3075  156.2368 H   0  0  0  0  0  0  0  0  0  0  0  0
  152.7935  144.5242  157.8679 H   0  0  0  0  0  0  0  0  0  0  0  0
  151.4471  142.2035  159.3550 H   0  0  0  0  0  0  0  0  0  0  0  0
  152.9867  142.1065  158.5448 H   0  0  0  0  0  0  0  0  0  0  0  0
  153.3476  142.3878  160.9354 H   0  0  0  0  0  0  0  0  0  0  0  0
  153.9727  143.7740  160.0813 H   0  0  0  0  0  0  0  0  0  0  0  0
  151.2698  143.6571  161.5281 H   0  0  0  0  0  0  0  0  0  0  0  0
  152.7129  144.4522  162.1293 H   0  0  0  0  0  0  0  0  0  0  0  0
  150.6274  145.7161  158.2081 H   0  0  0  0  0  0  0  0  0  0  0  0
  150.0456  144.3952  159.2037 H   0  0  0  0  0  0  0  0  0  0  0  0
  150.6310  144.1658  156.5769 H   0  0  0  0  0  0  0  0  0  0  0  0
  1  2  1  0  0  0  0
  1 17  1  0  0  0  0
  1 18  1  0  0  0  0
  1 19  1  0  0  0  0
  2  7  1  0  0  0  0
  2  3  2  0  0  0  0
  3  4  1  0  0  0  0
  3 20  1  0  0  0  0
  4  5  2  0  0  0  0
  5  6  1  0  0  0  0
  5 21  1  0  0  0  0
  6  7  2  0  0  0  0
  6 22  1  0  0  0  0
  7  8  1  0  0  0  0
  8  9  1  0  0  0  0
  8 23  1  0  0  0  0
  8 24  1  0  0  0  0
  9 10  1  0  0  0  0
  9 25  1  0  0  0  0
  9 26  1  0  0  0  0
 10 11  1  0  0  0  0
 10 27  1  0  0  0  0
 10 37  1  0  0  0  0
 11 16  1  0  0  0  0
 11 12  1  0  0  0  0
 11 28  1  0  0  0  0
 12 13  1  0  0  0  0
 12 29  1  0  0  0  0
 12 30  1  0  0  0  0
 13 14  1  0  0  0  0
 13 31  1  0  0  0  0
 13 32  1  0  0  0  0
 14 15  1  0  0  0  0
 14 33  1  0  0  0  0
 14 34  1  0  0  0  0
 15 16  1  0  0  0  0
 16 35  1  0  0  0  0
 16 36  1  0  0  0  0
M  CHG  1  10   1
M  END
> <s_m_source_file>
AV-unprocessed.smi

> <i_m_source_file_index>
3186

> <i_lp_mmshare_version>
43012

> <i_f3d_flags>
0

> <s_epik_input>
W0NIM11jMVtjSF1uW2NIXVtjSF1jMVtDSDJdW0NIMl1bTkhdW0NAQEhdMltDSDJdW0NIMl1bQ0gyXVNbQ0gyXTI=

> <s_epik_cmdline>
J2VwaWtfcHl0aG9uJywgJy1waCcsICc3LjAnLCAnLXRuJywgJzgnLCAnLW1hJywgJzIwMCcsICctbWV0YWxfYmluZGluZycsICctaW1hZScsICc8aW5maWxlLm1hZT4nLCAnLW9tYWUnLCAnPG91dGZpbGUubWFlPic=

> <r_epik_Ionization_Penalty>
0.00563987

> <r_epik_Ionization_Penalty_Charging>
0.00306352

> <r_epik_Ionization_Penalty_Neutral>
0.00257635

> <r_epik_State_Penalty>
0.00506628

> <r_epik_Charging_Adjusted_Penalty>
0.0081298

> <i_epik_Tot_Q>
1

> <i_epik_Tot_abs_Q>
1

> <r_epik_Metal_State_Penalty>
-0

> <b_epik_Metal_Only>
0

> <s_lp_Force_Field>
OPLS_2005

> <r_lp_Energy>
10.8163

> <b_lp_Chiralities_Consistent>
1

> <s_lp_Variant>
AV-unprocessed.smi:3186-1

> <Gold.Version>
5.8.1

> <Gold.Id.Protein>
6NUR|6NUR_protein|mol2

> <Gold.PLP.Fitness>
49.0994

> <Gold.PLP.PLP>
-42.7634

> <Gold.PLP.part.hbond>
-1.0000

> <Gold.PLP.part.metal>
0.0000

> <Gold.PLP.part.buried>
-1.7676

> <Gold.PLP.part.nonpolar>
-39.8320

> <Gold.PLP.part.repulsive>
0.5117

> <Gold.PLP.ligand.clash>
0.0000

> <Gold.PLP.ligand.torsion>
1.3433

> <Gold.PLP.Chemscore.Hbond>
2.0000

> <Gold.PLP.Chemscore.CHOScore>
1.0000

> <Gold.PLP.Chemscore.Metal>
0.0000

> <Gold.Chemscore.Hbonds>
donor molecule, donor type, donor heavy atom, donor atom, acceptor molecule, acceptor atom, score
      L1  H    10    37       P1  8028  2.00
      L1  C     3    20       P1  7948  0.82

> <Gold.PLP.Chemscore.Internal.Correction>
0.0226

> <Gold.Rescore>
     Score         DG    S(hbond)    S(metal)    S(lipo)     H(rot)  DE(clash)    DE(int)     intcor
     19.06     -20.43       0.96        0.00     128.83       1.30       0.09       1.27       ----

> <Gold.Chemscore.Fitness>
19.0649

> <Gold.Chemscore.DG>
-20.4263

> <Gold.Chemscore.ZeroCoef>
-5.4800

> <Gold.Chemscore.Hbond>
0.9610

> <Gold.Chemscore.Metal>
0.0000

> <Gold.Chemscore.Lipo>
128.8253

> <Gold.Chemscore.Internal_Hbond>
0.0000

> <Gold.Chemscore.DEClash>
0.0942

> <Gold.Chemscore.DEInternal>
1.2672

> <Gold.Chemscore.Rot>
1.3031

> <Gold.Chemscore.Internal.Correction>
   9.000000E+99

> <Gold.Chemscore.Hbonds>
donor molecule, donor type, donor heavy atom, donor atom, acceptor molecule, acceptor atom, score
      L1  H    10    37       P1  8028  0.91

> <Gold.Chemscore.Hbond.Weighted>
-3.2098

> <Gold.Chemscore.Metal.Weighted>
-0.0000

> <Gold.Chemscore.Lipo.Weighted>
-15.0726

> <Gold.Chemscore.Internal_Hbond.Weighted>
0.0000

> <Gold.Chemscore.DEClash.Weighted>
0.0942

> <Gold.Chemscore.DEInternal.Weighted>
1.2672

> <Gold.Chemscore.Rot.Weighted>
3.3361

> <Gold.Chemscore.Internal.Correction.Weighted>
   9.000000E+99

> <Gold.Protein.RotatedTorsions>
[ 6907 6896 6895 6894 ] final  114.11 input  -60.11 | X-H torsion
[ 7974 7965 7964 7962 ] final   15.65 input  175.53 | X-H torsion
[ 8008 7997 7996 7995 ] final -135.03 input   59.86 | X-H torsion
[ 10167 10162 10161 10158 ] final  160.83 input  -65.29 | X-H torsion
[ 10718 10713 10712 10709 ] final -104.05 input   66.30 | X-H torsion
[ 10763 10752 10751 10750 ] final  115.27 input  -60.55 | X-H torsion
[ 11005 11000 10999 10996 ] final  142.58 input  -57.11 | X-H torsion

> <Gold.Protein.ActiveResidues>
 VAL166  LYS551  ARG553  GLY616  TRP617  ASP618  TYR619  PRO620  LYS621  CYS622 
 ASP623  PHE694  ASN695  SER759  ASP760  ASP761  ALA762  ILE779  LEU786  VAL792 
 PHE793  MET794  SER795  GLU796  ALA797  LYS798  CYS799  TRP800  GLU811  SER814 

> <Gold.Protein.RotatedAtoms>
  152.4822  133.8282  159.7088 H   0  0  0  0  0  0  0  0  0  0  0  0  # atno 6907 bound_to 6896
  150.8880  133.7272  159.2919 H   0  0  0  0  0  0  0  0  0  0  0  0  # atno 6908 bound_to 6896
  151.4755  135.1052  159.9815 H   0  0  0  0  0  0  0  0  0  0  0  0  # atno 6909 bound_to 6896
  146.2272  139.8863  142.8562 H   0  0  0  0  0  0  0  0  0  0  0  0  # atno 7974 bound_to 7965
  155.3719  140.0489  157.3045 H   0  0  0  0  0  0  0  0  0  0  0  0  # atno 8008 bound_to 7997
  154.5126  140.2197  155.9090 H   0  0  0  0  0  0  0  0  0  0  0  0  # atno 8009 bound_to 7997
  156.1600  140.3118  155.8796 H   0  0  0  0  0  0  0  0  0  0  0  0  # atno 8010 bound_to 7997
  139.4843  144.4595  151.8723 H   0  0  0  0  0  0  0  0  0  0  0  0  # atno 10167 bound_to 10162
  156.0289  130.5496  150.7341 H   0  0  0  0  0  0  0  0  0  0  0  0  # atno 10718 bound_to 10713
  153.5196  135.3600  155.2626 H   0  0  0  0  0  0  0  0  0  0  0  0  # atno 10763 bound_to 10752
  154.8736  135.4042  154.3275 H   0  0  0  0  0  0  0  0  0  0  0  0  # atno 10764 bound_to 10752
  153.3943  135.7073  153.6539 H   0  0  0  0  0  0  0  0  0  0  0  0  # atno 10765 bound_to 10752
  140.0488  134.9267  157.0979 H   0  0  0  0  0  0  0  0  0  0  0  0  # atno 11005 bound_to 11000
  145.2462  141.0027  143.3907 LP  0  0  0  0  0  0  0  0  0  0  0  0  # atno 17320 bound_to 7965
  144.9411  139.4188  143.6448 LP  0  0  0  0  0  0  0  0  0  0  0  0  # atno 17321 bound_to 7965
  140.4057  144.2435  150.5891 LP  0  0  0  0  0  0  0  0  0  0  0  0  # atno 17342 bound_to 10162
  140.5014  143.2316  151.8672 LP  0  0  0  0  0  0  0  0  0  0  0  0  # atno 17343 bound_to 10162
  157.4926  131.0912  151.0409 LP  0  0  0  0  0  0  0  0  0  0  0  0  # atno 17370 bound_to 10713
  157.0812  130.5903  149.5421 LP  0  0  0  0  0  0  0  0  0  0  0  0  # atno 17371 bound_to 10713
  140.3951  134.2143  155.7165 LP  0  0  0  0  0  0  0  0  0  0  0  0  # atno 17394 bound_to 11000
  141.1920  133.8183  157.0857 LP  0  0  0  0  0  0  0  0  0  0  0  0  # atno 17395 bound_to 11000

$$$$
