AV-unprocessed.smi:2093|AV-procd|sdf|8547|dock3
  -GOLD-   2272011273D 1   1.00000     0.00000
 Structure written by MMmdl.
 31 32  0  0  0  0  0  0  0  0  1 V2000
  147.9447  140.5016  155.3729 C   0  0  0  0  0  0  0  0  0  0  0  0
  149.3908  140.8551  154.9930 C   0  0  1  0  0  0  0  0  0  0  0  0
  149.8074  142.0247  155.7640 N   0  0  0  0  0  0  0  0  0  0  0  0
  150.2693  142.0128  157.0232 C   0  0  0  0  0  0  0  0  0  0  0  0
  150.4188  140.9868  157.6874 O   0  0  0  0  0  0  0  0  0  0  0  0
  150.5398  143.2589  157.4498 N   0  0  0  0  0  0  0  0  0  0  0  0
  151.0419  143.6652  158.7137 C   0  0  0  0  0  0  0  0  0  0  0  0
  151.2295  142.8424  159.7525 N   0  0  0  0  0  0  0  0  0  0  0  0
  151.7343  143.5139  160.8690 C   0  0  0  0  0  0  0  0  0  0  0  0
  151.9270  144.8569  160.6611 C   0  0  0  0  0  0  0  0  0  0  0  0
  151.4799  145.3349  159.0451 S   0  0  0  0  0  0  0  0  0  0  0  0
  150.3701  139.6955  155.2599 C   0  0  1  0  0  0  0  0  0  0  0  0
  150.1840  138.4762  154.3544 C   0  0  0  0  0  0  0  0  0  0  0  0
  151.5635  137.8355  154.3183 C   0  0  0  0  0  0  0  0  0  0  0  0
  152.4879  138.9026  154.9097 C   0  0  0  0  0  0  0  0  0  0  0  0
  151.7014  140.0838  154.9566 O   0  0  0  0  0  0  0  0  0  0  0  0
  147.5748  139.6590  154.7883 H   0  0  0  0  0  0  0  0  0  0  0  0
  147.2752  141.3426  155.1887 H   0  0  0  0  0  0  0  0  0  0  0  0
  147.8641  140.2365  156.4276 H   0  0  0  0  0  0  0  0  0  0  0  0
  149.4094  141.0792  153.9250 H   0  0  0  0  0  0  0  0  0  0  0  0
  149.7184  142.9188  155.3045 H   0  0  0  0  0  0  0  0  0  0  0  0
  150.3629  144.0053  156.7940 H   0  0  0  0  0  0  0  0  0  0  0  0
  151.9280  142.9564  161.7734 H   0  0  0  0  0  0  0  0  0  0  0  0
  152.3032  145.5908  161.3581 H   0  0  0  0  0  0  0  0  0  0  0  0
  150.3237  139.3898  156.3072 H   0  0  0  0  0  0  0  0  0  0  0  0
  149.4131  137.7969  154.7192 H   0  0  0  0  0  0  0  0  0  0  0  0
  149.9042  138.7919  153.3482 H   0  0  0  0  0  0  0  0  0  0  0  0
  151.5991  136.9213  154.9119 H   0  0  0  0  0  0  0  0  0  0  0  0
  151.8456  137.5832  153.2954 H   0  0  0  0  0  0  0  0  0  0  0  0
  152.7880  138.6315  155.9230 H   0  0  0  0  0  0  0  0  0  0  0  0
  153.3899  139.0530  154.3160 H   0  0  0  0  0  0  0  0  0  0  0  0
  1  2  1  0  0  0  0
  1 17  1  0  0  0  0
  1 18  1  0  0  0  0
  1 19  1  0  0  0  0
  2  3  1  0  0  0  0
  2 12  1  0  0  0  0
  2 20  1  0  0  0  0
  3  4  1  0  0  0  0
  3 21  1  0  0  0  0
  4  5  2  0  0  0  0
  4  6  1  0  0  0  0
  6  7  1  0  0  0  0
  6 22  1  0  0  0  0
  7 11  1  0  0  0  0
  7  8  2  0  0  0  0
  8  9  1  0  0  0  0
  9 10  2  0  0  0  0
  9 23  1  0  0  0  0
 10 11  1  0  0  0  0
 10 24  1  0  0  0  0
 12 16  1  0  0  0  0
 12 13  1  0  0  0  0
 12 25  1  0  0  0  0
 13 14  1  0  0  0  0
 13 26  1  0  0  0  0
 13 27  1  0  0  0  0
 14 15  1  0  0  0  0
 14 28  1  0  0  0  0
 14 29  1  0  0  0  0
 15 16  1  0  0  0  0
 15 30  1  0  0  0  0
 15 31  1  0  0  0  0
M  END
> <s_m_source_file>
AV-unprocessed.smi

> <i_m_source_file_index>
2093

> <i_lp_mmshare_version>
43012

> <i_f3d_flags>
0

> <s_epik_input>
TzFbQ0gyXVtDSDJdW0NIMl1bQ0BIXTFbQ0BIXShbQ0gzXSlbTkhdQyg9TylbTkhdYzJuW2NIXVtjSF1zMg==

> <s_epik_cmdline>
J2VwaWtfcHl0aG9uJywgJy1waCcsICc3LjAnLCAnLXRuJywgJzgnLCAnLW1hJywgJzIwMCcsICctbWV0YWxfYmluZGluZycsICctaW1hZScsICc8aW5maWxlLm1hZT4nLCAnLW9tYWUnLCAnPG91dGZpbGUubWFlPic=

> <r_lp_tautomer_probability>
0.999

> <r_epik_Ionization_Penalty>
0.000334433

> <r_epik_Ionization_Penalty_Charging>
0

> <r_epik_Ionization_Penalty_Neutral>
0.000334433

> <r_epik_State_Penalty>
0.000177984

> <r_epik_Charging_Adjusted_Penalty>
0.000177984

> <i_epik_Tot_Q>
0

> <i_epik_Tot_abs_Q>
0

> <r_epik_Metal_State_Penalty>
0.00767616

> <b_epik_Metal_Only>
0

> <s_lp_Force_Field>
OPLS_2005

> <r_lp_Energy>
16.8099

> <b_lp_Chiralities_Consistent>
1

> <s_lp_Variant>
AV-unprocessed.smi:2093-4

> <Gold.Version>
5.8.1

> <Gold.Id.Protein>
6NUR|6NUR_protein|mol2

> <Gold.PLP.Fitness>
43.2129

> <Gold.PLP.PLP>
-36.1722

> <Gold.PLP.part.hbond>
-3.1489

> <Gold.PLP.part.metal>
0.0000

> <Gold.PLP.part.buried>
-6.5397

> <Gold.PLP.part.nonpolar>
-27.9516

> <Gold.PLP.part.repulsive>
0.2281

> <Gold.PLP.ligand.clash>
0.0005

> <Gold.PLP.ligand.torsion>
0.3454

> <Gold.PLP.Chemscore.Hbond>
2.5691

> <Gold.PLP.Chemscore.CHOScore>
0.0000

> <Gold.PLP.Chemscore.Metal>
0.0000

> <Gold.Chemscore.Hbonds>
donor molecule, donor type, donor heavy atom, donor atom, acceptor molecule, acceptor atom, score
      L1  H     3    21       P1  8028  0.78
      L1  H     6    22       P1  8028  0.82
      P1  H  7989  7998       L1    16  0.99

> <Gold.PLP.Chemscore.Internal.Correction>
0.0247

> <Gold.Rescore>
     Score         DG    S(hbond)    S(metal)    S(lipo)     H(rot)  DE(clash)    DE(int)     intcor
     16.90     -20.29       2.73        0.00      76.93       1.29       0.15       3.23       ----

> <Gold.Chemscore.Fitness>
16.9048

> <Gold.Chemscore.DG>
-20.2858

> <Gold.Chemscore.ZeroCoef>
-5.4800

> <Gold.Chemscore.Hbond>
2.7296

> <Gold.Chemscore.Metal>
0.0000

> <Gold.Chemscore.Lipo>
76.9320

> <Gold.Chemscore.Internal_Hbond>
0.0000

> <Gold.Chemscore.DEClash>
0.1490

> <Gold.Chemscore.DEInternal>
3.2319

> <Gold.Chemscore.Rot>
1.2938

> <Gold.Chemscore.Internal.Correction>
   9.000000E+99

> <Gold.Chemscore.Hbonds>
donor molecule, donor type, donor heavy atom, donor atom, acceptor molecule, acceptor atom, score
      L1  H     3    21       P1  8028  0.74
      L1  H     6    22       P1  8028  0.79
      P1  H  7989  7998       L1    16  0.46

> <Gold.Chemscore.Hbond.Weighted>
-9.1169

> <Gold.Chemscore.Metal.Weighted>
-0.0000

> <Gold.Chemscore.Lipo.Weighted>
-9.0010

> <Gold.Chemscore.Internal_Hbond.Weighted>
0.0000

> <Gold.Chemscore.DEClash.Weighted>
0.1490

> <Gold.Chemscore.DEInternal.Weighted>
3.2319

> <Gold.Chemscore.Rot.Weighted>
3.3122

> <Gold.Chemscore.Internal.Correction.Weighted>
   9.000000E+99

> <Gold.Protein.RotatedTorsions>
[ 6907 6896 6895 6894 ] final   50.76 input  -60.11 | X-H torsion
[ 7974 7965 7964 7962 ] final  111.77 input  175.53 | X-H torsion
[ 8008 7997 7996 7995 ] final   99.87 input   59.86 | X-H torsion
[ 10167 10162 10161 10158 ] final  -10.65 input  -65.29 | X-H torsion
[ 10718 10713 10712 10709 ] final  -81.11 input   66.30 | X-H torsion
[ 10763 10752 10751 10750 ] final   33.71 input  -60.55 | X-H torsion
[ 11005 11000 10999 10996 ] final   45.05 input  -57.11 | X-H torsion

> <Gold.Protein.ActiveResidues>
 VAL166  LYS551  ARG553  GLY616  TRP617  ASP618  TYR619  PRO620  LYS621  CYS622 
 ASP623  PHE694  ASN695  SER759  ASP760  ASP761  ALA762  ILE779  LEU786  VAL792 
 PHE793  MET794  SER795  GLU796  ALA797  LYS798  CYS799  TRP800  GLU811  SER814 

> <Gold.Protein.RotatedAtoms>
  152.3053  134.7563  160.0348 H   0  0  0  0  0  0  0  0  0  0  0  0  # atno 6907 bound_to 6896
  151.8062  133.3370  159.3550 H   0  0  0  0  0  0  0  0  0  0  0  0  # atno 6908 bound_to 6896
  150.7293  134.5637  159.5899 H   0  0  0  0  0  0  0  0  0  0  0  0  # atno 6909 bound_to 6896
  145.2380  139.2791  143.4132 H   0  0  0  0  0  0  0  0  0  0  0  0  # atno 7974 bound_to 7965
  156.1147  140.3222  155.8123 H   0  0  0  0  0  0  0  0  0  0  0  0  # atno 8008 bound_to 7997
  155.4610  140.0539  157.3008 H   0  0  0  0  0  0  0  0  0  0  0  0  # atno 8009 bound_to 7997
  154.4785  140.2042  155.9835 H   0  0  0  0  0  0  0  0  0  0  0  0  # atno 8010 bound_to 7997
  140.7119  143.5724  150.9078 H   0  0  0  0  0  0  0  0  0  0  0  0  # atno 10167 bound_to 10162
  156.0057  130.4594  150.3902 H   0  0  0  0  0  0  0  0  0  0  0  0  # atno 10718 bound_to 10713
  153.0199  135.6380  154.1554 H   0  0  0  0  0  0  0  0  0  0  0  0  # atno 10763 bound_to 10752
  154.1290  135.2842  155.3191 H   0  0  0  0  0  0  0  0  0  0  0  0  # atno 10764 bound_to 10752
  154.6208  135.5525  153.7635 H   0  0  0  0  0  0  0  0  0  0  0  0  # atno 10765 bound_to 10752
  140.1496  134.4479  155.8391 H   0  0  0  0  0  0  0  0  0  0  0  0  # atno 11005 bound_to 11000
  146.3336  140.2735  142.8607 LP  0  0  0  0  0  0  0  0  0  0  0  0  # atno 17320 bound_to 7965
  144.9615  140.8279  143.5511 LP  0  0  0  0  0  0  0  0  0  0  0  0  # atno 17321 bound_to 7965
  139.9450  143.6337  152.3044 LP  0  0  0  0  0  0  0  0  0  0  0  0  # atno 17342 bound_to 10162
  139.6836  144.7653  151.1564 LP  0  0  0  0  0  0  0  0  0  0  0  0  # atno 17343 bound_to 10162
  157.1977  131.0430  151.2667 LP  0  0  0  0  0  0  0  0  0  0  0  0  # atno 17370 bound_to 10713
  157.4004  130.7330  149.6763 LP  0  0  0  0  0  0  0  0  0  0  0  0  # atno 17371 bound_to 10713
  141.2197  133.6866  156.7397 LP  0  0  0  0  0  0  0  0  0  0  0  0  # atno 17394 bound_to 11000
  140.2621  134.8458  157.3769 LP  0  0  0  0  0  0  0  0  0  0  0  0  # atno 17395 bound_to 11000

$$$$
