#       Name:                AV-unprocessed.smi:849
#       Creating user name   scv26
#       Creation time:       Fri Mar 27 01:41:21 2020


#       File generated by GOLD software.
#

@<TRIPOS>MOLECULE
AV-unprocessed.smi:849
    41    43     1
SMALL
NO_CHARGES


@<TRIPOS>ATOM
      1 ****        -0.1021   3.0443  -0.1102 O.3            1 S1                 0.0000
      2 ****         0.0292   2.1328  -1.1803 C.3            1 S1                 0.0000
      3 ****        -0.8805   0.9440  -1.0498 C.2            1 S1                 0.0000
      4 ****        -2.1906   1.1036  -0.8540 N.2            1 S1                 0.0000
      5 ****        -2.6574  -0.1939  -0.8138 C.ar           1 S1                 0.0000
      6 ****        -3.9679  -0.6918  -0.6341 C.ar           1 S1                 0.0000
      7 ****        -4.2106  -2.0809  -0.6379 C.ar           1 S1                 0.0000
      8 ****        -3.1488  -2.9894  -0.8231 C.ar           1 S1                 0.0000
      9 ****        -1.8359  -2.5131  -1.0036 C.ar           1 S1                 0.0000
     10 ****        -1.5971  -1.1252  -0.9947 C.ar           1 S1                 0.0000
     11 ****        -0.4517  -0.3447  -1.1369 N.pl3          1 S1                 0.0000
     12 ****         0.9014  -0.8530  -1.3516 C.3            1 S1                 0.0000
     13 ****         1.6569  -1.2028  -0.0472 C.3            1 S1                 0.0000
     14 ****         0.9960  -2.2590   0.6234 O.3            1 S1                 0.0000
     15 ****         1.9036   0.0119   0.8482 C.ar           1 S1                 0.0000
     16 ****         1.0070   0.3073   1.9023 C.ar           1 S1                 0.0000
     17 ****         1.2155   1.4253   2.7314 C.ar           1 S1                 0.0000
     18 ****         2.3229   2.2643   2.5147 C.ar           1 S1                 0.0000
     19 ****         3.2176   1.9855   1.4655 C.ar           1 S1                 0.0000
     20 ****         3.0138   0.8674   0.6320 C.ar           1 S1                 0.0000
     21 ****         4.1342   0.5871  -0.6548 Cl             1 S1                 0.0000
     22 ****         0.4773   3.7741  -0.2645 H              1 S1                 0.0000
     23 ****        -0.2062   2.6498  -2.1104 H              1 S1                 0.0000
     24 ****         1.0737   1.8395  -1.2399 H              1 S1                 0.0000
     25 ****        -4.7878  -0.0030  -0.4946 H              1 S1                 0.0000
     26 ****        -5.2160  -2.4509  -0.5003 H              1 S1                 0.0000
     27 ****        -3.3421  -4.0522  -0.8259 H              1 S1                 0.0000
     28 ****        -1.0208  -3.2075  -1.1434 H              1 S1                 0.0000
     29 ****         0.8249  -1.7476  -1.9709 H              1 S1                 0.0000
     30 ****         1.4695  -0.1458  -1.9534 H              1 S1                 0.0000
     31 ****         2.6253  -1.6197  -0.3227 H              1 S1                 0.0000
     32 ****         1.5372  -2.5406   1.3452 H              1 S1                 0.0000
     33 ****         0.1427  -0.3165   2.0780 H              1 S1                 0.0000
     34 ****         0.5219   1.6414   3.5306 H              1 S1                 0.0000
     35 ****         2.4829   3.1238   3.1489 H              1 S1                 0.0000
     36 ****         4.0632   2.6362   1.2976 H              1 S1                 0.0000
     37 ****         0.1438   2.5941   0.7482 LP             1 S1                 0.0000
     38 ****        -1.0465   3.3688  -0.0577 LP             1 S1                 0.0000
     39 ****        -2.7072   1.9546  -0.7596 LP             1 S1                 0.0000
     40 ****         0.8516  -3.0213  -0.0075 LP             1 S1                 0.0000
     41 ****         0.1132  -1.9398   0.9681 LP             1 S1                 0.0000
@<TRIPOS>BOND
    1    1    2 1     
    2    1   22 1     
    3    2    3 1     
    4    2   23 1     
    5    2   24 1     
    6    3   11 1     
    7    3    4 2     
    8    4    5 1     
    9    5   10 ar    
   10    5    6 ar    
   11    6    7 ar    
   12    6   25 1     
   13    7    8 ar    
   14    7   26 1     
   15    8    9 ar    
   16    8   27 1     
   17    9   10 ar    
   18    9   28 1     
   19   10   11 1     
   20   11   12 1     
   21   12   13 1     
   22   12   29 1     
   23   12   30 1     
   24   13   14 1     
   25   13   15 1     
   26   13   31 1     
   27   14   32 1     
   28   15   20 ar    
   29   15   16 ar    
   30   16   17 ar    
   31   16   33 1     
   32   17   18 ar    
   33   17   34 1     
   34   18   19 ar    
   35   18   35 1     
   36   19   20 ar    
   37   19   36 1     
   38   20   21 1     
   39    1   37 1     
   40    1   38 1     
   41    4   39 1     
   42   14   40 1     
   43   14   41 1     
@<TRIPOS>SUBSTRUCTURE
      1 S1             1
@<TRIPOS>SET
LONE_PAIRS      STATIC     ATOMS    <user>   **** ""
5 37 38 39 40 41
DONOR_HYDROGENS      STATIC     ATOMS    <user>   **** ""
2 22 32
ATOM$BLUE        STATIC     ATOMS    COLORGROUP SYSTEM
5 37 38 39 40 41
ATOM$RED        STATIC     ATOMS    COLORGROUP SYSTEM
2 22 32
