AV-unprocessed.smi:2108|AV-procd|sdf|8605|dock8
  -GOLD-   2272011343D 1   1.00000     0.00000
 Structure written by MMmdl.
 34 35  0  0  0  0  0  0  0  0  2 V2000
  151.0004  139.4799  155.0425 O   0  0  0  0  0  0  0  0  0  0  0  0
  152.0266  138.8691  155.9034 S   0  0  0  0  0  0  0  0  0  0  0  0
  152.9267  137.8741  155.2973 O   0  0  0  0  0  0  0  0  0  0  0  0
  152.7826  139.9531  156.8416 N   0  5  0  0  0  0  0  0  0  0  0  0
  152.0220  141.0664  157.3809 C   0  0  0  0  0  0  0  0  0  0  0  0
  152.3991  141.2898  158.8612 C   0  0  0  0  0  0  0  0  0  0  0  0
  152.1604  142.7119  159.3590 C   0  0  0  0  0  0  0  0  0  0  0  0
  152.0484  143.7855  158.4457 C   0  0  0  0  0  0  0  0  0  0  0  0
  151.8198  145.0801  158.9502 C   0  0  0  0  0  0  0  0  0  0  0  0
  151.7056  145.2559  160.3424 C   0  0  0  0  0  0  0  0  0  0  0  0
  151.8250  144.1235  161.1720 C   0  0  0  0  0  0  0  0  0  0  0  0
  152.0435  142.8780  160.6994 N   0  0  0  0  0  0  0  0  0  0  0  0
  151.1762  138.0334  157.1667 N   0  0  0  0  0  0  0  0  0  0  0  0
  151.8743  137.8414  158.4543 C   0  0  0  0  0  0  0  0  0  0  0  0
  150.9164  137.3092  159.5319 C   0  0  0  0  0  0  0  0  0  0  0  0
  150.2759  136.1273  159.0768 O   0  0  0  0  0  0  0  0  0  0  0  0
  149.4841  136.3811  157.9271 C   0  0  0  0  0  0  0  0  0  0  0  0
  150.3700  136.8668  156.7685 C   0  0  0  0  0  0  0  0  0  0  0  0
  152.2114  141.9847  156.8241 H   0  0  0  0  0  0  0  0  0  0  0  0
  150.9485  140.8877  157.3092 H   0  0  0  0  0  0  0  0  0  0  0  0
  151.8350  140.6022  159.4931 H   0  0  0  0  0  0  0  0  0  0  0  0
  153.4510  141.0426  159.0142 H   0  0  0  0  0  0  0  0  0  0  0  0
  152.1409  143.6199  157.3822 H   0  0  0  0  0  0  0  0  0  0  0  0
  151.7331  145.9233  158.2811 H   0  0  0  0  0  0  0  0  0  0  0  0
  151.5297  146.2343  160.7644 H   0  0  0  0  0  0  0  0  0  0  0  0
  151.7407  144.2206  162.2441 H   0  0  0  0  0  0  0  0  0  0  0  0
  152.6959  137.1395  158.3067 H   0  0  0  0  0  0  0  0  0  0  0  0
  152.3160  138.7778  158.7934 H   0  0  0  0  0  0  0  0  0  0  0  0
  151.4700  137.0806  160.4427 H   0  0  0  0  0  0  0  0  0  0  0  0
  150.1730  138.0634  159.7951 H   0  0  0  0  0  0  0  0  0  0  0  0
  148.9699  135.4629  157.6434 H   0  0  0  0  0  0  0  0  0  0  0  0
  148.7118  137.1166  158.1585 H   0  0  0  0  0  0  0  0  0  0  0  0
  149.7418  137.1223  155.9156 H   0  0  0  0  0  0  0  0  0  0  0  0
  151.0408  136.0695  156.4464 H   0  0  0  0  0  0  0  0  0  0  0  0
  1  2  2  0  0  0  0
  2  3  2  0  0  0  0
  2  4  1  0  0  0  0
  2 13  1  0  0  0  0
  4  5  1  0  0  0  0
  5  6  1  0  0  0  0
  5 19  1  0  0  0  0
  5 20  1  0  0  0  0
  6  7  1  0  0  0  0
  6 21  1  0  0  0  0
  6 22  1  0  0  0  0
  7 12  1  0  0  0  0
  7  8  2  0  0  0  0
  8  9  1  0  0  0  0
  8 23  1  0  0  0  0
  9 10  2  0  0  0  0
  9 24  1  0  0  0  0
 10 11  1  0  0  0  0
 10 25  1  0  0  0  0
 11 12  2  0  0  0  0
 11 26  1  0  0  0  0
 13 18  1  0  0  0  0
 13 14  1  0  0  0  0
 14 15  1  0  0  0  0
 14 27  1  0  0  0  0
 14 28  1  0  0  0  0
 15 16  1  0  0  0  0
 15 29  1  0  0  0  0
 15 30  1  0  0  0  0
 16 17  1  0  0  0  0
 17 18  1  0  0  0  0
 17 31  1  0  0  0  0
 17 32  1  0  0  0  0
 18 33  1  0  0  0  0
 18 34  1  0  0  0  0
M  CHG  1   4  -1
M  END
> <s_m_source_file>
AV-unprocessed.smi

> <i_m_source_file_index>
2108

> <i_lp_mmshare_version>
43012

> <i_f3d_flags>
0

> <s_epik_input>
W0NIMl0xW0NIMl1PW0NIMl1bQ0gyXU4xUyg9TykoPU8pW05IXVtDSDJdW0NIMl1jMltjSF1bY0hdW2NIXVtjSF1uMg==

> <s_epik_cmdline>
J2VwaWtfcHl0aG9uJywgJy1waCcsICc3LjAnLCAnLXRuJywgJzgnLCAnLW1hJywgJzIwMCcsICctbWV0YWxfYmluZGluZycsICctaW1hZScsICc8aW5maWxlLm1hZT4nLCAnLW9tYWUnLCAnPG91dGZpbGUubWFlPic=

> <r_epik_Ionization_Penalty>
1.27779

> <r_epik_Ionization_Penalty_Charging>
1.20871

> <r_epik_Ionization_Penalty_Neutral>
0.0690773

> <r_epik_State_Penalty>
1.64557

> <r_epik_Charging_Adjusted_Penalty>
2.85428

> <i_epik_Tot_Q>
-1

> <i_epik_Tot_abs_Q>
1

> <r_epik_Metal_State_Penalty>
0.643506

> <b_epik_Metal_Only>
0

> <s_lp_Force_Field>
OPLS_2005

> <r_lp_Energy>
7.47044

> <b_lp_Chiralities_Consistent>
1

> <s_lp_Variant>
AV-unprocessed.smi:2108-2

> <Gold.Version>
5.8.1

> <Gold.Id.Protein>
6NUR|6NUR_protein|mol2

> <Gold.PLP.Fitness>
45.3955

> <Gold.PLP.PLP>
-34.6914

> <Gold.PLP.part.hbond>
-4.0756

> <Gold.PLP.part.metal>
0.0000

> <Gold.PLP.part.buried>
-4.8406

> <Gold.PLP.part.nonpolar>
-25.2647

> <Gold.PLP.part.repulsive>
0.1233

> <Gold.PLP.ligand.clash>
0.0000

> <Gold.PLP.ligand.torsion>
1.5346

> <Gold.PLP.Chemscore.Hbond>
4.0837

> <Gold.PLP.Chemscore.CHOScore>
0.0000

> <Gold.PLP.Chemscore.Metal>
0.0000

> <Gold.Chemscore.Hbonds>
donor molecule, donor type, donor heavy atom, donor atom, acceptor molecule, acceptor atom, score
      P1  H  6896  6909       L1    16  0.94
      P1  H  7989  7998       L1     1  0.65
      P1  H  7997  8010       L1     4  2.00
      P1  H 10752 10764       L1     3  0.05

> <Gold.PLP.Chemscore.Internal.Correction>
1.5221

> <Gold.Rescore>
     Score         DG    S(hbond)    S(metal)    S(lipo)     H(rot)  DE(clash)    DE(int)     intcor
     18.77     -20.25       2.52        0.00      88.44       1.56       0.08       1.39       ----

> <Gold.Chemscore.Fitness>
18.7729

> <Gold.Chemscore.DG>
-20.2479

> <Gold.Chemscore.ZeroCoef>
-5.4800

> <Gold.Chemscore.Hbond>
2.5213

> <Gold.Chemscore.Metal>
0.0000

> <Gold.Chemscore.Lipo>
88.4448

> <Gold.Chemscore.Internal_Hbond>
0.0000

> <Gold.Chemscore.DEClash>
0.0820

> <Gold.Chemscore.DEInternal>
1.3930

> <Gold.Chemscore.Rot>
1.5630

> <Gold.Chemscore.Internal.Correction>
   9.000000E+99

> <Gold.Chemscore.Hbonds>
donor molecule, donor type, donor heavy atom, donor atom, acceptor molecule, acceptor atom, score
      P1  H  6896  6909       L1    16  0.76
      P1  H  7989  7998       L1     1  0.62
      P1  H  7997  8010       L1     4  0.87
      P1  H 10752 10764       L1     3  0.05

> <Gold.Chemscore.Hbond.Weighted>
-8.4212

> <Gold.Chemscore.Metal.Weighted>
-0.0000

> <Gold.Chemscore.Lipo.Weighted>
-10.3480

> <Gold.Chemscore.Internal_Hbond.Weighted>
0.0000

> <Gold.Chemscore.DEClash.Weighted>
0.0820

> <Gold.Chemscore.DEInternal.Weighted>
1.3930

> <Gold.Chemscore.Rot.Weighted>
4.0013

> <Gold.Chemscore.Internal.Correction.Weighted>
   9.000000E+99

> <Gold.Protein.RotatedTorsions>
[ 6907 6896 6895 6894 ] final   70.69 input  -60.11 | X-H torsion
[ 7974 7965 7964 7962 ] final   82.55 input  175.53 | X-H torsion
[ 8008 7997 7996 7995 ] final   62.98 input   59.86 | X-H torsion
[ 10167 10162 10161 10158 ] final   59.30 input  -65.29 | X-H torsion
[ 10718 10713 10712 10709 ] final  142.35 input   66.30 | X-H torsion
[ 10763 10752 10751 10750 ] final  -34.04 input  -60.55 | X-H torsion
[ 11005 11000 10999 10996 ] final  121.65 input  -57.11 | X-H torsion

> <Gold.Protein.ActiveResidues>
 VAL166  LYS551  ARG553  GLY616  TRP617  ASP618  TYR619  PRO620  LYS621  CYS622 
 ASP623  PHE694  ASN695  SER759  ASP760  ASP761  ALA762  ILE779  LEU786  VAL792 
 PHE793  MET794  SER795  GLU796  ALA797  LYS798  CYS799  TRP800  GLU811  SER814 

> <Gold.Protein.RotatedAtoms>
  152.4765  134.4831  159.9671 H   0  0  0  0  0  0  0  0  0  0  0  0  # atno 6907 bound_to 6896
  151.4846  133.3532  159.2851 H   0  0  0  0  0  0  0  0  0  0  0  0  # atno 6908 bound_to 6896
  150.8807  134.8224  159.7284 H   0  0  0  0  0  0  0  0  0  0  0  0  # atno 6909 bound_to 6896
  145.6236  139.2391  143.2124 H   0  0  0  0  0  0  0  0  0  0  0  0  # atno 7974 bound_to 7965
  155.6229  140.3496  155.4658 H   0  0  0  0  0  0  0  0  0  0  0  0  # atno 8008 bound_to 7997
  156.0065  140.1224  157.0520 H   0  0  0  0  0  0  0  0  0  0  0  0  # atno 8009 bound_to 7997
  154.4266  140.1090  156.5755 H   0  0  0  0  0  0  0  0  0  0  0  0  # atno 8010 bound_to 7997
  140.1779  144.4212  150.6629 H   0  0  0  0  0  0  0  0  0  0  0  0  # atno 10167 bound_to 10162
  157.3816  131.0993  151.0733 H   0  0  0  0  0  0  0  0  0  0  0  0  # atno 10718 bound_to 10713
  153.8401  135.6858  153.4804 H   0  0  0  0  0  0  0  0  0  0  0  0  # atno 10763 bound_to 10752
  153.1459  135.4638  154.9563 H   0  0  0  0  0  0  0  0  0  0  0  0  # atno 10764 bound_to 10752
  154.7849  135.3281  154.7856 H   0  0  0  0  0  0  0  0  0  0  0  0  # atno 10765 bound_to 10752
  139.9235  134.9639  156.7990 H   0  0  0  0  0  0  0  0  0  0  0  0  # atno 11005 bound_to 11000
  146.1411  140.7056  142.9366 LP  0  0  0  0  0  0  0  0  0  0  0  0  # atno 17320 bound_to 7965
  144.7221  140.4407  143.7000 LP  0  0  0  0  0  0  0  0  0  0  0  0  # atno 17321 bound_to 7965
  140.6539  143.2232  151.6013 LP  0  0  0  0  0  0  0  0  0  0  0  0  # atno 17342 bound_to 10162
  139.5309  144.2919  152.1145 LP  0  0  0  0  0  0  0  0  0  0  0  0  # atno 17343 bound_to 10162
  157.1800  130.6305  149.5668 LP  0  0  0  0  0  0  0  0  0  0  0  0  # atno 17370 bound_to 10713
  155.9777  130.4757  150.6610 LP  0  0  0  0  0  0  0  0  0  0  0  0  # atno 17371 bound_to 10713
  140.6405  133.9822  155.7705 LP  0  0  0  0  0  0  0  0  0  0  0  0  # atno 17394 bound_to 11000
  141.0774  134.0114  157.3437 LP  0  0  0  0  0  0  0  0  0  0  0  0  # atno 17395 bound_to 11000

$$$$
