AV-unprocessed.smi:2114|AV-procd|sdf|8617|dock5
  -GOLD-   2272011363D 1   1.00000     0.00000
 Structure written by MMmdl.
 47 48  0  0  0  0  0  0  0  0  1 V2000
  159.7370  134.0258  155.2927 C   0  0  0  0  0  0  0  0  0  0  0  0
  158.7562  133.7211  156.2687 O   0  0  0  0  0  0  0  0  0  0  0  0
  157.9254  134.8308  156.5701 C   0  0  0  0  0  0  0  0  0  0  0  0
  156.7965  134.3827  157.5111 C   0  0  2  0  0  0  0  0  0  0  0  0
  155.8200  133.4283  156.8044 C   0  0  0  0  0  0  0  0  0  0  0  0
  156.0834  135.5564  158.0070 N   0  0  0  0  0  0  0  0  0  0  0  0
  155.0255  135.5342  158.8342 C   0  0  0  0  0  0  0  0  0  0  0  0
  154.5348  134.4987  159.2844 O   0  0  0  0  0  0  0  0  0  0  0  0
  154.4976  136.8781  159.2449 C   0  0  0  0  0  0  0  0  0  0  0  0
  154.0231  137.1231  160.5520 C   0  0  0  0  0  0  0  0  0  0  0  0
  153.5576  138.4102  160.8825 C   0  0  0  0  0  0  0  0  0  0  0  0
  153.5819  139.4276  159.8997 C   0  0  0  0  0  0  0  0  0  0  0  0
  153.1116  140.7225  160.2075 N   0  0  0  0  0  0  0  0  0  0  0  0
  153.5323  141.3206  161.4728 C   0  0  0  0  0  0  0  0  0  0  0  0
  152.7053  142.5847  161.7715 C   0  0  1  0  0  0  0  0  0  0  0  0
  153.1938  143.3076  163.0307 C   0  0  0  0  0  0  0  0  0  0  0  0
  152.8117  143.4822  160.6702 O   0  0  0  0  0  0  0  0  0  0  0  0
  152.2964  142.9268  159.4634 C   0  0  1  0  0  0  0  0  0  0  0  0
  152.3713  143.9985  158.3708 C   0  0  0  0  0  0  0  0  0  0  0  0
  153.1074  141.6699  159.0961 C   0  0  0  0  0  0  0  0  0  0  0  0
  154.0576  139.1954  158.6515 N   0  0  0  0  0  0  0  0  0  0  0  0
  154.5023  137.9599  158.3389 C   0  0  0  0  0  0  0  0  0  0  0  0
  160.3358  133.1388  155.0860 H   0  0  0  0  0  0  0  0  0  0  0  0
  160.4086  134.8114  155.6419 H   0  0  0  0  0  0  0  0  0  0  0  0
  159.2773  134.3474  154.3573 H   0  0  0  0  0  0  0  0  0  0  0  0
  158.5094  135.6309  157.0288 H   0  0  0  0  0  0  0  0  0  0  0  0
  157.5026  135.2247  155.6445 H   0  0  0  0  0  0  0  0  0  0  0  0
  157.2483  133.8529  158.3518 H   0  0  0  0  0  0  0  0  0  0  0  0
  156.3383  132.5450  156.4306 H   0  0  0  0  0  0  0  0  0  0  0  0
  155.3348  133.9130  155.9567 H   0  0  0  0  0  0  0  0  0  0  0  0
  155.0390  133.0850  157.4836 H   0  0  0  0  0  0  0  0  0  0  0  0
  156.4342  136.4562  157.7131 H   0  0  0  0  0  0  0  0  0  0  0  0
  154.0155  136.3449  161.3015 H   0  0  0  0  0  0  0  0  0  0  0  0
  153.2038  138.6044  161.8840 H   0  0  0  0  0  0  0  0  0  0  0  0
  153.4054  140.6049  162.2864 H   0  0  0  0  0  0  0  0  0  0  0  0
  154.5934  141.5688  161.4182 H   0  0  0  0  0  0  0  0  0  0  0  0
  151.6575  142.3132  161.9125 H   0  0  0  0  0  0  0  0  0  0  0  0
  153.1238  142.6618  163.9063 H   0  0  0  0  0  0  0  0  0  0  0  0
  152.5949  144.1975  163.2252 H   0  0  0  0  0  0  0  0  0  0  0  0
  154.2332  143.6209  162.9277 H   0  0  0  0  0  0  0  0  0  0  0  0
  151.2494  142.6569  159.6123 H   0  0  0  0  0  0  0  0  0  0  0  0
  151.9790  143.6234  157.4254 H   0  0  0  0  0  0  0  0  0  0  0  0
  153.3996  144.3202  158.2029 H   0  0  0  0  0  0  0  0  0  0  0  0
  151.7881  144.8773  158.6469 H   0  0  0  0  0  0  0  0  0  0  0  0
  154.1384  141.9419  158.8660 H   0  0  0  0  0  0  0  0  0  0  0  0
  152.6882  141.2282  158.1931 H   0  0  0  0  0  0  0  0  0  0  0  0
  154.8674  137.8371  157.3294 H   0  0  0  0  0  0  0  0  0  0  0  0
  1  2  1  0  0  0  0
  1 23  1  0  0  0  0
  1 24  1  0  0  0  0
  1 25  1  0  0  0  0
  2  3  1  0  0  0  0
  3  4  1  0  0  0  0
  3 26  1  0  0  0  0
  3 27  1  0  0  0  0
  4  5  1  0  0  0  0
  4  6  1  0  0  0  0
  4 28  1  0  0  0  0
  5 29  1  0  0  0  0
  5 30  1  0  0  0  0
  5 31  1  0  0  0  0
  6  7  1  0  0  0  0
  6 32  1  0  0  0  0
  7  8  2  0  0  0  0
  7  9  1  0  0  0  0
  9 22  1  0  0  0  0
  9 10  2  0  0  0  0
 10 11  1  0  0  0  0
 10 33  1  0  0  0  0
 11 12  2  0  0  0  0
 11 34  1  0  0  0  0
 12 13  1  0  0  0  0
 12 21  1  0  0  0  0
 13 20  1  0  0  0  0
 13 14  1  0  0  0  0
 14 15  1  0  0  0  0
 14 35  1  0  0  0  0
 14 36  1  0  0  0  0
 15 16  1  0  0  0  0
 15 17  1  0  0  0  0
 15 37  1  0  0  0  0
 16 38  1  0  0  0  0
 16 39  1  0  0  0  0
 16 40  1  0  0  0  0
 17 18  1  0  0  0  0
 18 19  1  0  0  0  0
 18 20  1  0  0  0  0
 18 41  1  0  0  0  0
 19 42  1  0  0  0  0
 19 43  1  0  0  0  0
 19 44  1  0  0  0  0
 20 45  1  0  0  0  0
 20 46  1  0  0  0  0
 21 22  2  0  0  0  0
 22 47  1  0  0  0  0
M  END
> <s_m_source_file>
AV-unprocessed.smi

> <i_m_source_file_index>
2114

> <i_lp_mmshare_version>
43012

> <i_f3d_flags>
0

> <s_epik_input>
W0NIM11PW0NIMl1bQ0BIXShbQ0gzXSlbTkhdQyg9TyljMVtjSF1bY0hdYyhuW2NIXTEpTjJbQ0gyXVtDQEBIXShbQ0gzXSlPW0NAQEhdKFtDSDNdKVtDSDJdMg==

> <s_epik_cmdline>
J2VwaWtfcHl0aG9uJywgJy1waCcsICc3LjAnLCAnLXRuJywgJzgnLCAnLW1hJywgJzIwMCcsICctbWV0YWxfYmluZGluZycsICctaW1hZScsICc8aW5maWxlLm1hZT4nLCAnLW9tYWUnLCAnPG91dGZpbGUubWFlPic=

> <r_lp_tautomer_probability>
1

> <r_epik_Ionization_Penalty>
1.92915e-05

> <r_epik_Ionization_Penalty_Charging>
0

> <r_epik_Ionization_Penalty_Neutral>
1.92915e-05

> <r_epik_State_Penalty>
-0

> <r_epik_Charging_Adjusted_Penalty>
0

> <i_epik_Tot_Q>
0

> <i_epik_Tot_abs_Q>
0

> <r_epik_Metal_State_Penalty>
-0

> <b_epik_Metal_Only>
0

> <s_lp_Force_Field>
OPLS_2005

> <r_lp_Energy>
18.4653

> <b_lp_Chiralities_Consistent>
1

> <s_lp_Variant>
AV-unprocessed.smi:2114-1

> <Gold.Version>
5.8.1

> <Gold.Id.Protein>
6NUR|6NUR_protein|mol2

> <Gold.PLP.Fitness>
36.7217

> <Gold.PLP.PLP>
-32.7967

> <Gold.PLP.part.hbond>
-2.0000

> <Gold.PLP.part.metal>
0.0000

> <Gold.PLP.part.buried>
-4.5005

> <Gold.PLP.part.nonpolar>
-26.5175

> <Gold.PLP.part.repulsive>
0.0791

> <Gold.PLP.ligand.clash>
0.0000

> <Gold.PLP.ligand.torsion>
0.7565

> <Gold.PLP.Chemscore.Hbond>
1.7000

> <Gold.PLP.Chemscore.CHOScore>
0.0000

> <Gold.PLP.Chemscore.Metal>
0.0000

> <Gold.Chemscore.Hbonds>
donor molecule, donor type, donor heavy atom, donor atom, acceptor molecule, acceptor atom, score
      P1  H  6896  6908       L1     8  1.00
      P1  H  7997  8008       L1    21  0.70

> <Gold.PLP.Chemscore.Internal.Correction>
0.3382

> <Gold.Rescore>
     Score         DG    S(hbond)    S(metal)    S(lipo)     H(rot)  DE(clash)    DE(int)     intcor
     14.65     -16.40       1.01        0.00      97.89       1.52       0.16       1.59       ----

> <Gold.Chemscore.Fitness>
14.6461

> <Gold.Chemscore.DG>
-16.3951

> <Gold.Chemscore.ZeroCoef>
-5.4800

> <Gold.Chemscore.Hbond>
1.0060

> <Gold.Chemscore.Metal>
0.0000

> <Gold.Chemscore.Lipo>
97.8896

> <Gold.Chemscore.Internal_Hbond>
0.0000

> <Gold.Chemscore.DEClash>
0.1589

> <Gold.Chemscore.DEInternal>
1.5901

> <Gold.Chemscore.Rot>
1.5226

> <Gold.Chemscore.Internal.Correction>
   9.000000E+99

> <Gold.Chemscore.Hbonds>
donor molecule, donor type, donor heavy atom, donor atom, acceptor molecule, acceptor atom, score
      P1  H  6896  6908       L1     8  0.93
      P1  H  7997  8008       L1    21  0.07

> <Gold.Chemscore.Hbond.Weighted>
-3.3600

> <Gold.Chemscore.Metal.Weighted>
-0.0000

> <Gold.Chemscore.Lipo.Weighted>
-11.4531

> <Gold.Chemscore.Internal_Hbond.Weighted>
0.0000

> <Gold.Chemscore.DEClash.Weighted>
0.1589

> <Gold.Chemscore.DEInternal.Weighted>
1.5901

> <Gold.Chemscore.Rot.Weighted>
3.8980

> <Gold.Chemscore.Internal.Correction.Weighted>
   9.000000E+99

> <Gold.Protein.RotatedTorsions>
[ 6907 6896 6895 6894 ] final  -30.36 input  -60.11 | X-H torsion
[ 7974 7965 7964 7962 ] final  133.66 input  175.53 | X-H torsion
[ 8008 7997 7996 7995 ] final -115.89 input   59.86 | X-H torsion
[ 10167 10162 10161 10158 ] final -129.05 input  -65.29 | X-H torsion
[ 10718 10713 10712 10709 ] final  121.24 input   66.30 | X-H torsion
[ 10763 10752 10751 10750 ] final -170.19 input  -60.55 | X-H torsion
[ 11005 11000 10999 10996 ] final -157.03 input  -57.11 | X-H torsion

> <Gold.Protein.ActiveResidues>
 VAL166  LYS551  ARG553  GLY616  TRP617  ASP618  TYR619  PRO620  LYS621  CYS622 
 ASP623  PHE694  ASN695  SER759  ASP760  ASP761  ALA762  ILE779  LEU786  VAL792 
 PHE793  MET794  SER795  GLU796  ALA797  LYS798  CYS799  TRP800  GLU811  SER814 

> <Gold.Protein.RotatedAtoms>
  151.1066  135.0003  159.8473 H   0  0  0  0  0  0  0  0  0  0  0  0  # atno 6907 bound_to 6896
  152.5440  134.1886  159.8675 H   0  0  0  0  0  0  0  0  0  0  0  0  # atno 6908 bound_to 6896
  151.1933  133.4610  159.2628 H   0  0  0  0  0  0  0  0  0  0  0  0  # atno 6909 bound_to 6896
  144.9842  139.4472  143.5371 H   0  0  0  0  0  0  0  0  0  0  0  0  # atno 7974 bound_to 7965
  155.0592  140.0393  157.2571 H   0  0  0  0  0  0  0  0  0  0  0  0  # atno 8008 bound_to 7997
  154.7073  140.2685  155.6638 H   0  0  0  0  0  0  0  0  0  0  0  0  # atno 8009 bound_to 7997
  156.2779  140.2728  156.1704 H   0  0  0  0  0  0  0  0  0  0  0  0  # atno 8010 bound_to 7997
  139.9439  143.6132  152.2495 H   0  0  0  0  0  0  0  0  0  0  0  0  # atno 10167 bound_to 10162
  157.5832  131.1072  150.8145 H   0  0  0  0  0  0  0  0  0  0  0  0  # atno 10718 bound_to 10713
  154.6442  135.2902  155.0067 H   0  0  0  0  0  0  0  0  0  0  0  0  # atno 10763 bound_to 10752
  154.1182  135.6552  153.4902 H   0  0  0  0  0  0  0  0  0  0  0  0  # atno 10764 bound_to 10752
  153.0342  135.5281  154.7322 H   0  0  0  0  0  0  0  0  0  0  0  0  # atno 10765 bound_to 10752
  140.6691  134.4267  157.5232 H   0  0  0  0  0  0  0  0  0  0  0  0  # atno 11005 bound_to 11000
  146.3416  139.9134  142.8777 LP  0  0  0  0  0  0  0  0  0  0  0  0  # atno 17320 bound_to 7965
  145.2377  140.9997  143.3954 LP  0  0  0  0  0  0  0  0  0  0  0  0  # atno 17321 bound_to 7965
  139.6683  144.7661  151.1832 LP  0  0  0  0  0  0  0  0  0  0  0  0  # atno 17342 bound_to 10162
  140.7603  143.5905  150.8802 LP  0  0  0  0  0  0  0  0  0  0  0  0  # atno 17343 bound_to 10162
  156.8586  130.5105  149.5305 LP  0  0  0  0  0  0  0  0  0  0  0  0  # atno 17370 bound_to 10713
  156.0880  130.5873  150.9682 LP  0  0  0  0  0  0  0  0  0  0  0  0  # atno 17371 bound_to 10713
  139.8987  134.8607  156.1989 LP  0  0  0  0  0  0  0  0  0  0  0  0  # atno 17394 bound_to 11000
  141.0406  133.6940  156.1591 LP  0  0  0  0  0  0  0  0  0  0  0  0  # atno 17395 bound_to 11000

$$$$
