#       Name:                AV-unprocessed.smi:3032
#       Creating user name   scv26
#       Creation time:       Fri Mar 27 16:53:04 2020


#       File generated by GOLD software.
#

@<TRIPOS>MOLECULE
AV-unprocessed.smi:3032
    41    42     1
SMALL
NO_CHARGES


@<TRIPOS>ATOM
      1 ****        -3.3210   1.1018  -3.1857 C.3            1 S1                 0.0000
      2 ****        -2.6796   0.5187  -1.9186 C.3            1 S1                 0.0000
      3 ****        -3.3471   1.0714  -0.6443 C.3            1 S1                 0.0000
      4 ****        -2.7025   0.4949   0.6262 C.3            1 S1                 0.0000
      5 ****        -1.1879   0.7516   0.6474 C.3            1 S1                 0.0000
      6 ****        -0.5087   0.1863  -0.6168 C.3            1 S1                 0.0000
      7 ****         1.0009   0.4584  -0.5896 C.2            1 S1                 0.0000
      8 ****         1.4270   1.6126  -0.6417 O.2            1 S1                 0.0000
      9 ****         1.7993  -0.6156  -0.4951 N.am           1 S1                 0.0000
     10 ****         3.2544  -0.5726  -0.3889 C.3            1 S1                 0.0000
     11 ****         3.7422  -0.1599   1.0148 C.3            1 S1                 0.0000
     12 ****         3.1631  -0.9875   2.1186 C.2            1 S1                 0.0000
     13 ****         3.7095  -2.1553   2.4617 N.2            1 S1                 0.0000
     14 ****         2.8801  -2.5792   3.4396 N.pl3          1 S1                 0.0000
     15 ****         1.9167  -1.6749   3.6072 C.2            1 S1                 0.0000
     16 ****         2.0267  -0.6325   2.7949 N.2            1 S1                 0.0000
     17 ****        -1.1602   0.7773  -1.8857 C.3            1 S1                 0.0000
     18 ****        -3.2004   2.1848  -3.2290 H              1 S1                 0.0000
     19 ****        -4.3887   0.8839  -3.2212 H              1 S1                 0.0000
     20 ****        -2.8693   0.6804  -4.0840 H              1 S1                 0.0000
     21 ****        -2.8363  -0.5608  -1.9391 H              1 S1                 0.0000
     22 ****        -3.2678   2.1594  -0.6288 H              1 S1                 0.0000
     23 ****        -4.4129   0.8402  -0.6500 H              1 S1                 0.0000
     24 ****        -3.1662   0.9347   1.5097 H              1 S1                 0.0000
     25 ****        -2.8926  -0.5778   0.6792 H              1 S1                 0.0000
     26 ****        -1.0061   1.8248   0.7254 H              1 S1                 0.0000
     27 ****        -0.7545   0.2996   1.5408 H              1 S1                 0.0000
     28 ****        -0.6617  -0.8946  -0.6295 H              1 S1                 0.0000
     29 ****         1.3658  -1.5269  -0.4579 H              1 S1                 0.0000
     30 ****         3.6289  -1.5693  -0.6232 H              1 S1                 0.0000
     31 ****         3.6670   0.0965  -1.1455 H              1 S1                 0.0000
     32 ****         4.8302  -0.2225   1.0565 H              1 S1                 0.0000
     33 ****         3.4956   0.8867   1.1978 H              1 S1                 0.0000
     34 ****         1.1221  -1.7813   4.3308 H              1 S1                 0.0000
     35 ****        -0.6962   0.3447  -2.7734 H              1 S1                 0.0000
     36 ****        -0.9761   1.8519  -1.9357 H              1 S1                 0.0000
     37 ****         3.0054  -3.4505   3.9349 H              1 S1                 0.0000
     38 ****         0.7879   2.3793  -0.7022 LP             1 S1                 0.0000
     39 ****         2.4122   1.7832  -0.6236 LP             1 S1                 0.0000
     40 ****         4.5236  -2.6018   2.0903 LP             1 S1                 0.0000
     41 ****         1.4478   0.1777   2.7029 LP             1 S1                 0.0000
@<TRIPOS>BOND
    1    1    2 1     
    2    1   18 1     
    3    1   19 1     
    4    1   20 1     
    5    2   17 1     
    6    2    3 1     
    7    2   21 1     
    8    3    4 1     
    9    3   22 1     
   10    3   23 1     
   11    4    5 1     
   12    4   24 1     
   13    4   25 1     
   14    5    6 1     
   15    5   26 1     
   16    5   27 1     
   17    6    7 1     
   18    6   17 1     
   19    6   28 1     
   20    7    8 2     
   21    7    9 am    
   22    9   10 1     
   23    9   29 1     
   24   10   11 1     
   25   10   30 1     
   26   10   31 1     
   27   11   32 1     
   28   11   33 1     
   29   11   12 1     
   30   12   16 1     
   31   12   13 2     
   32   13   14 1     
   33   14   15 1     
   34   14   37 1     
   35   15   16 2     
   36   15   34 1     
   37   17   35 1     
   38   17   36 1     
   39    8   38 1     
   40    8   39 1     
   41   13   40 1     
   42   16   41 1     
@<TRIPOS>SUBSTRUCTURE
      1 S1             1
@<TRIPOS>SET
LONE_PAIRS      STATIC     ATOMS    <user>   **** ""
4 38 39 40 41
DONOR_HYDROGENS      STATIC     ATOMS    <user>   **** ""
2 29 37
ATOM$BLUE        STATIC     ATOMS    COLORGROUP SYSTEM
4 38 39 40 41
ATOM$RED        STATIC     ATOMS    COLORGROUP SYSTEM
2 29 37
