AV-unprocessed.smi:437|AV-procd|sdf|2559|dock6
  -GOLD-   2262022523D 1   1.00000     0.00000
 Structure written by MMmdl.
 48 49  0  0  0  0  0  0  0  0  1 V2000
  148.7617  139.2370  154.3872 C   0  0  0  0  0  0  0  0  0  0  0  0
  149.7770  138.3925  155.1091 C   0  0  0  0  0  0  0  0  0  0  0  0
  149.7657  137.1258  154.8523 N   0  0  0  0  0  0  0  0  0  0  0  0
  150.6505  136.2596  155.4645 N   0  0  0  0  0  0  0  0  0  0  0  0
  150.4840  134.8539  155.0666 C   0  0  0  0  0  0  0  0  0  0  0  0
  149.0238  134.3785  155.1242 C   0  0  0  0  0  0  0  0  0  0  0  0
  148.6272  133.7093  156.0820 O   0  0  0  0  0  0  0  0  0  0  0  0
  148.2608  134.7588  154.0794 N   0  0  0  0  0  0  0  0  0  0  0  0
  146.9577  134.4883  153.8722 C   0  0  0  0  0  0  0  0  0  0  0  0
  146.2301  133.8349  154.6232 O   0  0  0  0  0  0  0  0  0  0  0  0
  146.5323  135.0314  152.7220 N   0  0  0  0  0  0  0  0  0  0  0  0
  145.1395  135.1122  152.2857 C   0  0  2  0  0  0  0  0  0  0  0  0
  144.3418  136.0040  153.2602 C   0  0  0  0  0  0  0  0  0  0  0  0
  142.8549  136.0683  152.8827 C   0  0  0  0  0  0  0  0  0  0  0  0
  142.2461  134.6620  152.8050 C   0  0  0  0  0  0  0  0  0  0  0  0
  143.0265  133.7775  151.8210 C   0  0  0  0  0  0  0  0  0  0  0  0
  144.5229  133.6944  152.1845 C   0  0  1  0  0  0  0  0  0  0  0  0
  145.2730  132.7960  151.1845 C   0  0  0  0  0  0  0  0  0  0  0  0
  151.6061  136.6325  156.3639 C   0  0  0  0  0  0  0  0  0  0  0  0
  152.3808  135.8252  156.8798 O   0  0  0  0  0  0  0  0  0  0  0  0
  151.6129  138.0687  156.6507 C   0  0  0  0  0  0  0  0  0  0  0  0
  152.5914  138.5003  157.5957 C   0  0  0  0  0  0  0  0  0  0  0  0
  153.3996  138.8452  158.3494 N   0  0  0  0  0  0  0  0  0  0  0  0
  150.7462  138.9288  156.0593 C   0  0  0  0  0  0  0  0  0  0  0  0
  150.7127  140.4278  156.3232 C   0  0  0  0  0  0  0  0  0  0  0  0
  149.2536  139.9557  153.7315 H   0  0  0  0  0  0  0  0  0  0  0  0
  148.1436  139.7902  155.0947 H   0  0  0  0  0  0  0  0  0  0  0  0
  148.0938  138.6327  153.7712 H   0  0  0  0  0  0  0  0  0  0  0  0
  150.8475  134.7055  154.0481 H   0  0  0  0  0  0  0  0  0  0  0  0
  151.1040  134.2101  155.6936 H   0  0  0  0  0  0  0  0  0  0  0  0
  148.7202  135.3136  153.3726 H   0  0  0  0  0  0  0  0  0  0  0  0
  147.2212  135.4330  152.1032 H   0  0  0  0  0  0  0  0  0  0  0  0
  145.0998  135.5649  151.2928 H   0  0  0  0  0  0  0  0  0  0  0  0
  144.4384  135.6193  154.2766 H   0  0  0  0  0  0  0  0  0  0  0  0
  144.7575  137.0124  153.2723 H   0  0  0  0  0  0  0  0  0  0  0  0
  142.3113  136.6697  153.6120 H   0  0  0  0  0  0  0  0  0  0  0  0
  142.7427  136.5708  151.9211 H   0  0  0  0  0  0  0  0  0  0  0  0
  142.2525  134.2040  153.7948 H   0  0  0  0  0  0  0  0  0  0  0  0
  141.2012  134.7256  152.4996 H   0  0  0  0  0  0  0  0  0  0  0  0
  142.5901  132.7782  151.8086 H   0  0  0  0  0  0  0  0  0  0  0  0
  142.9142  134.1741  150.8109 H   0  0  0  0  0  0  0  0  0  0  0  0
  144.5961  133.2224  153.1657 H   0  0  0  0  0  0  0  0  0  0  0  0
  145.2657  133.2280  150.1832 H   0  0  0  0  0  0  0  0  0  0  0  0
  144.8128  131.8094  151.1233 H   0  0  0  0  0  0  0  0  0  0  0  0
  146.3131  132.6483  151.4751 H   0  0  0  0  0  0  0  0  0  0  0  0
  151.5281  140.7515  156.9692 H   0  0  0  0  0  0  0  0  0  0  0  0
  149.7766  140.7075  156.8075 H   0  0  0  0  0  0  0  0  0  0  0  0
  150.7979  140.9862  155.3906 H   0  0  0  0  0  0  0  0  0  0  0  0
  1  2  1  0  0  0  0
  1 26  1  0  0  0  0
  1 27  1  0  0  0  0
  1 28  1  0  0  0  0
  2 24  1  0  0  0  0
  2  3  2  0  0  0  0
  3  4  1  0  0  0  0
  4  5  1  0  0  0  0
  4 19  1  0  0  0  0
  5  6  1  0  0  0  0
  5 29  1  0  0  0  0
  5 30  1  0  0  0  0
  6  7  2  0  0  0  0
  6  8  1  0  0  0  0
  8  9  1  0  0  0  0
  8 31  1  0  0  0  0
  9 10  2  0  0  0  0
  9 11  1  0  0  0  0
 11 12  1  0  0  0  0
 11 32  1  0  0  0  0
 12 17  1  0  0  0  0
 12 13  1  0  0  0  0
 12 33  1  0  0  0  0
 13 14  1  0  0  0  0
 13 34  1  0  0  0  0
 13 35  1  0  0  0  0
 14 15  1  0  0  0  0
 14 36  1  0  0  0  0
 14 37  1  0  0  0  0
 15 16  1  0  0  0  0
 15 38  1  0  0  0  0
 15 39  1  0  0  0  0
 16 17  1  0  0  0  0
 16 40  1  0  0  0  0
 16 41  1  0  0  0  0
 17 18  1  0  0  0  0
 17 42  1  0  0  0  0
 18 43  1  0  0  0  0
 18 44  1  0  0  0  0
 18 45  1  0  0  0  0
 19 20  2  0  0  0  0
 19 21  1  0  0  0  0
 21 22  1  0  0  0  0
 21 24  2  0  0  0  0
 22 23  3  0  0  0  0
 24 25  1  0  0  0  0
 25 46  1  0  0  0  0
 25 47  1  0  0  0  0
 25 48  1  0  0  0  0
M  END
> <s_m_source_file>
AV-unprocessed.smi

> <i_m_source_file_index>
437

> <i_lp_mmshare_version>
43012

> <i_f3d_flags>
0

> <s_epik_input>
TiNDYyhjMVtDSDNdKWMoPU8pbihuYzFbQ0gzXSlbQ0gyXUMoPU8pW05IXUMoPU8pW05IXVtDQEBIXTJbQ0gyXVtDSDJdW0NIMl1bQ0gyXVtDQEhdMltDSDNd

> <s_epik_cmdline>
J2VwaWtfcHl0aG9uJywgJy1waCcsICc3LjAnLCAnLXRuJywgJzgnLCAnLW1hJywgJzIwMCcsICctbWV0YWxfYmluZGluZycsICctaW1hZScsICc8aW5maWxlLm1hZT4nLCAnLW9tYWUnLCAnPG91dGZpbGUubWFlPic=

> <r_lp_tautomer_probability>
1

> <r_epik_Ionization_Penalty>
3.27035e-05

> <r_epik_Ionization_Penalty_Charging>
1.6965e-11

> <r_epik_Ionization_Penalty_Neutral>
3.27035e-05

> <r_epik_State_Penalty>
-0

> <r_epik_Charging_Adjusted_Penalty>
1.6965e-11

> <i_epik_Tot_Q>
0

> <i_epik_Tot_abs_Q>
0

> <r_epik_Metal_State_Penalty>
-0

> <b_epik_Metal_Only>
0

> <s_lp_Force_Field>
OPLS_2005

> <r_lp_Energy>
27.1353

> <b_lp_Chiralities_Consistent>
1

> <s_lp_Variant>
AV-unprocessed.smi:437-1

> <Gold.Version>
5.8.1

> <Gold.Id.Protein>
6NUR|6NUR_protein|mol2

> <Gold.PLP.Fitness>
43.0211

> <Gold.PLP.PLP>
-31.9515

> <Gold.PLP.part.hbond>
-4.0000

> <Gold.PLP.part.metal>
0.0000

> <Gold.PLP.part.buried>
-3.6014

> <Gold.PLP.part.nonpolar>
-24.8642

> <Gold.PLP.part.repulsive>
0.4563

> <Gold.PLP.ligand.clash>
0.0000

> <Gold.PLP.ligand.torsion>
0.4168

> <Gold.PLP.Chemscore.Hbond>
3.9600

> <Gold.PLP.Chemscore.CHOScore>
0.0000

> <Gold.PLP.Chemscore.Metal>
0.0000

> <Gold.Chemscore.Hbonds>
donor molecule, donor type, donor heavy atom, donor atom, acceptor molecule, acceptor atom, score
      L1  H     8    31       P1  7948  1.00
      L1  H    11    32       P1  7948  1.00
      P1  H  7997  8008       L1    23  0.68
      P1  H 10752 10763       L1    20  1.00

> <Gold.PLP.Chemscore.Internal.Correction>
0.0232

> <Gold.Rescore>
     Score         DG    S(hbond)    S(metal)    S(lipo)     H(rot)  DE(clash)    DE(int)     intcor
     18.55     -21.25       3.57        0.00      67.07       1.57       0.04       2.65       ----

> <Gold.Chemscore.Fitness>
18.5521

> <Gold.Chemscore.DG>
-21.2467

> <Gold.Chemscore.ZeroCoef>
-5.4800

> <Gold.Chemscore.Hbond>
3.5709

> <Gold.Chemscore.Metal>
0.0000

> <Gold.Chemscore.Lipo>
67.0736

> <Gold.Chemscore.Internal_Hbond>
0.0000

> <Gold.Chemscore.DEClash>
0.0406

> <Gold.Chemscore.DEInternal>
2.6540

> <Gold.Chemscore.Rot>
1.5656

> <Gold.Chemscore.Internal.Correction>
   9.000000E+99

> <Gold.Chemscore.Hbonds>
donor molecule, donor type, donor heavy atom, donor atom, acceptor molecule, acceptor atom, score
      L1  H     8    31       P1  7948  0.82
      L1  H    11    32       P1  7948  0.94
      P1  H  7997  8008       L1    23  0.38
      P1  H 10752 10763       L1    20  0.37

> <Gold.Chemscore.Hbond.Weighted>
-11.9270

> <Gold.Chemscore.Metal.Weighted>
-0.0000

> <Gold.Chemscore.Lipo.Weighted>
-7.8476

> <Gold.Chemscore.Internal_Hbond.Weighted>
0.0000

> <Gold.Chemscore.DEClash.Weighted>
0.0406

> <Gold.Chemscore.DEInternal.Weighted>
2.6540

> <Gold.Chemscore.Rot.Weighted>
4.0079

> <Gold.Chemscore.Internal.Correction.Weighted>
   9.000000E+99

> <Gold.Protein.RotatedTorsions>
[ 6907 6896 6895 6894 ] final  169.23 input  -60.11 | X-H torsion
[ 7974 7965 7964 7962 ] final  -63.34 input  175.53 | X-H torsion
[ 8008 7997 7996 7995 ] final -102.05 input   59.86 | X-H torsion
[ 10167 10162 10161 10158 ] final  119.36 input  -65.29 | X-H torsion
[ 10718 10713 10712 10709 ] final -160.12 input   66.30 | X-H torsion
[ 10763 10752 10751 10750 ] final  123.61 input  -60.55 | X-H torsion
[ 11005 11000 10999 10996 ] final -110.20 input  -57.11 | X-H torsion

> <Gold.Protein.ActiveResidues>
 VAL166  LYS551  ARG553  GLY616  TRP617  ASP618  TYR619  PRO620  LYS621  CYS622 
 ASP623  PHE694  ASN695  SER759  ASP760  ASP761  ALA762  ILE779  LEU786  VAL792 
 PHE793  MET794  SER795  GLU796  ALA797  LYS798  CYS799  TRP800  GLU811  SER814 

> <Gold.Protein.RotatedAtoms>
  151.8352  133.3415  159.3625 H   0  0  0  0  0  0  0  0  0  0  0  0  # atno 6907 bound_to 6896
  150.7252  134.5444  159.5772 H   0  0  0  0  0  0  0  0  0  0  0  0  # atno 6908 bound_to 6896
  152.2906  134.7727  160.0429 H   0  0  0  0  0  0  0  0  0  0  0  0  # atno 6909 bound_to 6896
  145.7802  140.8766  143.0334 H   0  0  0  0  0  0  0  0  0  0  0  0  # atno 7974 bound_to 7965
  154.8512  140.0430  157.1605 H   0  0  0  0  0  0  0  0  0  0  0  0  # atno 8008 bound_to 7997
  154.8940  140.2990  155.5334 H   0  0  0  0  0  0  0  0  0  0  0  0  # atno 8009 bound_to 7997
  156.2996  140.2388  156.3960 H   0  0  0  0  0  0  0  0  0  0  0  0  # atno 8010 bound_to 7997
  139.6051  144.7067  151.2972 H   0  0  0  0  0  0  0  0  0  0  0  0  # atno 10167 bound_to 10162
  156.5777  130.8716  151.2856 H   0  0  0  0  0  0  0  0  0  0  0  0  # atno 10718 bound_to 10713
  153.6483  135.3367  155.3092 H   0  0  0  0  0  0  0  0  0  0  0  0  # atno 10763 bound_to 10752
  154.8543  135.4335  154.1931 H   0  0  0  0  0  0  0  0  0  0  0  0  # atno 10764 bound_to 10752
  153.2867  135.7013  153.7407 H   0  0  0  0  0  0  0  0  0  0  0  0  # atno 10765 bound_to 10752
  141.0805  133.9227  157.2298 H   0  0  0  0  0  0  0  0  0  0  0  0  # atno 11005 bound_to 11000
  144.6797  139.9978  143.7484 LP  0  0  0  0  0  0  0  0  0  0  0  0  # atno 17320 bound_to 7965
  146.0081  139.3147  143.0887 LP  0  0  0  0  0  0  0  0  0  0  0  0  # atno 17321 bound_to 7965
  140.7279  143.6951  150.7890 LP  0  0  0  0  0  0  0  0  0  0  0  0  # atno 17342 bound_to 10162
  140.0535  143.5226  152.2662 LP  0  0  0  0  0  0  0  0  0  0  0  0  # atno 17343 bound_to 10162
  157.7334  130.9729  150.1974 LP  0  0  0  0  0  0  0  0  0  0  0  0  # atno 17370 bound_to 10713
  156.2659  130.3716  149.8082 LP  0  0  0  0  0  0  0  0  0  0  0  0  # atno 17371 bound_to 10713
  139.9619  135.0152  156.9283 LP  0  0  0  0  0  0  0  0  0  0  0  0  # atno 17394 bound_to 11000
  140.5478  134.0656  155.7360 LP  0  0  0  0  0  0  0  0  0  0  0  0  # atno 17395 bound_to 11000

$$$$
