AV-unprocessed.smi:157|AV-procd|sdf|1310|dock3
  -GOLD-   2262019 03D 1   1.00000     0.00000
 Structure written by MMmdl.
 36 38  0  0  0  0  0  0  0  0  2 V2000
  148.8492  138.3843  153.1527 O   0  0  0  0  0  0  0  0  0  0  0  0
  148.8019  138.8842  154.4725 C   0  0  0  0  0  0  0  0  0  0  0  0
  149.7809  138.1167  155.3848 C   0  0  2  0  0  0  0  0  0  0  0  0
  149.9372  138.8914  156.5762 O   0  0  0  0  0  0  0  0  0  0  0  0
  151.2490  139.3549  156.6921 C   0  0  2  0  0  0  0  0  0  0  0  0
  151.2144  140.7935  157.0912 N   0  0  0  0  0  0  0  0  0  0  0  0
  150.5626  141.7854  156.4486 C   0  0  0  0  0  0  0  0  0  0  0  0
  150.6981  142.9766  157.0060 N   0  3  0  0  0  0  0  0  0  0  0  0
  151.5025  142.8013  158.1120 C   0  0  0  0  0  0  0  0  0  0  0  0
  151.8233  141.4416  158.1407 C   0  0  0  0  0  0  0  0  0  0  0  0
  152.6262  140.7258  159.0420 N   0  0  0  0  0  0  0  0  0  0  0  0
  153.4400  141.2976  159.8689 C   0  0  0  0  0  0  0  0  0  0  0  0
  153.6339  142.6469  160.1141 N   0  0  0  0  0  0  0  0  0  0  0  0
  152.5428  143.5880  160.2941 C   0  0  0  0  0  0  0  0  0  0  0  0
  151.8364  143.9687  158.9865 C   0  0  1  0  0  0  0  0  0  0  0  0
  152.6137  144.9415  158.3192 O   0  0  0  0  0  0  0  0  0  0  0  0
  151.8985  139.1978  155.3229 C   0  0  0  0  0  0  0  0  0  0  0  0
  151.2118  137.9399  154.8413 C   0  0  2  0  0  0  0  0  0  0  0  0
  151.3041  137.8058  153.4374 O   0  0  0  0  0  0  0  0  0  0  0  0
  149.3497  137.1512  155.6526 H   0  0  0  0  0  0  0  0  0  0  0  0
  151.7702  138.8264  157.4913 H   0  0  0  0  0  0  0  0  0  0  0  0
  150.9002  144.4626  159.2496 H   0  0  0  0  0  0  0  0  0  0  0  0
  151.6748  137.0715  155.3124 H   0  0  0  0  0  0  0  0  0  0  0  0
  149.1335  139.0780  152.5773 H   0  0  0  0  0  0  0  0  0  0  0  0
  149.0041  139.9555  154.4761 H   0  0  0  0  0  0  0  0  0  0  0  0
  147.7810  138.7520  154.8319 H   0  0  0  0  0  0  0  0  0  0  0  0
  149.9821  141.6155  155.5596 H   0  0  0  0  0  0  0  0  0  0  0  0
  154.0837  140.6738  160.4908 H   0  0  0  0  0  0  0  0  0  0  0  0
  154.4555  142.9320  160.6281 H   0  0  0  0  0  0  0  0  0  0  0  0
  151.8188  143.1239  160.9656 H   0  0  0  0  0  0  0  0  0  0  0  0
  152.9072  144.4769  160.8102 H   0  0  0  0  0  0  0  0  0  0  0  0
  152.3438  144.9789  157.4147 H   0  0  0  0  0  0  0  0  0  0  0  0
  151.6478  140.0516  154.6908 H   0  0  0  0  0  0  0  0  0  0  0  0
  152.9826  139.1125  155.4040 H   0  0  0  0  0  0  0  0  0  0  0  0
  151.2531  136.8873  153.2195 H   0  0  0  0  0  0  0  0  0  0  0  0
  150.2849  143.8422  156.6831 H   0  0  0  0  0  0  0  0  0  0  0  0
  1  2  1  0  0  0  0
  1 24  1  0  0  0  0
  2  3  1  0  0  0  0
  2 25  1  0  0  0  0
  2 26  1  0  0  0  0
  3 20  1  0  0  0  0
  3 18  1  0  0  0  0
  3  4  1  0  0  0  0
  4  5  1  0  0  0  0
  5 21  1  0  0  0  0
  5  6  1  0  0  0  0
  5 17  1  0  0  0  0
  6 10  1  0  0  0  0
  6  7  1  0  0  0  0
  7  8  2  0  0  0  0
  7 27  1  0  0  0  0
  8  9  1  0  0  0  0
  8 36  1  0  0  0  0
  9 15  1  0  0  0  0
  9 10  2  0  0  0  0
 10 11  1  0  0  0  0
 11 12  2  0  0  0  0
 12 13  1  0  0  0  0
 12 28  1  0  0  0  0
 13 14  1  0  0  0  0
 13 29  1  0  0  0  0
 14 15  1  0  0  0  0
 14 30  1  0  0  0  0
 14 31  1  0  0  0  0
 15 22  1  0  0  0  0
 15 16  1  0  0  0  0
 16 32  1  0  0  0  0
 17 18  1  0  0  0  0
 17 33  1  0  0  0  0
 17 34  1  0  0  0  0
 18 23  1  0  0  0  0
 18 19  1  0  0  0  0
 19 35  1  0  0  0  0
M  CHG  1   8   1
M  END
> <s_m_source_file>
AV-unprocessed.smi

> <i_m_source_file_index>
157

> <i_lp_mmshare_version>
43012

> <i_f3d_flags>
0

> <s_epik_input>
W09IXVtDSDJdW0NASF0xT1tDQEhdKFtDSDJdW0NAQEhdMVtPSF0pbihbY0hdbjIpYyhjMjMpTj1bQ0hdW05IXVtDSDJdW0NASF0zW09IXQ==

> <s_epik_cmdline>
J2VwaWtfcHl0aG9uJywgJy1waCcsICc3LjAnLCAnLXRuJywgJzgnLCAnLW1hJywgJzIwMCcsICctbWV0YWxfYmluZGluZycsICctaW1hZScsICc8aW5maWxlLm1hZT4nLCAnLW9tYWUnLCAnPG91dGZpbGUubWFlPic=

> <r_epik_Ionization_Penalty>
1.68594

> <r_epik_Ionization_Penalty_Charging>
0

> <r_epik_Ionization_Penalty_Neutral>
1.68594

> <r_epik_State_Penalty>
1.79006

> <r_epik_Charging_Adjusted_Penalty>
1.79006

> <i_epik_Tot_Q>
1

> <i_epik_Tot_abs_Q>
1

> <r_epik_Metal_State_Penalty>
5.85324

> <b_epik_Metal_Only>
0

> <s_epik_Chemistry_Notes>
This compound has an imine and may undergo hydrolysis. This compound contains an acetal/aminal-like group ( X-CH(R)-Y where X, Y are N, S, or O) that may be acid/base labile, releasing an aldehyde.

> <s_lp_Force_Field>
OPLS_2005

> <r_lp_Energy>
54.8473

> <b_lp_Chiralities_Consistent>
1

> <s_lp_Variant>
AV-unprocessed.smi:157-20

> <Gold.Version>
5.8.1

> <Gold.Id.Protein>
6NUR|6NUR_protein|mol2

> <Gold.PLP.Fitness>
44.8588

> <Gold.PLP.PLP>
-34.1359

> <Gold.PLP.part.hbond>
-4.4797

> <Gold.PLP.part.metal>
0.0000

> <Gold.PLP.part.buried>
-4.3125

> <Gold.PLP.part.nonpolar>
-26.6330

> <Gold.PLP.part.repulsive>
0.0449

> <Gold.PLP.ligand.clash>
0.0000

> <Gold.PLP.ligand.torsion>
0.1296

> <Gold.PLP.Chemscore.Hbond>
3.6560

> <Gold.PLP.Chemscore.CHOScore>
0.0000

> <Gold.PLP.Chemscore.Metal>
0.0000

> <Gold.Chemscore.Hbonds>
donor molecule, donor type, donor heavy atom, donor atom, acceptor molecule, acceptor atom, score
      L1  H     1    24       P1  7957  1.00
      L1  H     8    36       P1  8028  1.98
      L1  H    19    35       P1  7949  0.62

> <Gold.PLP.Chemscore.Internal.Correction>
0.0142

> <Gold.Rescore>
     Score         DG    S(hbond)    S(metal)    S(lipo)     H(rot)  DE(clash)    DE(int)     intcor
     10.08     -11.56       2.60        0.00      58.10       3.67       1.35       0.14       ----

> <Gold.Chemscore.Fitness>
10.0790

> <Gold.Chemscore.DG>
-11.5641

> <Gold.Chemscore.ZeroCoef>
-5.4800

> <Gold.Chemscore.Hbond>
2.5961

> <Gold.Chemscore.Metal>
0.0000

> <Gold.Chemscore.Lipo>
58.1021

> <Gold.Chemscore.Internal_Hbond>
0.0000

> <Gold.Chemscore.DEClash>
1.3464

> <Gold.Chemscore.DEInternal>
0.1387

> <Gold.Chemscore.Rot>
3.6659

> <Gold.Chemscore.Internal.Correction>
   9.000000E+99

> <Gold.Chemscore.Hbonds>
donor molecule, donor type, donor heavy atom, donor atom, acceptor molecule, acceptor atom, score
      L1  H     1    24       P1  7957  0.99
      L1  H     8    36       P1  8028  0.93
      L1  H    19    35       P1  7949  0.40

> <Gold.Chemscore.Hbond.Weighted>
-8.6709

> <Gold.Chemscore.Metal.Weighted>
-0.0000

> <Gold.Chemscore.Lipo.Weighted>
-6.7979

> <Gold.Chemscore.Internal_Hbond.Weighted>
0.0000

> <Gold.Chemscore.DEClash.Weighted>
1.3464

> <Gold.Chemscore.DEInternal.Weighted>
0.1387

> <Gold.Chemscore.Rot.Weighted>
9.3848

> <Gold.Chemscore.Internal.Correction.Weighted>
   9.000000E+99

> <Gold.Protein.RotatedTorsions>
[ 6907 6896 6895 6894 ] final   31.75 input  -60.11 | X-H torsion
[ 7974 7965 7964 7962 ] final   50.82 input  175.53 | X-H torsion
[ 8008 7997 7996 7995 ] final  152.30 input   59.86 | X-H torsion
[ 10167 10162 10161 10158 ] final  -93.83 input  -65.29 | X-H torsion
[ 10718 10713 10712 10709 ] final  155.00 input   66.30 | X-H torsion
[ 10763 10752 10751 10750 ] final  158.52 input  -60.55 | X-H torsion
[ 11005 11000 10999 10996 ] final  -70.73 input  -57.11 | X-H torsion

> <Gold.Protein.ActiveResidues>
 VAL166  LYS551  ARG553  GLY616  TRP617  ASP618  TYR619  PRO620  LYS621  CYS622 
 ASP623  PHE694  ASN695  SER759  ASP760  ASP761  ALA762  ILE779  LEU786  VAL792 
 PHE793  MET794  SER795  GLU796  ALA797  LYS798  CYS799  TRP800  GLU811  SER814 

> <Gold.Protein.RotatedAtoms>
  152.0648  134.9571  160.0574 H   0  0  0  0  0  0  0  0  0  0  0  0  # atno 6907 bound_to 6896
  152.0921  133.4201  159.4556 H   0  0  0  0  0  0  0  0  0  0  0  0  # atno 6908 bound_to 6896
  150.6837  134.2779  159.4658 H   0  0  0  0  0  0  0  0  0  0  0  0  # atno 6909 bound_to 6896
  145.9974  139.4403  143.0036 H   0  0  0  0  0  0  0  0  0  0  0  0  # atno 7974 bound_to 7965
  156.2635  140.2024  156.6312 H   0  0  0  0  0  0  0  0  0  0  0  0  # atno 8008 bound_to 7997
  154.6682  140.0553  157.0161 H   0  0  0  0  0  0  0  0  0  0  0  0  # atno 8009 bound_to 7997
  155.1176  140.3221  155.4508 H   0  0  0  0  0  0  0  0  0  0  0  0  # atno 8010 bound_to 7997
  140.3206  143.3051  152.0050 H   0  0  0  0  0  0  0  0  0  0  0  0  # atno 10167 bound_to 10162
  157.2242  131.0725  151.1893 H   0  0  0  0  0  0  0  0  0  0  0  0  # atno 10718 bound_to 10713
  154.2173  135.2783  155.2937 H   0  0  0  0  0  0  0  0  0  0  0  0  # atno 10763 bound_to 10752
  154.5730  135.5613  153.7116 H   0  0  0  0  0  0  0  0  0  0  0  0  # atno 10764 bound_to 10752
  153.0050  135.6326  154.2313 H   0  0  0  0  0  0  0  0  0  0  0  0  # atno 10765 bound_to 10752
  141.1579  133.6798  156.6798 H   0  0  0  0  0  0  0  0  0  0  0  0  # atno 11005 bound_to 11000
  145.7538  140.9962  143.1236 LP  0  0  0  0  0  0  0  0  0  0  0  0  # atno 17320 bound_to 7965
  144.6908  139.9247  143.7469 LP  0  0  0  0  0  0  0  0  0  0  0  0  # atno 17321 bound_to 7965
  139.4875  144.6314  151.7063 LP  0  0  0  0  0  0  0  0  0  0  0  0  # atno 17342 bound_to 10162
  140.5487  144.0461  150.6117 LP  0  0  0  0  0  0  0  0  0  0  0  0  # atno 17343 bound_to 10162
  157.3545  130.7099  149.6462 LP  0  0  0  0  0  0  0  0  0  0  0  0  # atno 17370 bound_to 10713
  155.9680  130.4243  150.4602 LP  0  0  0  0  0  0  0  0  0  0  0  0  # atno 17371 bound_to 10713
  140.3111  134.8085  157.4177 LP  0  0  0  0  0  0  0  0  0  0  0  0  # atno 17394 bound_to 11000
  140.1177  134.5261  155.8210 LP  0  0  0  0  0  0  0  0  0  0  0  0  # atno 17395 bound_to 11000

$$$$
