AV-unprocessed.smi:83|AV-procd|sdf|804|dock5
  -GOLD-   2262017193D 1   1.00000     0.00000
 Structure written by MMmdl.
 56 59  0  0  0  0  0  0  0  0  1 V2000
  148.4400  145.5779  161.3211 C   0  0  0  0  0  0  0  0  0  0  0  0
  148.8367  144.3894  160.4434 C   0  0  0  0  0  0  0  0  0  0  0  0
  148.0436  143.4583  160.3075 O   0  0  0  0  0  0  0  0  0  0  0  0
  150.0471  144.4024  159.8491 N   0  0  0  0  0  0  0  0  0  0  0  0
  151.0090  145.4930  159.9850 C   0  0  0  0  0  0  0  0  0  0  0  0
  152.1942  145.1052  159.0950 C   0  0  0  0  0  0  0  0  0  0  0  0
  152.1318  143.5797  159.0227 C   0  0  1  0  0  0  0  0  0  0  0  0
  152.8950  142.9602  160.2198 C   0  0  0  0  0  0  0  0  0  0  0  0
  153.2736  141.5582  160.0340 N   0  0  0  0  0  0  0  0  0  0  0  0
  152.5198  140.7926  159.0429 C   0  0  0  0  0  0  0  0  0  0  0  0
  153.9711  140.8818  160.9952 C   0  0  0  0  0  0  0  0  0  0  0  0
  154.7165  141.6054  161.8750 N   0  0  0  0  0  0  0  0  0  0  0  0
  155.4598  141.0051  162.8070 C   0  0  0  0  0  0  0  0  0  0  0  0
  155.6100  139.7022  163.0395 N   0  0  0  0  0  0  0  0  0  0  0  0
  154.8584  138.9607  162.1785 C   0  0  0  0  0  0  0  0  0  0  0  0
  154.0111  139.4586  161.1440 C   0  0  0  0  0  0  0  0  0  0  0  0
  153.4055  138.3838  160.4987 N   0  0  0  0  0  0  0  0  0  0  0  0
  153.8807  137.3256  161.0928 C   0  0  0  0  0  0  0  0  0  0  0  0
  154.7633  137.5819  162.1132 N   0  0  0  0  0  0  0  0  0  0  0  0
  155.4424  136.5969  162.9359 C   0  0  0  0  0  0  0  0  0  0  0  0
  154.4754  135.8419  163.8686 C   0  0  2  0  0  0  0  0  0  0  0  0
  154.0645  136.7052  164.9118 O   0  0  0  0  0  0  0  0  0  0  0  0
  155.1213  134.5867  164.4835 C   0  0  1  0  0  0  0  0  0  0  0  0
  154.1770  133.7446  165.3413 C   0  0  0  0  0  0  0  0  0  0  0  0
  154.8695  132.4012  165.3274 C   0  0  0  0  0  0  0  0  0  0  0  0
  155.4260  132.3382  163.9066 C   0  0  0  0  0  0  0  0  0  0  0  0
  155.5371  133.6875  163.4595 O   0  0  0  0  0  0  0  0  0  0  0  0
  150.6146  143.3334  159.0315 C   0  0  0  0  0  0  0  0  0  0  0  0
  149.1911  145.7596  162.0898 H   0  0  0  0  0  0  0  0  0  0  0  0
  147.4890  145.3876  161.8190 H   0  0  0  0  0  0  0  0  0  0  0  0
  148.3279  146.4804  160.7210 H   0  0  0  0  0  0  0  0  0  0  0  0
  150.5814  146.4515  159.6876 H   0  0  0  0  0  0  0  0  0  0  0  0
  151.3200  145.5682  161.0280 H   0  0  0  0  0  0  0  0  0  0  0  0
  152.0481  145.5208  158.0970 H   0  0  0  0  0  0  0  0  0  0  0  0
  153.1453  145.4845  159.4701 H   0  0  0  0  0  0  0  0  0  0  0  0
  152.5740  143.2206  158.0928 H   0  0  0  0  0  0  0  0  0  0  0  0
  153.8210  143.5197  160.3557 H   0  0  0  0  0  0  0  0  0  0  0  0
  152.3569  143.1248  161.1468 H   0  0  0  0  0  0  0  0  0  0  0  0
  153.1572  140.0549  158.5539 H   0  0  0  0  0  0  0  0  0  0  0  0
  152.1191  141.4454  158.2670 H   0  0  0  0  0  0  0  0  0  0  0  0
  151.6818  140.2749  159.5110 H   0  0  0  0  0  0  0  0  0  0  0  0
  156.0198  141.6640  163.4543 H   0  0  0  0  0  0  0  0  0  0  0  0
  153.5993  136.3242  160.8010 H   0  0  0  0  0  0  0  0  0  0  0  0
  155.9504  135.8979  162.2706 H   0  0  0  0  0  0  0  0  0  0  0  0
  156.2217  137.0959  163.5131 H   0  0  0  0  0  0  0  0  0  0  0  0
  153.5875  135.5502  163.3060 H   0  0  0  0  0  0  0  0  0  0  0  0
  153.3534  137.2411  164.5949 H   0  0  0  0  0  0  0  0  0  0  0  0
  156.0001  134.8580  165.0715 H   0  0  0  0  0  0  0  0  0  0  0  0
  154.0434  134.1442  166.3470 H   0  0  0  0  0  0  0  0  0  0  0  0
  153.1961  133.6647  164.8706 H   0  0  0  0  0  0  0  0  0  0  0  0
  155.6859  132.3974  166.0506 H   0  0  0  0  0  0  0  0  0  0  0  0
  154.2022  131.5714  165.5617 H   0  0  0  0  0  0  0  0  0  0  0  0
  156.3901  131.8308  163.8694 H   0  0  0  0  0  0  0  0  0  0  0  0
  154.7397  131.8093  163.2447 H   0  0  0  0  0  0  0  0  0  0  0  0
  150.3448  142.3371  159.3725 H   0  0  0  0  0  0  0  0  0  0  0  0
  150.2169  143.4369  158.0211 H   0  0  0  0  0  0  0  0  0  0  0  0
  1  2  1  0  0  0  0
  1 29  1  0  0  0  0
  1 30  1  0  0  0  0
  1 31  1  0  0  0  0
  2  3  2  0  0  0  0
  2  4  1  0  0  0  0
  4 28  1  0  0  0  0
  4  5  1  0  0  0  0
  5  6  1  0  0  0  0
  5 32  1  0  0  0  0
  5 33  1  0  0  0  0
  6  7  1  0  0  0  0
  6 34  1  0  0  0  0
  6 35  1  0  0  0  0
  7  8  1  0  0  0  0
  7 28  1  0  0  0  0
  7 36  1  0  0  0  0
  8  9  1  0  0  0  0
  8 37  1  0  0  0  0
  8 38  1  0  0  0  0
  9 10  1  0  0  0  0
  9 11  1  0  0  0  0
 10 39  1  0  0  0  0
 10 40  1  0  0  0  0
 10 41  1  0  0  0  0
 11 16  1  0  0  0  0
 11 12  2  0  0  0  0
 12 13  1  0  0  0  0
 13 14  2  0  0  0  0
 13 42  1  0  0  0  0
 14 15  1  0  0  0  0
 15 19  1  0  0  0  0
 15 16  2  0  0  0  0
 16 17  1  0  0  0  0
 17 18  2  0  0  0  0
 18 19  1  0  0  0  0
 18 43  1  0  0  0  0
 19 20  1  0  0  0  0
 20 21  1  0  0  0  0
 20 44  1  0  0  0  0
 20 45  1  0  0  0  0
 21 22  1  0  0  0  0
 21 23  1  0  0  0  0
 21 46  1  0  0  0  0
 22 47  1  0  0  0  0
 23 27  1  0  0  0  0
 23 24  1  0  0  0  0
 23 48  1  0  0  0  0
 24 25  1  0  0  0  0
 24 49  1  0  0  0  0
 24 50  1  0  0  0  0
 25 26  1  0  0  0  0
 25 51  1  0  0  0  0
 25 52  1  0  0  0  0
 26 27  1  0  0  0  0
 26 53  1  0  0  0  0
 26 54  1  0  0  0  0
 28 55  1  0  0  0  0
 28 56  1  0  0  0  0
M  END
> <s_m_source_file>
AV-unprocessed.smi

> <i_m_source_file_index>
83

> <i_lp_mmshare_version>
43012

> <i_f3d_flags>
0

> <s_epik_input>
W0NIM11DKD1PKU4xW0NIMl1bQ0gyXVtDQEhdKFtDSDJdMSlbQ0gyXU4oW0NIM10pYyhuW2NIXW4yKWMoYzIzKW5bY0hdbjNbQ0gyXVtDQEhdKFtPSF0pW0NAQEhdNFtDSDJdW0NIMl1bQ0gyXU80

> <s_epik_cmdline>
J2VwaWtfcHl0aG9uJywgJy1waCcsICc3LjAnLCAnLXRuJywgJzgnLCAnLW1hJywgJzIwMCcsICctbWV0YWxfYmluZGluZycsICctaW1hZScsICc8aW5maWxlLm1hZT4nLCAnLW9tYWUnLCAnPG91dGZpbGUubWFlPic=

> <r_lp_tautomer_probability>
1

> <r_epik_Ionization_Penalty>
0.00109752

> <r_epik_Ionization_Penalty_Charging>
0

> <r_epik_Ionization_Penalty_Neutral>
0.00109752

> <r_epik_State_Penalty>
0.000634803

> <r_epik_Charging_Adjusted_Penalty>
0.000634803

> <i_epik_Tot_Q>
0

> <i_epik_Tot_abs_Q>
0

> <r_epik_Metal_State_Penalty>
-0

> <b_epik_Metal_Only>
0

> <s_lp_Force_Field>
OPLS_2005

> <r_lp_Energy>
53.0153

> <b_lp_Chiralities_Consistent>
1

> <s_lp_Variant>
AV-unprocessed.smi:83-5

> <Gold.Version>
5.8.1

> <Gold.Id.Protein>
6NUR|6NUR_protein|mol2

> <Gold.PLP.Fitness>
59.2514

> <Gold.PLP.PLP>
-57.4122

> <Gold.PLP.part.hbond>
-2.8838

> <Gold.PLP.part.metal>
0.0000

> <Gold.PLP.part.buried>
-3.1918

> <Gold.PLP.part.nonpolar>
-51.4257

> <Gold.PLP.part.repulsive>
0.1093

> <Gold.PLP.ligand.clash>
0.0000

> <Gold.PLP.ligand.torsion>
0.6557

> <Gold.PLP.Chemscore.Hbond>
0.8816

> <Gold.PLP.Chemscore.CHOScore>
0.0000

> <Gold.PLP.Chemscore.Metal>
0.0000

> <Gold.Chemscore.Hbonds>
donor molecule, donor type, donor heavy atom, donor atom, acceptor molecule, acceptor atom, score
      P1  H  6933  6944       L1     3  1.00

> <Gold.PLP.Chemscore.Internal.Correction>
0.5058

> <Gold.Rescore>
     Score         DG    S(hbond)    S(metal)    S(lipo)     H(rot)  DE(clash)    DE(int)     intcor
     11.53     -13.76       0.22        0.00     121.76       2.62       0.43       1.79       ----

> <Gold.Chemscore.Fitness>
11.5279

> <Gold.Chemscore.DG>
-13.7558

> <Gold.Chemscore.ZeroCoef>
-5.4800

> <Gold.Chemscore.Hbond>
0.2171

> <Gold.Chemscore.Metal>
0.0000

> <Gold.Chemscore.Lipo>
121.7580

> <Gold.Chemscore.Internal_Hbond>
0.0000

> <Gold.Chemscore.DEClash>
0.4345

> <Gold.Chemscore.DEInternal>
1.7934

> <Gold.Chemscore.Rot>
2.6152

> <Gold.Chemscore.Internal.Correction>
   9.000000E+99

> <Gold.Chemscore.Hbonds>
donor molecule, donor type, donor heavy atom, donor atom, acceptor molecule, acceptor atom, score
      P1  H  6933  6944       L1     3  0.43

> <Gold.Chemscore.Hbond.Weighted>
-0.7250

> <Gold.Chemscore.Metal.Weighted>
-0.0000

> <Gold.Chemscore.Lipo.Weighted>
-14.2457

> <Gold.Chemscore.Internal_Hbond.Weighted>
0.0000

> <Gold.Chemscore.DEClash.Weighted>
0.4345

> <Gold.Chemscore.DEInternal.Weighted>
1.7934

> <Gold.Chemscore.Rot.Weighted>
6.6949

> <Gold.Chemscore.Internal.Correction.Weighted>
   9.000000E+99

> <Gold.Protein.RotatedTorsions>
[ 6907 6896 6895 6894 ] final -113.23 input  -60.11 | X-H torsion
[ 7974 7965 7964 7962 ] final  -24.09 input  175.53 | X-H torsion
[ 8008 7997 7996 7995 ] final  146.76 input   59.86 | X-H torsion
[ 10167 10162 10161 10158 ] final   55.87 input  -65.29 | X-H torsion
[ 10718 10713 10712 10709 ] final -157.80 input   66.30 | X-H torsion
[ 10763 10752 10751 10750 ] final -130.57 input  -60.55 | X-H torsion
[ 11005 11000 10999 10996 ] final  130.11 input  -57.11 | X-H torsion

> <Gold.Protein.ActiveResidues>
 VAL166  LYS551  ARG553  GLY616  TRP617  ASP618  TYR619  PRO620  LYS621  CYS622 
 ASP623  PHE694  ASN695  SER759  ASP760  ASP761  ALA762  ILE779  LEU786  VAL792 
 PHE793  MET794  SER795  GLU796  ALA797  LYS798  CYS799  TRP800  GLU811  SER814 

> <Gold.Protein.RotatedAtoms>
  150.7814  133.8975  159.3331 H   0  0  0  0  0  0  0  0  0  0  0  0  # atno 6907 bound_to 6896
  151.6837  135.0956  160.0230 H   0  0  0  0  0  0  0  0  0  0  0  0  # atno 6908 bound_to 6896
  152.3866  133.6581  159.6239 H   0  0  0  0  0  0  0  0  0  0  0  0  # atno 6909 bound_to 6896
  146.1576  140.4705  142.8585 H   0  0  0  0  0  0  0  0  0  0  0  0  # atno 7974 bound_to 7965
  156.2846  140.2174  156.5428 H   0  0  0  0  0  0  0  0  0  0  0  0  # atno 8008 bound_to 7997
  154.7355  140.0492  157.0787 H   0  0  0  0  0  0  0  0  0  0  0  0  # atno 8009 bound_to 7997
  155.0298  140.3133  155.4765 H   0  0  0  0  0  0  0  0  0  0  0  0  # atno 8010 bound_to 7997
  140.2148  144.3851  150.6474 H   0  0  0  0  0  0  0  0  0  0  0  0  # atno 10167 bound_to 10162
  156.5453  130.8581  151.2762 H   0  0  0  0  0  0  0  0  0  0  0  0  # atno 10718 bound_to 10713
  154.8755  135.3858  154.4105 H   0  0  0  0  0  0  0  0  0  0  0  0  # atno 10763 bound_to 10752
  153.4819  135.7030  153.5938 H   0  0  0  0  0  0  0  0  0  0  0  0  # atno 10764 bound_to 10752
  153.4350  135.3869  155.2161 H   0  0  0  0  0  0  0  0  0  0  0  0  # atno 10765 bound_to 10752
  139.9653  134.9592  156.9246 H   0  0  0  0  0  0  0  0  0  0  0  0  # atno 11005 bound_to 11000
  144.7984  140.6166  143.6495 LP  0  0  0  0  0  0  0  0  0  0  0  0  # atno 17320 bound_to 7965
  145.4669  139.1507  143.3835 LP  0  0  0  0  0  0  0  0  0  0  0  0  # atno 17321 bound_to 7965
  140.6297  143.2186  151.6521 LP  0  0  0  0  0  0  0  0  0  0  0  0  # atno 17342 bound_to 10162
  139.5166  144.3342  152.0799 LP  0  0  0  0  0  0  0  0  0  0  0  0  # atno 17343 bound_to 10162
  157.7398  130.9837  150.2334 LP  0  0  0  0  0  0  0  0  0  0  0  0  # atno 17370 bound_to 10713
  156.2934  130.3748  149.7820 LP  0  0  0  0  0  0  0  0  0  0  0  0  # atno 17371 bound_to 10713
  140.5410  134.0720  155.7341 LP  0  0  0  0  0  0  0  0  0  0  0  0  # atno 17394 bound_to 11000
  141.1333  133.9265  157.2489 LP  0  0  0  0  0  0  0  0  0  0  0  0  # atno 17395 bound_to 11000

$$$$
