AV-unprocessed.smi:1174|AV-procd|sdf|4946|dock7
  -GOLD-   22720 3533D 1   1.00000     0.00000
 Structure written by MMmdl.
 41 42  0  0  0  0  0  0  0  0  1 V2000
  148.1621  132.5345  152.6235 C   0  0  0  0  0  0  0  0  0  0  0  0
  147.4350  133.5849  153.4754 C   0  0  2  0  0  0  0  0  0  0  0  0
  146.3275  134.3045  152.6808 C   0  0  0  0  0  0  0  0  0  0  0  0
  145.7714  133.4650  151.6324 N   0  0  0  0  0  0  0  0  0  0  0  0
  144.6847  132.6187  151.6979 C   0  0  0  0  0  0  0  0  0  0  0  0
  144.5263  132.0638  150.4602 C   0  0  0  0  0  0  0  0  0  0  0  0
  145.5772  132.6411  149.6936 C   0  0  0  0  0  0  0  0  0  0  0  0
  146.3231  133.4759  150.3988 N   0  0  0  0  0  0  0  0  0  0  0  0
  148.3910  134.5646  153.9840 N   0  0  0  0  0  0  0  0  0  0  0  0
  149.3091  134.3412  154.9351 C   0  0  0  0  0  0  0  0  0  0  0  0
  149.5384  133.2283  155.4096 O   0  0  0  0  0  0  0  0  0  0  0  0
  150.0573  135.5759  155.4505 C   0  0  2  0  0  0  0  0  0  0  0  0
  151.0880  135.2118  156.5433 C   0  0  0  0  0  0  0  0  0  0  0  0
  151.7380  136.4716  157.1477 C   0  0  0  0  0  0  0  0  0  0  0  0
  150.6693  137.4885  157.5902 C   0  0  0  0  0  0  0  0  0  0  0  0
  149.8065  137.8053  156.4388 N   0  0  0  0  0  0  0  0  0  0  0  0
  149.8176  138.9550  155.7184 C   0  0  0  0  0  0  0  0  0  0  0  0
  149.2362  138.8805  154.5171 N   0  0  0  0  0  0  0  0  0  0  0  0
  150.3494  139.9967  156.0997 O   0  0  0  0  0  0  0  0  0  0  0  0
  149.0600  136.6228  155.9933 C   0  0  0  0  0  0  0  0  0  0  0  0
  147.4645  131.7859  152.2470 H   0  0  0  0  0  0  0  0  0  0  0  0
  148.9207  132.0111  153.2066 H   0  0  0  0  0  0  0  0  0  0  0  0
  148.6568  132.9913  151.7656 H   0  0  0  0  0  0  0  0  0  0  0  0
  146.9614  133.0710  154.3142 H   0  0  0  0  0  0  0  0  0  0  0  0
  145.5235  134.6263  153.3453 H   0  0  0  0  0  0  0  0  0  0  0  0
  146.7259  135.2064  152.2146 H   0  0  0  0  0  0  0  0  0  0  0  0
  144.1182  132.4881  152.6081 H   0  0  0  0  0  0  0  0  0  0  0  0
  143.7725  131.3562  150.1482 H   0  0  0  0  0  0  0  0  0  0  0  0
  145.8187  132.4792  148.6534 H   0  0  0  0  0  0  0  0  0  0  0  0
  148.2789  135.5135  153.6569 H   0  0  0  0  0  0  0  0  0  0  0  0
  150.5966  136.0235  154.6130 H   0  0  0  0  0  0  0  0  0  0  0  0
  150.6010  134.6520  157.3432 H   0  0  0  0  0  0  0  0  0  0  0  0
  151.8592  134.5577  156.1342 H   0  0  0  0  0  0  0  0  0  0  0  0
  152.3684  136.1963  157.9936 H   0  0  0  0  0  0  0  0  0  0  0  0
  152.3948  136.9333  156.4092 H   0  0  0  0  0  0  0  0  0  0  0  0
  150.0585  137.0610  158.3866 H   0  0  0  0  0  0  0  0  0  0  0  0
  151.1520  138.3593  158.0332 H   0  0  0  0  0  0  0  0  0  0  0  0
  149.2024  139.6955  153.9226 H   0  0  0  0  0  0  0  0  0  0  0  0
  148.8312  138.0076  154.2119 H   0  0  0  0  0  0  0  0  0  0  0  0
  148.3127  136.8657  155.2353 H   0  0  0  0  0  0  0  0  0  0  0  0
  148.4986  136.2173  156.8368 H   0  0  0  0  0  0  0  0  0  0  0  0
  1  2  1  0  0  0  0
  1 21  1  0  0  0  0
  1 22  1  0  0  0  0
  1 23  1  0  0  0  0
  2  3  1  0  0  0  0
  2  9  1  0  0  0  0
  2 24  1  0  0  0  0
  3  4  1  0  0  0  0
  3 25  1  0  0  0  0
  3 26  1  0  0  0  0
  4  8  1  0  0  0  0
  4  5  1  0  0  0  0
  5  6  2  0  0  0  0
  5 27  1  0  0  0  0
  6  7  1  0  0  0  0
  6 28  1  0  0  0  0
  7  8  2  0  0  0  0
  7 29  1  0  0  0  0
  9 10  1  0  0  0  0
  9 30  1  0  0  0  0
 10 11  2  0  0  0  0
 10 12  1  0  0  0  0
 12 20  1  0  0  0  0
 12 13  1  0  0  0  0
 12 31  1  0  0  0  0
 13 14  1  0  0  0  0
 13 32  1  0  0  0  0
 13 33  1  0  0  0  0
 14 15  1  0  0  0  0
 14 34  1  0  0  0  0
 14 35  1  0  0  0  0
 15 16  1  0  0  0  0
 15 36  1  0  0  0  0
 15 37  1  0  0  0  0
 16 17  1  0  0  0  0
 16 20  1  0  0  0  0
 17 18  1  0  0  0  0
 17 19  2  0  0  0  0
 18 38  1  0  0  0  0
 18 39  1  0  0  0  0
 20 40  1  0  0  0  0
 20 41  1  0  0  0  0
M  END
> <s_m_source_file>
AV-unprocessed.smi

> <i_m_source_file_index>
1174

> <i_lp_mmshare_version>
43012

> <i_f3d_flags>
0

> <s_epik_input>
bjFbY0hdW2NIXVtjSF1uMVtDSDJdW0NAQEhdKFtDSDNdKVtOSF1DKD1PKVtDQEBIXTJbQ0gyXVtDSDJdW0NIMl1OKFtDSDJdMilDKD1PKVtOSDJd

> <s_epik_cmdline>
J2VwaWtfcHl0aG9uJywgJy1waCcsICc3LjAnLCAnLXRuJywgJzgnLCAnLW1hJywgJzIwMCcsICctbWV0YWxfYmluZGluZycsICctaW1hZScsICc8aW5maWxlLm1hZT4nLCAnLW9tYWUnLCAnPG91dGZpbGUubWFlPic=

> <r_lp_tautomer_probability>
1

> <r_epik_Ionization_Penalty>
0.000372452

> <r_epik_Ionization_Penalty_Charging>
0

> <r_epik_Ionization_Penalty_Neutral>
0.000372452

> <r_epik_State_Penalty>
-0

> <r_epik_Charging_Adjusted_Penalty>
0

> <i_epik_Tot_Q>
0

> <i_epik_Tot_abs_Q>
0

> <r_epik_Metal_State_Penalty>
-0

> <b_epik_Metal_Only>
0

> <s_lp_Force_Field>
OPLS_2005

> <r_lp_Energy>
26.8287

> <b_lp_Chiralities_Consistent>
1

> <s_lp_Variant>
AV-unprocessed.smi:1174-1

> <Gold.Version>
5.8.1

> <Gold.Id.Protein>
6NUR|6NUR_protein|mol2

> <Gold.PLP.Fitness>
41.8972

> <Gold.PLP.PLP>
-31.2730

> <Gold.PLP.part.hbond>
-4.0000

> <Gold.PLP.part.metal>
0.0000

> <Gold.PLP.part.buried>
-6.2265

> <Gold.PLP.part.nonpolar>
-22.3527

> <Gold.PLP.part.repulsive>
0.3718

> <Gold.PLP.ligand.clash>
1.6877

> <Gold.PLP.ligand.torsion>
0.9877

> <Gold.PLP.Chemscore.Hbond>
3.7760

> <Gold.PLP.Chemscore.CHOScore>
0.9616

> <Gold.PLP.Chemscore.Metal>
0.0000

> <Gold.Chemscore.Hbonds>
donor molecule, donor type, donor heavy atom, donor atom, acceptor molecule, acceptor atom, score
      L1  H     9    30       P1  7948  0.48
      L1  C     5    27       P1 10957  0.34
      L1  C     7    29       P1  7921  0.03

> <Gold.PLP.Chemscore.Internal.Correction>
0.0745

> <Gold.Rescore>
     Score         DG    S(hbond)    S(metal)    S(lipo)     H(rot)  DE(clash)    DE(int)     intcor
     19.01     -19.95       3.49        0.00      63.89       1.82       0.00       0.94       ----

> <Gold.Chemscore.Fitness>
19.0098

> <Gold.Chemscore.DG>
-19.9499

> <Gold.Chemscore.ZeroCoef>
-5.4800

> <Gold.Chemscore.Hbond>
3.4898

> <Gold.Chemscore.Metal>
0.0000

> <Gold.Chemscore.Lipo>
63.8872

> <Gold.Chemscore.Internal_Hbond>
0.0000

> <Gold.Chemscore.DEClash>
0.0009

> <Gold.Chemscore.DEInternal>
0.9392

> <Gold.Chemscore.Rot>
1.8206

> <Gold.Chemscore.Internal.Correction>
   9.000000E+99

> <Gold.Chemscore.Hbonds>
donor molecule, donor type, donor heavy atom, donor atom, acceptor molecule, acceptor atom, score
      L1  H     9    30       P1  7948  0.44

> <Gold.Chemscore.Hbond.Weighted>
-11.6558

> <Gold.Chemscore.Metal.Weighted>
-0.0000

> <Gold.Chemscore.Lipo.Weighted>
-7.4748

> <Gold.Chemscore.Internal_Hbond.Weighted>
0.0000

> <Gold.Chemscore.DEClash.Weighted>
0.0009

> <Gold.Chemscore.DEInternal.Weighted>
0.9392

> <Gold.Chemscore.Rot.Weighted>
4.6607

> <Gold.Chemscore.Internal.Correction.Weighted>
   9.000000E+99

> <Gold.Protein.RotatedTorsions>
[ 6907 6896 6895 6894 ] final   66.81 input  -60.11 | X-H torsion
[ 7974 7965 7964 7962 ] final   84.31 input  175.53 | X-H torsion
[ 8008 7997 7996 7995 ] final   38.30 input   59.86 | X-H torsion
[ 10167 10162 10161 10158 ] final -122.63 input  -65.29 | X-H torsion
[ 10718 10713 10712 10709 ] final  177.33 input   66.30 | X-H torsion
[ 10763 10752 10751 10750 ] final   36.81 input  -60.55 | X-H torsion
[ 11005 11000 10999 10996 ] final   79.97 input  -57.11 | X-H torsion

> <Gold.Protein.ActiveResidues>
 VAL166  LYS551  ARG553  GLY616  TRP617  ASP618  TYR619  PRO620  LYS621  CYS622 
 ASP623  PHE694  ASN695  SER759  ASP760  ASP761  ALA762  ILE779  LEU786  VAL792 
 PHE793  MET794  SER795  GLU796  ALA797  LYS798  CYS799  TRP800  GLU811  SER814 

> <Gold.Protein.RotatedAtoms>
  152.4508  134.5398  159.9835 H   0  0  0  0  0  0  0  0  0  0  0  0  # atno 6907 bound_to 6896
  151.5472  133.3417  159.2954 H   0  0  0  0  0  0  0  0  0  0  0  0  # atno 6908 bound_to 6896
  150.8436  134.7769  159.7015 H   0  0  0  0  0  0  0  0  0  0  0  0  # atno 6909 bound_to 6896
  145.6005  139.2351  143.2248 H   0  0  0  0  0  0  0  0  0  0  0  0  # atno 7974 bound_to 7965
  155.2179  140.3328  155.4319 H   0  0  0  0  0  0  0  0  0  0  0  0  # atno 8008 bound_to 7997
  156.2345  140.1866  156.7204 H   0  0  0  0  0  0  0  0  0  0  0  0  # atno 8009 bound_to 7997
  154.6035  140.0619  156.9385 H   0  0  0  0  0  0  0  0  0  0  0  0  # atno 8010 bound_to 7997
  140.0122  143.5430  152.2258 H   0  0  0  0  0  0  0  0  0  0  0  0  # atno 10167 bound_to 10162
  156.9069  130.9897  151.3027 H   0  0  0  0  0  0  0  0  0  0  0  0  # atno 10718 bound_to 10713
  153.0062  135.6295  154.2045 H   0  0  0  0  0  0  0  0  0  0  0  0  # atno 10763 bound_to 10752
  154.1788  135.2814  155.3060 H   0  0  0  0  0  0  0  0  0  0  0  0  # atno 10764 bound_to 10752
  154.5851  135.5635  153.7283 H   0  0  0  0  0  0  0  0  0  0  0  0  # atno 10765 bound_to 10752
  139.9152  134.7884  156.1848 H   0  0  0  0  0  0  0  0  0  0  0  0  # atno 11005 bound_to 11000
  146.1580  140.6830  142.9291 LP  0  0  0  0  0  0  0  0  0  0  0  0  # atno 17320 bound_to 7965
  144.7312  140.4677  143.6936 LP  0  0  0  0  0  0  0  0  0  0  0  0  # atno 17321 bound_to 7965
  139.6197  144.7626  151.2767 LP  0  0  0  0  0  0  0  0  0  0  0  0  # atno 17342 bound_to 10162
  140.7377  143.6671  150.8114 LP  0  0  0  0  0  0  0  0  0  0  0  0  # atno 17343 bound_to 10162
  157.5992  130.8500  149.8775 LP  0  0  0  0  0  0  0  0  0  0  0  0  # atno 17370 bound_to 10713
  156.0555  130.3709  150.1102 LP  0  0  0  0  0  0  0  0  0  0  0  0  # atno 17371 bound_to 10713
  141.0620  133.6837  156.1971 LP  0  0  0  0  0  0  0  0  0  0  0  0  # atno 17394 bound_to 11000
  140.6645  134.4932  157.5585 LP  0  0  0  0  0  0  0  0  0  0  0  0  # atno 17395 bound_to 11000

$$$$
