AV-unprocessed.smi:1797|AV-procd|sdf|7258|dock2
  -GOLD-   22720 8513D 1   1.00000     0.00000
 Structure written by MMmdl.
 29 30  0  0  0  0  0  0  0  0  2 V2000
  155.3515  135.4495  162.0731 C   0  0  0  0  0  0  0  0  0  0  0  0
  154.8732  136.2960  160.9437 C   0  0  0  0  0  0  0  0  0  0  0  0
  154.4431  135.7834  159.7882 N   0  0  0  0  0  0  0  0  0  0  0  0
  154.0514  136.7683  158.8930 N   0  0  0  0  0  0  0  0  0  0  0  0
  154.1782  138.0083  159.3870 C   0  0  0  0  0  0  0  0  0  0  0  0
  153.8491  139.1065  158.6819 N   0  5  0  0  0  0  0  0  0  0  0  0
  153.2933  140.2065  159.2547 C   0  0  0  0  0  0  0  0  0  0  0  0
  153.4883  140.5274  160.4264 O   0  0  0  0  0  0  0  0  0  0  0  0
  152.4930  140.9767  158.4919 N   0  0  0  0  0  0  0  0  0  0  0  0
  151.7951  142.1868  158.9155 C   0  0  1  0  0  0  0  0  0  0  0  0
  152.7661  143.1806  159.5705 C   0  0  0  0  0  0  0  0  0  0  0  0
  152.0331  144.4555  160.0177 C   0  0  0  0  0  0  0  0  0  0  0  0
  151.0684  145.0121  158.9599 C   0  0  0  0  0  0  0  0  0  0  0  0
  150.6692  146.1706  159.0561 O   0  0  0  0  0  0  0  0  0  0  0  0
  150.6508  144.2055  157.9683 N   0  0  0  0  0  0  0  0  0  0  0  0
  151.1212  142.8469  157.6994 C   0  0  0  0  0  0  0  0  0  0  0  0
  154.8254  138.0490  161.0267 S   0  0  0  0  0  0  0  0  0  0  0  0
  154.5006  135.0524  162.6268 H   0  0  0  0  0  0  0  0  0  0  0  0
  155.9680  136.0383  162.7525 H   0  0  0  0  0  0  0  0  0  0  0  0
  155.9464  134.6170  161.6964 H   0  0  0  0  0  0  0  0  0  0  0  0
  152.3603  140.6928  157.5323 H   0  0  0  0  0  0  0  0  0  0  0  0
  151.0188  141.9211  159.6357 H   0  0  0  0  0  0  0  0  0  0  0  0
  153.2535  142.7231  160.4323 H   0  0  0  0  0  0  0  0  0  0  0  0
  153.5613  143.4408  158.8700 H   0  0  0  0  0  0  0  0  0  0  0  0
  151.4494  144.2413  160.9135 H   0  0  0  0  0  0  0  0  0  0  0  0
  152.7563  145.2237  160.2929 H   0  0  0  0  0  0  0  0  0  0  0  0
  149.9905  144.5893  157.3077 H   0  0  0  0  0  0  0  0  0  0  0  0
  151.8252  142.9064  156.8680 H   0  0  0  0  0  0  0  0  0  0  0  0
  150.2825  142.2404  157.3564 H   0  0  0  0  0  0  0  0  0  0  0  0
  1  2  1  0  0  0  0
  1 18  1  0  0  0  0
  1 19  1  0  0  0  0
  1 20  1  0  0  0  0
  2 17  1  0  0  0  0
  2  3  2  0  0  0  0
  3  4  1  0  0  0  0
  4  5  2  0  0  0  0
  5  6  1  0  0  0  0
  5 17  1  0  0  0  0
  6  7  1  0  0  0  0
  7  8  2  0  0  0  0
  7  9  1  0  0  0  0
  9 10  1  0  0  0  0
  9 21  1  0  0  0  0
 10 16  1  0  0  0  0
 10 11  1  0  0  0  0
 10 22  1  0  0  0  0
 11 12  1  0  0  0  0
 11 23  1  0  0  0  0
 11 24  1  0  0  0  0
 12 13  1  0  0  0  0
 12 25  1  0  0  0  0
 12 26  1  0  0  0  0
 13 14  2  0  0  0  0
 13 15  1  0  0  0  0
 15 16  1  0  0  0  0
 15 27  1  0  0  0  0
 16 28  1  0  0  0  0
 16 29  1  0  0  0  0
M  CHG  1   6  -1
M  END
> <s_m_source_file>
AV-unprocessed.smi

> <i_m_source_file_index>
1797

> <i_lp_mmshare_version>
43012

> <i_f3d_flags>
0

> <s_epik_input>
W0NIM11jMW5uYyhzMSlbTkhdQyg9TylbTkhdW0NAQEhdMltDSDJdW0NIMl1DKD1PKVtOSF1bQ0gyXTI=

> <s_epik_cmdline>
J2VwaWtfcHl0aG9uJywgJy1waCcsICc3LjAnLCAnLXRuJywgJzgnLCAnLW1hJywgJzIwMCcsICctbWV0YWxfYmluZGluZycsICctaW1hZScsICc8aW5maWxlLm1hZT4nLCAnLW9tYWUnLCAnPG91dGZpbGUubWFlPic=

> <r_lp_tautomer_probability>
1

> <r_epik_Ionization_Penalty>
3.31792

> <r_epik_Ionization_Penalty_Charging>
3.17379

> <r_epik_Ionization_Penalty_Neutral>
0.144127

> <r_epik_State_Penalty>
3.17099

> <r_epik_Charging_Adjusted_Penalty>
6.34478

> <i_epik_Tot_Q>
-1

> <i_epik_Tot_abs_Q>
1

> <r_epik_Metal_State_Penalty>
0.468583

> <b_epik_Metal_Only>
1

> <s_lp_Force_Field>
OPLS_2005

> <r_lp_Energy>
8.48183

> <b_lp_Chiralities_Consistent>
1

> <s_lp_Variant>
AV-unprocessed.smi:1797-4

> <Gold.Version>
5.8.1

> <Gold.Id.Protein>
6NUR|6NUR_protein|mol2

> <Gold.PLP.Fitness>
35.4081

> <Gold.PLP.PLP>
-24.6917

> <Gold.PLP.part.hbond>
-4.7750

> <Gold.PLP.part.metal>
0.0000

> <Gold.PLP.part.buried>
-0.5102

> <Gold.PLP.part.nonpolar>
-19.9535

> <Gold.PLP.part.repulsive>
0.3855

> <Gold.PLP.ligand.clash>
0.0000

> <Gold.PLP.ligand.torsion>
0.4792

> <Gold.PLP.Chemscore.Hbond>
3.8913

> <Gold.PLP.Chemscore.CHOScore>
0.0000

> <Gold.PLP.Chemscore.Metal>
0.0000

> <Gold.Chemscore.Hbonds>
donor molecule, donor type, donor heavy atom, donor atom, acceptor molecule, acceptor atom, score
      L1  H    15    27       P1  8028  1.00
      P1  H  6896  6909       L1     3  0.36
      P1  H  7997  8010       L1     6  1.80

> <Gold.PLP.Chemscore.Internal.Correction>
0.0012

> <Gold.Rescore>
     Score         DG    S(hbond)    S(metal)    S(lipo)     H(rot)  DE(clash)    DE(int)     intcor
      7.44     -12.06       1.15        0.00      45.18       1.00       1.80       2.82       ----

> <Gold.Chemscore.Fitness>
7.4443

> <Gold.Chemscore.DG>
-12.0590

> <Gold.Chemscore.ZeroCoef>
-5.4800

> <Gold.Chemscore.Hbond>
1.1535

> <Gold.Chemscore.Metal>
0.0000

> <Gold.Chemscore.Lipo>
45.1810

> <Gold.Chemscore.Internal_Hbond>
0.0000

> <Gold.Chemscore.DEClash>
1.7960

> <Gold.Chemscore.DEInternal>
2.8186

> <Gold.Chemscore.Rot>
1.0000

> <Gold.Chemscore.Internal.Correction>
   9.000000E+99

> <Gold.Chemscore.Hbonds>
donor molecule, donor type, donor heavy atom, donor atom, acceptor molecule, acceptor atom, score
      L1  H    15    27       P1  8028  0.25
      P1  H  6896  6909       L1     3  0.08
      P1  H  7997  8010       L1     6  0.17

> <Gold.Chemscore.Hbond.Weighted>
-3.8528

> <Gold.Chemscore.Metal.Weighted>
-0.0000

> <Gold.Chemscore.Lipo.Weighted>
-5.2862

> <Gold.Chemscore.Internal_Hbond.Weighted>
0.0000

> <Gold.Chemscore.DEClash.Weighted>
1.7960

> <Gold.Chemscore.DEInternal.Weighted>
2.8186

> <Gold.Chemscore.Rot.Weighted>
2.5600

> <Gold.Chemscore.Internal.Correction.Weighted>
   9.000000E+99

> <Gold.Protein.RotatedTorsions>
[ 6907 6896 6895 6894 ] final -177.87 input  -60.11 | X-H torsion
[ 7974 7965 7964 7962 ] final  -83.10 input  175.53 | X-H torsion
[ 8008 7997 7996 7995 ] final   23.69 input   59.86 | X-H torsion
[ 10167 10162 10161 10158 ] final  -69.90 input  -65.29 | X-H torsion
[ 10718 10713 10712 10709 ] final -168.26 input   66.30 | X-H torsion
[ 10763 10752 10751 10750 ] final  115.08 input  -60.55 | X-H torsion
[ 11005 11000 10999 10996 ] final   -0.03 input  -57.11 | X-H torsion

> <Gold.Protein.ActiveResidues>
 VAL166  LYS551  ARG553  GLY616  TRP617  ASP618  TYR619  PRO620  LYS621  CYS622 
 ASP623  PHE694  ASN695  SER759  ASP760  ASP761  ALA762  ILE779  LEU786  VAL792 
 PHE793  MET794  SER795  GLU796  ALA797  LYS798  CYS799  TRP800  GLU811  SER814 

> <Gold.Protein.RotatedAtoms>
  151.6280  133.3334  159.3102 H   0  0  0  0  0  0  0  0  0  0  0  0  # atno 6907 bound_to 6896
  150.8071  134.7207  159.6666 H   0  0  0  0  0  0  0  0  0  0  0  0  # atno 6908 bound_to 6896
  152.4167  134.6033  160.0057 H   0  0  0  0  0  0  0  0  0  0  0  0  # atno 6909 bound_to 6896
  145.5244  140.9528  143.1637 H   0  0  0  0  0  0  0  0  0  0  0  0  # atno 7974 bound_to 7965
  154.9849  140.3106  155.4931 H   0  0  0  0  0  0  0  0  0  0  0  0  # atno 8008 bound_to 7997
  156.2948  140.2260  156.4890 H   0  0  0  0  0  0  0  0  0  0  0  0  # atno 8009 bound_to 7997
  154.7756  140.0449  157.1074 H   0  0  0  0  0  0  0  0  0  0  0  0  # atno 8010 bound_to 7997
  140.5395  143.2316  151.7116 H   0  0  0  0  0  0  0  0  0  0  0  0  # atno 10167 bound_to 10162
  156.6944  130.9172  151.3073 H   0  0  0  0  0  0  0  0  0  0  0  0  # atno 10718 bound_to 10713
  153.5169  135.3606  155.2613 H   0  0  0  0  0  0  0  0  0  0  0  0  # atno 10763 bound_to 10752
  154.8738  135.4036  154.3304 H   0  0  0  0  0  0  0  0  0  0  0  0  # atno 10764 bound_to 10752
  153.3968  135.7073  153.6522 H   0  0  0  0  0  0  0  0  0  0  0  0  # atno 10765 bound_to 10752
  140.6317  133.9569  155.8278 H   0  0  0  0  0  0  0  0  0  0  0  0  # atno 11005 bound_to 11000
  144.7659  139.6847  143.7215 LP  0  0  0  0  0  0  0  0  0  0  0  0  # atno 17320 bound_to 7965
  146.2085  139.5425  142.9697 LP  0  0  0  0  0  0  0  0  0  0  0  0  # atno 17321 bound_to 7965
  139.4983  144.3991  152.0200 LP  0  0  0  0  0  0  0  0  0  0  0  0  # atno 17342 bound_to 10162
  140.3099  144.3550  150.6037 LP  0  0  0  0  0  0  0  0  0  0  0  0  # atno 17343 bound_to 10162
  157.6997  130.9319  150.0748 LP  0  0  0  0  0  0  0  0  0  0  0  0  # atno 17370 bound_to 10713
  156.1774  130.3648  149.9081 LP  0  0  0  0  0  0  0  0  0  0  0  0  # atno 17371 bound_to 10713
  141.0670  134.0262  157.3580 LP  0  0  0  0  0  0  0  0  0  0  0  0  # atno 17394 bound_to 11000
  139.9113  135.0190  156.7704 LP  0  0  0  0  0  0  0  0  0  0  0  0  # atno 17395 bound_to 11000

$$$$
