AV-unprocessed.smi:178|AV-procd|sdf|1448|dock6
  -GOLD-   2262019243D 1   1.00000     0.00000
 Structure written by MMmdl.
 50 52  0  0  0  0  0  0  0  0  1 V2000
  153.5309  141.9776  161.4045 C   0  0  0  0  0  0  0  0  0  0  0  0
  153.1769  141.9457  160.0310 O   0  0  0  0  0  0  0  0  0  0  0  0
  152.5594  140.7351  159.6090 C   0  0  0  0  0  0  0  0  0  0  0  0
  151.6343  140.9108  158.3833 C   0  0  0  0  0  0  0  0  0  0  0  0
  151.9545  140.0276  157.2606 N   0  0  0  0  0  0  0  0  0  0  0  0
  151.4603  140.4787  155.9615 C   0  0  0  0  0  0  0  0  0  0  0  0
  149.9320  140.6338  155.9119 C   0  0  0  0  0  0  0  0  0  0  0  0
  149.4625  141.1227  154.6073 C   0  0  0  0  0  0  0  0  0  0  0  0
  149.0926  141.5074  153.5808 N   0  0  0  0  0  0  0  0  0  0  0  0
  151.6836  138.7256  157.5038 C   0  0  0  0  0  0  0  0  0  0  0  0
  152.6744  137.8314  157.2653 N   0  0  0  0  0  0  0  0  0  0  0  0
  152.4759  136.5342  157.5172 C   0  0  0  0  0  0  0  0  0  0  0  0
  151.3857  135.9343  158.0007 N   0  0  0  0  0  0  0  0  0  0  0  0
  150.3863  136.8328  158.2354 C   0  0  0  0  0  0  0  0  0  0  0  0
  150.4463  138.2358  158.0090 C   0  0  0  0  0  0  0  0  0  0  0  0
  149.2375  138.8259  158.3579 N   0  0  0  0  0  0  0  0  0  0  0  0
  148.5068  137.8282  158.7746 C   0  0  0  0  0  0  0  0  0  0  0  0
  149.1219  136.5967  158.7456 N   0  0  0  0  0  0  0  0  0  0  0  0
  148.5492  135.3258  159.1620 C   0  0  0  0  0  0  0  0  0  0  0  0
  147.5254  135.4648  160.3195 C   0  0  2  0  0  0  0  0  0  0  0  0
  146.3309  136.0042  159.7775 O   0  0  0  0  0  0  0  0  0  0  0  0
  147.9869  136.3894  161.4418 C   0  0  0  0  0  0  0  0  0  0  0  0
  147.2310  135.8579  162.6499 C   0  0  0  0  0  0  0  0  0  0  0  0
  147.2945  134.4549  162.4616 O   0  0  0  0  0  0  0  0  0  0  0  0
  147.1497  134.1583  161.0739 C   0  0  2  0  0  0  0  0  0  0  0  0
  148.0111  132.9199  160.7807 C   0  0  0  0  0  0  0  0  0  0  0  0
  153.9648  142.9489  161.6417 H   0  0  0  0  0  0  0  0  0  0  0  0
  154.2710  141.2181  161.6543 H   0  0  0  0  0  0  0  0  0  0  0  0
  152.6565  141.8376  162.0409 H   0  0  0  0  0  0  0  0  0  0  0  0
  153.3303  139.9943  159.3920 H   0  0  0  0  0  0  0  0  0  0  0  0
  151.9837  140.3335  160.4437 H   0  0  0  0  0  0  0  0  0  0  0  0
  150.5839  140.8168  158.6567 H   0  0  0  0  0  0  0  0  0  0  0  0
  151.7526  141.9342  158.0260 H   0  0  0  0  0  0  0  0  0  0  0  0
  151.9394  141.4203  155.6903 H   0  0  0  0  0  0  0  0  0  0  0  0
  151.7641  139.7527  155.2067 H   0  0  0  0  0  0  0  0  0  0  0  0
  149.4447  139.6775  156.1031 H   0  0  0  0  0  0  0  0  0  0  0  0
  149.5808  141.3367  156.6677 H   0  0  0  0  0  0  0  0  0  0  0  0
  153.3120  135.8841  157.3058 H   0  0  0  0  0  0  0  0  0  0  0  0
  147.4943  137.9644  159.1266 H   0  0  0  0  0  0  0  0  0  0  0  0
  148.0817  134.8611  158.2928 H   0  0  0  0  0  0  0  0  0  0  0  0
  149.3730  134.6746  159.4543 H   0  0  0  0  0  0  0  0  0  0  0  0
  146.4444  136.1025  158.8444 H   0  0  0  0  0  0  0  0  0  0  0  0
  149.0563  136.2638  161.6155 H   0  0  0  0  0  0  0  0  0  0  0  0
  147.8032  137.4472  161.2484 H   0  0  0  0  0  0  0  0  0  0  0  0
  147.6807  136.1582  163.5964 H   0  0  0  0  0  0  0  0  0  0  0  0
  146.1901  136.1852  162.6403 H   0  0  0  0  0  0  0  0  0  0  0  0
  146.1046  133.8998  160.8933 H   0  0  0  0  0  0  0  0  0  0  0  0
  147.9413  132.6240  159.7339 H   0  0  0  0  0  0  0  0  0  0  0  0
  147.6811  132.0719  161.3812 H   0  0  0  0  0  0  0  0  0  0  0  0
  149.0605  133.0977  161.0176 H   0  0  0  0  0  0  0  0  0  0  0  0
  1  2  1  0  0  0  0
  1 27  1  0  0  0  0
  1 28  1  0  0  0  0
  1 29  1  0  0  0  0
  2  3  1  0  0  0  0
  3  4  1  0  0  0  0
  3 30  1  0  0  0  0
  3 31  1  0  0  0  0
  4  5  1  0  0  0  0
  4 32  1  0  0  0  0
  4 33  1  0  0  0  0
  5  6  1  0  0  0  0
  5 10  1  0  0  0  0
  6  7  1  0  0  0  0
  6 34  1  0  0  0  0
  6 35  1  0  0  0  0
  7  8  1  0  0  0  0
  7 36  1  0  0  0  0
  7 37  1  0  0  0  0
  8  9  3  0  0  0  0
 10 15  1  0  0  0  0
 10 11  2  0  0  0  0
 11 12  1  0  0  0  0
 12 13  2  0  0  0  0
 12 38  1  0  0  0  0
 13 14  1  0  0  0  0
 14 18  1  0  0  0  0
 14 15  2  0  0  0  0
 15 16  1  0  0  0  0
 16 17  2  0  0  0  0
 17 18  1  0  0  0  0
 17 39  1  0  0  0  0
 18 19  1  0  0  0  0
 19 20  1  0  0  0  0
 19 40  1  0  0  0  0
 19 41  1  0  0  0  0
 20 25  1  0  0  0  0
 20 21  1  0  0  0  0
 20 22  1  0  0  0  0
 21 42  1  0  0  0  0
 22 23  1  0  0  0  0
 22 43  1  0  0  0  0
 22 44  1  0  0  0  0
 23 24  1  0  0  0  0
 23 45  1  0  0  0  0
 23 46  1  0  0  0  0
 24 25  1  0  0  0  0
 25 26  1  0  0  0  0
 25 47  1  0  0  0  0
 26 48  1  0  0  0  0
 26 49  1  0  0  0  0
 26 50  1  0  0  0  0
M  END
> <s_m_source_file>
AV-unprocessed.smi

> <i_m_source_file_index>
178

> <i_lp_mmshare_version>
43012

> <i_f3d_flags>
0

> <s_epik_input>
W0NIM11PW0NIMl1bQ0gyXU4oW0NIMl1bQ0gyXUMjTiljKG5bY0hdbjEpYyhjMTIpbltjSF1uMltDSDJdW0NAQF0zKFtPSF0pW0NIMl1bQ0gyXU9bQ0BIXTNbQ0gzXQ==

> <s_epik_cmdline>
J2VwaWtfcHl0aG9uJywgJy1waCcsICc3LjAnLCAnLXRuJywgJzgnLCAnLW1hJywgJzIwMCcsICctbWV0YWxfYmluZGluZycsICctaW1hZScsICc8aW5maWxlLm1hZT4nLCAnLW9tYWUnLCAnPG91dGZpbGUubWFlPic=

> <r_lp_tautomer_probability>
1

> <r_epik_Ionization_Penalty>
0.000885317

> <r_epik_Ionization_Penalty_Charging>
0

> <r_epik_Ionization_Penalty_Neutral>
0.000885317

> <r_epik_State_Penalty>
0.00047273

> <r_epik_Charging_Adjusted_Penalty>
0.00047273

> <i_epik_Tot_Q>
0

> <i_epik_Tot_abs_Q>
0

> <r_epik_Metal_State_Penalty>
-0

> <b_epik_Metal_Only>
0

> <s_lp_Force_Field>
OPLS_2005

> <r_lp_Energy>
31.3349

> <b_lp_Chiralities_Consistent>
1

> <s_lp_Variant>
AV-unprocessed.smi:178-4

> <Gold.Version>
5.8.1

> <Gold.Id.Protein>
6NUR|6NUR_protein|mol2

> <Gold.PLP.Fitness>
38.9744

> <Gold.PLP.PLP>
-39.2864

> <Gold.PLP.part.hbond>
-2.3882

> <Gold.PLP.part.metal>
0.0000

> <Gold.PLP.part.buried>
-6.0279

> <Gold.PLP.part.nonpolar>
-31.4835

> <Gold.PLP.part.repulsive>
0.1951

> <Gold.PLP.ligand.clash>
0.0000

> <Gold.PLP.ligand.torsion>
1.6277

> <Gold.PLP.Chemscore.Hbond>
0.8378

> <Gold.PLP.Chemscore.CHOScore>
0.0000

> <Gold.PLP.Chemscore.Metal>
0.0000

> <Gold.Chemscore.Hbonds>
donor molecule, donor type, donor heavy atom, donor atom, acceptor molecule, acceptor atom, score
      P1  H  6896  6909       L1    13  0.19
      P1  H  8011  8017       L1     9  0.82

> <Gold.PLP.Chemscore.Internal.Correction>
0.4301

> <Gold.Rescore>
     Score         DG    S(hbond)    S(metal)    S(lipo)     H(rot)  DE(clash)    DE(int)     intcor
      5.02      -7.96       0.75        0.00      80.63       3.69       0.17       2.76       ----

> <Gold.Chemscore.Fitness>
5.0250

> <Gold.Chemscore.DG>
-7.9570

> <Gold.Chemscore.ZeroCoef>
-5.4800

> <Gold.Chemscore.Hbond>
0.7473

> <Gold.Chemscore.Metal>
0.0000

> <Gold.Chemscore.Lipo>
80.6281

> <Gold.Chemscore.Internal_Hbond>
0.0000

> <Gold.Chemscore.DEClash>
0.1745

> <Gold.Chemscore.DEInternal>
2.7575

> <Gold.Chemscore.Rot>
3.6923

> <Gold.Chemscore.Internal.Correction>
   9.000000E+99

> <Gold.Chemscore.Hbonds>
donor molecule, donor type, donor heavy atom, donor atom, acceptor molecule, acceptor atom, score
      P1  H  6896  6909       L1    13  0.01
      P1  H  8011  8017       L1     9  0.80

> <Gold.Chemscore.Hbond.Weighted>
-2.4958

> <Gold.Chemscore.Metal.Weighted>
-0.0000

> <Gold.Chemscore.Lipo.Weighted>
-9.4335

> <Gold.Chemscore.Internal_Hbond.Weighted>
0.0000

> <Gold.Chemscore.DEClash.Weighted>
0.1745

> <Gold.Chemscore.DEInternal.Weighted>
2.7575

> <Gold.Chemscore.Rot.Weighted>
9.4524

> <Gold.Chemscore.Internal.Correction.Weighted>
   9.000000E+99

> <Gold.Protein.RotatedTorsions>
[ 6907 6896 6895 6894 ] final   84.79 input  -60.11 | X-H torsion
[ 7974 7965 7964 7962 ] final  111.19 input  175.53 | X-H torsion
[ 8008 7997 7996 7995 ] final    1.49 input   59.86 | X-H torsion
[ 10167 10162 10161 10158 ] final   94.25 input  -65.29 | X-H torsion
[ 10718 10713 10712 10709 ] final  140.54 input   66.30 | X-H torsion
[ 10763 10752 10751 10750 ] final  176.47 input  -60.55 | X-H torsion
[ 11005 11000 10999 10996 ] final  -48.73 input  -57.11 | X-H torsion

> <Gold.Protein.ActiveResidues>
 VAL166  LYS551  ARG553  GLY616  TRP617  ASP618  TYR619  PRO620  LYS621  CYS622 
 ASP623  PHE694  ASN695  SER759  ASP760  ASP761  ALA762  ILE779  LEU786  VAL792 
 PHE793  MET794  SER795  GLU796  ALA797  LYS798  CYS799  TRP800  GLU811  SER814 

> <Gold.Protein.RotatedAtoms>
  152.5360  134.2686  159.8962 H   0  0  0  0  0  0  0  0  0  0  0  0  # atno 6907 bound_to 6896
  151.2643  133.4279  159.2625 H   0  0  0  0  0  0  0  0  0  0  0  0  # atno 6908 bound_to 6896
  151.0424  134.9631  159.8225 H   0  0  0  0  0  0  0  0  0  0  0  0  # atno 6909 bound_to 6896
  145.2454  139.2761  143.4095 H   0  0  0  0  0  0  0  0  0  0  0  0  # atno 7974 bound_to 7965
  154.6804  140.2631  155.6914 H   0  0  0  0  0  0  0  0  0  0  0  0  # atno 8008 bound_to 7997
  156.2694  140.2811  156.1268 H   0  0  0  0  0  0  0  0  0  0  0  0  # atno 8009 bound_to 7997
  155.1040  140.0375  157.2695 H   0  0  0  0  0  0  0  0  0  0  0  0  # atno 8010 bound_to 7997
  139.8102  144.6777  150.9650 H   0  0  0  0  0  0  0  0  0  0  0  0  # atno 10167 bound_to 10162
  157.4021  131.1018  151.0541 H   0  0  0  0  0  0  0  0  0  0  0  0  # atno 10718 bound_to 10713
  154.4815  135.2775  155.1567 H   0  0  0  0  0  0  0  0  0  0  0  0  # atno 10763 bound_to 10752
  154.3275  135.6197  153.5540 H   0  0  0  0  0  0  0  0  0  0  0  0  # atno 10764 bound_to 10752
  152.9876  135.5757  154.5217 H   0  0  0  0  0  0  0  0  0  0  0  0  # atno 10765 bound_to 10752
  141.0718  133.6677  156.3484 H   0  0  0  0  0  0  0  0  0  0  0  0  # atno 11005 bound_to 11000
  146.3317  140.2830  142.8611 LP  0  0  0  0  0  0  0  0  0  0  0  0  # atno 17320 bound_to 7965
  144.9551  140.8218  143.5548 LP  0  0  0  0  0  0  0  0  0  0  0  0  # atno 17321 bound_to 7965
  140.7818  143.4193  151.0867 LP  0  0  0  0  0  0  0  0  0  0  0  0  # atno 17342 bound_to 10162
  139.7860  143.8287  152.3145 LP  0  0  0  0  0  0  0  0  0  0  0  0  # atno 17343 bound_to 10162
  157.1536  130.6195  149.5589 LP  0  0  0  0  0  0  0  0  0  0  0  0  # atno 17370 bound_to 10713
  155.9826  130.4841  150.6890 LP  0  0  0  0  0  0  0  0  0  0  0  0  # atno 17371 bound_to 10713
  140.5657  134.5890  157.5445 LP  0  0  0  0  0  0  0  0  0  0  0  0  # atno 17394 bound_to 11000
  139.9531  134.7582  156.0403 LP  0  0  0  0  0  0  0  0  0  0  0  0  # atno 17395 bound_to 11000

$$$$
