AV-unprocessed.smi:276|AV-procd|sdf|2083|dock5
  -GOLD-   2262021353D 1   1.00000     0.00000
 Structure written by MMmdl.
 57 61  0  0  0  0  0  0  0  0  1 V2000
  146.3259  137.5096  152.4957 C   0  0  0  0  0  0  0  0  0  0  0  0
  147.0874  138.3696  153.3252 O   0  0  0  0  0  0  0  0  0  0  0  0
  146.4318  138.6835  154.5462 C   0  0  1  0  0  0  0  0  0  0  0  0
  146.6550  137.6149  155.6260 C   0  0  0  0  0  0  0  0  0  0  0  0
  147.8899  138.3988  156.1140 C   0  0  1  0  0  0  0  0  0  0  0  0
  149.1287  137.8837  155.5151 N   0  0  0  0  0  0  0  0  0  0  0  0
  149.2910  136.4325  155.4817 C   0  0  0  0  0  0  0  0  0  0  0  0
  150.2865  138.4893  155.8656 C   0  0  0  0  0  0  0  0  0  0  0  0
  151.0149  139.0443  154.8648 N   0  0  0  0  0  0  0  0  0  0  0  0
  152.1698  139.6580  155.1370 C   0  0  0  0  0  0  0  0  0  0  0  0
  152.7729  139.8165  156.3166 N   0  0  0  0  0  0  0  0  0  0  0  0
  152.0528  139.2442  157.3234 C   0  0  0  0  0  0  0  0  0  0  0  0
  150.8083  138.5657  157.1898 C   0  0  0  0  0  0  0  0  0  0  0  0
  150.3786  138.1226  158.4354 N   0  0  0  0  0  0  0  0  0  0  0  0
  151.3075  138.5258  159.2577 C   0  0  0  0  0  0  0  0  0  0  0  0
  152.3633  139.1856  158.6710 N   0  0  0  0  0  0  0  0  0  0  0  0
  153.5285  139.7311  159.3450 C   0  0  0  0  0  0  0  0  0  0  0  0
  153.2002  140.8050  160.4098 C   0  0  1  0  0  0  0  0  0  0  0  0
  154.4064  141.0168  161.1156 O   0  0  0  0  0  0  0  0  0  0  0  0
  152.7467  142.1780  159.8604 C   0  0  1  0  0  0  0  0  0  0  0  0
  151.4700  142.1791  159.0123 C   0  0  0  0  0  0  0  0  0  0  0  0
  150.8801  143.5661  159.2158 C   0  0  0  0  0  0  0  0  0  0  0  0
  151.6702  144.1311  160.3951 C   0  0  0  0  0  0  0  0  0  0  0  0
  152.3431  143.0074  160.9410 O   0  0  0  0  0  0  0  0  0  0  0  0
  147.2730  139.6379  155.4119 C   0  0  0  0  0  0  0  0  0  0  0  0
  146.5371  140.6933  156.2555 C   0  0  0  0  0  0  0  0  0  0  0  0
  146.8868  141.7243  155.1800 C   0  0  0  0  0  0  0  0  0  0  0  0
  148.0505  140.8139  154.7847 C   0  0  0  0  0  0  0  0  0  0  0  0
  146.8789  137.3029  151.5797 H   0  0  0  0  0  0  0  0  0  0  0  0
  145.3773  137.9713  152.2191 H   0  0  0  0  0  0  0  0  0  0  0  0
  146.1208  136.5571  152.9851 H   0  0  0  0  0  0  0  0  0  0  0  0
  145.3952  139.0004  154.4205 H   0  0  0  0  0  0  0  0  0  0  0  0
  145.8544  137.6080  156.3674 H   0  0  0  0  0  0  0  0  0  0  0  0
  146.8403  136.6091  155.2491 H   0  0  0  0  0  0  0  0  0  0  0  0
  147.9186  138.4760  157.2008 H   0  0  0  0  0  0  0  0  0  0  0  0
  150.3087  136.1114  155.7127 H   0  0  0  0  0  0  0  0  0  0  0  0
  149.0437  136.0600  154.4876 H   0  0  0  0  0  0  0  0  0  0  0  0
  148.6247  135.9509  156.1983 H   0  0  0  0  0  0  0  0  0  0  0  0
  152.6852  140.0816  154.2876 H   0  0  0  0  0  0  0  0  0  0  0  0
  151.2553  138.3354  160.3197 H   0  0  0  0  0  0  0  0  0  0  0  0
  154.0469  138.8921  159.8118 H   0  0  0  0  0  0  0  0  0  0  0  0
  154.2106  140.1367  158.5964 H   0  0  0  0  0  0  0  0  0  0  0  0
  152.4598  140.4225  161.1128 H   0  0  0  0  0  0  0  0  0  0  0  0
  155.1113  140.6075  160.6375 H   0  0  0  0  0  0  0  0  0  0  0  0
  153.5553  142.6630  159.3096 H   0  0  0  0  0  0  0  0  0  0  0  0
  151.6653  141.9682  157.9614 H   0  0  0  0  0  0  0  0  0  0  0  0
  150.7664  141.4333  159.3845 H   0  0  0  0  0  0  0  0  0  0  0  0
  150.9990  144.1927  158.3315 H   0  0  0  0  0  0  0  0  0  0  0  0
  149.8153  143.5010  159.4419 H   0  0  0  0  0  0  0  0  0  0  0  0
  152.4066  144.8599  160.0528 H   0  0  0  0  0  0  0  0  0  0  0  0
  151.0331  144.6116  161.1379 H   0  0  0  0  0  0  0  0  0  0  0  0
  145.4696  140.5174  156.3911 H   0  0  0  0  0  0  0  0  0  0  0  0
  147.0342  140.8932  157.2065 H   0  0  0  0  0  0  0  0  0  0  0  0
  146.1256  141.8005  154.4019 H   0  0  0  0  0  0  0  0  0  0  0  0
  147.1797  142.7028  155.5612 H   0  0  0  0  0  0  0  0  0  0  0  0
  148.9594  141.0863  155.3194 H   0  0  0  0  0  0  0  0  0  0  0  0
  148.2260  140.7370  153.7115 H   0  0  0  0  0  0  0  0  0  0  0  0
  1  2  1  0  0  0  0
  1 29  1  0  0  0  0
  1 30  1  0  0  0  0
  1 31  1  0  0  0  0
  2  3  1  0  0  0  0
  3 25  1  0  0  0  0
  3  4  1  0  0  0  0
  3 32  1  0  0  0  0
  4  5  1  0  0  0  0
  4 33  1  0  0  0  0
  4 34  1  0  0  0  0
  5  6  1  0  0  0  0
  5 25  1  0  0  0  0
  5 35  1  0  0  0  0
  6  7  1  0  0  0  0
  6  8  1  0  0  0  0
  7 36  1  0  0  0  0
  7 37  1  0  0  0  0
  7 38  1  0  0  0  0
  8 13  1  0  0  0  0
  8  9  2  0  0  0  0
  9 10  1  0  0  0  0
 10 11  2  0  0  0  0
 10 39  1  0  0  0  0
 11 12  1  0  0  0  0
 12 16  1  0  0  0  0
 12 13  2  0  0  0  0
 13 14  1  0  0  0  0
 14 15  2  0  0  0  0
 15 16  1  0  0  0  0
 15 40  1  0  0  0  0
 16 17  1  0  0  0  0
 17 18  1  0  0  0  0
 17 41  1  0  0  0  0
 17 42  1  0  0  0  0
 18 19  1  0  0  0  0
 18 20  1  0  0  0  0
 18 43  1  0  0  0  0
 19 44  1  0  0  0  0
 20 24  1  0  0  0  0
 20 21  1  0  0  0  0
 20 45  1  0  0  0  0
 21 22  1  0  0  0  0
 21 46  1  0  0  0  0
 21 47  1  0  0  0  0
 22 23  1  0  0  0  0
 22 48  1  0  0  0  0
 22 49  1  0  0  0  0
 23 24  1  0  0  0  0
 23 50  1  0  0  0  0
 23 51  1  0  0  0  0
 25 28  1  0  0  0  0
 25 26  1  0  0  0  0
 26 27  1  0  0  0  0
 26 52  1  0  0  0  0
 26 53  1  0  0  0  0
 27 28  1  0  0  0  0
 27 54  1  0  0  0  0
 27 55  1  0  0  0  0
 28 56  1  0  0  0  0
 28 57  1  0  0  0  0
M  END
> <s_m_source_file>
AV-unprocessed.smi

> <i_m_source_file_index>
276

> <i_lp_mmshare_version>
43012

> <i_f3d_flags>
0

> <s_epik_input>
W0NIMl0xW0NIMl1bQ0gyXUMxMltDQEhdKE9bQ0gzXSlbQ0gyXVtDQEhdMk4oW0NIM10pYyhuW2NIXW4zKWMoYzM0KW5bY0hdbjRbQ0gyXVtDQEhdKFtPSF0pW0NAQEhdNVtDSDJdW0NIMl1bQ0gyXU81

> <s_epik_cmdline>
J2VwaWtfcHl0aG9uJywgJy1waCcsICc3LjAnLCAnLXRuJywgJzgnLCAnLW1hJywgJzIwMCcsICctbWV0YWxfYmluZGluZycsICctaW1hZScsICc8aW5maWxlLm1hZT4nLCAnLW9tYWUnLCAnPG91dGZpbGUubWFlPic=

> <r_lp_tautomer_probability>
1

> <r_epik_Ionization_Penalty>
0.00204117

> <r_epik_Ionization_Penalty_Charging>
0

> <r_epik_Ionization_Penalty_Neutral>
0.00204117

> <r_epik_State_Penalty>
0.00127401

> <r_epik_Charging_Adjusted_Penalty>
0.00127401

> <i_epik_Tot_Q>
0

> <i_epik_Tot_abs_Q>
0

> <r_epik_Metal_State_Penalty>
-0

> <b_epik_Metal_Only>
0

> <s_lp_Force_Field>
OPLS_2005

> <r_lp_Energy>
58.3472

> <b_lp_Chiralities_Consistent>
1

> <s_lp_Variant>
AV-unprocessed.smi:276-14

> <Gold.Version>
5.8.1

> <Gold.Id.Protein>
6NUR|6NUR_protein|mol2

> <Gold.PLP.Fitness>
43.1815

> <Gold.PLP.PLP>
-40.9270

> <Gold.PLP.part.hbond>
-1.3723

> <Gold.PLP.part.metal>
0.0000

> <Gold.PLP.part.buried>
-3.3289

> <Gold.PLP.part.nonpolar>
-36.4904

> <Gold.PLP.part.repulsive>
0.5284

> <Gold.PLP.ligand.clash>
0.0000

> <Gold.PLP.ligand.torsion>
0.9215

> <Gold.PLP.Chemscore.Hbond>
1.0000

> <Gold.PLP.Chemscore.CHOScore>
0.0000

> <Gold.PLP.Chemscore.Metal>
0.0000

> <Gold.Chemscore.Hbonds>
donor molecule, donor type, donor heavy atom, donor atom, acceptor molecule, acceptor atom, score
      P1  H  7997  8008       L1    11  1.00

> <Gold.PLP.Chemscore.Internal.Correction>
1.0976

> <Gold.Rescore>
     Score         DG    S(hbond)    S(metal)    S(lipo)     H(rot)  DE(clash)    DE(int)     intcor
     12.05     -13.37       0.95        0.00      99.70       2.72       0.07       1.24       ----

> <Gold.Chemscore.Fitness>
12.0512

> <Gold.Chemscore.DG>
-13.3689

> <Gold.Chemscore.ZeroCoef>
-5.4800

> <Gold.Chemscore.Hbond>
0.9519

> <Gold.Chemscore.Metal>
0.0000

> <Gold.Chemscore.Lipo>
99.7043

> <Gold.Chemscore.Internal_Hbond>
0.0000

> <Gold.Chemscore.DEClash>
0.0737

> <Gold.Chemscore.DEInternal>
1.2440

> <Gold.Chemscore.Rot>
2.7172

> <Gold.Chemscore.Internal.Correction>
   9.000000E+99

> <Gold.Chemscore.Hbonds>
donor molecule, donor type, donor heavy atom, donor atom, acceptor molecule, acceptor atom, score
      P1  H  7997  8008       L1    11  0.94

> <Gold.Chemscore.Hbond.Weighted>
-3.1795

> <Gold.Chemscore.Metal.Weighted>
-0.0000

> <Gold.Chemscore.Lipo.Weighted>
-11.6654

> <Gold.Chemscore.Internal_Hbond.Weighted>
0.0000

> <Gold.Chemscore.DEClash.Weighted>
0.0737

> <Gold.Chemscore.DEInternal.Weighted>
1.2440

> <Gold.Chemscore.Rot.Weighted>
6.9560

> <Gold.Chemscore.Internal.Correction.Weighted>
   9.000000E+99

> <Gold.Protein.RotatedTorsions>
[ 6907 6896 6895 6894 ] final    8.15 input  -60.11 | X-H torsion
[ 7974 7965 7964 7962 ] final  -83.97 input  175.53 | X-H torsion
[ 8008 7997 7996 7995 ] final  -56.87 input   59.86 | X-H torsion
[ 10167 10162 10161 10158 ] final    2.18 input  -65.29 | X-H torsion
[ 10718 10713 10712 10709 ] final  103.30 input   66.30 | X-H torsion
[ 10763 10752 10751 10750 ] final   76.16 input  -60.55 | X-H torsion
[ 11005 11000 10999 10996 ] final   62.46 input  -57.11 | X-H torsion

> <Gold.Protein.ActiveResidues>
 VAL166  LYS551  ARG553  GLY616  TRP617  ASP618  TYR619  PRO620  LYS621  CYS622 
 ASP623  PHE694  ASN695  SER759  ASP760  ASP761  ALA762  ILE779  LEU786  VAL792 
 PHE793  MET794  SER795  GLU796  ALA797  LYS798  CYS799  TRP800  GLU811  SER814 

> <Gold.Protein.RotatedAtoms>
  151.7014  135.0929  160.0251 H   0  0  0  0  0  0  0  0  0  0  0  0  # atno 6907 bound_to 6896
  152.3718  133.6425  159.6101 H   0  0  0  0  0  0  0  0  0  0  0  0  # atno 6908 bound_to 6896
  150.7679  133.9174  159.3429 H   0  0  0  0  0  0  0  0  0  0  0  0  # atno 6909 bound_to 6896
  145.5128  140.9538  143.1698 H   0  0  0  0  0  0  0  0  0  0  0  0  # atno 7974 bound_to 7965
  154.4246  140.1120  156.5706 H   0  0  0  0  0  0  0  0  0  0  0  0  # atno 8008 bound_to 7997
  155.6216  140.3495  155.4635 H   0  0  0  0  0  0  0  0  0  0  0  0  # atno 8009 bound_to 7997
  156.0020  140.1201  157.0528 H   0  0  0  0  0  0  0  0  0  0  0  0  # atno 8010 bound_to 7997
  140.6648  143.7210  150.7805 H   0  0  0  0  0  0  0  0  0  0  0  0  # atno 10167 bound_to 10162
  157.6776  131.0775  150.5535 H   0  0  0  0  0  0  0  0  0  0  0  0  # atno 10718 bound_to 10713
  153.0706  135.4961  154.8296 H   0  0  0  0  0  0  0  0  0  0  0  0  # atno 10763 bound_to 10752
  154.7017  135.3003  154.9334 H   0  0  0  0  0  0  0  0  0  0  0  0  # atno 10764 bound_to 10752
  154.0056  135.6761  153.4815 H   0  0  0  0  0  0  0  0  0  0  0  0  # atno 10765 bound_to 10752
  140.0090  134.6324  155.9809 H   0  0  0  0  0  0  0  0  0  0  0  0  # atno 11005 bound_to 11000
  144.7718  139.6718  143.7191 LP  0  0  0  0  0  0  0  0  0  0  0  0  # atno 17320 bound_to 7965
  146.2155  139.5542  142.9653 LP  0  0  0  0  0  0  0  0  0  0  0  0  # atno 17321 bound_to 7965
  140.0885  143.4900  152.2492 LP  0  0  0  0  0  0  0  0  0  0  0  0  # atno 17342 bound_to 10162
  139.5892  144.7543  151.3442 LP  0  0  0  0  0  0  0  0  0  0  0  0  # atno 17343 bound_to 10162
  156.5839  130.4311  149.5965 LP  0  0  0  0  0  0  0  0  0  0  0  0  # atno 17370 bound_to 10713
  156.2639  130.6978  151.1755 LP  0  0  0  0  0  0  0  0  0  0  0  0  # atno 17371 bound_to 10713
  141.1698  133.6537  156.4609 LP  0  0  0  0  0  0  0  0  0  0  0  0  # atno 17394 bound_to 11000
  140.4588  134.6861  157.5075 LP  0  0  0  0  0  0  0  0  0  0  0  0  # atno 17395 bound_to 11000

$$$$
