#       Name:                AV-unprocessed.smi:2231
#       Creating user name   scv26
#       Creation time:       Fri Mar 27 12:24:31 2020


#       File generated by GOLD software.
#

@<TRIPOS>MOLECULE
AV-unprocessed.smi:2231
    54    55     1
SMALL
NO_CHARGES


@<TRIPOS>ATOM
      1 ****        -5.0064  -0.3882   2.1151 C.3            1 S1                 0.0000
      2 ****        -3.6154   0.1996   2.0009 C.ar           1 S1                 0.0000
      3 ****        -3.4290   1.5635   1.7053 C.ar           1 S1                 0.0000
      4 ****        -2.1101   2.0490   1.6112 C.ar           1 S1                 0.0000
      5 ****        -1.8356   3.5038   1.2939 C.3            1 S1                 0.0000
      6 ****        -1.0235   1.2685   1.7907 N.ar           1 S1                 0.0000
      7 ****        -1.1907  -0.0469   2.0753 C.ar           1 S1                 0.0000
      8 ****        -0.1142  -0.9547   2.2599 N.am           1 S1                 0.0000
      9 ****         1.2035  -0.6921   2.2153 C.2            1 S1                 0.0000
     10 ****         1.7020   0.4326   2.1661 O.2            1 S1                 0.0000
     11 ****         1.9258  -1.8231   2.2134 N.am           1 S1                 0.0000
     12 ****         3.3765  -1.9029   2.0415 C.3            1 S1                 0.0000
     13 ****         3.7781  -2.1943   0.5789 C.3            1 S1                 0.0000
     14 ****         3.4280  -1.0518  -0.3793 C.2            1 S1                 0.0000
     15 ****         4.0748  -0.0054  -0.3517 O.2            1 S1                 0.0000
     16 ****         2.3844  -1.2583  -1.1979 N.am           1 S1                 0.0000
     17 ****         1.8007  -0.2623  -2.0907 C.3            1 S1                 0.0000
     18 ****         0.8584   0.6757  -1.3053 C.3            1 S1                 0.0000
     19 ****         0.1472   1.6749  -2.2307 C.3            1 S1                 0.0000
     20 ****        -0.6062   0.9530  -3.3579 C.3            1 S1                 0.0000
     21 ****         0.3346   0.0321  -4.1501 C.3            1 S1                 0.0000
     22 ****         1.0388  -0.9736  -3.2251 C.3            1 S1                 0.0000
     23 ****        -2.4798  -0.6146   2.1857 C.ar           1 S1                 0.0000
     24 ****        -5.7694   0.3907   2.0902 H              1 S1                 0.0000
     25 ****        -5.1111  -0.9360   3.0519 H              1 S1                 0.0000
     26 ****        -5.1935  -1.0767   1.2908 H              1 S1                 0.0000
     27 ****        -4.2737   2.2198   1.5543 H              1 S1                 0.0000
     28 ****        -2.7613   4.0775   1.2402 H              1 S1                 0.0000
     29 ****        -1.3235   3.5924   0.3356 H              1 S1                 0.0000
     30 ****        -1.2043   3.9485   2.0636 H              1 S1                 0.0000
     31 ****        -0.3771  -1.9235   2.3624 H              1 S1                 0.0000
     32 ****         1.4303  -2.7004   2.2757 H              1 S1                 0.0000
     33 ****         3.8642  -0.9946   2.4001 H              1 S1                 0.0000
     34 ****         3.7404  -2.7084   2.6795 H              1 S1                 0.0000
     35 ****         4.8549  -2.3590   0.5264 H              1 S1                 0.0000
     36 ****         3.3128  -3.1216   0.2406 H              1 S1                 0.0000
     37 ****         1.9204  -2.1537  -1.1537 H              1 S1                 0.0000
     38 ****         2.6016   0.3307  -2.5367 H              1 S1                 0.0000
     39 ****         0.1110   0.0854  -0.7736 H              1 S1                 0.0000
     40 ****         1.4160   1.2226  -0.5443 H              1 S1                 0.0000
     41 ****        -0.5460   2.2860  -1.6524 H              1 S1                 0.0000
     42 ****         0.8800   2.3595  -2.6598 H              1 S1                 0.0000
     43 ****        -1.4227   0.3667  -2.9345 H              1 S1                 0.0000
     44 ****        -1.0634   1.6830  -4.0266 H              1 S1                 0.0000
     45 ****        -0.2273  -0.4999  -4.9180 H              1 S1                 0.0000
     46 ****         1.0805   0.6325  -4.6723 H              1 S1                 0.0000
     47 ****         1.7246  -1.5900  -3.8074 H              1 S1                 0.0000
     48 ****         0.2963  -1.6521  -2.8027 H              1 S1                 0.0000
     49 ****        -2.5998  -1.6652   2.4082 H              1 S1                 0.0000
     50 ****        -0.1049   1.6562   1.7146 LP             1 S1                 0.0000
     51 ****         1.1129   1.2407   2.1568 LP             1 S1                 0.0000
     52 ****         2.6959   0.5381   2.1353 LP             1 S1                 0.0000
     53 ****         4.8291   0.0992   0.2963 LP             1 S1                 0.0000
     54 ****         3.8461   0.7404  -0.9774 LP             1 S1                 0.0000
@<TRIPOS>BOND
    1    1    2 1     
    2    1   24 1     
    3    1   25 1     
    4    1   26 1     
    5    2   23 ar    
    6    2    3 ar    
    7    3    4 ar    
    8    3   27 1     
    9    4    5 1     
   10    4    6 ar    
   11    5   28 1     
   12    5   29 1     
   13    5   30 1     
   14    6    7 ar    
   15    7    8 1     
   16    7   23 ar    
   17    8    9 am    
   18    8   31 1     
   19    9   10 2     
   20    9   11 am    
   21   11   12 1     
   22   11   32 1     
   23   12   13 1     
   24   12   33 1     
   25   12   34 1     
   26   13   14 1     
   27   13   35 1     
   28   13   36 1     
   29   14   15 2     
   30   14   16 am    
   31   16   17 1     
   32   16   37 1     
   33   17   22 1     
   34   17   18 1     
   35   17   38 1     
   36   18   19 1     
   37   18   39 1     
   38   18   40 1     
   39   19   20 1     
   40   19   41 1     
   41   19   42 1     
   42   20   21 1     
   43   20   43 1     
   44   20   44 1     
   45   21   22 1     
   46   21   45 1     
   47   21   46 1     
   48   22   47 1     
   49   22   48 1     
   50   23   49 1     
   51    6   50 1     
   52   10   51 1     
   53   10   52 1     
   54   15   53 1     
   55   15   54 1     
@<TRIPOS>SUBSTRUCTURE
      1 S1             1
@<TRIPOS>SET
LONE_PAIRS      STATIC     ATOMS    <user>   **** ""
5 50 51 52 53 54
DONOR_HYDROGENS      STATIC     ATOMS    <user>   **** ""
3 31 32 37
ATOM$BLUE        STATIC     ATOMS    COLORGROUP SYSTEM
5 50 51 52 53 54
ATOM$RED        STATIC     ATOMS    COLORGROUP SYSTEM
3 31 32 37
