AV-unprocessed.smi:3213|AV-procd|sdf|12282|dock2
  -GOLD-   2272018123D 1   1.00000     0.00000
 Structure written by MMmdl.
 35 35  0  0  0  0  0  0  0  0  1 V2000
  150.3324  144.0648  159.1895 C   0  0  0  0  0  0  0  0  0  0  0  0
  151.7923  143.8644  158.7458 C   0  0  0  0  0  0  0  0  0  0  0  0
  152.3529  145.2133  158.2464 C   0  0  0  0  0  0  0  0  0  0  0  0
  152.6136  143.3439  159.9440 C   0  0  0  0  0  0  0  0  0  0  0  0
  151.7768  142.8725  157.6637 N   0  0  0  0  0  0  0  0  0  0  0  0
  151.2301  141.6433  157.6620 C   0  0  0  0  0  0  0  0  0  0  0  0
  150.6424  141.1511  158.6256 O   0  0  0  0  0  0  0  0  0  0  0  0
  151.3800  140.8444  156.3637 C   0  0  0  0  0  0  0  0  0  0  0  0
  150.1617  140.8662  155.5726 N   0  0  0  0  0  0  0  0  0  0  0  0
  148.9874  141.5431  155.8272 C   0  0  0  0  0  0  0  0  0  0  0  0
  148.1235  141.2670  154.8054 C   0  0  0  0  0  0  0  0  0  0  0  0
  146.7161  141.7554  154.6059 C   0  0  0  0  0  0  0  0  0  0  0  0
  145.8000  141.3217  155.7576 C   0  0  0  0  0  0  0  0  0  0  0  0
  144.4607  141.2790  155.3144 O   0  0  0  0  0  0  0  0  0  0  0  0
  148.8757  140.4003  153.9620 C   0  0  0  0  0  0  0  0  0  0  0  0
  150.0926  140.1614  154.4227 N   0  0  0  0  0  0  0  0  0  0  0  0
  150.2589  144.7944  159.9969 H   0  0  0  0  0  0  0  0  0  0  0  0
  149.8940  143.1335  159.5504 H   0  0  0  0  0  0  0  0  0  0  0  0
  149.7117  144.4236  158.3675 H   0  0  0  0  0  0  0  0  0  0  0  0
  151.8104  145.5693  157.3698 H   0  0  0  0  0  0  0  0  0  0  0  0
  153.4071  145.1471  157.9779 H   0  0  0  0  0  0  0  0  0  0  0  0
  152.2698  145.9809  159.0165 H   0  0  0  0  0  0  0  0  0  0  0  0
  152.5618  144.0362  160.7850 H   0  0  0  0  0  0  0  0  0  0  0  0
  153.6677  143.2200  159.6963 H   0  0  0  0  0  0  0  0  0  0  0  0
  152.2411  142.3792  160.2908 H   0  0  0  0  0  0  0  0  0  0  0  0
  152.2317  143.1605  156.8095 H   0  0  0  0  0  0  0  0  0  0  0  0
  152.2024  141.2335  155.7604 H   0  0  0  0  0  0  0  0  0  0  0  0
  151.6222  139.8094  156.6067 H   0  0  0  0  0  0  0  0  0  0  0  0
  148.8665  142.1608  156.7052 H   0  0  0  0  0  0  0  0  0  0  0  0
  146.7008  142.8430  154.5232 H   0  0  0  0  0  0  0  0  0  0  0  0
  146.3122  141.3807  153.6645 H   0  0  0  0  0  0  0  0  0  0  0  0
  146.0846  140.3353  156.1256 H   0  0  0  0  0  0  0  0  0  0  0  0
  145.8753  142.0178  156.5936 H   0  0  0  0  0  0  0  0  0  0  0  0
  144.4205  140.7555  154.5286 H   0  0  0  0  0  0  0  0  0  0  0  0
  148.5736  139.9410  153.0321 H   0  0  0  0  0  0  0  0  0  0  0  0
  1  2  1  0  0  0  0
  1 17  1  0  0  0  0
  1 18  1  0  0  0  0
  1 19  1  0  0  0  0
  2  3  1  0  0  0  0
  2  4  1  0  0  0  0
  2  5  1  0  0  0  0
  3 20  1  0  0  0  0
  3 21  1  0  0  0  0
  3 22  1  0  0  0  0
  4 23  1  0  0  0  0
  4 24  1  0  0  0  0
  4 25  1  0  0  0  0
  5  6  1  0  0  0  0
  5 26  1  0  0  0  0
  6  7  2  0  0  0  0
  6  8  1  0  0  0  0
  8  9  1  0  0  0  0
  8 27  1  0  0  0  0
  8 28  1  0  0  0  0
  9 16  1  0  0  0  0
  9 10  1  0  0  0  0
 10 11  2  0  0  0  0
 10 29  1  0  0  0  0
 11 12  1  0  0  0  0
 11 15  1  0  0  0  0
 12 13  1  0  0  0  0
 12 30  1  0  0  0  0
 12 31  1  0  0  0  0
 13 14  1  0  0  0  0
 13 32  1  0  0  0  0
 13 33  1  0  0  0  0
 14 34  1  0  0  0  0
 15 16  2  0  0  0  0
 15 35  1  0  0  0  0
M  END
> <s_m_source_file>
AV-unprocessed.smi

> <i_m_source_file_index>
3213

> <i_lp_mmshare_version>
43012

> <i_f3d_flags>
0

> <s_epik_input>
W0NIM11DKFtDSDNdKShbQ0gzXSlbTkhdQyg9TylbQ0gyXW4xW2NIXWMoW2NIXW4xKVtDSDJdW0NIMl1bT0hd

> <s_epik_cmdline>
J2VwaWtfcHl0aG9uJywgJy1waCcsICc3LjAnLCAnLXRuJywgJzgnLCAnLW1hJywgJzIwMCcsICctbWV0YWxfYmluZGluZycsICctaW1hZScsICc8aW5maWxlLm1hZT4nLCAnLW9tYWUnLCAnPG91dGZpbGUubWFlPic=

> <r_lp_tautomer_probability>
1

> <r_epik_Ionization_Penalty>
3.05354e-05

> <r_epik_Ionization_Penalty_Charging>
0

> <r_epik_Ionization_Penalty_Neutral>
3.05354e-05

> <r_epik_State_Penalty>
-0

> <r_epik_Charging_Adjusted_Penalty>
0

> <i_epik_Tot_Q>
0

> <i_epik_Tot_abs_Q>
0

> <r_epik_Metal_State_Penalty>
-0

> <b_epik_Metal_Only>
0

> <s_lp_Force_Field>
OPLS_2005

> <r_lp_Energy>
4.97676

> <b_lp_Chiralities_Consistent>
1

> <s_lp_Variant>
AV-unprocessed.smi:3213-1

> <Gold.Version>
5.8.1

> <Gold.Id.Protein>
6NUR|6NUR_protein|mol2

> <Gold.PLP.Fitness>
42.3170

> <Gold.PLP.PLP>
-32.5698

> <Gold.PLP.part.hbond>
-2.1064

> <Gold.PLP.part.metal>
0.0000

> <Gold.PLP.part.buried>
-0.1288

> <Gold.PLP.part.nonpolar>
-30.4849

> <Gold.PLP.part.repulsive>
0.1389

> <Gold.PLP.ligand.clash>
0.0000

> <Gold.PLP.ligand.torsion>
0.4723

> <Gold.PLP.Chemscore.Hbond>
2.0000

> <Gold.PLP.Chemscore.CHOScore>
1.5545

> <Gold.PLP.Chemscore.Metal>
0.0000

> <Gold.Chemscore.Hbonds>
donor molecule, donor type, donor heavy atom, donor atom, acceptor molecule, acceptor atom, score
      L1  H    14    34       P1 10175  0.61
      P1  H  7989  7998       L1    16  1.00
      L1  C    10    29       P1  8028  0.20
      L1  C    15    35       P1  7957  0.94

> <Gold.PLP.Chemscore.Internal.Correction>
0.0282

> <Gold.Rescore>
     Score         DG    S(hbond)    S(metal)    S(lipo)     H(rot)  DE(clash)    DE(int)     intcor
     12.96     -14.27       1.74        0.00      79.51       2.48       0.73       0.58       ----

> <Gold.Chemscore.Fitness>
12.9596

> <Gold.Chemscore.DG>
-14.2676

> <Gold.Chemscore.ZeroCoef>
-5.4800

> <Gold.Chemscore.Hbond>
1.7433

> <Gold.Chemscore.Metal>
0.0000

> <Gold.Chemscore.Lipo>
79.5131

> <Gold.Chemscore.Internal_Hbond>
0.0000

> <Gold.Chemscore.DEClash>
0.7274

> <Gold.Chemscore.DEInternal>
0.5807

> <Gold.Chemscore.Rot>
2.4758

> <Gold.Chemscore.Internal.Correction>
   9.000000E+99

> <Gold.Chemscore.Hbonds>
donor molecule, donor type, donor heavy atom, donor atom, acceptor molecule, acceptor atom, score
      L1  H    14    34       P1 10175  0.57
      P1  H  7989  7998       L1    16  0.24

> <Gold.Chemscore.Hbond.Weighted>
-5.8226

> <Gold.Chemscore.Metal.Weighted>
-0.0000

> <Gold.Chemscore.Lipo.Weighted>
-9.3030

> <Gold.Chemscore.Internal_Hbond.Weighted>
0.0000

> <Gold.Chemscore.DEClash.Weighted>
0.7274

> <Gold.Chemscore.DEInternal.Weighted>
0.5807

> <Gold.Chemscore.Rot.Weighted>
6.3380

> <Gold.Chemscore.Internal.Correction.Weighted>
   9.000000E+99

> <Gold.Protein.RotatedTorsions>
[ 6907 6896 6895 6894 ] final   50.93 input  -60.11 | X-H torsion
[ 7974 7965 7964 7962 ] final -154.61 input  175.53 | X-H torsion
[ 8008 7997 7996 7995 ] final -146.12 input   59.86 | X-H torsion
[ 10167 10162 10161 10158 ] final   84.83 input  -65.29 | X-H torsion
[ 10718 10713 10712 10709 ] final  156.95 input   66.30 | X-H torsion
[ 10763 10752 10751 10750 ] final  161.95 input  -60.55 | X-H torsion
[ 11005 11000 10999 10996 ] final  -40.47 input  -57.11 | X-H torsion

> <Gold.Protein.ActiveResidues>
 VAL166  LYS551  ARG553  GLY616  TRP617  ASP618  TYR619  PRO620  LYS621  CYS622 
 ASP623  PHE694  ASN695  SER759  ASP760  ASP761  ALA762  ILE779  LEU786  VAL792 
 PHE793  MET794  SER795  GLU796  ALA797  LYS798  CYS799  TRP800  GLU811  SER814 

> <Gold.Protein.RotatedAtoms>
  152.3071  134.7541  160.0344 H   0  0  0  0  0  0  0  0  0  0  0  0  # atno 6907 bound_to 6896
  151.8035  133.3367  159.3542 H   0  0  0  0  0  0  0  0  0  0  0  0  # atno 6908 bound_to 6896
  150.7302  134.5661  159.5911 H   0  0  0  0  0  0  0  0  0  0  0  0  # atno 6909 bound_to 6896
  144.7681  140.4364  143.5927 H   0  0  0  0  0  0  0  0  0  0  0  0  # atno 7974 bound_to 7965
  155.5542  140.0619  157.2843 H   0  0  0  0  0  0  0  0  0  0  0  0  # atno 8008 bound_to 7997
  154.4411  140.1897  156.0762 H   0  0  0  0  0  0  0  0  0  0  0  0  # atno 8009 bound_to 7997
  156.0494  140.3286  155.7337 H   0  0  0  0  0  0  0  0  0  0  0  0  # atno 8010 bound_to 7997
  139.9040  144.6312  150.8607 H   0  0  0  0  0  0  0  0  0  0  0  0  # atno 10167 bound_to 10162
  157.1980  131.0670  151.2041 H   0  0  0  0  0  0  0  0  0  0  0  0  # atno 10718 bound_to 10713
  154.2709  135.2766  155.2738 H   0  0  0  0  0  0  0  0  0  0  0  0  # atno 10763 bound_to 10752
  154.5302  135.5732  153.6756 H   0  0  0  0  0  0  0  0  0  0  0  0  # atno 10764 bound_to 10752
  152.9945  135.6226  154.2864 H   0  0  0  0  0  0  0  0  0  0  0  0  # atno 10765 bound_to 10752
  141.0176  133.6878  156.2325 H   0  0  0  0  0  0  0  0  0  0  0  0  # atno 11005 bound_to 11000
  145.6408  139.1550  143.2916 LP  0  0  0  0  0  0  0  0  0  0  0  0  # atno 17320 bound_to 7965
  146.1805  140.6505  142.9191 LP  0  0  0  0  0  0  0  0  0  0  0  0  # atno 17321 bound_to 7965
  140.7700  143.3415  151.2197 LP  0  0  0  0  0  0  0  0  0  0  0  0  # atno 17342 bound_to 10162
  139.7001  143.9548  152.2901 LP  0  0  0  0  0  0  0  0  0  0  0  0  # atno 17343 bound_to 10162
  157.3795  130.7224  149.6620 LP  0  0  0  0  0  0  0  0  0  0  0  0  # atno 17370 bound_to 10713
  155.9704  130.4176  150.4289 LP  0  0  0  0  0  0  0  0  0  0  0  0  # atno 17371 bound_to 10713
  140.6627  134.4950  157.5584 LP  0  0  0  0  0  0  0  0  0  0  0  0  # atno 17394 bound_to 11000
  139.9127  134.8312  156.1473 LP  0  0  0  0  0  0  0  0  0  0  0  0  # atno 17395 bound_to 11000

$$$$
