AV-unprocessed.smi:2510|AV-procd|sdf|9870|dock8
  -GOLD-   2272013503D 1   1.00000     0.00000
 Structure written by MMmdl.
 48 49  0  0  0  0  0  0  0  0  1 V2000
  148.8376  142.1482  158.2919 C   0  0  0  0  0  0  0  0  0  0  0  0
  149.6254  141.3374  157.2493 C   0  0  0  0  0  0  0  0  0  0  0  0
  151.0641  140.9427  157.6736 C   0  0  0  0  0  0  0  0  0  0  0  0
  151.7787  142.2080  158.2116 C   0  0  0  0  0  0  0  0  0  0  0  0
  152.9483  141.9516  159.1776 C   0  0  0  0  0  0  0  0  0  0  0  0
  151.2138  139.7018  158.6028 C   0  0  1  0  0  0  0  0  0  0  0  0
  150.1154  138.7444  158.4724 N   0  0  0  0  0  0  0  0  0  0  0  0
  150.1012  137.4985  158.9681 C   0  0  0  0  0  0  0  0  0  0  0  0
  150.9994  137.0375  159.6719 O   0  0  0  0  0  0  0  0  0  0  0  0
  148.8922  136.6361  158.5977 C   0  0  0  0  0  0  0  0  0  0  0  0
  148.2391  136.0983  159.8447 C   0  0  0  0  0  0  0  0  0  0  0  0
  147.9974  134.7359  160.1909 C   0  0  0  0  0  0  0  0  0  0  0  0
  147.3427  134.8019  161.3882 C   0  0  0  0  0  0  0  0  0  0  0  0
  146.7952  133.7351  162.2739 C   0  0  0  0  0  0  0  0  0  0  0  0
  147.2392  136.1386  161.6966 N   0  0  0  0  0  0  0  0  0  0  0  0
  147.7863  136.9402  160.7646 N   0  0  0  0  0  0  0  0  0  0  0  0
  152.4502  139.2715  157.7905 C   0  0  1  0  0  0  0  0  0  0  0  0
  152.7945  137.8016  157.5527 C   0  0  0  0  0  0  0  0  0  0  0  0
  151.9079  140.1367  156.6416 C   0  0  1  0  0  0  0  0  0  0  0  0
  151.1340  139.3462  155.7455 O   0  0  0  0  0  0  0  0  0  0  0  0
  151.9108  138.7267  154.7353 C   0  0  0  0  0  0  0  0  0  0  0  0
  146.8025  136.5126  162.5271 H   0  0  0  0  0  0  0  0  0  0  0  0
  147.8033  142.2760  157.9725 H   0  0  0  0  0  0  0  0  0  0  0  0
  149.2539  143.1451  158.4321 H   0  0  0  0  0  0  0  0  0  0  0  0
  148.8218  141.6493  159.2610 H   0  0  0  0  0  0  0  0  0  0  0  0
  149.0399  140.4445  157.0307 H   0  0  0  0  0  0  0  0  0  0  0  0
  149.6318  141.8834  156.3073 H   0  0  0  0  0  0  0  0  0  0  0  0
  152.1252  142.8343  157.3904 H   0  0  0  0  0  0  0  0  0  0  0  0
  151.0637  142.8385  158.7400 H   0  0  0  0  0  0  0  0  0  0  0  0
  153.3053  142.8923  159.5971 H   0  0  0  0  0  0  0  0  0  0  0  0
  153.7968  141.4856  158.6781 H   0  0  0  0  0  0  0  0  0  0  0  0
  152.6543  141.3143  160.0110 H   0  0  0  0  0  0  0  0  0  0  0  0
  151.4468  139.9652  159.6361 H   0  0  0  0  0  0  0  0  0  0  0  0
  149.3324  139.0311  157.9023 H   0  0  0  0  0  0  0  0  0  0  0  0
  148.1801  137.2320  158.0257 H   0  0  0  0  0  0  0  0  0  0  0  0
  149.2196  135.8269  157.9436 H   0  0  0  0  0  0  0  0  0  0  0  0
  148.2511  133.8469  159.6326 H   0  0  0  0  0  0  0  0  0  0  0  0
  147.0357  132.7453  161.8854 H   0  0  0  0  0  0  0  0  0  0  0  0
  145.7103  133.8130  162.3475 H   0  0  0  0  0  0  0  0  0  0  0  0
  147.2107  133.8128  163.2787 H   0  0  0  0  0  0  0  0  0  0  0  0
  153.3212  139.7718  158.2161 H   0  0  0  0  0  0  0  0  0  0  0  0
  151.9868  137.2657  157.0546 H   0  0  0  0  0  0  0  0  0  0  0  0
  152.9966  137.2887  158.4930 H   0  0  0  0  0  0  0  0  0  0  0  0
  153.6813  137.7038  156.9268 H   0  0  0  0  0  0  0  0  0  0  0  0
  152.7025  140.6957  156.1455 H   0  0  0  0  0  0  0  0  0  0  0  0
  151.2568  138.1727  154.0621 H   0  0  0  0  0  0  0  0  0  0  0  0
  152.6226  138.0226  155.1675 H   0  0  0  0  0  0  0  0  0  0  0  0
  152.4612  139.4585  154.1442 H   0  0  0  0  0  0  0  0  0  0  0  0
  1  2  1  0  0  0  0
  1 23  1  0  0  0  0
  1 24  1  0  0  0  0
  1 25  1  0  0  0  0
  2  3  1  0  0  0  0
  2 26  1  0  0  0  0
  2 27  1  0  0  0  0
  3 19  1  0  0  0  0
  3  4  1  0  0  0  0
  3  6  1  0  0  0  0
  4  5  1  0  0  0  0
  4 28  1  0  0  0  0
  4 29  1  0  0  0  0
  5 30  1  0  0  0  0
  5 31  1  0  0  0  0
  5 32  1  0  0  0  0
  6  7  1  0  0  0  0
  6 17  1  0  0  0  0
  6 33  1  0  0  0  0
  7  8  1  0  0  0  0
  7 34  1  0  0  0  0
  8  9  2  0  0  0  0
  8 10  1  0  0  0  0
 10 11  1  0  0  0  0
 10 35  1  0  0  0  0
 10 36  1  0  0  0  0
 11 16  2  0  0  0  0
 11 12  1  0  0  0  0
 12 13  2  0  0  0  0
 12 37  1  0  0  0  0
 13 14  1  0  0  0  0
 13 15  1  0  0  0  0
 14 38  1  0  0  0  0
 14 39  1  0  0  0  0
 14 40  1  0  0  0  0
 15 22  1  0  0  0  0
 15 16  1  0  0  0  0
 17 18  1  0  0  0  0
 17 19  1  0  0  0  0
 17 41  1  0  0  0  0
 18 42  1  0  0  0  0
 18 43  1  0  0  0  0
 18 44  1  0  0  0  0
 19 20  1  0  0  0  0
 19 45  1  0  0  0  0
 20 21  1  0  0  0  0
 21 46  1  0  0  0  0
 21 47  1  0  0  0  0
 21 48  1  0  0  0  0
M  END
> <s_m_source_file>
AV-unprocessed.smi

> <i_m_source_file_index>
2510

> <i_lp_mmshare_version>
43012

> <i_f3d_flags>
0

> <s_epik_input>
W0NIM11PW0NAQEhdMVtDQEhdKFtDSDNdKVtDQEBIXShDMShbQ0gyXVtDSDNdKVtDSDJdW0NIM10pW05IXUMoPU8pW0NIMl1jMltjSF1jKFtDSDNdKVtuSF1uMg==

> <s_epik_cmdline>
J2VwaWtfcHl0aG9uJywgJy1waCcsICc3LjAnLCAnLXRuJywgJzgnLCAnLW1hJywgJzIwMCcsICctbWV0YWxfYmluZGluZycsICctaW1hZScsICc8aW5maWxlLm1hZT4nLCAnLW9tYWUnLCAnPG91dGZpbGUubWFlPic=

> <r_lp_tautomer_probability>
0.5

> <r_epik_Ionization_Penalty>
9.73156e-05

> <r_epik_Ionization_Penalty_Charging>
0

> <r_epik_Ionization_Penalty_Neutral>
9.73156e-05

> <r_epik_State_Penalty>
0.41068

> <r_epik_Charging_Adjusted_Penalty>
0.41068

> <i_epik_Tot_Q>
0

> <i_epik_Tot_abs_Q>
0

> <r_epik_Metal_State_Penalty>
0.410699

> <b_epik_Metal_Only>
0

> <s_lp_Force_Field>
OPLS_2005

> <r_lp_Energy>
26.8932

> <b_lp_Chiralities_Consistent>
1

> <s_lp_Variant>
AV-unprocessed.smi:2510-1

> <Gold.Version>
5.8.1

> <Gold.Id.Protein>
6NUR|6NUR_protein|mol2

> <Gold.PLP.Fitness>
43.1193

> <Gold.PLP.PLP>
-35.7391

> <Gold.PLP.part.hbond>
-3.0000

> <Gold.PLP.part.metal>
0.0000

> <Gold.PLP.part.buried>
-6.9564

> <Gold.PLP.part.nonpolar>
-26.8161

> <Gold.PLP.part.repulsive>
0.3242

> <Gold.PLP.ligand.clash>
0.0000

> <Gold.PLP.ligand.torsion>
0.8429

> <Gold.PLP.Chemscore.Hbond>
2.7833

> <Gold.PLP.Chemscore.CHOScore>
0.0000

> <Gold.PLP.Chemscore.Metal>
0.0000

> <Gold.Chemscore.Hbonds>
donor molecule, donor type, donor heavy atom, donor atom, acceptor molecule, acceptor atom, score
      P1  H  6896  6908       L1     9  1.00
      P1  H  6931  6943       L1    16  0.69
      P1  H  6934  6947       L1    16  0.59

> <Gold.PLP.Chemscore.Internal.Correction>
0.7162

> <Gold.Rescore>
     Score         DG    S(hbond)    S(metal)    S(lipo)     H(rot)  DE(clash)    DE(int)     intcor
     16.89     -19.61       2.58        0.00      86.81       1.81       0.05       2.68       ----

> <Gold.Chemscore.Fitness>
16.8902

> <Gold.Chemscore.DG>
-19.6133

> <Gold.Chemscore.ZeroCoef>
-5.4800

> <Gold.Chemscore.Hbond>
2.5780

> <Gold.Chemscore.Metal>
0.0000

> <Gold.Chemscore.Lipo>
86.8106

> <Gold.Chemscore.Internal_Hbond>
0.0000

> <Gold.Chemscore.DEClash>
0.0474

> <Gold.Chemscore.DEInternal>
2.6757

> <Gold.Chemscore.Rot>
1.8102

> <Gold.Chemscore.Internal.Correction>
   9.000000E+99

> <Gold.Chemscore.Hbonds>
donor molecule, donor type, donor heavy atom, donor atom, acceptor molecule, acceptor atom, score
      P1  H  6896  6908       L1     9  0.97
      P1  H  6931  6943       L1    16  0.30
      P1  H  6934  6947       L1    16  0.50

> <Gold.Chemscore.Hbond.Weighted>
-8.6105

> <Gold.Chemscore.Metal.Weighted>
-0.0000

> <Gold.Chemscore.Lipo.Weighted>
-10.1568

> <Gold.Chemscore.Internal_Hbond.Weighted>
0.0000

> <Gold.Chemscore.DEClash.Weighted>
0.0474

> <Gold.Chemscore.DEInternal.Weighted>
2.6757

> <Gold.Chemscore.Rot.Weighted>
4.6341

> <Gold.Chemscore.Internal.Correction.Weighted>
   9.000000E+99

> <Gold.Protein.RotatedTorsions>
[ 6907 6896 6895 6894 ] final -144.38 input  -60.11 | X-H torsion
[ 7974 7965 7964 7962 ] final -161.55 input  175.53 | X-H torsion
[ 8008 7997 7996 7995 ] final  143.32 input   59.86 | X-H torsion
[ 10167 10162 10161 10158 ] final -165.80 input  -65.29 | X-H torsion
[ 10718 10713 10712 10709 ] final -145.57 input   66.30 | X-H torsion
[ 10763 10752 10751 10750 ] final   52.81 input  -60.55 | X-H torsion
[ 11005 11000 10999 10996 ] final   35.83 input  -57.11 | X-H torsion

> <Gold.Protein.ActiveResidues>
 VAL166  LYS551  ARG553  GLY616  TRP617  ASP618  TYR619  PRO620  LYS621  CYS622 
 ASP623  PHE694  ASN695  SER759  ASP760  ASP761  ALA762  ILE779  LEU786  VAL792 
 PHE793  MET794  SER795  GLU796  ALA797  LYS798  CYS799  TRP800  GLU811  SER814 

> <Gold.Protein.RotatedAtoms>
  151.1133  133.5157  159.2604 H   0  0  0  0  0  0  0  0  0  0  0  0  # atno 6907 bound_to 6896
  151.1943  135.0415  159.8855 H   0  0  0  0  0  0  0  0  0  0  0  0  # atno 6908 bound_to 6896
  152.5451  134.0969  159.8354 H   0  0  0  0  0  0  0  0  0  0  0  0  # atno 6909 bound_to 6896
  144.7387  140.3381  143.6140 H   0  0  0  0  0  0  0  0  0  0  0  0  # atno 7974 bound_to 7965
  156.2932  140.2265  156.4872 H   0  0  0  0  0  0  0  0  0  0  0  0  # atno 8008 bound_to 7997
  154.7802  140.0461  157.1142 H   0  0  0  0  0  0  0  0  0  0  0  0  # atno 8009 bound_to 7997
  154.9768  140.3073  155.4967 H   0  0  0  0  0  0  0  0  0  0  0  0  # atno 8010 bound_to 7997
  139.6157  144.0724  152.1886 H   0  0  0  0  0  0  0  0  0  0  0  0  # atno 10167 bound_to 10162
  156.3841  130.7852  151.2047 H   0  0  0  0  0  0  0  0  0  0  0  0  # atno 10718 bound_to 10713
  152.9791  135.5800  154.4639 H   0  0  0  0  0  0  0  0  0  0  0  0  # atno 10763 bound_to 10752
  154.4211  135.2771  155.1977 H   0  0  0  0  0  0  0  0  0  0  0  0  # atno 10764 bound_to 10752
  154.3725  135.6164  153.5801 H   0  0  0  0  0  0  0  0  0  0  0  0  # atno 10765 bound_to 10752
  140.2387  134.3441  155.7934 H   0  0  0  0  0  0  0  0  0  0  0  0  # atno 11005 bound_to 11000
  145.7403  139.1762  143.2380 LP  0  0  0  0  0  0  0  0  0  0  0  0  # atno 17320 bound_to 7965
  146.1139  140.7394  142.9490 LP  0  0  0  0  0  0  0  0  0  0  0  0  # atno 17321 bound_to 7965
  140.0354  144.6049  150.7454 LP  0  0  0  0  0  0  0  0  0  0  0  0  # atno 17342 bound_to 10162
  140.7349  143.2735  151.3815 LP  0  0  0  0  0  0  0  0  0  0  0  0  # atno 17343 bound_to 10162
  157.7494  131.0335  150.4276 LP  0  0  0  0  0  0  0  0  0  0  0  0  # atno 17370 bound_to 10713
  156.4525  130.4014  149.6627 LP  0  0  0  0  0  0  0  0  0  0  0  0  # atno 17371 bound_to 10713
  141.2212  133.7286  156.8850 LP  0  0  0  0  0  0  0  0  0  0  0  0  # atno 17394 bound_to 11000
  140.1675  134.9123  157.2792 LP  0  0  0  0  0  0  0  0  0  0  0  0  # atno 17395 bound_to 11000

$$$$
