AV-unprocessed.smi:3245|AV-procd|sdf|12402|dock10
  -GOLD-   2272018283D 1   1.00000     0.00000
 Structure written by MMmdl.
 36 37  0  0  0  0  0  0  0  0  2 V2000
  146.0649  135.6549  153.1380 C   0  0  0  0  0  0  0  0  0  0  0  0
  145.5703  136.6357  152.0664 C   0  0  2  0  0  0  0  0  0  0  0  0
  145.3278  135.9030  150.7286 C   0  0  0  0  0  0  0  0  0  0  0  0
  145.2386  134.4615  150.8791 N   0  0  0  0  0  0  0  0  0  0  0  0
  144.1086  133.6742  150.9455 C   0  0  0  0  0  0  0  0  0  0  0  0
  144.5234  132.3789  151.0656 C   0  0  0  0  0  0  0  0  0  0  0  0
  145.9428  132.4761  151.0694 C   0  0  0  0  0  0  0  0  0  0  0  0
  146.3681  133.7242  150.9569 N   0  0  0  0  0  0  0  0  0  0  0  0
  146.5568  137.7284  151.9069 N   0  3  0  0  0  0  0  0  0  0  0  0
  146.6819  138.6305  153.0701 C   0  0  0  0  0  0  0  0  0  0  0  0
  147.1011  140.0399  152.6279 C   0  0  0  0  0  0  0  0  0  0  0  0
  147.8392  140.7303  153.6881 N   0  0  0  0  0  0  0  0  0  0  0  0
  148.9482  140.2504  154.2662 C   0  0  0  0  0  0  0  0  0  0  0  0
  149.5178  139.1872  154.0228 O   0  0  0  0  0  0  0  0  0  0  0  0
  149.4260  141.2542  155.2926 C   0  0  0  0  0  0  0  0  0  0  0  0
  148.4106  142.2705  155.1165 N   0  0  0  0  0  0  0  0  0  0  0  0
  147.5134  141.9397  154.1789 C   0  0  0  0  0  0  0  0  0  0  0  0
  146.5612  142.6361  153.8304 O   0  0  0  0  0  0  0  0  0  0  0  0
  145.3388  134.8588  153.3062 H   0  0  0  0  0  0  0  0  0  0  0  0
  146.2232  136.1597  154.0915 H   0  0  0  0  0  0  0  0  0  0  0  0
  147.0071  135.1888  152.8470 H   0  0  0  0  0  0  0  0  0  0  0  0
  144.6265  137.0536  152.4212 H   0  0  0  0  0  0  0  0  0  0  0  0
  144.4160  136.2672  150.2517 H   0  0  0  0  0  0  0  0  0  0  0  0
  146.1428  136.1146  150.0352 H   0  0  0  0  0  0  0  0  0  0  0  0
  143.1154  134.0956  150.8973 H   0  0  0  0  0  0  0  0  0  0  0  0
  143.9069  131.4954  151.1411 H   0  0  0  0  0  0  0  0  0  0  0  0
  146.6711  131.6823  151.1472 H   0  0  0  0  0  0  0  0  0  0  0  0
  147.4645  137.3189  151.7392 H   0  0  0  0  0  0  0  0  0  0  0  0
  145.7332  138.6839  153.6036 H   0  0  0  0  0  0  0  0  0  0  0  0
  147.4124  138.2146  153.7652 H   0  0  0  0  0  0  0  0  0  0  0  0
  147.7068  139.9830  151.7218 H   0  0  0  0  0  0  0  0  0  0  0  0
  146.2188  140.6230  152.3580 H   0  0  0  0  0  0  0  0  0  0  0  0
  149.4107  140.8394  156.3009 H   0  0  0  0  0  0  0  0  0  0  0  0
  150.4202  141.6332  155.0542 H   0  0  0  0  0  0  0  0  0  0  0  0
  148.3966  143.1313  155.6443 H   0  0  0  0  0  0  0  0  0  0  0  0
  146.2946  138.2716  151.0964 H   0  0  0  0  0  0  0  0  0  0  0  0
  1  2  1  0  0  0  0
  1 19  1  0  0  0  0
  1 20  1  0  0  0  0
  1 21  1  0  0  0  0
  2  3  1  0  0  0  0
  2  9  1  0  0  0  0
  2 22  1  0  0  0  0
  3  4  1  0  0  0  0
  3 23  1  0  0  0  0
  3 24  1  0  0  0  0
  4  8  1  0  0  0  0
  4  5  1  0  0  0  0
  5  6  2  0  0  0  0
  5 25  1  0  0  0  0
  6  7  1  0  0  0  0
  6 26  1  0  0  0  0
  7  8  2  0  0  0  0
  7 27  1  0  0  0  0
  9 10  1  0  0  0  0
  9 28  1  0  0  0  0
  9 36  1  0  0  0  0
 10 11  1  0  0  0  0
 10 29  1  0  0  0  0
 10 30  1  0  0  0  0
 11 12  1  0  0  0  0
 11 31  1  0  0  0  0
 11 32  1  0  0  0  0
 12 17  1  0  0  0  0
 12 13  1  0  0  0  0
 13 14  2  0  0  0  0
 13 15  1  0  0  0  0
 15 16  1  0  0  0  0
 15 33  1  0  0  0  0
 15 34  1  0  0  0  0
 16 17  1  0  0  0  0
 16 35  1  0  0  0  0
 17 18  2  0  0  0  0
M  CHG  1   9   1
M  END
> <s_m_source_file>
AV-unprocessed.smi

> <i_m_source_file_index>
3245

> <i_lp_mmshare_version>
43012

> <i_f3d_flags>
0

> <s_epik_input>
bjFbY0hdW2NIXVtjSF1uMVtDSDJdW0NAQEhdKFtDSDNdKVtOSF1bQ0gyXVtDSDJdTjJDKD1PKVtDSDJdW05IXUMyPU8=

> <s_epik_cmdline>
J2VwaWtfcHl0aG9uJywgJy1waCcsICc3LjAnLCAnLXRuJywgJzgnLCAnLW1hJywgJzIwMCcsICctbWV0YWxfYmluZGluZycsICctaW1hZScsICc8aW5maWxlLm1hZT4nLCAnLW9tYWUnLCAnPG91dGZpbGUubWFlPic=

> <r_lp_tautomer_probability>
1

> <r_epik_Ionization_Penalty>
0.0160742

> <r_epik_Ionization_Penalty_Charging>
0.0159586

> <r_epik_Ionization_Penalty_Neutral>
0.000115543

> <r_epik_State_Penalty>
0.0125702

> <r_epik_Charging_Adjusted_Penalty>
0.0285288

> <i_epik_Tot_Q>
1

> <i_epik_Tot_abs_Q>
1

> <r_epik_Metal_State_Penalty>
0.0881892

> <b_epik_Metal_Only>
0

> <s_lp_Force_Field>
OPLS_2005

> <r_lp_Energy>
19.7378

> <b_lp_Chiralities_Consistent>
1

> <s_lp_Variant>
AV-unprocessed.smi:3245-1

> <Gold.Version>
5.8.1

> <Gold.Id.Protein>
6NUR|6NUR_protein|mol2

> <Gold.PLP.Fitness>
45.8707

> <Gold.PLP.PLP>
-34.0576

> <Gold.PLP.part.hbond>
-2.0000

> <Gold.PLP.part.metal>
0.0000

> <Gold.PLP.part.buried>
-3.2628

> <Gold.PLP.part.nonpolar>
-30.0422

> <Gold.PLP.part.repulsive>
1.3972

> <Gold.PLP.ligand.clash>
0.0000

> <Gold.PLP.ligand.torsion>
1.3110

> <Gold.PLP.Chemscore.Hbond>
2.8000

> <Gold.PLP.Chemscore.CHOScore>
2.0000

> <Gold.PLP.Chemscore.Metal>
0.0000

> <Gold.Chemscore.Hbonds>
donor molecule, donor type, donor heavy atom, donor atom, acceptor molecule, acceptor atom, score
      L1  H     9    28       P1  7948  2.00
      L1  H    16    35       P1  8028  0.90
      L1  C     5    25       P1 10186  1.00
      L1  C     7    27       P1 10747  0.83

> <Gold.PLP.Chemscore.Internal.Correction>
0.0351

> <Gold.Rescore>
     Score         DG    S(hbond)    S(metal)    S(lipo)     H(rot)  DE(clash)    DE(int)     intcor
      9.22     -11.40       1.80        0.00      59.23       2.74       0.30       1.88       ----

> <Gold.Chemscore.Fitness>
9.2234

> <Gold.Chemscore.DG>
-11.4030

> <Gold.Chemscore.ZeroCoef>
-5.4800

> <Gold.Chemscore.Hbond>
1.7963

> <Gold.Chemscore.Metal>
0.0000

> <Gold.Chemscore.Lipo>
59.2296

> <Gold.Chemscore.Internal_Hbond>
0.0000

> <Gold.Chemscore.DEClash>
0.2996

> <Gold.Chemscore.DEInternal>
1.8800

> <Gold.Chemscore.Rot>
2.7369

> <Gold.Chemscore.Internal.Correction>
   9.000000E+99

> <Gold.Chemscore.Hbonds>
donor molecule, donor type, donor heavy atom, donor atom, acceptor molecule, acceptor atom, score
      L1  H     9    28       P1  7948  1.00
      L1  H    16    35       P1  8028  0.86

> <Gold.Chemscore.Hbond.Weighted>
-5.9996

> <Gold.Chemscore.Metal.Weighted>
-0.0000

> <Gold.Chemscore.Lipo.Weighted>
-6.9299

> <Gold.Chemscore.Internal_Hbond.Weighted>
0.0000

> <Gold.Chemscore.DEClash.Weighted>
0.2996

> <Gold.Chemscore.DEInternal.Weighted>
1.8800

> <Gold.Chemscore.Rot.Weighted>
7.0065

> <Gold.Chemscore.Internal.Correction.Weighted>
   9.000000E+99

> <Gold.Protein.RotatedTorsions>
[ 6907 6896 6895 6894 ] final -172.01 input  -60.11 | X-H torsion
[ 7974 7965 7964 7962 ] final  -33.00 input  175.53 | X-H torsion
[ 8008 7997 7996 7995 ] final  124.26 input   59.86 | X-H torsion
[ 10167 10162 10161 10158 ] final  130.51 input  -65.29 | X-H torsion
[ 10718 10713 10712 10709 ] final  161.10 input   66.30 | X-H torsion
[ 10763 10752 10751 10750 ] final  163.09 input  -60.55 | X-H torsion
[ 11005 11000 10999 10996 ] final  -19.86 input  -57.11 | X-H torsion

> <Gold.Protein.ActiveResidues>
 VAL166  LYS551  ARG553  GLY616  TRP617  ASP618  TYR619  PRO620  LYS621  CYS622 
 ASP623  PHE694  ASN695  SER759  ASP760  ASP761  ALA762  ILE779  LEU786  VAL792 
 PHE793  MET794  SER795  GLU796  ALA797  LYS798  CYS799  TRP800  GLU811  SER814 

> <Gold.Protein.RotatedAtoms>
  151.5330  133.3446  159.2921 H   0  0  0  0  0  0  0  0  0  0  0  0  # atno 6907 bound_to 6896
  150.8582  134.7929  159.7073 H   0  0  0  0  0  0  0  0  0  0  0  0  # atno 6908 bound_to 6896
  152.4609  134.5194  159.9830 H   0  0  0  0  0  0  0  0  0  0  0  0  # atno 6909 bound_to 6896
  146.0945  140.5862  142.8849 H   0  0  0  0  0  0  0  0  0  0  0  0  # atno 7974 bound_to 7965
  156.2795  140.2744  156.1759 H   0  0  0  0  0  0  0  0  0  0  0  0  # atno 8008 bound_to 7997
  155.0607  140.0386  157.2593 H   0  0  0  0  0  0  0  0  0  0  0  0  # atno 8009 bound_to 7997
  154.7120  140.2670  155.6626 H   0  0  0  0  0  0  0  0  0  0  0  0  # atno 8010 bound_to 7997
  139.5427  144.6745  151.4573 H   0  0  0  0  0  0  0  0  0  0  0  0  # atno 10167 bound_to 10162
  157.1412  131.0541  151.2326 H   0  0  0  0  0  0  0  0  0  0  0  0  # atno 10718 bound_to 10713
  154.2884  135.2761  155.2666 H   0  0  0  0  0  0  0  0  0  0  0  0  # atno 10763 bound_to 10752
  154.5155  135.5770  153.6642 H   0  0  0  0  0  0  0  0  0  0  0  0  # atno 10764 bound_to 10752
  152.9918  135.6191  154.3048 H   0  0  0  0  0  0  0  0  0  0  0  0  # atno 10765 bound_to 10752
  140.8408  133.7928  155.9858 H   0  0  0  0  0  0  0  0  0  0  0  0  # atno 11005 bound_to 11000
  144.7385  140.4877  143.6886 LP  0  0  0  0  0  0  0  0  0  0  0  0  # atno 17320 bound_to 7965
  145.5974  139.1501  143.3148 LP  0  0  0  0  0  0  0  0  0  0  0  0  # atno 17321 bound_to 7965
  140.6663  143.8391  150.6946 LP  0  0  0  0  0  0  0  0  0  0  0  0  # atno 17342 bound_to 10162
  140.1801  143.4122  152.1939 LP  0  0  0  0  0  0  0  0  0  0  0  0  # atno 17343 bound_to 10162
  157.4306  130.7488  149.6987 LP  0  0  0  0  0  0  0  0  0  0  0  0  # atno 17370 bound_to 10713
  155.9788  130.4047  150.3625 LP  0  0  0  0  0  0  0  0  0  0  0  0  # atno 17371 bound_to 10713
  140.8897  134.2510  157.5101 LP  0  0  0  0  0  0  0  0  0  0  0  0  # atno 17394 bound_to 11000
  139.8703  134.9656  156.4533 LP  0  0  0  0  0  0  0  0  0  0  0  0  # atno 17395 bound_to 11000

$$$$
