AV-unprocessed.smi:2511|AV-procd|sdf|9889|dock7
  -GOLD-   2272013523D 1   1.00000     0.00000
 Structure written by MMmdl.
 40 41  0  0  0  0  0  0  0  0  1 V2000
  142.6876  132.6604  149.3922 N   0  0  0  0  0  0  0  0  0  0  0  0
  143.9342  132.8117  149.8522 C   0  0  0  0  0  0  0  0  0  0  0  0
  144.8156  131.9801  149.6402 O   0  0  0  0  0  0  0  0  0  0  0  0
  144.2165  134.0814  150.6106 C   0  0  0  0  0  0  0  0  0  0  0  0
  143.2382  134.6169  151.4790 C   0  0  0  0  0  0  0  0  0  0  0  0
  143.5167  135.8086  152.1749 C   0  0  0  0  0  0  0  0  0  0  0  0
  144.7716  136.4340  151.9865 C   0  0  0  0  0  0  0  0  0  0  0  0
  145.1704  137.6437  152.6168 N   0  0  0  0  0  0  0  0  0  0  0  0
  146.2339  138.4263  152.3480 C   0  0  0  0  0  0  0  0  0  0  0  0
  147.0697  138.1977  151.4765 O   0  0  0  0  0  0  0  0  0  0  0  0
  146.3147  139.5309  153.1121 N   0  0  0  0  0  0  0  0  0  0  0  0
  147.3288  140.5907  153.0912 C   0  0  1  0  0  0  0  0  0  0  0  0
  146.8920  141.7557  153.9999 C   0  0  0  0  0  0  0  0  0  0  0  0
  146.9565  141.3846  155.4912 C   0  0  0  0  0  0  0  0  0  0  0  0
  148.3519  140.8726  155.8816 C   0  0  0  0  0  0  0  0  0  0  0  0
  148.7861  139.6771  155.0078 C   0  0  2  0  0  0  0  0  0  0  0  0
  150.1795  139.1461  155.4037 C   0  0  0  0  0  0  0  0  0  0  0  0
  150.1243  138.4833  156.5593 F   0  0  0  0  0  0  0  0  0  0  0  0
  150.6417  138.3269  154.4591 F   0  0  0  0  0  0  0  0  0  0  0  0
  151.0353  140.1606  155.5293 F   0  0  0  0  0  0  0  0  0  0  0  0
  148.7187  140.0618  153.5123 C   0  0  0  0  0  0  0  0  0  0  0  0
  145.6719  135.8339  151.0836 C   0  0  0  0  0  0  0  0  0  0  0  0
  145.4112  134.6909  150.4152 N   0  0  0  0  0  0  0  0  0  0  0  0
  142.4363  131.8283  148.8791 H   0  0  0  0  0  0  0  0  0  0  0  0
  142.0038  133.3828  149.5664 H   0  0  0  0  0  0  0  0  0  0  0  0
  142.2840  134.1286  151.6157 H   0  0  0  0  0  0  0  0  0  0  0  0
  142.7599  136.2200  152.8242 H   0  0  0  0  0  0  0  0  0  0  0  0
  144.5319  137.9968  153.3146 H   0  0  0  0  0  0  0  0  0  0  0  0
  145.5752  139.6552  153.7885 H   0  0  0  0  0  0  0  0  0  0  0  0
  147.3959  140.9827  152.0750 H   0  0  0  0  0  0  0  0  0  0  0  0
  147.5429  142.6122  153.8194 H   0  0  0  0  0  0  0  0  0  0  0  0
  145.8845  142.0820  153.7388 H   0  0  0  0  0  0  0  0  0  0  0  0
  146.6977  142.2522  156.0986 H   0  0  0  0  0  0  0  0  0  0  0  0
  146.2111  140.6209  155.7158 H   0  0  0  0  0  0  0  0  0  0  0  0
  149.0753  141.6835  155.7862 H   0  0  0  0  0  0  0  0  0  0  0  0
  148.3485  140.5866  156.9338 H   0  0  0  0  0  0  0  0  0  0  0  0
  148.0748  138.8674  155.1781 H   0  0  0  0  0  0  0  0  0  0  0  0
  149.0007  139.2096  152.8936 H   0  0  0  0  0  0  0  0  0  0  0  0
  149.4624  140.8332  153.3088 H   0  0  0  0  0  0  0  0  0  0  0  0
  146.6370  136.2808  150.8938 H   0  0  0  0  0  0  0  0  0  0  0  0
  1  2  1  0  0  0  0
  1 24  1  0  0  0  0
  1 25  1  0  0  0  0
  2  3  2  0  0  0  0
  2  4  1  0  0  0  0
  4 23  1  0  0  0  0
  4  5  2  0  0  0  0
  5  6  1  0  0  0  0
  5 26  1  0  0  0  0
  6  7  2  0  0  0  0
  6 27  1  0  0  0  0
  7  8  1  0  0  0  0
  7 22  1  0  0  0  0
  8  9  1  0  0  0  0
  8 28  1  0  0  0  0
  9 10  2  0  0  0  0
  9 11  1  0  0  0  0
 11 12  1  0  0  0  0
 11 29  1  0  0  0  0
 12 21  1  0  0  0  0
 12 13  1  0  0  0  0
 12 30  1  0  0  0  0
 13 14  1  0  0  0  0
 13 31  1  0  0  0  0
 13 32  1  0  0  0  0
 14 15  1  0  0  0  0
 14 33  1  0  0  0  0
 14 34  1  0  0  0  0
 15 16  1  0  0  0  0
 15 35  1  0  0  0  0
 15 36  1  0  0  0  0
 16 17  1  0  0  0  0
 16 21  1  0  0  0  0
 16 37  1  0  0  0  0
 17 18  1  0  0  0  0
 17 19  1  0  0  0  0
 17 20  1  0  0  0  0
 21 38  1  0  0  0  0
 21 39  1  0  0  0  0
 22 23  2  0  0  0  0
 22 40  1  0  0  0  0
M  END
> <s_m_source_file>
AV-unprocessed.smi

> <i_m_source_file_index>
2511

> <i_lp_mmshare_version>
43012

> <i_f3d_flags>
0

> <s_epik_input>
W05IMl1DKD1PKWMxW2NIXVtjSF1jKFtjSF1uMSlbTkhdQyg9TylbTkhdW0NAQEhdMltDSDJdW0NIMl1bQ0gyXVtDQEBIXShDKEYpKEYpRilbQ0gyXTI=

> <s_epik_cmdline>
J2VwaWtfcHl0aG9uJywgJy1waCcsICc3LjAnLCAnLXRuJywgJzgnLCAnLW1hJywgJzIwMCcsICctbWV0YWxfYmluZGluZycsICctaW1hZScsICc8aW5maWxlLm1hZT4nLCAnLW9tYWUnLCAnPG91dGZpbGUubWFlPic=

> <r_lp_tautomer_probability>
1

> <r_epik_Ionization_Penalty>
4.28758e-05

> <r_epik_Ionization_Penalty_Charging>
0

> <r_epik_Ionization_Penalty_Neutral>
4.28758e-05

> <r_epik_State_Penalty>
-0

> <r_epik_Charging_Adjusted_Penalty>
0

> <i_epik_Tot_Q>
0

> <i_epik_Tot_abs_Q>
0

> <r_epik_Metal_State_Penalty>
-0

> <b_epik_Metal_Only>
0

> <s_lp_Force_Field>
OPLS_2005

> <r_lp_Energy>
27.7433

> <b_lp_Chiralities_Consistent>
1

> <s_lp_Variant>
AV-unprocessed.smi:2511-4

> <Gold.Version>
5.8.1

> <Gold.Id.Protein>
6NUR|6NUR_protein|mol2

> <Gold.PLP.Fitness>
43.9389

> <Gold.PLP.PLP>
-34.8785

> <Gold.PLP.part.hbond>
-4.4029

> <Gold.PLP.part.metal>
0.0000

> <Gold.PLP.part.buried>
0.4674

> <Gold.PLP.part.nonpolar>
-35.1289

> <Gold.PLP.part.repulsive>
3.4223

> <Gold.PLP.ligand.clash>
0.0000

> <Gold.PLP.ligand.torsion>
0.9781

> <Gold.PLP.Chemscore.Hbond>
2.6640

> <Gold.PLP.Chemscore.CHOScore>
1.0000

> <Gold.PLP.Chemscore.Metal>
0.0000

> <Gold.Chemscore.Hbonds>
donor molecule, donor type, donor heavy atom, donor atom, acceptor molecule, acceptor atom, score
      L1  H     1    24       P1 10952  0.17
      L1  H     1    25       P1 10186  0.76
      P1  H  7954  7966       L1    10  1.00
      L1  C    22    40       P1  7948  1.00

> <Gold.PLP.Chemscore.Internal.Correction>
0.0246

> <Gold.Rescore>
     Score         DG    S(hbond)    S(metal)    S(lipo)     H(rot)  DE(clash)    DE(int)     intcor
     13.29     -20.40       2.72        0.00      71.81       1.00       4.96       2.15       ----

> <Gold.Chemscore.Fitness>
13.2893

> <Gold.Chemscore.DG>
-20.4007

> <Gold.Chemscore.ZeroCoef>
-5.4800

> <Gold.Chemscore.Hbond>
2.7183

> <Gold.Chemscore.Metal>
0.0000

> <Gold.Chemscore.Lipo>
71.8092

> <Gold.Chemscore.Internal_Hbond>
0.0000

> <Gold.Chemscore.DEClash>
4.9585

> <Gold.Chemscore.DEInternal>
2.1529

> <Gold.Chemscore.Rot>
1.0000

> <Gold.Chemscore.Internal.Correction>
   9.000000E+99

> <Gold.Chemscore.Hbonds>
donor molecule, donor type, donor heavy atom, donor atom, acceptor molecule, acceptor atom, score
      L1  H     1    24       P1 10952  0.17
      L1  H     1    25       P1 10186  0.75
      L1  H    11    29       P1 10175  0.01
      P1  H  7954  7966       L1    10  0.99

> <Gold.Chemscore.Hbond.Weighted>
-9.0790

> <Gold.Chemscore.Metal.Weighted>
-0.0000

> <Gold.Chemscore.Lipo.Weighted>
-8.4017

> <Gold.Chemscore.Internal_Hbond.Weighted>
0.0000

> <Gold.Chemscore.DEClash.Weighted>
4.9585

> <Gold.Chemscore.DEInternal.Weighted>
2.1529

> <Gold.Chemscore.Rot.Weighted>
2.5600

> <Gold.Chemscore.Internal.Correction.Weighted>
   9.000000E+99

> <Gold.Protein.RotatedTorsions>
[ 6907 6896 6895 6894 ] final  151.45 input  -60.11 | X-H torsion
[ 7974 7965 7964 7962 ] final   48.57 input  175.53 | X-H torsion
[ 8008 7997 7996 7995 ] final    4.27 input   59.86 | X-H torsion
[ 10167 10162 10161 10158 ] final   35.43 input  -65.29 | X-H torsion
[ 10718 10713 10712 10709 ] final -159.99 input   66.30 | X-H torsion
[ 10763 10752 10751 10750 ] final  -13.66 input  -60.55 | X-H torsion
[ 11005 11000 10999 10996 ] final -109.54 input  -57.11 | X-H torsion

> <Gold.Protein.ActiveResidues>
 VAL166  LYS551  ARG553  GLY616  TRP617  ASP618  TYR619  PRO620  LYS621  CYS622 
 ASP623  PHE694  ASN695  SER759  ASP760  ASP761  ALA762  ILE779  LEU786  VAL792 
 PHE793  MET794  SER795  GLU796  ALA797  LYS798  CYS799  TRP800  GLU811  SER814 

> <Gold.Protein.RotatedAtoms>
  152.1005  133.4247  159.4584 H   0  0  0  0  0  0  0  0  0  0  0  0  # atno 6907 bound_to 6896
  150.6864  134.2766  159.4619 H   0  0  0  0  0  0  0  0  0  0  0  0  # atno 6908 bound_to 6896
  152.0626  134.9584  160.0625 H   0  0  0  0  0  0  0  0  0  0  0  0  # atno 6909 bound_to 6896
  146.0191  139.4630  142.9908 H   0  0  0  0  0  0  0  0  0  0  0  0  # atno 7974 bound_to 7965
  154.7138  140.2698  155.6604 H   0  0  0  0  0  0  0  0  0  0  0  0  # atno 8008 bound_to 7997
  156.2803  140.2748  156.1712 H   0  0  0  0  0  0  0  0  0  0  0  0  # atno 8009 bound_to 7997
  155.0599  140.0371  157.2563 H   0  0  0  0  0  0  0  0  0  0  0  0  # atno 8010 bound_to 7997
  140.4223  144.1443  150.6149 H   0  0  0  0  0  0  0  0  0  0  0  0  # atno 10167 bound_to 10162
  156.5759  130.8708  151.2851 H   0  0  0  0  0  0  0  0  0  0  0  0  # atno 10718 bound_to 10713
  153.5166  135.7016  153.5753 H   0  0  0  0  0  0  0  0  0  0  0  0  # atno 10763 bound_to 10752
  153.3820  135.3917  155.1864 H   0  0  0  0  0  0  0  0  0  0  0  0  # atno 10764 bound_to 10752
  154.8698  135.3837  154.4650 H   0  0  0  0  0  0  0  0  0  0  0  0  # atno 10765 bound_to 10752
  141.0842  133.9168  157.2222 H   0  0  0  0  0  0  0  0  0  0  0  0  # atno 11005 bound_to 11000
  145.7221  141.0071  143.1397 LP  0  0  0  0  0  0  0  0  0  0  0  0  # atno 17320 bound_to 7965
  144.6983  139.8883  143.7451 LP  0  0  0  0  0  0  0  0  0  0  0  0  # atno 17321 bound_to 7965
  140.4520  143.2483  151.9335 LP  0  0  0  0  0  0  0  0  0  0  0  0  # atno 17342 bound_to 10162
  139.4783  144.5553  151.8324 LP  0  0  0  0  0  0  0  0  0  0  0  0  # atno 17343 bound_to 10162
  157.7337  130.9735  150.1994 LP  0  0  0  0  0  0  0  0  0  0  0  0  # atno 17370 bound_to 10713
  156.2674  130.3718  149.8067 LP  0  0  0  0  0  0  0  0  0  0  0  0  # atno 17371 bound_to 10713
  139.9658  135.0142  156.9384 LP  0  0  0  0  0  0  0  0  0  0  0  0  # atno 17394 bound_to 11000
  140.5401  134.0729  155.7339 LP  0  0  0  0  0  0  0  0  0  0  0  0  # atno 17395 bound_to 11000

$$$$
