#       Name:                AV-unprocessed.smi:1962
#       Creating user name   scv26
#       Creation time:       Fri Mar 27 10:09:09 2020


#       File generated by GOLD software.
#

@<TRIPOS>MOLECULE
AV-unprocessed.smi:1962
    42    43     1
SMALL
NO_CHARGES


@<TRIPOS>ATOM
      1 ****        -3.0051  -1.1586  -1.8469 C.3            1 S1                 0.0000
      2 ****        -2.4412  -0.2895  -0.7149 C.3            1 S1                 0.0000
      3 ****        -2.9167  -0.7863   0.6664 C.3            1 S1                 0.0000
      4 ****        -2.5112   0.0955   1.7472 N.pl3          1 S1                 0.0000
      5 ****        -3.0339   1.3243   2.0909 C.2            1 S1                 0.0000
      6 ****        -2.3227   1.7830   3.1625 C.2            1 S1                 0.0000
      7 ****        -1.3752   0.7498   3.4064 C.2            1 S1                 0.0000
      8 ****        -1.4922  -0.2603   2.5598 N.2            1 S1                 0.0000
      9 ****        -0.9812  -0.2955  -0.7933 N.am           1 S1                 0.0000
     10 ****        -0.1787   0.7762  -0.6508 C.2            1 S1                 0.0000
     11 ****        -0.6057   1.9157  -0.4627 O.2            1 S1                 0.0000
     12 ****         1.2822   0.5067  -0.7187 C.2            1 S1                 0.0000
     13 ****         1.7105  -0.6860  -0.9920 N.2            1 S1                 0.0000
     14 ****         3.0561  -0.9804  -1.0748 N.am           1 S1                 0.0000
     15 ****         3.3636  -2.2902  -1.6456 C.3            1 S1                 0.0000
     16 ****         4.0516  -0.1676  -0.6410 C.2            1 S1                 0.0000
     17 ****         5.2481  -0.4415  -0.7341 O.2            1 S1                 0.0000
     18 ****         3.6217   1.1419   0.0262 C.3            1 S1                 0.0000
     19 ****         2.2599   1.6433  -0.4940 C.3            1 S1                 0.0000
     20 ****        -4.0954  -1.1535  -1.8384 H              1 S1                 0.0000
     21 ****        -2.6764  -2.1943  -1.7549 H              1 S1                 0.0000
     22 ****        -2.6828  -0.7916  -2.8219 H              1 S1                 0.0000
     23 ****        -2.8182   0.7231  -0.8693 H              1 S1                 0.0000
     24 ****        -4.0052  -0.8525   0.6846 H              1 S1                 0.0000
     25 ****        -2.5418  -1.7924   0.8625 H              1 S1                 0.0000
     26 ****        -3.8547   1.7670   1.5461 H              1 S1                 0.0000
     27 ****        -2.4574   2.7152   3.6905 H              1 S1                 0.0000
     28 ****        -0.6114   0.7035   4.1685 H              1 S1                 0.0000
     29 ****        -0.5398  -1.1917  -0.9420 H              1 S1                 0.0000
     30 ****         3.8761  -2.9165  -0.9137 H              1 S1                 0.0000
     31 ****         4.0094  -2.1874  -2.5189 H              1 S1                 0.0000
     32 ****         2.4641  -2.8211  -1.9620 H              1 S1                 0.0000
     33 ****         3.5587   0.9568   1.0992 H              1 S1                 0.0000
     34 ****         4.3869   1.9054  -0.1169 H              1 S1                 0.0000
     35 ****         2.3965   2.1897  -1.4278 H              1 S1                 0.0000
     36 ****         1.8599   2.3593   0.2252 H              1 S1                 0.0000
     37 ****        -0.9483  -1.0989   2.5284 LP             1 S1                 0.0000
     38 ****        -1.5910   2.0780  -0.4095 LP             1 S1                 0.0000
     39 ****         0.0329   2.6788  -0.3632 LP             1 S1                 0.0000
     40 ****         1.0448  -1.4157  -1.1478 LP             1 S1                 0.0000
     41 ****         5.5324  -1.3059  -1.1489 LP             1 S1                 0.0000
     42 ****         5.9359   0.2004  -0.3950 LP             1 S1                 0.0000
@<TRIPOS>BOND
    1    1    2 1     
    2    1   20 1     
    3    1   21 1     
    4    1   22 1     
    5    2    3 1     
    6    2    9 1     
    7    2   23 1     
    8    3    4 1     
    9    3   24 1     
   10    3   25 1     
   11    4    8 1     
   12    4    5 1     
   13    5    6 2     
   14    5   26 1     
   15    6    7 1     
   16    6   27 1     
   17    7    8 2     
   18    7   28 1     
   19    9   10 am    
   20    9   29 1     
   21   10   11 2     
   22   10   12 1     
   23   12   19 1     
   24   12   13 2     
   25   13   14 1     
   26   14   15 1     
   27   14   16 am    
   28   15   30 1     
   29   15   31 1     
   30   15   32 1     
   31   16   17 2     
   32   16   18 1     
   33   18   19 1     
   34   18   33 1     
   35   18   34 1     
   36   19   35 1     
   37   19   36 1     
   38    8   37 1     
   39   11   38 1     
   40   11   39 1     
   41   13   40 1     
   42   17   41 1     
   43   17   42 1     
@<TRIPOS>SUBSTRUCTURE
      1 S1             1
@<TRIPOS>SET
LONE_PAIRS      STATIC     ATOMS    <user>   **** ""
6 37 38 39 40 41 42
DONOR_HYDROGENS      STATIC     ATOMS    <user>   **** ""
1 29
ATOM$BLUE        STATIC     ATOMS    COLORGROUP SYSTEM
6 37 38 39 40 41 42
ATOM$RED        STATIC     ATOMS    COLORGROUP SYSTEM
1 29
