AV-unprocessed.smi:2729|AV-procd|sdf|10527|dock9
  -GOLD-   2272014573D 1   1.00000     0.00000
 Structure written by MMmdl.
 33 34  0  0  0  0  0  0  0  0  1 V2000
  150.3986  132.3376  154.8511 C   0  0  0  0  0  0  0  0  0  0  0  0
  149.7614  133.7165  155.1222 C   0  0  2  0  0  0  0  0  0  0  0  0
  148.9003  134.1147  153.9995 N   0  0  0  0  0  0  0  0  0  0  0  0
  147.8516  133.4571  153.4783 C   0  0  0  0  0  0  0  0  0  0  0  0
  147.4334  132.3813  153.9044 O   0  0  0  0  0  0  0  0  0  0  0  0
  147.3213  134.1411  152.4503 N   0  0  0  0  0  0  0  0  0  0  0  0
  146.2242  133.7826  151.6215 C   0  0  0  0  0  0  0  0  0  0  0  0
  145.8996  132.4522  151.2607 C   0  0  0  0  0  0  0  0  0  0  0  0
  144.7978  132.2278  150.4131 C   0  0  0  0  0  0  0  0  0  0  0  0
  144.0662  133.3394  149.9525 C   0  0  0  0  0  0  0  0  0  0  0  0
  144.3721  134.6131  150.2772 N   0  0  0  0  0  0  0  0  0  0  0  0
  145.4304  134.8207  151.0894 C   0  0  0  0  0  0  0  0  0  0  0  0
  150.8369  134.7976  155.4118 C   0  0  0  0  0  0  0  0  0  0  0  0
  150.1743  136.0219  156.0542 C   0  0  0  0  0  0  0  0  0  0  0  0
  148.7802  135.3657  157.0414 S   0  0  0  0  0  0  0  0  0  0  0  0
  149.1450  135.3516  158.4662 O   0  0  0  0  0  0  0  0  0  0  0  0
  147.5337  135.9987  156.5844 O   0  0  0  0  0  0  0  0  0  0  0  0
  148.8736  133.6562  156.3817 C   0  0  0  0  0  0  0  0  0  0  0  0
  150.9809  131.9965  155.7077 H   0  0  0  0  0  0  0  0  0  0  0  0
  151.0752  132.3598  153.9969 H   0  0  0  0  0  0  0  0  0  0  0  0
  149.6369  131.5828  154.6523 H   0  0  0  0  0  0  0  0  0  0  0  0
  149.1425  134.9913  153.5612 H   0  0  0  0  0  0  0  0  0  0  0  0
  147.7192  135.0513  152.2698 H   0  0  0  0  0  0  0  0  0  0  0  0
  146.4770  131.6067  151.6008 H   0  0  0  0  0  0  0  0  0  0  0  0
  144.5229  131.2259  150.1186 H   0  0  0  0  0  0  0  0  0  0  0  0
  143.2161  133.2023  149.3007 H   0  0  0  0  0  0  0  0  0  0  0  0
  145.6469  135.8525  151.3252 H   0  0  0  0  0  0  0  0  0  0  0  0
  151.5535  134.3909  156.1268 H   0  0  0  0  0  0  0  0  0  0  0  0
  151.4181  135.0754  154.5329 H   0  0  0  0  0  0  0  0  0  0  0  0
  150.8538  136.5906  156.6892 H   0  0  0  0  0  0  0  0  0  0  0  0
  149.7674  136.6875  155.2926 H   0  0  0  0  0  0  0  0  0  0  0  0
  147.8714  133.2670  156.1981 H   0  0  0  0  0  0  0  0  0  0  0  0
  149.3359  133.0399  157.1538 H   0  0  0  0  0  0  0  0  0  0  0  0
  1  2  1  0  0  0  0
  1 19  1  0  0  0  0
  1 20  1  0  0  0  0
  1 21  1  0  0  0  0
  2 18  1  0  0  0  0
  2  3  1  0  0  0  0
  2 13  1  0  0  0  0
  3  4  1  0  0  0  0
  3 22  1  0  0  0  0
  4  5  2  0  0  0  0
  4  6  1  0  0  0  0
  6  7  1  0  0  0  0
  6 23  1  0  0  0  0
  7 12  1  0  0  0  0
  7  8  2  0  0  0  0
  8  9  1  0  0  0  0
  8 24  1  0  0  0  0
  9 10  2  0  0  0  0
  9 25  1  0  0  0  0
 10 11  1  0  0  0  0
 10 26  1  0  0  0  0
 11 12  2  0  0  0  0
 12 27  1  0  0  0  0
 13 14  1  0  0  0  0
 13 28  1  0  0  0  0
 13 29  1  0  0  0  0
 14 15  1  0  0  0  0
 14 30  1  0  0  0  0
 14 31  1  0  0  0  0
 15 16  2  0  0  0  0
 15 17  2  0  0  0  0
 15 18  1  0  0  0  0
 18 32  1  0  0  0  0
 18 33  1  0  0  0  0
M  END
> <s_m_source_file>
AV-unprocessed.smi

> <i_m_source_file_index>
2729

> <i_lp_mmshare_version>
43012

> <i_f3d_flags>
0

> <s_epik_input>
Tz1TKD1PKShbQ0gyXTEpW0NIMl1bQ0gyXVtDQEBdMShbQ0gzXSlbTkhdQyg9TylbTkhdYzJbY0hdW2NIXVtjSF1uW2NIXTI=

> <s_epik_cmdline>
J2VwaWtfcHl0aG9uJywgJy1waCcsICc3LjAnLCAnLXRuJywgJzgnLCAnLW1hJywgJzIwMCcsICctbWV0YWxfYmluZGluZycsICctaW1hZScsICc8aW5maWxlLm1hZT4nLCAnLW9tYWUnLCAnPG91dGZpbGUubWFlPic=

> <r_epik_Ionization_Penalty>
0.00438887

> <r_epik_Ionization_Penalty_Charging>
0

> <r_epik_Ionization_Penalty_Neutral>
0.00438887

> <r_epik_State_Penalty>
0.00314315

> <r_epik_Charging_Adjusted_Penalty>
0.00314315

> <i_epik_Tot_Q>
0

> <i_epik_Tot_abs_Q>
0

> <r_epik_Metal_State_Penalty>
-0

> <b_epik_Metal_Only>
0

> <s_lp_Force_Field>
OPLS_2005

> <r_lp_Energy>
5.04322

> <b_lp_Chiralities_Consistent>
1

> <s_lp_Variant>
AV-unprocessed.smi:2729-2

> <Gold.Version>
5.8.1

> <Gold.Id.Protein>
6NUR|6NUR_protein|mol2

> <Gold.PLP.Fitness>
35.2298

> <Gold.PLP.PLP>
-24.5426

> <Gold.PLP.part.hbond>
-2.9694

> <Gold.PLP.part.metal>
0.0000

> <Gold.PLP.part.buried>
-4.8155

> <Gold.PLP.part.nonpolar>
-16.5711

> <Gold.PLP.part.repulsive>
0.3096

> <Gold.PLP.ligand.clash>
0.0000

> <Gold.PLP.ligand.torsion>
0.2209

> <Gold.PLP.Chemscore.Hbond>
2.8207

> <Gold.PLP.Chemscore.CHOScore>
0.8841

> <Gold.PLP.Chemscore.Metal>
0.0000

> <Gold.Chemscore.Hbonds>
donor molecule, donor type, donor heavy atom, donor atom, acceptor molecule, acceptor atom, score
      L1  H     3    22       P1  7948  0.79
      L1  H     6    23       P1  7948  1.00
      P1  H  6896  6907       L1    16  1.00
      L1  C    10    26       P1 10186  0.89

> <Gold.PLP.Chemscore.Internal.Correction>
0.0150

> <Gold.Rescore>
     Score         DG    S(hbond)    S(metal)    S(lipo)     H(rot)  DE(clash)    DE(int)     intcor
     16.55     -16.83       2.10        0.00      59.05       1.00       0.00       0.28       ----

> <Gold.Chemscore.Fitness>
16.5467

> <Gold.Chemscore.DG>
-16.8321

> <Gold.Chemscore.ZeroCoef>
-5.4800

> <Gold.Chemscore.Hbond>
2.0968

> <Gold.Chemscore.Metal>
0.0000

> <Gold.Chemscore.Lipo>
59.0494

> <Gold.Chemscore.Internal_Hbond>
0.0000

> <Gold.Chemscore.DEClash>
0.0015

> <Gold.Chemscore.DEInternal>
0.2839

> <Gold.Chemscore.Rot>
1.0000

> <Gold.Chemscore.Internal.Correction>
   9.000000E+99

> <Gold.Chemscore.Hbonds>
donor molecule, donor type, donor heavy atom, donor atom, acceptor molecule, acceptor atom, score
      L1  H     3    22       P1  7948  0.17
      L1  H     6    23       P1  7948  0.93
      P1  H  6896  6907       L1    16  0.94

> <Gold.Chemscore.Hbond.Weighted>
-7.0033

> <Gold.Chemscore.Metal.Weighted>
-0.0000

> <Gold.Chemscore.Lipo.Weighted>
-6.9088

> <Gold.Chemscore.Internal_Hbond.Weighted>
0.0000

> <Gold.Chemscore.DEClash.Weighted>
0.0015

> <Gold.Chemscore.DEInternal.Weighted>
0.2839

> <Gold.Chemscore.Rot.Weighted>
2.5600

> <Gold.Chemscore.Internal.Correction.Weighted>
   9.000000E+99

> <Gold.Protein.RotatedTorsions>
[ 6907 6896 6895 6894 ] final  -75.08 input  -60.11 | X-H torsion
[ 7974 7965 7964 7962 ] final   75.43 input  175.53 | X-H torsion
[ 8008 7997 7996 7995 ] final -128.98 input   59.86 | X-H torsion
[ 10167 10162 10161 10158 ] final  -51.71 input  -65.29 | X-H torsion
[ 10718 10713 10712 10709 ] final  -83.61 input   66.30 | X-H torsion
[ 10763 10752 10751 10750 ] final -152.35 input  -60.55 | X-H torsion
[ 11005 11000 10999 10996 ] final -147.98 input  -57.11 | X-H torsion

> <Gold.Protein.ActiveResidues>
 VAL166  LYS551  ARG553  GLY616  TRP617  ASP618  TYR619  PRO620  LYS621  CYS622 
 ASP623  PHE694  ASN695  SER759  ASP760  ASP761  ALA762  ILE779  LEU786  VAL792 
 PHE793  MET794  SER795  GLU796  ALA797  LYS798  CYS799  TRP800  GLU811  SER814 

> <Gold.Protein.RotatedAtoms>
  150.7071  134.4773  159.5453 H   0  0  0  0  0  0  0  0  0  0  0  0  # atno 6907 bound_to 6896
  152.2417  134.8218  160.0468 H   0  0  0  0  0  0  0  0  0  0  0  0  # atno 6908 bound_to 6896
  151.8998  133.3500  159.3863 H   0  0  0  0  0  0  0  0  0  0  0  0  # atno 6909 bound_to 6896
  145.7157  139.2630  143.1625 H   0  0  0  0  0  0  0  0  0  0  0  0  # atno 7974 bound_to 7965
  155.2717  140.0440  157.3007 H   0  0  0  0  0  0  0  0  0  0  0  0  # atno 8008 bound_to 7997
  154.5649  140.2357  155.8247 H   0  0  0  0  0  0  0  0  0  0  0  0  # atno 8009 bound_to 7997
  156.2077  140.3008  155.9671 H   0  0  0  0  0  0  0  0  0  0  0  0  # atno 8010 bound_to 7997
  140.6575  143.2610  151.4543 H   0  0  0  0  0  0  0  0  0  0  0  0  # atno 10167 bound_to 10162
  156.0016  130.4671  150.4284 H   0  0  0  0  0  0  0  0  0  0  0  0  # atno 10718 bound_to 10713
  154.8000  135.3238  154.7574 H   0  0  0  0  0  0  0  0  0  0  0  0  # atno 10763 bound_to 10752
  153.8244  135.6885  153.4827 H   0  0  0  0  0  0  0  0  0  0  0  0  # atno 10764 bound_to 10752
  153.1711  135.4623  154.9846 H   0  0  0  0  0  0  0  0  0  0  0  0  # atno 10765 bound_to 10752
  140.7660  134.3243  157.5088 H   0  0  0  0  0  0  0  0  0  0  0  0  # atno 11005 bound_to 11000
  146.0672  140.7908  142.9706 LP  0  0  0  0  0  0  0  0  0  0  0  0  # atno 17320 bound_to 7965
  144.6930  140.3286  143.7220 LP  0  0  0  0  0  0  0  0  0  0  0  0  # atno 17321 bound_to 7965
  139.5800  144.1731  152.1955 LP  0  0  0  0  0  0  0  0  0  0  0  0  # atno 17342 bound_to 10162
  140.1053  144.5504  150.6961 LP  0  0  0  0  0  0  0  0  0  0  0  0  # atno 17343 bound_to 10162
  157.2335  131.0509  151.2478 LP  0  0  0  0  0  0  0  0  0  0  0  0  # atno 17370 bound_to 10713
  157.3688  130.7170  149.6551 LP  0  0  0  0  0  0  0  0  0  0  0  0  # atno 17371 bound_to 10713
  139.8763  134.9231  156.3318 LP  0  0  0  0  0  0  0  0  0  0  0  0  # atno 17394 bound_to 11000
  140.9618  133.7383  156.0412 LP  0  0  0  0  0  0  0  0  0  0  0  0  # atno 17395 bound_to 11000

$$$$
