AV-unprocessed.smi:255|AV-procd|sdf|1949|dock7
  -GOLD-   2262021 83D 1   1.00000     0.00000
 Structure written by MMmdl.
 44 47  0  0  0  0  0  0  0  0  1 V2000
  152.5688  139.9576  155.0676 O   0  0  0  0  0  0  0  0  0  0  0  0
  151.1906  140.1103  155.3341 C   0  0  0  0  0  0  0  0  0  0  0  0
  150.9755  140.8804  156.6509 C   0  0  2  0  0  0  0  0  0  0  0  0
  150.9775  142.3984  156.4654 C   0  0  0  0  0  0  0  0  0  0  0  0
  151.2311  142.8821  157.8880 C   0  0  2  0  0  0  0  0  0  0  0  0
  151.7349  144.1152  157.9271 F   0  0  0  0  0  0  0  0  0  0  0  0
  152.1910  141.8343  158.4578 C   0  0  0  0  0  0  0  0  0  0  0  0
  152.0375  140.6416  157.6267 N   0  0  0  0  0  0  0  0  0  0  0  0
  151.9404  139.4724  158.2975 C   0  0  0  0  0  0  0  0  0  0  0  0
  150.7369  138.8531  158.4215 N   0  0  0  0  0  0  0  0  0  0  0  0
  150.6516  137.6875  159.0704 C   0  0  0  0  0  0  0  0  0  0  0  0
  151.6241  136.9841  159.6555 N   0  0  0  0  0  0  0  0  0  0  0  0
  152.8320  137.6059  159.5290 C   0  0  0  0  0  0  0  0  0  0  0  0
  153.0759  138.8412  158.8673 C   0  0  0  0  0  0  0  0  0  0  0  0
  154.4263  139.1589  158.9282 N   0  0  0  0  0  0  0  0  0  0  0  0
  154.9524  138.1684  159.5964 C   0  0  0  0  0  0  0  0  0  0  0  0
  154.0660  137.1952  160.0021 N   0  0  0  0  0  0  0  0  0  0  0  0
  154.3802  135.9937  160.7597 C   0  0  0  0  0  0  0  0  0  0  0  0
  154.5597  136.2538  162.2735 C   0  0  1  0  0  0  0  0  0  0  0  0
  155.7333  137.0237  162.4713 O   0  0  0  0  0  0  0  0  0  0  0  0
  153.3868  136.9797  162.9267 C   0  0  0  0  0  0  0  0  0  0  0  0
  153.3884  136.4217  164.3428 C   0  0  0  0  0  0  0  0  0  0  0  0
  153.6956  135.0540  164.1336 O   0  0  0  0  0  0  0  0  0  0  0  0
  154.6785  134.9621  163.1072 C   0  0  0  0  0  0  0  0  0  0  0  0
  150.0103  140.6040  157.0803 H   0  0  0  0  0  0  0  0  0  0  0  0
  150.2988  142.8861  158.4544 H   0  0  0  0  0  0  0  0  0  0  0  0
  152.7018  140.0153  154.1337 H   0  0  0  0  0  0  0  0  0  0  0  0
  150.6899  140.5964  154.4958 H   0  0  0  0  0  0  0  0  0  0  0  0
  150.7716  139.1072  155.4182 H   0  0  0  0  0  0  0  0  0  0  0  0
  151.7977  142.7016  155.8124 H   0  0  0  0  0  0  0  0  0  0  0  0
  150.0462  142.7797  156.0456 H   0  0  0  0  0  0  0  0  0  0  0  0
  153.2222  142.1740  158.3576 H   0  0  0  0  0  0  0  0  0  0  0  0
  152.0080  141.6601  159.5189 H   0  0  0  0  0  0  0  0  0  0  0  0
  149.6632  137.2560  159.1278 H   0  0  0  0  0  0  0  0  0  0  0  0
  156.0086  138.1219  159.8188 H   0  0  0  0  0  0  0  0  0  0  0  0
  153.5819  135.2687  160.5961 H   0  0  0  0  0  0  0  0  0  0  0  0
  155.2849  135.5503  160.3414 H   0  0  0  0  0  0  0  0  0  0  0  0
  155.7497  137.3190  163.3691 H   0  0  0  0  0  0  0  0  0  0  0  0
  153.4628  138.0674  162.8894 H   0  0  0  0  0  0  0  0  0  0  0  0
  152.4509  136.6952  162.4442 H   0  0  0  0  0  0  0  0  0  0  0  0
  154.1663  136.8881  164.9494 H   0  0  0  0  0  0  0  0  0  0  0  0
  152.4307  136.5473  164.8482 H   0  0  0  0  0  0  0  0  0  0  0  0
  154.4892  134.0664  162.5146 H   0  0  0  0  0  0  0  0  0  0  0  0
  155.6667  134.8517  163.5568 H   0  0  0  0  0  0  0  0  0  0  0  0
  1  2  1  0  0  0  0
  1 27  1  0  0  0  0
  2  3  1  0  0  0  0
  2 28  1  0  0  0  0
  2 29  1  0  0  0  0
  3 25  1  0  0  0  0
  3  8  1  0  0  0  0
  3  4  1  0  0  0  0
  4  5  1  0  0  0  0
  4 30  1  0  0  0  0
  4 31  1  0  0  0  0
  5 26  1  0  0  0  0
  5  6  1  0  0  0  0
  5  7  1  0  0  0  0
  7  8  1  0  0  0  0
  7 32  1  0  0  0  0
  7 33  1  0  0  0  0
  8  9  1  0  0  0  0
  9 14  1  0  0  0  0
  9 10  2  0  0  0  0
 10 11  1  0  0  0  0
 11 12  2  0  0  0  0
 11 34  1  0  0  0  0
 12 13  1  0  0  0  0
 13 17  1  0  0  0  0
 13 14  2  0  0  0  0
 14 15  1  0  0  0  0
 15 16  2  0  0  0  0
 16 17  1  0  0  0  0
 16 35  1  0  0  0  0
 17 18  1  0  0  0  0
 18 19  1  0  0  0  0
 18 36  1  0  0  0  0
 18 37  1  0  0  0  0
 19 24  1  0  0  0  0
 19 20  1  0  0  0  0
 19 21  1  0  0  0  0
 20 38  1  0  0  0  0
 21 22  1  0  0  0  0
 21 39  1  0  0  0  0
 21 40  1  0  0  0  0
 22 23  1  0  0  0  0
 22 41  1  0  0  0  0
 22 42  1  0  0  0  0
 23 24  1  0  0  0  0
 24 43  1  0  0  0  0
 24 44  1  0  0  0  0
M  END
> <s_m_source_file>
AV-unprocessed.smi

> <i_m_source_file_index>
255

> <i_lp_mmshare_version>
43012

> <i_f3d_flags>
0

> <s_epik_input>
W09IXVtDSDJdW0NAQEhdMVtDSDJdW0NASF0oRilbQ0gyXU4xYyhuW2NIXW4yKWMoYzIzKW5bY0hdbjNbQ0gyXVtDQEBdNChbT0hdKVtDSDJdW0NIMl1PW0NIMl00

> <s_epik_cmdline>
J2VwaWtfcHl0aG9uJywgJy1waCcsICc3LjAnLCAnLXRuJywgJzgnLCAnLW1hJywgJzIwMCcsICctbWV0YWxfYmluZGluZycsICctaW1hZScsICc8aW5maWxlLm1hZT4nLCAnLW9tYWUnLCAnPG91dGZpbGUubWFlPic=

> <r_lp_tautomer_probability>
1

> <r_epik_Ionization_Penalty>
0.0058098

> <r_epik_Ionization_Penalty_Charging>
0

> <r_epik_Ionization_Penalty_Neutral>
0.0058098

> <r_epik_State_Penalty>
0.00411166

> <r_epik_Charging_Adjusted_Penalty>
0.00411166

> <i_epik_Tot_Q>
0

> <i_epik_Tot_abs_Q>
0

> <r_epik_Metal_State_Penalty>
-0

> <b_epik_Metal_Only>
0

> <s_lp_Force_Field>
OPLS_2005

> <r_lp_Energy>
52.3254

> <b_lp_Chiralities_Consistent>
1

> <s_lp_Variant>
AV-unprocessed.smi:255-1

> <Gold.Version>
5.8.1

> <Gold.Id.Protein>
6NUR|6NUR_protein|mol2

> <Gold.PLP.Fitness>
47.5858

> <Gold.PLP.PLP>
-40.8589

> <Gold.PLP.part.hbond>
-4.0000

> <Gold.PLP.part.metal>
0.0000

> <Gold.PLP.part.buried>
-3.8526

> <Gold.PLP.part.nonpolar>
-32.3821

> <Gold.PLP.part.repulsive>
0.0788

> <Gold.PLP.ligand.clash>
0.0000

> <Gold.PLP.ligand.torsion>
1.1784

> <Gold.PLP.Chemscore.Hbond>
3.0000

> <Gold.PLP.Chemscore.CHOScore>
0.0000

> <Gold.PLP.Chemscore.Metal>
0.0000

> <Gold.Chemscore.Hbonds>
donor molecule, donor type, donor heavy atom, donor atom, acceptor molecule, acceptor atom, score
      P1  H  6896  6908       L1    12  1.00
      P1  H  7997  8009       L1    15  0.89
      P1  H  7997  8010       L1     1  0.93

> <Gold.PLP.Chemscore.Internal.Correction>
0.0836

> <Gold.Rescore>
     Score         DG    S(hbond)    S(metal)    S(lipo)     H(rot)  DE(clash)    DE(int)     intcor
     14.03     -15.65       2.72        0.00      82.20       3.33       0.52       1.10       ----

> <Gold.Chemscore.Fitness>
14.0317

> <Gold.Chemscore.DG>
-15.6519

> <Gold.Chemscore.ZeroCoef>
-5.4800

> <Gold.Chemscore.Hbond>
2.7163

> <Gold.Chemscore.Metal>
0.0000

> <Gold.Chemscore.Lipo>
82.2002

> <Gold.Chemscore.Internal_Hbond>
0.0000

> <Gold.Chemscore.DEClash>
0.5193

> <Gold.Chemscore.DEInternal>
1.1009

> <Gold.Chemscore.Rot>
3.3273

> <Gold.Chemscore.Internal.Correction>
   9.000000E+99

> <Gold.Chemscore.Hbonds>
donor molecule, donor type, donor heavy atom, donor atom, acceptor molecule, acceptor atom, score
      P1  H  6896  6908       L1    12  0.95
      P1  H  7997  8009       L1    15  0.81
      P1  H  7997  8010       L1     1  0.49

> <Gold.Chemscore.Hbond.Weighted>
-9.0724

> <Gold.Chemscore.Metal.Weighted>
-0.0000

> <Gold.Chemscore.Lipo.Weighted>
-9.6174

> <Gold.Chemscore.Internal_Hbond.Weighted>
0.0000

> <Gold.Chemscore.DEClash.Weighted>
0.5193

> <Gold.Chemscore.DEInternal.Weighted>
1.1009

> <Gold.Chemscore.Rot.Weighted>
8.5179

> <Gold.Chemscore.Internal.Correction.Weighted>
   9.000000E+99

> <Gold.Protein.RotatedTorsions>
[ 6907 6896 6895 6894 ] final -135.05 input  -60.11 | X-H torsion
[ 7974 7965 7964 7962 ] final   23.12 input  175.53 | X-H torsion
[ 8008 7997 7996 7995 ] final  101.61 input   59.86 | X-H torsion
[ 10167 10162 10161 10158 ] final -172.59 input  -65.29 | X-H torsion
[ 10718 10713 10712 10709 ] final  -53.08 input   66.30 | X-H torsion
[ 10763 10752 10751 10750 ] final  156.22 input  -60.55 | X-H torsion
[ 11005 11000 10999 10996 ] final  131.18 input  -57.11 | X-H torsion

> <Gold.Protein.ActiveResidues>
 VAL166  LYS551  ARG553  GLY616  TRP617  ASP618  TYR619  PRO620  LYS621  CYS622 
 ASP623  PHE694  ASN695  SER759  ASP760  ASP761  ALA762  ILE779  LEU786  VAL792 
 PHE793  MET794  SER795  GLU796  ALA797  LYS798  CYS799  TRP800  GLU811  SER814 

> <Gold.Protein.RotatedAtoms>
  150.9932  133.6129  159.2705 H   0  0  0  0  0  0  0  0  0  0  0  0  # atno 6907 bound_to 6896
  151.3342  135.0848  159.9359 H   0  0  0  0  0  0  0  0  0  0  0  0  # atno 6908 bound_to 6896
  152.5252  133.9556  159.7747 H   0  0  0  0  0  0  0  0  0  0  0  0  # atno 6909 bound_to 6896
  146.1999  139.7790  142.8769 H   0  0  0  0  0  0  0  0  0  0  0  0  # atno 7974 bound_to 7965
  156.1316  140.3194  155.8357 H   0  0  0  0  0  0  0  0  0  0  0  0  # atno 8008 bound_to 7997
  155.4321  140.0519  157.3035 H   0  0  0  0  0  0  0  0  0  0  0  0  # atno 8009 bound_to 7997
  154.4904  140.2090  155.9575 H   0  0  0  0  0  0  0  0  0  0  0  0  # atno 8010 bound_to 7997
  139.5736  144.1584  152.1419 H   0  0  0  0  0  0  0  0  0  0  0  0  # atno 10167 bound_to 10162
  156.1566  130.4150  149.9860 H   0  0  0  0  0  0  0  0  0  0  0  0  # atno 10718 bound_to 10713
  154.1809  135.2799  155.3052 H   0  0  0  0  0  0  0  0  0  0  0  0  # atno 10763 bound_to 10752
  154.6003  135.5531  153.7371 H   0  0  0  0  0  0  0  0  0  0  0  0  # atno 10764 bound_to 10752
  153.0138  135.6390  154.1948 H   0  0  0  0  0  0  0  0  0  0  0  0  # atno 10765 bound_to 10752
  139.9715  134.9576  156.9400 H   0  0  0  0  0  0  0  0  0  0  0  0  # atno 11005 bound_to 11000
  145.3520  141.0309  143.3333 LP  0  0  0  0  0  0  0  0  0  0  0  0  # atno 17320 bound_to 7965
  144.8660  139.5107  143.6790 LP  0  0  0  0  0  0  0  0  0  0  0  0  # atno 17321 bound_to 7965
  140.1122  144.5447  150.6917 LP  0  0  0  0  0  0  0  0  0  0  0  0  # atno 17342 bound_to 10162
  140.7020  143.2441  151.4837 LP  0  0  0  0  0  0  0  0  0  0  0  0  # atno 17343 bound_to 10162
  156.7702  130.9183  151.3644 LP  0  0  0  0  0  0  0  0  0  0  0  0  # atno 17370 bound_to 10713
  157.6699  130.9042  150.0017 LP  0  0  0  0  0  0  0  0  0  0  0  0  # atno 17371 bound_to 10713
  140.5284  134.0838  155.7309 LP  0  0  0  0  0  0  0  0  0  0  0  0  # atno 17394 bound_to 11000
  141.1394  133.9164  157.2360 LP  0  0  0  0  0  0  0  0  0  0  0  0  # atno 17395 bound_to 11000

$$$$
