#       Name:                AV-unprocessed.smi:1525
#       Creating user name   scv26
#       Creation time:       Fri Mar 27 06:28:50 2020


#       File generated by GOLD software.
#

@<TRIPOS>MOLECULE
AV-unprocessed.smi:1525
    55    57     1
SMALL
NO_CHARGES


@<TRIPOS>ATOM
      1 ****         0.4371   2.6416  -0.0818 O.2            1 S1                 0.0000
      2 ****        -0.0689   1.5253  -0.1958 C.2            1 S1                 0.0000
      3 ****         0.6487   0.3975  -0.2818 N.am           1 S1                 0.0000
      4 ****         2.1039   0.3496  -0.2449 C.3            1 S1                 0.0000
      5 ****         2.6091  -1.0623  -0.5838 C.3            1 S1                 0.0000
      6 ****         4.0913  -1.1430  -0.5967 N.4            1 S1                 1.0000
      7 ****         4.6977  -1.1405   0.7580 C.3            1 S1                 0.0000
      8 ****         6.2320  -1.1891   0.6613 C.3            1 S1                 0.0000
      9 ****         6.6285  -2.3359  -0.0802 O.3            1 S1                 0.0000
     10 ****         6.1272  -2.3072  -1.4105 C.3            1 S1                 0.0000
     11 ****         4.5892  -2.2980  -1.3816 C.3            1 S1                 0.0000
     12 ****        -1.3873   1.2681  -0.2294 N.am           1 S1                 0.0000
     13 ****        -2.4703   2.1895  -0.1445 C.ar           1 S1                 0.0000
     14 ****        -2.3587   3.5193  -0.6202 C.ar           1 S1                 0.0000
     15 ****        -3.4550   4.3904  -0.4979 C.ar           1 S1                 0.0000
     16 ****        -4.6302   3.9003   0.0947 C.ar           1 S1                 0.0000
     17 ****        -4.7591   2.6332   0.5357 N.ar           1 S1                 0.0000
     18 ****        -3.7152   1.7769   0.4115 C.ar           1 S1                 0.0000
     19 ****        -3.9142   0.4548   0.8699 N.3            1 S1                 0.0000
     20 ****        -3.7442  -0.6316  -0.0903 C.3            1 S1                 0.0000
     21 ****        -4.8038  -1.6842   0.2539 C.3            1 S1                 0.0000
     22 ****        -5.1562  -1.3798   1.7066 C.3            1 S1                 0.0000
     23 ****        -5.0272   0.1398   1.7593 C.3            1 S1                 0.0000
     24 ****         0.1571  -0.4803  -0.3675 H              1 S1                 0.0000
     25 ****         2.5135   1.0704  -0.9548 H              1 S1                 0.0000
     26 ****         2.4288   0.6556   0.7496 H              1 S1                 0.0000
     27 ****         2.2046  -1.7985   0.1127 H              1 S1                 0.0000
     28 ****         2.2303  -1.3296  -1.5716 H              1 S1                 0.0000
     29 ****         4.4023  -0.2482   1.3087 H              1 S1                 0.0000
     30 ****         4.3344  -1.9999   1.3238 H              1 S1                 0.0000
     31 ****         6.6222  -0.2841   0.1927 H              1 S1                 0.0000
     32 ****         6.6692  -1.2446   1.6584 H              1 S1                 0.0000
     33 ****         6.5133  -1.4341  -1.9392 H              1 S1                 0.0000
     34 ****         6.4882  -3.1874  -1.9429 H              1 S1                 0.0000
     35 ****         4.2178  -3.2261  -0.9440 H              1 S1                 0.0000
     36 ****         4.2055  -2.2480  -2.4014 H              1 S1                 0.0000
     37 ****        -1.6511   0.2939  -0.2211 H              1 S1                 0.0000
     38 ****        -1.4552   3.8835  -1.0845 H              1 S1                 0.0000
     39 ****        -3.3951   5.4098  -0.8490 H              1 S1                 0.0000
     40 ****        -5.4928   4.5396   0.2101 H              1 S1                 0.0000
     41 ****        -3.8430  -0.2894  -1.1216 H              1 S1                 0.0000
     42 ****        -2.7474  -1.0553   0.0332 H              1 S1                 0.0000
     43 ****        -5.6840  -1.5372  -0.3734 H              1 S1                 0.0000
     44 ****        -4.4514  -2.7052   0.1050 H              1 S1                 0.0000
     45 ****        -6.1477  -1.7331   1.9909 H              1 S1                 0.0000
     46 ****        -4.4253  -1.8416   2.3720 H              1 S1                 0.0000
     47 ****        -4.8388   0.4962   2.7724 H              1 S1                 0.0000
     48 ****        -5.9524   0.5938   1.4022 H              1 S1                 0.0000
     49 ****         4.4223  -0.3153  -1.0719 H              1 S1                 0.0000
     50 ****         1.4318   2.7387  -0.0493 LP             1 S1                 0.0000
     51 ****        -0.1466   3.4514  -0.0217 LP             1 S1                 0.0000
     52 ****         6.2808  -3.1536   0.3786 LP             1 S1                 0.0000
     53 ****         7.6274  -2.3708  -0.1119 LP             1 S1                 0.0000
     54 ****        -5.6162   2.3277   0.9504 LP             1 S1                 0.0000
     55 ****        -3.1098   0.4941   1.4627 LP             1 S1                 0.0000
@<TRIPOS>BOND
    1    1    2 2     
    2    2    3 am    
    3    2   12 am    
    4    3    4 1     
    5    3   24 1     
    6    4    5 1     
    7    4   25 1     
    8    4   26 1     
    9    5    6 1     
   10    5   27 1     
   11    5   28 1     
   12    6   11 1     
   13    6    7 1     
   14    6   49 1     
   15    7    8 1     
   16    7   29 1     
   17    7   30 1     
   18    8    9 1     
   19    8   31 1     
   20    8   32 1     
   21    9   10 1     
   22   10   11 1     
   23   10   33 1     
   24   10   34 1     
   25   11   35 1     
   26   11   36 1     
   27   12   13 1     
   28   12   37 1     
   29   13   18 ar    
   30   13   14 ar    
   31   14   15 ar    
   32   14   38 1     
   33   15   16 ar    
   34   15   39 1     
   35   16   17 ar    
   36   16   40 1     
   37   17   18 ar    
   38   18   19 1     
   39   19   23 1     
   40   19   20 1     
   41   20   21 1     
   42   20   41 1     
   43   20   42 1     
   44   21   22 1     
   45   21   43 1     
   46   21   44 1     
   47   22   23 1     
   48   22   45 1     
   49   22   46 1     
   50   23   47 1     
   51   23   48 1     
   52    1   50 1     
   53    1   51 1     
   54    9   52 1     
   55    9   53 1     
   56   17   54 1     
   57   19   55 1     
@<TRIPOS>SUBSTRUCTURE
      1 S1             1
@<TRIPOS>SET
LONE_PAIRS      STATIC     ATOMS    <user>   **** ""
6 50 51 52 53 54 55
DONOR_HYDROGENS      STATIC     ATOMS    <user>   **** ""
3 24 49 37
ATOM$BLUE        STATIC     ATOMS    COLORGROUP SYSTEM
6 50 51 52 53 54 55
ATOM$RED        STATIC     ATOMS    COLORGROUP SYSTEM
3 24 49 37
