#       Name:                AV-unprocessed.smi:1002
#       Creating user name   scv26
#       Creation time:       Fri Mar 27 02:26:02 2020


#       File generated by GOLD software.
#

@<TRIPOS>MOLECULE
AV-unprocessed.smi:1002
    43    44     1
SMALL
NO_CHARGES


@<TRIPOS>ATOM
      1 ****         0.1966   2.5108  -0.3382 O.2            1 S1                 0.0000
      2 ****         0.8812   1.4879  -0.3593 C.2            1 S1                 0.0000
      3 ****         2.4069   1.5889  -0.3410 C.3            1 S1                 0.0000
      4 ****         2.9229   1.5660   1.0870 C.ar           1 S1                 0.0000
      5 ****         3.1533   2.7671   1.7899 C.ar           1 S1                 0.0000
      6 ****         3.6322   2.6909   3.1131 C.ar           1 S1                 0.0000
      7 ****         3.8838   1.5243   3.7452 N.ar           1 S1                 0.0000
      8 ****         3.6630   0.3782   3.0661 C.ar           1 S1                 0.0000
      9 ****         3.1868   0.3434   1.7401 C.ar           1 S1                 0.0000
     10 ****         0.3651   0.2494  -0.3971 N.am           1 S1                 0.0000
     11 ****        -1.0573  -0.0762  -0.4089 C.3            1 S1                 0.0000
     12 ****        -1.2613  -1.4962   0.1521 C.3            1 S1                 0.0000
     13 ****        -2.7405  -1.9221   0.0877 C.3            1 S1                 0.0000
     14 ****        -3.3237  -1.8208  -1.3436 C.3            1 S1                 0.0000
     15 ****        -2.7720  -2.9081  -2.2961 C.2            1 S1                 0.0000
     16 ****        -2.8094  -2.6777  -3.5252 O.co2          1 S1                 0.0000
     17 ****        -2.3457  -3.9703  -1.7903 O.co2          1 S1                -1.0000
     18 ****        -3.1072  -0.3881  -1.8898 C.3            1 S1                 0.0000
     19 ****        -1.6296   0.0433  -1.8369 C.3            1 S1                 0.0000
     20 ****         2.8454   0.7662  -0.9079 H              1 S1                 0.0000
     21 ****         2.7189   2.5108  -0.8336 H              1 S1                 0.0000
     22 ****         2.9654   3.7257   1.3289 H              1 S1                 0.0000
     23 ****         3.8184   3.5920   3.6785 H              1 S1                 0.0000
     24 ****         3.8724  -0.5397   3.5952 H              1 S1                 0.0000
     25 ****         3.0247  -0.6004   1.2403 H              1 S1                 0.0000
     26 ****         1.0065  -0.5303  -0.4148 H              1 S1                 0.0000
     27 ****        -1.5874   0.6222   0.2419 H              1 S1                 0.0000
     28 ****        -0.6490  -2.2067  -0.4048 H              1 S1                 0.0000
     29 ****        -0.9145  -1.5411   1.1852 H              1 S1                 0.0000
     30 ****        -2.8574  -2.9295   0.4889 H              1 S1                 0.0000
     31 ****        -3.3210  -1.2792   0.7503 H              1 S1                 0.0000
     32 ****        -4.3975  -2.0013  -1.2840 H              1 S1                 0.0000
     33 ****        -3.4863  -0.2929  -2.9078 H              1 S1                 0.0000
     34 ****        -3.6997   0.3083  -1.2954 H              1 S1                 0.0000
     35 ****        -1.5408   1.0708  -2.1914 H              1 S1                 0.0000
     36 ****        -1.0424  -0.5671  -2.5244 H              1 S1                 0.0000
     37 ****         0.6382   3.4076  -0.3091 LP             1 S1                 0.0000
     38 ****        -0.8012   2.4451  -0.3502 LP             1 S1                 0.0000
     39 ****         4.2227   1.5097   4.6859 LP             1 S1                 0.0000
     40 ****        -2.4849  -3.3667  -4.1732 LP             1 S1                 0.0000
     41 ****        -3.1639  -1.8044  -3.8597 LP             1 S1                 0.0000
     42 ****        -2.0054  -4.7032  -2.3793 LP             1 S1                 0.0000
     43 ****        -2.3454  -4.0862  -0.7970 LP             1 S1                 0.0000
@<TRIPOS>BOND
    1    1    2 2     
    2    2    3 1     
    3    2   10 am    
    4    3    4 1     
    5    3   20 1     
    6    3   21 1     
    7    4    9 ar    
    8    4    5 ar    
    9    5    6 ar    
   10    5   22 1     
   11    6    7 ar    
   12    6   23 1     
   13    7    8 ar    
   14    8    9 ar    
   15    8   24 1     
   16    9   25 1     
   17   10   11 1     
   18   10   26 1     
   19   11   19 1     
   20   11   12 1     
   21   11   27 1     
   22   12   13 1     
   23   12   28 1     
   24   12   29 1     
   25   13   14 1     
   26   13   30 1     
   27   13   31 1     
   28   14   15 1     
   29   14   18 1     
   30   14   32 1     
   31   15   16 ar    
   32   15   17 ar    
   33   18   19 1     
   34   18   33 1     
   35   18   34 1     
   36   19   35 1     
   37   19   36 1     
   38    1   37 1     
   39    1   38 1     
   40    7   39 1     
   41   16   40 1     
   42   16   41 1     
   43   17   42 1     
   44   17   43 1     
@<TRIPOS>SUBSTRUCTURE
      1 S1             1
@<TRIPOS>SET
LONE_PAIRS      STATIC     ATOMS    <user>   **** ""
7 37 38 39 40 41 42 43
DONOR_HYDROGENS      STATIC     ATOMS    <user>   **** ""
1 26
ATOM$BLUE        STATIC     ATOMS    COLORGROUP SYSTEM
7 37 38 39 40 41 42 43
ATOM$RED        STATIC     ATOMS    COLORGROUP SYSTEM
1 26
