AV-unprocessed.smi:3119|AV-procd|sdf|11890|dock2
  -GOLD-   2272017273D 1   1.00000     0.00000
 Structure written by MMmdl.
 31 32  0  0  0  0  0  0  0  0  1 V2000
  156.5717  140.3002  162.5948 O   0  0  0  0  0  0  0  0  0  0  0  0
  155.7646  139.4570  162.2014 C   0  0  0  0  0  0  0  0  0  0  0  0
  154.7597  139.7399  161.3588 N   0  0  0  0  0  0  0  0  0  0  0  0
  154.4852  141.0580  160.7978 C   0  0  0  0  0  0  0  0  0  0  0  0
  153.0465  141.1602  160.2641 C   0  0  0  0  0  0  0  0  0  0  0  0
  152.6019  142.5994  160.0835 C   0  0  0  0  0  0  0  0  0  0  0  0
  152.4784  143.4616  161.1940 C   0  0  0  0  0  0  0  0  0  0  0  0
  152.0560  144.7865  160.9705 C   0  0  0  0  0  0  0  0  0  0  0  0
  151.7741  145.1959  159.6530 C   0  0  0  0  0  0  0  0  0  0  0  0
  151.9271  144.2578  158.6127 C   0  0  0  0  0  0  0  0  0  0  0  0
  152.3303  142.9851  158.8162 N   0  0  0  0  0  0  0  0  0  0  0  0
  155.8658  137.9974  162.6639 C   0  0  0  0  0  0  0  0  0  0  0  0
  154.5301  137.2336  162.6573 C   0  0  0  0  0  0  0  0  0  0  0  0
  154.8993  136.6567  164.0273 C   0  0  0  0  0  0  0  0  0  0  0  0
  155.8969  137.8070  164.1910 C   0  0  0  0  0  0  0  0  0  0  0  0
  154.1429  138.9884  161.0859 H   0  0  0  0  0  0  0  0  0  0  0  0
  154.6724  141.8284  161.5479 H   0  0  0  0  0  0  0  0  0  0  0  0
  155.1936  141.2359  159.9883 H   0  0  0  0  0  0  0  0  0  0  0  0
  152.9649  140.6363  159.3108 H   0  0  0  0  0  0  0  0  0  0  0  0
  152.3536  140.6643  160.9454 H   0  0  0  0  0  0  0  0  0  0  0  0
  152.7000  143.1181  162.1940 H   0  0  0  0  0  0  0  0  0  0  0  0
  151.9494  145.4760  161.7951 H   0  0  0  0  0  0  0  0  0  0  0  0
  151.4486  146.2042  159.4439 H   0  0  0  0  0  0  0  0  0  0  0  0
  151.7196  144.5367  157.5900 H   0  0  0  0  0  0  0  0  0  0  0  0
  156.6599  137.4363  162.1675 H   0  0  0  0  0  0  0  0  0  0  0  0
  153.6461  137.8730  162.6941 H   0  0  0  0  0  0  0  0  0  0  0  0
  154.4446  136.4844  161.8698 H   0  0  0  0  0  0  0  0  0  0  0  0
  154.0863  136.6532  164.7538 H   0  0  0  0  0  0  0  0  0  0  0  0
  155.3863  135.6829  163.9581 H   0  0  0  0  0  0  0  0  0  0  0  0
  156.8654  137.4995  164.5859 H   0  0  0  0  0  0  0  0  0  0  0  0
  155.4843  138.6429  164.7588 H   0  0  0  0  0  0  0  0  0  0  0  0
  1  2  2  0  0  0  0
  2  3  1  0  0  0  0
  2 12  1  0  0  0  0
  3  4  1  0  0  0  0
  3 16  1  0  0  0  0
  4  5  1  0  0  0  0
  4 17  1  0  0  0  0
  4 18  1  0  0  0  0
  5  6  1  0  0  0  0
  5 19  1  0  0  0  0
  5 20  1  0  0  0  0
  6 11  1  0  0  0  0
  6  7  2  0  0  0  0
  7  8  1  0  0  0  0
  7 21  1  0  0  0  0
  8  9  2  0  0  0  0
  8 22  1  0  0  0  0
  9 10  1  0  0  0  0
  9 23  1  0  0  0  0
 10 11  2  0  0  0  0
 10 24  1  0  0  0  0
 12 15  1  0  0  0  0
 12 13  1  0  0  0  0
 12 25  1  0  0  0  0
 13 14  1  0  0  0  0
 13 26  1  0  0  0  0
 13 27  1  0  0  0  0
 14 15  1  0  0  0  0
 14 28  1  0  0  0  0
 14 29  1  0  0  0  0
 15 30  1  0  0  0  0
 15 31  1  0  0  0  0
M  END
> <s_m_source_file>
AV-unprocessed.smi

> <i_m_source_file_index>
3119

> <i_lp_mmshare_version>
43012

> <i_f3d_flags>
0

> <s_epik_input>
W0NIMl0xW0NIMl1bQ0gyXVtDSF0xQyg9TylbTkhdW0NIMl1bQ0gyXWMyW2NIXVtjSF1bY0hdW2NIXW4y

> <s_epik_cmdline>
J2VwaWtfcHl0aG9uJywgJy1waCcsICc3LjAnLCAnLXRuJywgJzgnLCAnLW1hJywgJzIwMCcsICctbWV0YWxfYmluZGluZycsICctaW1hZScsICc8aW5maWxlLm1hZT4nLCAnLW9tYWUnLCAnPG91dGZpbGUubWFlPic=

> <r_epik_Ionization_Penalty>
0.0277532

> <r_epik_Ionization_Penalty_Charging>
0

> <r_epik_Ionization_Penalty_Neutral>
0.0277532

> <r_epik_State_Penalty>
0.022734

> <r_epik_Charging_Adjusted_Penalty>
0.022734

> <i_epik_Tot_Q>
0

> <i_epik_Tot_abs_Q>
0

> <r_epik_Metal_State_Penalty>
0.0217133

> <b_epik_Metal_Only>
0

> <s_lp_Force_Field>
OPLS_2005

> <r_lp_Energy>
9.15138

> <b_lp_Chiralities_Consistent>
1

> <s_lp_Variant>
AV-unprocessed.smi:3119-1

> <Gold.Version>
5.8.1

> <Gold.Id.Protein>
6NUR|6NUR_protein|mol2

> <Gold.PLP.Fitness>
42.6273

> <Gold.PLP.PLP>
-43.4663

> <Gold.PLP.part.hbond>
-0.7416

> <Gold.PLP.part.metal>
0.0000

> <Gold.PLP.part.buried>
-4.7807

> <Gold.PLP.part.nonpolar>
-38.8647

> <Gold.PLP.part.repulsive>
0.0000

> <Gold.PLP.ligand.clash>
0.0000

> <Gold.PLP.ligand.torsion>
0.6259

> <Gold.PLP.Chemscore.Hbond>
0.0000

> <Gold.PLP.Chemscore.CHOScore>
0.0000

> <Gold.PLP.Chemscore.Metal>
0.0000

> <Gold.PLP.Chemscore.Internal.Correction>
0.4128

> <Gold.Rescore>
     Score         DG    S(hbond)    S(metal)    S(lipo)     H(rot)  DE(clash)    DE(int)     intcor
     14.48     -15.01       0.00        0.00     112.95       1.44       0.01       0.52       ----

> <Gold.Chemscore.Fitness>
14.4798

> <Gold.Chemscore.DG>
-15.0135

> <Gold.Chemscore.ZeroCoef>
-5.4800

> <Gold.Chemscore.Hbond>
0.0000

> <Gold.Chemscore.Metal>
0.0000

> <Gold.Chemscore.Lipo>
112.9534

> <Gold.Chemscore.Internal_Hbond>
0.0000

> <Gold.Chemscore.DEClash>
0.0120

> <Gold.Chemscore.DEInternal>
0.5217

> <Gold.Chemscore.Rot>
1.4383

> <Gold.Chemscore.Internal.Correction>
   9.000000E+99

> <Gold.Chemscore.Hbond.Weighted>
-0.0000

> <Gold.Chemscore.Metal.Weighted>
-0.0000

> <Gold.Chemscore.Lipo.Weighted>
-13.2155

> <Gold.Chemscore.Internal_Hbond.Weighted>
0.0000

> <Gold.Chemscore.DEClash.Weighted>
0.0120

> <Gold.Chemscore.DEInternal.Weighted>
0.5217

> <Gold.Chemscore.Rot.Weighted>
3.6820

> <Gold.Chemscore.Internal.Correction.Weighted>
   9.000000E+99

> <Gold.Protein.RotatedTorsions>
[ 6907 6896 6895 6894 ] final -108.38 input  -60.11 | X-H torsion
[ 7974 7965 7964 7962 ] final  -82.25 input  175.53 | X-H torsion
[ 8008 7997 7996 7995 ] final -168.40 input   59.86 | X-H torsion
[ 10167 10162 10161 10158 ] final   40.39 input  -65.29 | X-H torsion
[ 10718 10713 10712 10709 ] final   25.34 input   66.30 | X-H torsion
[ 10763 10752 10751 10750 ] final   66.75 input  -60.55 | X-H torsion
[ 11005 11000 10999 10996 ] final   50.87 input  -57.11 | X-H torsion

> <Gold.Protein.ActiveResidues>
 VAL166  LYS551  ARG553  GLY616  TRP617  ASP618  TYR619  PRO620  LYS621  CYS622 
 ASP623  PHE694  ASN695  SER759  ASP760  ASP761  ALA762  ILE779  LEU786  VAL792 
 PHE793  MET794  SER795  GLU796  ALA797  LYS798  CYS799  TRP800  GLU811  SER814 

> <Gold.Protein.RotatedAtoms>
  150.7498  133.9686  159.3538 H   0  0  0  0  0  0  0  0  0  0  0  0  # atno 6907 bound_to 6896
  151.7617  135.0806  160.0356 H   0  0  0  0  0  0  0  0  0  0  0  0  # atno 6908 bound_to 6896
  152.3398  133.6017  159.5904 H   0  0  0  0  0  0  0  0  0  0  0  0  # atno 6909 bound_to 6896
  145.5359  140.9516  143.1578 H   0  0  0  0  0  0  0  0  0  0  0  0  # atno 7974 bound_to 7965
  155.8908  140.1024  157.1419 H   0  0  0  0  0  0  0  0  0  0  0  0  # atno 8008 bound_to 7997
  154.4015  140.1311  156.4378 H   0  0  0  0  0  0  0  0  0  0  0  0  # atno 8009 bound_to 7997
  155.7535  140.3464  155.5164 H   0  0  0  0  0  0  0  0  0  0  0  0  # atno 8010 bound_to 7997
  140.3747  144.2059  150.6132 H   0  0  0  0  0  0  0  0  0  0  0  0  # atno 10167 bound_to 10162
  157.1920  130.6850  149.6154 H   0  0  0  0  0  0  0  0  0  0  0  0  # atno 10718 bound_to 10713
  153.0154  135.5309  154.6873 H   0  0  0  0  0  0  0  0  0  0  0  0  # atno 10763 bound_to 10752
  154.6017  135.2869  155.0531 H   0  0  0  0  0  0  0  0  0  0  0  0  # atno 10764 bound_to 10752
  154.1585  135.6551  153.5033 H   0  0  0  0  0  0  0  0  0  0  0  0  # atno 10765 bound_to 10752
  140.0980  134.5119  155.8789 H   0  0  0  0  0  0  0  0  0  0  0  0  # atno 11005 bound_to 11000
  144.7602  139.6976  143.7237 LP  0  0  0  0  0  0  0  0  0  0  0  0  # atno 17320 bound_to 7965
  146.2013  139.5310  142.9741 LP  0  0  0  0  0  0  0  0  0  0  0  0  # atno 17321 bound_to 7965
  140.4998  143.2321  151.8695 LP  0  0  0  0  0  0  0  0  0  0  0  0  # atno 17342 bound_to 10162
  139.4800  144.5072  151.8982 LP  0  0  0  0  0  0  0  0  0  0  0  0  # atno 17343 bound_to 10162
  155.9710  130.4611  150.6098 LP  0  0  0  0  0  0  0  0  0  0  0  0  # atno 17370 bound_to 10713
  157.3851  131.0787  151.1443 LP  0  0  0  0  0  0  0  0  0  0  0  0  # atno 17371 bound_to 10713
  141.2097  133.6687  156.6462 LP  0  0  0  0  0  0  0  0  0  0  0  0  # atno 17394 bound_to 11000
  140.3259  134.7969  157.4289 LP  0  0  0  0  0  0  0  0  0  0  0  0  # atno 17395 bound_to 11000

$$$$
