AV-unprocessed.smi:2105|AV-procd|sdf|8591|dock1
  -GOLD-   2272011323D 1   1.00000     0.00000
 Structure written by MMmdl.
 42 43  0  0  0  0  0  0  0  0  1 V2000
  141.8241  145.8447  154.1807 C   0  0  0  0  0  0  0  0  0  0  0  0
  143.3462  145.7632  154.1508 C   0  0  0  0  0  0  0  0  0  0  0  0
  144.0216  146.6648  154.6467 O   0  0  0  0  0  0  0  0  0  0  0  0
  143.8715  144.6757  153.5662 N   0  0  0  0  0  0  0  0  0  0  0  0
  145.2988  144.4004  153.4452 C   0  0  0  0  0  0  0  0  0  0  0  0
  145.6620  142.9937  153.9626 C   0  0  0  0  0  0  0  0  0  0  0  0
  147.0332  142.9337  154.4568 N   0  0  0  0  0  0  0  0  0  0  0  0
  147.8127  141.8439  154.4559 C   0  0  0  0  0  0  0  0  0  0  0  0
  147.4740  140.7642  153.9710 O   0  0  0  0  0  0  0  0  0  0  0  0
  148.9790  142.0878  155.0750 N   0  0  0  0  0  0  0  0  0  0  0  0
  150.0322  141.1753  155.3645 C   0  0  0  0  0  0  0  0  0  0  0  0
  150.2293  139.9755  154.6393 C   0  0  0  0  0  0  0  0  0  0  0  0
  151.3110  139.1417  154.9766 C   0  0  0  0  0  0  0  0  0  0  0  0
  152.1639  139.5418  156.0209 C   0  0  0  0  0  0  0  0  0  0  0  0
  151.9989  140.6887  156.7111 N   0  0  0  0  0  0  0  0  0  0  0  0
  150.9546  141.4923  156.3945 C   0  0  0  0  0  0  0  0  0  0  0  0
  150.8150  142.6918  157.1154 N   0  0  0  0  0  0  0  0  0  0  0  0
  150.8136  142.5936  158.5705 C   0  0  0  0  0  0  0  0  0  0  0  0
  151.3300  143.9411  159.0674 C   0  0  0  0  0  0  0  0  0  0  0  0
  152.3404  144.3222  157.9913 C   0  0  0  0  0  0  0  0  0  0  0  0
  151.7268  143.7550  156.7075 C   0  0  0  0  0  0  0  0  0  0  0  0
  141.4149  145.7421  153.1756 H   0  0  0  0  0  0  0  0  0  0  0  0
  141.4957  146.8022  154.5862 H   0  0  0  0  0  0  0  0  0  0  0  0
  141.4141  145.0508  154.8053 H   0  0  0  0  0  0  0  0  0  0  0  0
  143.2389  143.9857  153.1878 H   0  0  0  0  0  0  0  0  0  0  0  0
  145.6507  144.5712  152.4262 H   0  0  0  0  0  0  0  0  0  0  0  0
  145.8071  145.1407  154.0634 H   0  0  0  0  0  0  0  0  0  0  0  0
  144.9877  142.7195  154.7756 H   0  0  0  0  0  0  0  0  0  0  0  0
  145.5201  142.2400  153.1871 H   0  0  0  0  0  0  0  0  0  0  0  0
  147.3967  143.7736  154.8830 H   0  0  0  0  0  0  0  0  0  0  0  0
  149.0725  142.9995  155.4985 H   0  0  0  0  0  0  0  0  0  0  0  0
  149.5824  139.6896  153.8243 H   0  0  0  0  0  0  0  0  0  0  0  0
  151.4859  138.2197  154.4422 H   0  0  0  0  0  0  0  0  0  0  0  0
  153.0066  138.9287  156.3046 H   0  0  0  0  0  0  0  0  0  0  0  0
  149.8100  142.3895  158.9442 H   0  0  0  0  0  0  0  0  0  0  0  0
  151.4682  141.7936  158.9178 H   0  0  0  0  0  0  0  0  0  0  0  0
  150.5165  144.6681  159.0881 H   0  0  0  0  0  0  0  0  0  0  0  0
  151.7652  143.8876  160.0654 H   0  0  0  0  0  0  0  0  0  0  0  0
  152.5218  145.3960  157.9361 H   0  0  0  0  0  0  0  0  0  0  0  0
  153.2924  143.8286  158.1925 H   0  0  0  0  0  0  0  0  0  0  0  0
  152.4981  143.4099  156.0173 H   0  0  0  0  0  0  0  0  0  0  0  0
  151.1446  144.5215  156.1950 H   0  0  0  0  0  0  0  0  0  0  0  0
  1  2  1  0  0  0  0
  1 22  1  0  0  0  0
  1 23  1  0  0  0  0
  1 24  1  0  0  0  0
  2  3  2  0  0  0  0
  2  4  1  0  0  0  0
  4  5  1  0  0  0  0
  4 25  1  0  0  0  0
  5  6  1  0  0  0  0
  5 26  1  0  0  0  0
  5 27  1  0  0  0  0
  6  7  1  0  0  0  0
  6 28  1  0  0  0  0
  6 29  1  0  0  0  0
  7  8  1  0  0  0  0
  7 30  1  0  0  0  0
  8  9  2  0  0  0  0
  8 10  1  0  0  0  0
 10 11  1  0  0  0  0
 10 31  1  0  0  0  0
 11 16  1  0  0  0  0
 11 12  2  0  0  0  0
 12 13  1  0  0  0  0
 12 32  1  0  0  0  0
 13 14  2  0  0  0  0
 13 33  1  0  0  0  0
 14 15  1  0  0  0  0
 14 34  1  0  0  0  0
 15 16  2  0  0  0  0
 16 17  1  0  0  0  0
 17 21  1  0  0  0  0
 17 18  1  0  0  0  0
 18 19  1  0  0  0  0
 18 35  1  0  0  0  0
 18 36  1  0  0  0  0
 19 20  1  0  0  0  0
 19 37  1  0  0  0  0
 19 38  1  0  0  0  0
 20 21  1  0  0  0  0
 20 39  1  0  0  0  0
 20 40  1  0  0  0  0
 21 41  1  0  0  0  0
 21 42  1  0  0  0  0
M  END
> <s_m_source_file>
AV-unprocessed.smi

> <i_m_source_file_index>
2105

> <i_lp_mmshare_version>
43012

> <i_f3d_flags>
0

> <s_epik_input>
W0NIM11DKD1PKVtOSF1bQ0gyXVtDSDJdW05IXUMoPU8pW05IXWMxW2NIXVtjSF1bY0hdbmMxTjJbQ0gyXVtDSDJdW0NIMl1bQ0gyXTI=

> <s_epik_cmdline>
J2VwaWtfcHl0aG9uJywgJy1waCcsICc3LjAnLCAnLXRuJywgJzgnLCAnLW1hJywgJzIwMCcsICctbWV0YWxfYmluZGluZycsICctaW1hZScsICc8aW5maWxlLm1hZT4nLCAnLW9tYWUnLCAnPG91dGZpbGUubWFlPic=

> <r_lp_tautomer_probability>
1

> <r_epik_Ionization_Penalty>
0.0963551

> <r_epik_Ionization_Penalty_Charging>
0

> <r_epik_Ionization_Penalty_Neutral>
0.0963551

> <r_epik_State_Penalty>
0.0859578

> <r_epik_Charging_Adjusted_Penalty>
0.0859578

> <i_epik_Tot_Q>
0

> <i_epik_Tot_abs_Q>
0

> <r_epik_Metal_State_Penalty>
0.0739032

> <b_epik_Metal_Only>
0

> <s_lp_Force_Field>
OPLS_2005

> <r_lp_Energy>
32.5144

> <b_lp_Chiralities_Consistent>
1

> <s_lp_Variant>
AV-unprocessed.smi:2105-1

> <Gold.Version>
5.8.1

> <Gold.Id.Protein>
6NUR|6NUR_protein|mol2

> <Gold.PLP.Fitness>
48.6725

> <Gold.PLP.PLP>
-42.4561

> <Gold.PLP.part.hbond>
-4.1053

> <Gold.PLP.part.metal>
0.0000

> <Gold.PLP.part.buried>
-1.7141

> <Gold.PLP.part.nonpolar>
-36.5199

> <Gold.PLP.part.repulsive>
0.7501

> <Gold.PLP.ligand.clash>
0.0000

> <Gold.PLP.ligand.torsion>
0.8025

> <Gold.PLP.Chemscore.Hbond>
2.5500

> <Gold.PLP.Chemscore.CHOScore>
0.0000

> <Gold.PLP.Chemscore.Metal>
0.0000

> <Gold.Chemscore.Hbonds>
donor molecule, donor type, donor heavy atom, donor atom, acceptor molecule, acceptor atom, score
      L1  H     4    25       P1 10174  1.00
      L1  H     7    30       P1  8028  0.50
      L1  H    10    31       P1  8028  1.00

> <Gold.PLP.Chemscore.Internal.Correction>
0.1714

> <Gold.Rescore>
     Score         DG    S(hbond)    S(metal)    S(lipo)     H(rot)  DE(clash)    DE(int)     intcor
     15.20     -17.98       2.04        0.00      91.13       1.94       0.90       1.88       ----

> <Gold.Chemscore.Fitness>
15.1951

> <Gold.Chemscore.DG>
-17.9764

> <Gold.Chemscore.ZeroCoef>
-5.4800

> <Gold.Chemscore.Hbond>
2.0389

> <Gold.Chemscore.Metal>
0.0000

> <Gold.Chemscore.Lipo>
91.1311

> <Gold.Chemscore.Internal_Hbond>
0.0000

> <Gold.Chemscore.DEClash>
0.8964

> <Gold.Chemscore.DEInternal>
1.8849

> <Gold.Chemscore.Rot>
1.9437

> <Gold.Chemscore.Internal.Correction>
   9.000000E+99

> <Gold.Chemscore.Hbonds>
donor molecule, donor type, donor heavy atom, donor atom, acceptor molecule, acceptor atom, score
      L1  H     4    25       P1 10174  0.99
      L1  H     7    30       P1  8028  0.02
      L1  H    10    31       P1  8028  0.99

> <Gold.Chemscore.Hbond.Weighted>
-6.8099

> <Gold.Chemscore.Metal.Weighted>
-0.0000

> <Gold.Chemscore.Lipo.Weighted>
-10.6623

> <Gold.Chemscore.Internal_Hbond.Weighted>
0.0000

> <Gold.Chemscore.DEClash.Weighted>
0.8964

> <Gold.Chemscore.DEInternal.Weighted>
1.8849

> <Gold.Chemscore.Rot.Weighted>
4.9759

> <Gold.Chemscore.Internal.Correction.Weighted>
   9.000000E+99

> <Gold.Protein.RotatedTorsions>
[ 6907 6896 6895 6894 ] final  107.90 input  -60.11 | X-H torsion
[ 7974 7965 7964 7962 ] final  -31.90 input  175.53 | X-H torsion
[ 8008 7997 7996 7995 ] final  -23.83 input   59.86 | X-H torsion
[ 10167 10162 10161 10158 ] final -128.90 input  -65.29 | X-H torsion
[ 10718 10713 10712 10709 ] final   73.32 input   66.30 | X-H torsion
[ 10763 10752 10751 10750 ] final  178.11 input  -60.55 | X-H torsion
[ 11005 11000 10999 10996 ] final -172.19 input  -57.11 | X-H torsion

> <Gold.Protein.ActiveResidues>
 VAL166  LYS551  ARG553  GLY616  TRP617  ASP618  TYR619  PRO620  LYS621  CYS622 
 ASP623  PHE694  ASN695  SER759  ASP760  ASP761  ALA762  ILE779  LEU786  VAL792 
 PHE793  MET794  SER795  GLU796  ALA797  LYS798  CYS799  TRP800  GLU811  SER814 

> <Gold.Protein.RotatedAtoms>
  152.5135  133.9167  159.7514 H   0  0  0  0  0  0  0  0  0  0  0  0  # atno 6907 bound_to 6896
  150.9548  133.6501  159.2772 H   0  0  0  0  0  0  0  0  0  0  0  0  # atno 6908 bound_to 6896
  151.3766  135.0937  159.9535 H   0  0  0  0  0  0  0  0  0  0  0  0  # atno 6909 bound_to 6896
  146.1032  140.5725  142.8811 H   0  0  0  0  0  0  0  0  0  0  0  0  # atno 7974 bound_to 7965
  154.4563  140.1970  156.0371 H   0  0  0  0  0  0  0  0  0  0  0  0  # atno 8008 bound_to 7997
  156.0752  140.3279  155.7596 H   0  0  0  0  0  0  0  0  0  0  0  0  # atno 8009 bound_to 7997
  155.5200  140.0569  157.2899 H   0  0  0  0  0  0  0  0  0  0  0  0  # atno 8010 bound_to 7997
  139.9454  143.6115  152.2491 H   0  0  0  0  0  0  0  0  0  0  0  0  # atno 10167 bound_to 10162
  157.6542  130.9622  150.1052 H   0  0  0  0  0  0  0  0  0  0  0  0  # atno 10718 bound_to 10713
  154.5033  135.2784  155.1403 H   0  0  0  0  0  0  0  0  0  0  0  0  # atno 10763 bound_to 10752
  154.3027  135.6245  153.5435 H   0  0  0  0  0  0  0  0  0  0  0  0  # atno 10764 bound_to 10752
  152.9906  135.5701  154.5481 H   0  0  0  0  0  0  0  0  0  0  0  0  # atno 10765 bound_to 10752
  140.4998  134.5904  157.4984 H   0  0  0  0  0  0  0  0  0  0  0  0  # atno 11005 bound_to 11000
  144.7449  140.5042  143.6842 LP  0  0  0  0  0  0  0  0  0  0  0  0  # atno 17320 bound_to 7965
  145.5813  139.1489  143.3234 LP  0  0  0  0  0  0  0  0  0  0  0  0  # atno 17321 bound_to 7965
  139.6671  144.7662  151.1853 LP  0  0  0  0  0  0  0  0  0  0  0  0  # atno 17342 bound_to 10162
  140.7598  143.5922  150.8785 LP  0  0  0  0  0  0  0  0  0  0  0  0  # atno 17343 bound_to 10162
  156.1964  130.3657  149.8844 LP  0  0  0  0  0  0  0  0  0  0  0  0  # atno 17370 bound_to 10713
  156.6759  130.8839  151.3569 LP  0  0  0  0  0  0  0  0  0  0  0  0  # atno 17371 bound_to 10713
  139.9720  134.7277  156.0023 LP  0  0  0  0  0  0  0  0  0  0  0  0  # atno 17394 bound_to 11000
  141.1441  133.6559  156.3816 LP  0  0  0  0  0  0  0  0  0  0  0  0  # atno 17395 bound_to 11000

$$$$
