AV-unprocessed.smi:2655|AV-procd|sdf|10299|dock9
  -GOLD-   2272014313D 1   1.00000     0.00000
 Structure written by MMmdl.
 34 35  0  0  0  0  0  0  0  0  1 V2000
  146.3897  133.2159  150.4856 C   0  0  0  0  0  0  0  0  0  0  0  0
  145.6459  134.4475  150.9555 C   0  0  0  0  0  0  0  0  0  0  0  0
  145.0768  135.3198  150.0739 N   0  0  0  0  0  0  0  0  0  0  0  0
  144.5054  136.3465  150.7821 N   0  0  0  0  0  0  0  0  0  0  0  0
  144.6843  136.1456  152.0982 C   0  0  0  0  0  0  0  0  0  0  0  0
  144.2870  136.8791  153.0011 O   0  0  0  0  0  0  0  0  0  0  0  0
  145.4393  134.9015  152.1984 C   0  0  0  0  0  0  0  0  0  0  0  0
  145.8745  134.2739  153.5086 C   0  0  0  0  0  0  0  0  0  0  0  0
  146.2194  135.3331  154.5676 C   0  0  0  0  0  0  0  0  0  0  0  0
  147.4221  136.0754  154.2104 N   0  0  0  0  0  0  0  0  0  0  0  0
  147.8805  137.1544  154.8615 C   0  0  0  0  0  0  0  0  0  0  0  0
  147.3215  137.6400  155.8451 O   0  0  0  0  0  0  0  0  0  0  0  0
  149.0096  137.6178  154.2994 N   0  0  0  0  0  0  0  0  0  0  0  0
  149.8051  138.7226  154.6993 C   0  0  0  0  0  0  0  0  0  0  0  0
  149.3727  139.8391  155.4727 C   0  0  0  0  0  0  0  0  0  0  0  0
  150.5040  140.5982  155.5740 C   0  0  0  0  0  0  0  0  0  0  0  0
  150.7950  141.9002  156.2381 C   0  0  0  0  0  0  0  0  0  0  0  0
  151.5359  140.0010  154.9196 O   0  0  0  0  0  0  0  0  0  0  0  0
  151.0792  138.8011  154.3617 N   0  0  0  0  0  0  0  0  0  0  0  0
  147.4151  133.2325  150.8560 H   0  0  0  0  0  0  0  0  0  0  0  0
  146.4183  133.1647  149.3967 H   0  0  0  0  0  0  0  0  0  0  0  0
  145.9032  132.3151  150.8606 H   0  0  0  0  0  0  0  0  0  0  0  0
  144.0315  137.0935  150.2953 H   0  0  0  0  0  0  0  0  0  0  0  0
  146.7404  133.6384  153.3196 H   0  0  0  0  0  0  0  0  0  0  0  0
  145.0829  133.6164  153.8702 H   0  0  0  0  0  0  0  0  0  0  0  0
  145.3826  136.0202  154.7065 H   0  0  0  0  0  0  0  0  0  0  0  0
  146.3908  134.8552  155.5326 H   0  0  0  0  0  0  0  0  0  0  0  0
  147.9420  135.7419  153.4118 H   0  0  0  0  0  0  0  0  0  0  0  0
  149.3479  137.1132  153.4934 H   0  0  0  0  0  0  0  0  0  0  0  0
  148.4026  140.0620  155.8905 H   0  0  0  0  0  0  0  0  0  0  0  0
  149.9899  142.1790  156.9180 H   0  0  0  0  0  0  0  0  0  0  0  0
  150.9043  142.6938  155.4991 H   0  0  0  0  0  0  0  0  0  0  0  0
  151.7189  141.8439  156.8140 H   0  0  0  0  0  0  0  0  0  0  0  0
  145.1304  135.3116  149.0653 H   0  0  0  0  0  0  0  0  0  0  0  0
  1 20  1  0  0  0  0
  1 21  1  0  0  0  0
  1 22  1  0  0  0  0
  1  2  1  0  0  0  0
  2  7  2  0  0  0  0
  2  3  1  0  0  0  0
  3  4  1  0  0  0  0
  3 34  1  0  0  0  0
  4 23  1  0  0  0  0
  4  5  1  0  0  0  0
  5  7  1  0  0  0  0
  5  6  2  0  0  0  0
  7  8  1  0  0  0  0
  8  9  1  0  0  0  0
  8 24  1  0  0  0  0
  8 25  1  0  0  0  0
  9 10  1  0  0  0  0
  9 26  1  0  0  0  0
  9 27  1  0  0  0  0
 10 11  1  0  0  0  0
 10 28  1  0  0  0  0
 11 12  2  0  0  0  0
 11 13  1  0  0  0  0
 13 14  1  0  0  0  0
 13 29  1  0  0  0  0
 14 19  2  0  0  0  0
 14 15  1  0  0  0  0
 15 16  2  0  0  0  0
 15 30  1  0  0  0  0
 16 17  1  0  0  0  0
 16 18  1  0  0  0  0
 17 31  1  0  0  0  0
 17 32  1  0  0  0  0
 17 33  1  0  0  0  0
 18 19  1  0  0  0  0
M  END
> <s_m_source_file>
AV-unprocessed.smi

> <i_m_source_file_index>
2655

> <i_lp_mmshare_version>
43012

> <i_f3d_flags>
0

> <s_epik_input>
W0NIM11DMT1OW05IXUMoPU8pW0NASF0xW0NIMl1bQ0gyXVtOSF1DKD1PKVtOSF1jMltjSF1jKFtDSDNdKW9uMg==

> <s_epik_cmdline>
J2VwaWtfcHl0aG9uJywgJy1waCcsICc3LjAnLCAnLXRuJywgJzgnLCAnLW1hJywgJzIwMCcsICctbWV0YWxfYmluZGluZycsICctaW1hZScsICc8aW5maWxlLm1hZT4nLCAnLW9tYWUnLCAnPG91dGZpbGUubWFlPic=

> <r_lp_tautomer_probability>
0.00220696

> <r_epik_Ionization_Penalty>
0.0273702

> <r_epik_Ionization_Penalty_Charging>
8.84748e-06

> <r_epik_Ionization_Penalty_Neutral>
0.0273613

> <r_epik_State_Penalty>
0.626781

> <r_epik_Charging_Adjusted_Penalty>
0.626789

> <i_epik_Tot_Q>
0

> <i_epik_Tot_abs_Q>
0

> <r_epik_Metal_State_Penalty>
2.03048

> <b_epik_Metal_Only>
0

> <s_lp_Force_Field>
OPLS_2005

> <r_lp_Energy>
17.132

> <b_lp_Chiralities_Consistent>
1

> <s_lp_Variant>
AV-unprocessed.smi:2655-2

> <Gold.Version>
5.8.1

> <Gold.Id.Protein>
6NUR|6NUR_protein|mol2

> <Gold.PLP.Fitness>
39.6662

> <Gold.PLP.PLP>
-26.4289

> <Gold.PLP.part.hbond>
-5.1875

> <Gold.PLP.part.metal>
0.0000

> <Gold.PLP.part.buried>
-6.3512

> <Gold.PLP.part.nonpolar>
-16.0862

> <Gold.PLP.part.repulsive>
0.5390

> <Gold.PLP.ligand.clash>
0.0000

> <Gold.PLP.ligand.torsion>
0.5201

> <Gold.PLP.Chemscore.Hbond>
4.7560

> <Gold.PLP.Chemscore.CHOScore>
0.0000

> <Gold.PLP.Chemscore.Metal>
0.0000

> <Gold.Chemscore.Hbonds>
donor molecule, donor type, donor heavy atom, donor atom, acceptor molecule, acceptor atom, score
      L1  H     3    34       P1  7921  0.91
      L1  H     4    23       P1 10171  1.00
      L1  H    10    28       P1  7948  0.94
      L1  H    13    29       P1  7948  0.99
      P1  H  7989  7998       L1    18  0.90

> <Gold.PLP.Chemscore.Internal.Correction>
0.0094

> <Gold.Rescore>
     Score         DG    S(hbond)    S(metal)    S(lipo)     H(rot)  DE(clash)    DE(int)     intcor
     16.77     -17.94       3.80        0.00      39.38       1.89       0.04       1.13       ----

> <Gold.Chemscore.Fitness>
16.7662

> <Gold.Chemscore.DG>
-17.9362

> <Gold.Chemscore.ZeroCoef>
-5.4800

> <Gold.Chemscore.Hbond>
3.8008

> <Gold.Chemscore.Metal>
0.0000

> <Gold.Chemscore.Lipo>
39.3774

> <Gold.Chemscore.Internal_Hbond>
0.0000

> <Gold.Chemscore.DEClash>
0.0431

> <Gold.Chemscore.DEInternal>
1.1269

> <Gold.Chemscore.Rot>
1.8929

> <Gold.Chemscore.Internal.Correction>
   9.000000E+99

> <Gold.Chemscore.Hbonds>
donor molecule, donor type, donor heavy atom, donor atom, acceptor molecule, acceptor atom, score
      L1  H     3    34       P1  7921  0.88
      L1  H     4    23       P1 10171  0.94
      L1  H    10    28       P1  7948  0.91
      L1  H    13    29       P1  7948  0.91
      P1  H  7989  7998       L1    18  0.08

> <Gold.Chemscore.Hbond.Weighted>
-12.6948

> <Gold.Chemscore.Metal.Weighted>
-0.0000

> <Gold.Chemscore.Lipo.Weighted>
-4.6072

> <Gold.Chemscore.Internal_Hbond.Weighted>
0.0000

> <Gold.Chemscore.DEClash.Weighted>
0.0431

> <Gold.Chemscore.DEInternal.Weighted>
1.1269

> <Gold.Chemscore.Rot.Weighted>
4.8457

> <Gold.Chemscore.Internal.Correction.Weighted>
   9.000000E+99

> <Gold.Protein.RotatedTorsions>
[ 6907 6896 6895 6894 ] final  -30.64 input  -60.11 | X-H torsion
[ 7974 7965 7964 7962 ] final   82.15 input  175.53 | X-H torsion
[ 8008 7997 7996 7995 ] final  106.02 input   59.86 | X-H torsion
[ 10167 10162 10161 10158 ] final -111.16 input  -65.29 | X-H torsion
[ 10718 10713 10712 10709 ] final  144.74 input   66.30 | X-H torsion
[ 10763 10752 10751 10750 ] final -113.32 input  -60.55 | X-H torsion
[ 11005 11000 10999 10996 ] final -122.30 input  -57.11 | X-H torsion

> <Gold.Protein.ActiveResidues>
 VAL166  LYS551  ARG553  GLY616  TRP617  ASP618  TYR619  PRO620  LYS621  CYS622 
 ASP623  PHE694  ASN695  SER759  ASP760  ASP761  ALA762  ILE779  LEU786  VAL792 
 PHE793  MET794  SER795  GLU796  ALA797  LYS798  CYS799  TRP800  GLU811  SER814 

> <Gold.Protein.RotatedAtoms>
  151.1028  134.9982  159.8456 H   0  0  0  0  0  0  0  0  0  0  0  0  # atno 6907 bound_to 6896
  152.5438  134.1929  159.8691 H   0  0  0  0  0  0  0  0  0  0  0  0  # atno 6908 bound_to 6896
  151.1973  133.4587  159.2629 H   0  0  0  0  0  0  0  0  0  0  0  0  # atno 6909 bound_to 6896
  145.6288  139.2400  143.2096 H   0  0  0  0  0  0  0  0  0  0  0  0  # atno 7974 bound_to 7965
  156.1708  140.3120  155.8971 H   0  0  0  0  0  0  0  0  0  0  0  0  # atno 8008 bound_to 7997
  155.3590  140.0475  157.3063 H   0  0  0  0  0  0  0  0  0  0  0  0  # atno 8009 bound_to 7997
  154.5239  140.2208  155.8935 H   0  0  0  0  0  0  0  0  0  0  0  0  # atno 8010 bound_to 7997
  140.1366  143.4315  152.1591 H   0  0  0  0  0  0  0  0  0  0  0  0  # atno 10167 bound_to 10162
  157.3536  131.0954  151.0978 H   0  0  0  0  0  0  0  0  0  0  0  0  # atno 10718 bound_to 10713
  154.8391  135.4458  154.1331 H   0  0  0  0  0  0  0  0  0  0  0  0  # atno 10763 bound_to 10752
  153.2536  135.6929  153.7659 H   0  0  0  0  0  0  0  0  0  0  0  0  # atno 10764 bound_to 10752
  153.6962  135.3379  155.3189 H   0  0  0  0  0  0  0  0  0  0  0  0  # atno 10765 bound_to 10752
  141.0006  134.0408  157.3542 H   0  0  0  0  0  0  0  0  0  0  0  0  # atno 11005 bound_to 11000
  146.1373  140.7105  142.9383 LP  0  0  0  0  0  0  0  0  0  0  0  0  # atno 17320 bound_to 7965
  144.7202  140.4346  143.7014 LP  0  0  0  0  0  0  0  0  0  0  0  0  # atno 17321 bound_to 7965
  139.5493  144.7324  151.4485 LP  0  0  0  0  0  0  0  0  0  0  0  0  # atno 17342 bound_to 10162
  140.6786  143.8134  150.7091 LP  0  0  0  0  0  0  0  0  0  0  0  0  # atno 17343 bound_to 10162
  157.2144  130.6452  149.5786 LP  0  0  0  0  0  0  0  0  0  0  0  0  # atno 17370 bound_to 10713
  155.9725  130.4649  150.6236 LP  0  0  0  0  0  0  0  0  0  0  0  0  # atno 17371 bound_to 10713
  139.9037  135.0173  156.7386 LP  0  0  0  0  0  0  0  0  0  0  0  0  # atno 17394 bound_to 11000
  140.6895  133.9402  155.7958 LP  0  0  0  0  0  0  0  0  0  0  0  0  # atno 17395 bound_to 11000

$$$$
