AV-unprocessed.smi:1611|AV-procd|sdf|6474|dock3
  -GOLD-   22720 7133D 1   1.00000     0.00000
 Structure written by MMmdl.
 48 49  0  0  0  0  0  0  0  0  1 V2000
  151.1814  143.7890  160.1891 C   0  0  0  0  0  0  0  0  0  0  0  0
  152.2571  143.0771  160.9913 C   0  0  0  0  0  0  0  0  0  0  0  0
  152.5029  143.4869  162.3175 C   0  0  0  0  0  0  0  0  0  0  0  0
  153.4864  142.8455  163.0903 C   0  0  0  0  0  0  0  0  0  0  0  0
  154.2414  141.7909  162.5419 C   0  0  0  0  0  0  0  0  0  0  0  0
  155.2951  141.1032  163.3904 C   0  0  0  0  0  0  0  0  0  0  0  0
  154.0147  141.3838  161.2069 C   0  0  0  0  0  0  0  0  0  0  0  0
  154.7613  140.3610  160.6812 O   0  0  0  0  0  0  0  0  0  0  0  0
  155.7155  140.7897  159.7202 C   0  0  0  0  0  0  0  0  0  0  0  0
  156.7375  139.6632  159.4973 C   0  0  2  0  0  0  0  0  0  0  0  0
  157.5089  140.0166  158.3660 O   0  0  0  0  0  0  0  0  0  0  0  0
  156.0497  138.3132  159.1970 C   0  0  0  0  0  0  0  0  0  0  0  0
  156.9375  137.3900  158.4789 N   0  0  0  0  0  0  0  0  0  0  0  0
  158.0743  137.0454  159.1826 N   0  0  0  0  0  0  0  0  0  0  0  0
  158.9529  136.2363  158.6883 C   0  0  0  0  0  0  0  0  0  0  0  0
  160.1524  135.9342  159.5458 C   0  0  0  0  0  0  0  0  0  0  0  0
  158.7472  135.6697  157.3592 C   0  0  0  0  0  0  0  0  0  0  0  0
  159.8153  134.7226  156.8291 C   0  0  0  0  0  0  0  0  0  0  0  0
  157.6282  136.0187  156.6765 C   0  0  0  0  0  0  0  0  0  0  0  0
  157.3451  135.5200  155.3694 C   0  0  0  0  0  0  0  0  0  0  0  0
  157.1000  135.1293  154.3076 N   0  0  0  0  0  0  0  0  0  0  0  0
  156.6279  136.9335  157.2315 C   0  0  0  0  0  0  0  0  0  0  0  0
  155.5981  137.2642  156.6416 O   0  0  0  0  0  0  0  0  0  0  0  0
  153.0088  142.0137  160.4314 C   0  0  0  0  0  0  0  0  0  0  0  0
  152.7390  141.5525  159.0054 C   0  0  0  0  0  0  0  0  0  0  0  0
  150.8079  144.6669  160.7170 H   0  0  0  0  0  0  0  0  0  0  0  0
  150.3383  143.1213  160.0098 H   0  0  0  0  0  0  0  0  0  0  0  0
  151.5725  144.1217  159.2273 H   0  0  0  0  0  0  0  0  0  0  0  0
  151.9328  144.2952  162.7519 H   0  0  0  0  0  0  0  0  0  0  0  0
  153.6582  143.1669  164.1071 H   0  0  0  0  0  0  0  0  0  0  0  0
  155.2572  140.0221  163.2533 H   0  0  0  0  0  0  0  0  0  0  0  0
  155.1452  141.3103  164.4502 H   0  0  0  0  0  0  0  0  0  0  0  0
  156.2900  141.4509  163.1123 H   0  0  0  0  0  0  0  0  0  0  0  0
  155.1845  140.9975  158.7901 H   0  0  0  0  0  0  0  0  0  0  0  0
  156.2075  141.7180  160.0169 H   0  0  0  0  0  0  0  0  0  0  0  0
  157.3796  139.5785  160.3749 H   0  0  0  0  0  0  0  0  0  0  0  0
  158.2270  139.4069  158.2919 H   0  0  0  0  0  0  0  0  0  0  0  0
  155.7402  137.8376  160.1293 H   0  0  0  0  0  0  0  0  0  0  0  0
  155.1205  138.4718  158.6455 H   0  0  0  0  0  0  0  0  0  0  0  0
  161.0753  136.1899  159.0250 H   0  0  0  0  0  0  0  0  0  0  0  0
  160.1891  134.8745  159.7991 H   0  0  0  0  0  0  0  0  0  0  0  0
  160.1361  136.4963  160.4809 H   0  0  0  0  0  0  0  0  0  0  0  0
  159.5525  134.3064  155.8569 H   0  0  0  0  0  0  0  0  0  0  0  0
  159.9603  133.8851  157.5123 H   0  0  0  0  0  0  0  0  0  0  0  0
  160.7663  135.2443  156.7173 H   0  0  0  0  0  0  0  0  0  0  0  0
  153.1865  140.5818  158.7929 H   0  0  0  0  0  0  0  0  0  0  0  0
  153.1448  142.2739  158.2960 H   0  0  0  0  0  0  0  0  0  0  0  0
  151.6690  141.4549  158.8232 H   0  0  0  0  0  0  0  0  0  0  0  0
  1  2  1  0  0  0  0
  1 26  1  0  0  0  0
  1 27  1  0  0  0  0
  1 28  1  0  0  0  0
  2 24  1  0  0  0  0
  2  3  2  0  0  0  0
  3  4  1  0  0  0  0
  3 29  1  0  0  0  0
  4  5  2  0  0  0  0
  4 30  1  0  0  0  0
  5  6  1  0  0  0  0
  5  7  1  0  0  0  0
  6 31  1  0  0  0  0
  6 32  1  0  0  0  0
  6 33  1  0  0  0  0
  7  8  1  0  0  0  0
  7 24  2  0  0  0  0
  8  9  1  0  0  0  0
  9 10  1  0  0  0  0
  9 34  1  0  0  0  0
  9 35  1  0  0  0  0
 10 11  1  0  0  0  0
 10 12  1  0  0  0  0
 10 36  1  0  0  0  0
 11 37  1  0  0  0  0
 12 13  1  0  0  0  0
 12 38  1  0  0  0  0
 12 39  1  0  0  0  0
 13 22  1  0  0  0  0
 13 14  1  0  0  0  0
 14 15  2  0  0  0  0
 15 16  1  0  0  0  0
 15 17  1  0  0  0  0
 16 40  1  0  0  0  0
 16 41  1  0  0  0  0
 16 42  1  0  0  0  0
 17 18  1  0  0  0  0
 17 19  2  0  0  0  0
 18 43  1  0  0  0  0
 18 44  1  0  0  0  0
 18 45  1  0  0  0  0
 19 20  1  0  0  0  0
 19 22  1  0  0  0  0
 20 21  3  0  0  0  0
 22 23  2  0  0  0  0
 24 25  1  0  0  0  0
 25 46  1  0  0  0  0
 25 47  1  0  0  0  0
 25 48  1  0  0  0  0
M  END
> <s_m_source_file>
AV-unprocessed.smi

> <i_m_source_file_index>
1611

> <i_lp_mmshare_version>
43012

> <i_f3d_flags>
0

> <s_epik_input>
W0NIM11jMVtjSF1bY0hdYyhbQ0gzXSljKGMxW0NIM10pT1tDSDJdW0NASF0oW09IXSlbQ0gyXW4ybmMoW0NIM10pYyhbQ0gzXSljKEMjTiljMj1P

> <s_epik_cmdline>
J2VwaWtfcHl0aG9uJywgJy1waCcsICc3LjAnLCAnLXRuJywgJzgnLCAnLW1hJywgJzIwMCcsICctbWV0YWxfYmluZGluZycsICctaW1hZScsICc8aW5maWxlLm1hZT4nLCAnLW9tYWUnLCAnPG91dGZpbGUubWFlPic=

> <r_lp_tautomer_probability>
1

> <r_epik_Ionization_Penalty>
1.17331e-07

> <r_epik_Ionization_Penalty_Charging>
1.57223e-10

> <r_epik_Ionization_Penalty_Neutral>
1.17174e-07

> <r_epik_State_Penalty>
-0

> <r_epik_Charging_Adjusted_Penalty>
1.57223e-10

> <i_epik_Tot_Q>
0

> <i_epik_Tot_abs_Q>
0

> <r_epik_Metal_State_Penalty>
-0

> <b_epik_Metal_Only>
0

> <s_lp_Force_Field>
OPLS_2005

> <r_lp_Energy>
36.6232

> <b_lp_Chiralities_Consistent>
1

> <s_lp_Variant>
AV-unprocessed.smi:1611-1

> <Gold.Version>
5.8.1

> <Gold.Id.Protein>
6NUR|6NUR_protein|mol2

> <Gold.PLP.Fitness>
46.6417

> <Gold.PLP.PLP>
-41.7653

> <Gold.PLP.part.hbond>
-4.0000

> <Gold.PLP.part.metal>
0.0000

> <Gold.PLP.part.buried>
-0.0395

> <Gold.PLP.part.nonpolar>
-38.3834

> <Gold.PLP.part.repulsive>
0.0933

> <Gold.PLP.ligand.clash>
0.0000

> <Gold.PLP.ligand.torsion>
0.4649

> <Gold.PLP.Chemscore.Hbond>
1.9004

> <Gold.PLP.Chemscore.CHOScore>
0.0000

> <Gold.PLP.Chemscore.Metal>
0.0000

> <Gold.Chemscore.Hbonds>
donor molecule, donor type, donor heavy atom, donor atom, acceptor molecule, acceptor atom, score
      P1  H  7997  8009       L1    11  1.00
      P1  H 10752 10763       L1    21  0.24

> <Gold.PLP.Chemscore.Internal.Correction>
0.1049

> <Gold.Rescore>
     Score         DG    S(hbond)    S(metal)    S(lipo)     H(rot)  DE(clash)    DE(int)     intcor
     16.49     -17.71       1.14        0.00     121.61       2.27       0.77       0.45       ----

> <Gold.Chemscore.Fitness>
16.4901

> <Gold.Chemscore.DG>
-17.7129

> <Gold.Chemscore.ZeroCoef>
-5.4800

> <Gold.Chemscore.Hbond>
1.1430

> <Gold.Chemscore.Metal>
0.0000

> <Gold.Chemscore.Lipo>
121.6066

> <Gold.Chemscore.Internal_Hbond>
0.0000

> <Gold.Chemscore.DEClash>
0.7710

> <Gold.Chemscore.DEInternal>
0.4519

> <Gold.Chemscore.Rot>
2.2706

> <Gold.Chemscore.Internal.Correction>
   9.000000E+99

> <Gold.Chemscore.Hbonds>
donor molecule, donor type, donor heavy atom, donor atom, acceptor molecule, acceptor atom, score
      P1  H  7997  8009       L1    11  0.49
      P1  H 10752 10763       L1    21  0.15

> <Gold.Chemscore.Hbond.Weighted>
-3.8176

> <Gold.Chemscore.Metal.Weighted>
-0.0000

> <Gold.Chemscore.Lipo.Weighted>
-14.2280

> <Gold.Chemscore.Internal_Hbond.Weighted>
0.0000

> <Gold.Chemscore.DEClash.Weighted>
0.7710

> <Gold.Chemscore.DEInternal.Weighted>
0.4519

> <Gold.Chemscore.Rot.Weighted>
5.8127

> <Gold.Chemscore.Internal.Correction.Weighted>
   9.000000E+99

> <Gold.Protein.RotatedTorsions>
[ 6907 6896 6895 6894 ] final  -71.11 input  -60.11 | X-H torsion
[ 7974 7965 7964 7962 ] final  -67.36 input  175.53 | X-H torsion
[ 8008 7997 7996 7995 ] final   43.77 input   59.86 | X-H torsion
[ 10167 10162 10161 10158 ] final  -46.84 input  -65.29 | X-H torsion
[ 10718 10713 10712 10709 ] final -130.44 input   66.30 | X-H torsion
[ 10763 10752 10751 10750 ] final -102.28 input  -60.55 | X-H torsion
[ 11005 11000 10999 10996 ] final   51.10 input  -57.11 | X-H torsion

> <Gold.Protein.ActiveResidues>
 VAL166  LYS551  ARG553  GLY616  TRP617  ASP618  TYR619  PRO620  LYS621  CYS622 
 ASP623  PHE694  ASN695  SER759  ASP760  ASP761  ALA762  ILE779  LEU786  VAL792 
 PHE793  MET794  SER795  GLU796  ALA797  LYS798  CYS799  TRP800  GLU811  SER814 

> <Gold.Protein.RotatedAtoms>
  150.7227  134.5356  159.5721 H   0  0  0  0  0  0  0  0  0  0  0  0  # atno 6907 bound_to 6896
  152.2879  134.7752  160.0393 H   0  0  0  0  0  0  0  0  0  0  0  0  # atno 6908 bound_to 6896
  151.8376  133.3383  159.3669 H   0  0  0  0  0  0  0  0  0  0  0  0  # atno 6909 bound_to 6896
  145.7302  140.9000  143.0584 H   0  0  0  0  0  0  0  0  0  0  0  0  # atno 7974 bound_to 7965
  155.3082  140.3389  155.4245 H   0  0  0  0  0  0  0  0  0  0  0  0  # atno 8008 bound_to 7997
  156.1968  140.1718  156.8019 H   0  0  0  0  0  0  0  0  0  0  0  0  # atno 8009 bound_to 7997
  154.5509  140.0706  156.8650 H   0  0  0  0  0  0  0  0  0  0  0  0  # atno 8010 bound_to 7997
  140.6800  143.2812  151.3841 H   0  0  0  0  0  0  0  0  0  0  0  0  # atno 10167 bound_to 10162
  156.2144  130.6939  151.0686 H   0  0  0  0  0  0  0  0  0  0  0  0  # atno 10718 bound_to 10713
  154.7722  135.4866  153.9671 H   0  0  0  0  0  0  0  0  0  0  0  0  # atno 10763 bound_to 10752
  153.1382  135.6767  153.9076 H   0  0  0  0  0  0  0  0  0  0  0  0  # atno 10764 bound_to 10752
  153.8759  135.3138  155.3422 H   0  0  0  0  0  0  0  0  0  0  0  0  # atno 10765 bound_to 10752
  140.0961  134.5144  155.8806 H   0  0  0  0  0  0  0  0  0  0  0  0  # atno 11005 bound_to 11000
  144.6895  139.9321  143.7472 LP  0  0  0  0  0  0  0  0  0  0  0  0  # atno 17320 bound_to 7965
  146.0544  139.3542  143.0619 LP  0  0  0  0  0  0  0  0  0  0  0  0  # atno 17321 bound_to 7965
  139.6117  144.1085  152.2305 LP  0  0  0  0  0  0  0  0  0  0  0  0  # atno 17342 bound_to 10162
  140.0501  144.5939  150.7343 LP  0  0  0  0  0  0  0  0  0  0  0  0  # atno 17343 bound_to 10162
  157.7056  131.0758  150.6679 LP  0  0  0  0  0  0  0  0  0  0  0  0  # atno 17370 bound_to 10713
  156.6740  130.4547  149.5648 LP  0  0  0  0  0  0  0  0  0  0  0  0  # atno 17371 bound_to 10713
  141.2092  133.6682  156.6425 LP  0  0  0  0  0  0  0  0  0  0  0  0  # atno 17394 bound_to 11000
  140.3284  134.7949  157.4307 LP  0  0  0  0  0  0  0  0  0  0  0  0  # atno 17395 bound_to 11000

$$$$
