#       Name:                AV-unprocessed.smi:2759
#       Creating user name   scv26
#       Creation time:       Fri Mar 27 15:07:16 2020


#       File generated by GOLD software.
#

@<TRIPOS>MOLECULE
AV-unprocessed.smi:2759
    51    52     1
SMALL
NO_CHARGES


@<TRIPOS>ATOM
      1 ****        -3.0203  -2.7050  -2.7205 C.3            1 S1                 0.0000
      2 ****        -1.6469  -3.3116  -2.3717 C.3            1 S1                 0.0000
      3 ****        -1.8399  -4.7875  -1.9754 C.3            1 S1                 0.0000
      4 ****        -0.9146  -2.4885  -1.2783 C.3            1 S1                 0.0000
      5 ****        -0.7936  -1.1485  -1.7215 O.3            1 S1                 0.0000
      6 ****         0.5090  -2.9918  -0.9509 C.3            1 S1                 0.0000
      7 ****         1.0781  -2.3584   0.2765 C.2            1 S1                 0.0000
      8 ****         1.8057  -1.2462   0.3415 N.2            1 S1                 0.0000
      9 ****         1.9540  -1.1084   1.6888 C.2            1 S1                 0.0000
     10 ****         2.6943   0.0339   2.3091 C.3            1 S1                 0.0000
     11 ****         1.7451   1.1996   2.5973 C.2            1 S1                 0.0000
     12 ****         1.4969   1.5188   3.7597 O.2            1 S1                 0.0000
     13 ****         1.2249   1.8284   1.5310 N.am           1 S1                 0.0000
     14 ****         0.2685   2.9299   1.5845 C.3            1 S1                 0.0000
     15 ****        -0.4938   3.0537   0.2512 C.3            1 S1                 0.0000
     16 ****        -0.4432   4.5342  -0.1296 C.3            1 S1                 0.0000
     17 ****         0.8634   5.0354   0.4772 C.3            1 S1                 0.0000
     18 ****         0.9731   4.2834   1.8039 C.3            1 S1                 0.0000
     19 ****         1.3822  -2.0484   2.4329 N.2            1 S1                 0.0000
     20 ****         0.7749  -2.8862   1.4867 O.3            1 S1                 0.0000
     21 ****        -3.6690  -2.6653  -1.8449 H              1 S1                 0.0000
     22 ****        -3.5293  -3.2957  -3.4827 H              1 S1                 0.0000
     23 ****        -2.9297  -1.6924  -3.1139 H              1 S1                 0.0000
     24 ****        -1.0405  -3.2917  -3.2785 H              1 S1                 0.0000
     25 ****        -2.3567  -4.8769  -1.0193 H              1 S1                 0.0000
     26 ****        -0.8929  -5.3200  -1.8984 H              1 S1                 0.0000
     27 ****        -2.4327  -5.3187  -2.7206 H              1 S1                 0.0000
     28 ****        -1.5196  -2.4983  -0.3703 H              1 S1                 0.0000
     29 ****        -0.3817  -0.6413  -1.0384 H              1 S1                 0.0000
     30 ****         0.5100  -4.0656  -0.7731 H              1 S1                 0.0000
     31 ****         1.1833  -2.8214  -1.7913 H              1 S1                 0.0000
     32 ****         3.1728  -0.2946   3.2329 H              1 S1                 0.0000
     33 ****         3.4890   0.3658   1.6397 H              1 S1                 0.0000
     34 ****         1.4924   1.5028   0.6132 H              1 S1                 0.0000
     35 ****        -0.4441   2.7562   2.3931 H              1 S1                 0.0000
     36 ****        -0.0022   2.4708  -0.5296 H              1 S1                 0.0000
     37 ****        -1.5181   2.6876   0.3269 H              1 S1                 0.0000
     38 ****        -0.4945   4.6931  -1.2071 H              1 S1                 0.0000
     39 ****        -1.2839   5.0598   0.3253 H              1 S1                 0.0000
     40 ****         1.6979   4.7627  -0.1704 H              1 S1                 0.0000
     41 ****         0.8801   6.1180   0.6061 H              1 S1                 0.0000
     42 ****         0.4428   4.8406   2.5770 H              1 S1                 0.0000
     43 ****         2.0085   4.1879   2.1338 H              1 S1                 0.0000
     44 ****        -1.7003  -0.7754  -1.9181 LP             1 S1                 0.0000
     45 ****        -0.2334  -1.1166  -2.5493 LP             1 S1                 0.0000
     46 ****         2.1503  -0.6681  -0.3982 LP             1 S1                 0.0000
     47 ****         1.9154   1.0165   4.5163 LP             1 S1                 0.0000
     48 ****         0.8767   2.2804   3.9475 LP             1 S1                 0.0000
     49 ****         1.3843  -2.1373   3.4289 LP             1 S1                 0.0000
     50 ****         1.1366  -3.8155   1.5616 LP             1 S1                 0.0000
     51 ****        -0.2159  -2.9023   1.6210 LP             1 S1                 0.0000
@<TRIPOS>BOND
    1    1    2 1     
    2    1   21 1     
    3    1   22 1     
    4    1   23 1     
    5    2    3 1     
    6    2    4 1     
    7    2   24 1     
    8    3   25 1     
    9    3   26 1     
   10    3   27 1     
   11    4    5 1     
   12    4    6 1     
   13    4   28 1     
   14    5   29 1     
   15    6    7 1     
   16    6   30 1     
   17    6   31 1     
   18    7   20 1     
   19    7    8 2     
   20    8    9 1     
   21    9   10 1     
   22    9   19 2     
   23   10   11 1     
   24   10   32 1     
   25   10   33 1     
   26   11   12 2     
   27   11   13 am    
   28   13   14 1     
   29   13   34 1     
   30   14   18 1     
   31   14   15 1     
   32   14   35 1     
   33   15   16 1     
   34   15   36 1     
   35   15   37 1     
   36   16   17 1     
   37   16   38 1     
   38   16   39 1     
   39   17   18 1     
   40   17   40 1     
   41   17   41 1     
   42   18   42 1     
   43   18   43 1     
   44   19   20 1     
   45    5   44 1     
   46    5   45 1     
   47    8   46 1     
   48   12   47 1     
   49   12   48 1     
   50   19   49 1     
   51   20   50 1     
   52   20   51 1     
@<TRIPOS>SUBSTRUCTURE
      1 S1             1
@<TRIPOS>SET
LONE_PAIRS      STATIC     ATOMS    <user>   **** ""
8 44 45 46 47 48 49 50 51
DONOR_HYDROGENS      STATIC     ATOMS    <user>   **** ""
2 29 34
ATOM$BLUE        STATIC     ATOMS    COLORGROUP SYSTEM
8 44 45 46 47 48 49 50 51
ATOM$RED        STATIC     ATOMS    COLORGROUP SYSTEM
2 29 34
