#       Name:                AV-unprocessed.smi:1406
#       Creating user name   scv26
#       Creation time:       Fri Mar 27 05:35:04 2020


#       File generated by GOLD software.
#

@<TRIPOS>MOLECULE
AV-unprocessed.smi:1406
    45    47     1
SMALL
NO_CHARGES


@<TRIPOS>ATOM
      1 ****        -2.6876  -3.1792   0.4913 C.3            1 S1                 0.0000
      2 ****        -2.1751  -1.8340   1.0449 C.3            1 S1                 0.0000
      3 ****        -0.6952  -1.5780   0.7175 C.2            1 S1                 0.0000
      4 ****         0.0564  -2.5080   0.4233 O.2            1 S1                 0.0000
      5 ****        -0.2890  -0.2987   0.7641 N.am           1 S1                 0.0000
      6 ****         1.0768   0.1627   0.5233 C.3            1 S1                 0.0000
      7 ****         1.4113   1.4667   1.2719 C.3            1 S1                 0.0000
      8 ****         2.2500   2.2773   0.2784 C.3            1 S1                 0.0000
      9 ****         1.6734   1.9021  -1.0178 N.4            1 S1                 1.0000
     10 ****         2.3809   2.3025  -2.2506 C.3            1 S1                 0.0000
     11 ****         1.4821   1.9627  -3.4590 C.3            1 S1                 0.0000
     12 ****         1.0065   0.4917  -3.4411 C.3            1 S1                 0.0000
     13 ****         0.3959   0.1004  -2.0777 C.3            1 S1                 0.0000
     14 ****         1.3954   0.4564  -0.9626 C.3            1 S1                 0.0000
     15 ****        -2.4058  -1.7084   2.4787 N.pl3          1 S1                 0.0000
     16 ****        -2.9109  -0.6918   3.1809 C.2            1 S1                 0.0000
     17 ****        -2.9394  -0.9023   4.4892 N.2            1 S1                 0.0000
     18 ****        -2.3915  -2.1529   4.5311 C.2            1 S1                 0.0000
     19 ****        -2.0443  -2.6777   3.3562 N.2            1 S1                 0.0000
     20 ****        -2.5604  -3.2332  -0.5904 H              1 S1                 0.0000
     21 ****        -3.7503  -3.3050   0.7005 H              1 S1                 0.0000
     22 ****        -2.1632  -4.0300   0.9286 H              1 S1                 0.0000
     23 ****        -2.7522  -1.0459   0.5580 H              1 S1                 0.0000
     24 ****        -0.9712   0.4032   1.0120 H              1 S1                 0.0000
     25 ****         1.7705  -0.6045   0.8740 H              1 S1                 0.0000
     26 ****         0.4973   2.0169   1.5016 H              1 S1                 0.0000
     27 ****         1.9340   1.2901   2.2125 H              1 S1                 0.0000
     28 ****         2.1930   3.3515   0.4562 H              1 S1                 0.0000
     29 ****         3.2969   1.9724   0.3192 H              1 S1                 0.0000
     30 ****         2.5889   3.3726  -2.2258 H              1 S1                 0.0000
     31 ****         3.3399   1.7865  -2.3191 H              1 S1                 0.0000
     32 ****         0.6092   2.6168  -3.4492 H              1 S1                 0.0000
     33 ****         2.0109   2.1734  -4.3891 H              1 S1                 0.0000
     34 ****         0.2821   0.3219  -4.2383 H              1 S1                 0.0000
     35 ****         1.8547  -0.1601  -3.6547 H              1 S1                 0.0000
     36 ****        -0.5486   0.6245  -1.9251 H              1 S1                 0.0000
     37 ****         0.1739  -0.9670  -2.0694 H              1 S1                 0.0000
     38 ****         2.3310  -0.0644  -1.1787 H              1 S1                 0.0000
     39 ****        -3.2616   0.2232   2.7262 H              1 S1                 0.0000
     40 ****        -2.2382  -2.6902   5.4555 H              1 S1                 0.0000
     41 ****         0.7715   2.3557  -1.0485 H              1 S1                 0.0000
     42 ****        -0.2938  -3.4442   0.3952 LP             1 S1                 0.0000
     43 ****         1.0171  -2.3270   0.2126 LP             1 S1                 0.0000
     44 ****        -3.2668  -0.3160   5.2302 LP             1 S1                 0.0000
     45 ****        -1.6225  -3.5647   3.1684 LP             1 S1                 0.0000
@<TRIPOS>BOND
    1    1    2 1     
    2    1   20 1     
    3    1   21 1     
    4    1   22 1     
    5    2    3 1     
    6    2   15 1     
    7    2   23 1     
    8    3    4 2     
    9    3    5 am    
   10    5    6 1     
   11    5   24 1     
   12    6   14 1     
   13    6    7 1     
   14    6   25 1     
   15    7    8 1     
   16    7   26 1     
   17    7   27 1     
   18    8    9 1     
   19    8   28 1     
   20    8   29 1     
   21    9   14 1     
   22    9   10 1     
   23    9   41 1     
   24   10   11 1     
   25   10   30 1     
   26   10   31 1     
   27   11   12 1     
   28   11   32 1     
   29   11   33 1     
   30   12   13 1     
   31   12   34 1     
   32   12   35 1     
   33   13   14 1     
   34   13   36 1     
   35   13   37 1     
   36   14   38 1     
   37   15   19 1     
   38   15   16 1     
   39   16   17 2     
   40   16   39 1     
   41   17   18 1     
   42   18   19 2     
   43   18   40 1     
   44    4   42 1     
   45    4   43 1     
   46   17   44 1     
   47   19   45 1     
@<TRIPOS>SUBSTRUCTURE
      1 S1             1
@<TRIPOS>SET
LONE_PAIRS      STATIC     ATOMS    <user>   **** ""
4 42 43 44 45
DONOR_HYDROGENS      STATIC     ATOMS    <user>   **** ""
2 24 41
ATOM$BLUE        STATIC     ATOMS    COLORGROUP SYSTEM
4 42 43 44 45
ATOM$RED        STATIC     ATOMS    COLORGROUP SYSTEM
2 24 41
