AV-unprocessed.smi:36|AV-procd|sdf|281|dock2
  -GOLD-   2262016 53D 1   1.00000     0.00000
 Structure written by MMmdl.
 64 67  0  0  0  0  0  0  0  0  1 V2000
  146.4220  132.1813  150.1580 C   0  0  0  0  0  0  0  0  0  0  0  0
  145.0246  132.5903  150.6537 C   0  0  0  0  0  0  0  0  0  0  0  0
  144.0956  132.8359  149.4531 C   0  0  0  0  0  0  0  0  0  0  0  0
  144.4401  131.4798  151.5426 C   0  0  0  0  0  0  0  0  0  0  0  0
  145.1584  134.1993  151.6753 Si  0  0  0  0  0  0  0  0  0  0  0  0
  145.7385  135.6483  150.5909 C   0  0  0  0  0  0  0  0  0  0  0  0
  143.5016  134.6335  152.4989 C   0  0  0  0  0  0  0  0  0  0  0  0
  146.3079  133.9549  152.8919 O   0  0  0  0  0  0  0  0  0  0  0  0
  146.7326  134.9723  153.7746 C   0  0  0  0  0  0  0  0  0  0  0  0
  147.4842  134.3404  154.9536 C   0  0  2  0  0  0  0  0  0  0  0  0
  147.7366  135.3672  155.9133 O   0  0  0  0  0  0  0  0  0  0  0  0
  149.0452  135.2580  156.3609 C   0  0  2  0  0  0  0  0  0  0  0  0
  149.5103  136.6011  156.8142 N   0  0  0  0  0  0  0  0  0  0  0  0
  148.9121  137.4375  157.7300 C   0  0  0  0  0  0  0  0  0  0  0  0
  149.5260  138.5720  157.9360 N   0  0  0  0  0  0  0  0  0  0  0  0
  150.6286  138.5157  157.0929 C   0  0  0  0  0  0  0  0  0  0  0  0
  151.6981  139.4060  156.8133 C   0  0  0  0  0  0  0  0  0  0  0  0
  151.7715  140.6009  157.4455 N   0  0  0  0  0  0  0  0  0  0  0  0
  150.6809  141.4783  157.8330 C   0  0  0  0  0  0  0  0  0  0  0  0
  149.5004  141.1666  157.6729 O   0  0  0  0  0  0  0  0  0  0  0  0
  151.0729  142.7516  158.5246 C   0  0  0  0  0  0  0  0  0  0  0  0
  150.1640  143.8317  158.5838 C   0  0  0  0  0  0  0  0  0  0  0  0
  150.5281  145.0366  159.2161 C   0  0  0  0  0  0  0  0  0  0  0  0
  151.8075  145.1746  159.7866 C   0  0  0  0  0  0  0  0  0  0  0  0
  152.7236  144.1078  159.7219 C   0  0  0  0  0  0  0  0  0  0  0  0
  152.3601  142.9019  159.0908 C   0  0  0  0  0  0  0  0  0  0  0  0
  152.6266  139.0021  155.9065 N   0  0  0  0  0  0  0  0  0  0  0  0
  152.5108  137.8126  155.3084 C   0  0  0  0  0  0  0  0  0  0  0  0
  151.5639  136.8863  155.4702 N   0  0  0  0  0  0  0  0  0  0  0  0
  150.6303  137.2823  156.3838 C   0  0  0  0  0  0  0  0  0  0  0  0
  149.8506  134.7578  155.1713 C   0  0  0  0  0  0  0  0  0  0  0  0
  148.8670  133.7821  154.5523 C   0  0  1  0  0  0  0  0  0  0  0  0
  149.0524  132.4904  155.0988 O   0  0  0  0  0  0  0  0  0  0  0  0
  146.3805  131.2652  149.5678 H   0  0  0  0  0  0  0  0  0  0  0  0
  147.1031  132.0040  150.9905 H   0  0  0  0  0  0  0  0  0  0  0  0
  146.8636  132.9556  149.5301 H   0  0  0  0  0  0  0  0  0  0  0  0
  144.4874  133.6151  148.7989 H   0  0  0  0  0  0  0  0  0  0  0  0
  143.1028  133.1487  149.7783 H   0  0  0  0  0  0  0  0  0  0  0  0
  143.9766  131.9335  148.8524 H   0  0  0  0  0  0  0  0  0  0  0  0
  144.3275  130.5467  150.9893 H   0  0  0  0  0  0  0  0  0  0  0  0
  143.4573  131.7559  151.9263 H   0  0  0  0  0  0  0  0  0  0  0  0
  145.0821  131.2764  152.4000 H   0  0  0  0  0  0  0  0  0  0  0  0
  145.0507  135.8328  149.7659 H   0  0  0  0  0  0  0  0  0  0  0  0
  146.7201  135.4564  150.1585 H   0  0  0  0  0  0  0  0  0  0  0  0
  145.8123  136.5728  151.1630 H   0  0  0  0  0  0  0  0  0  0  0  0
  142.7159  134.7930  151.7607 H   0  0  0  0  0  0  0  0  0  0  0  0
  143.5780  135.5438  153.0929 H   0  0  0  0  0  0  0  0  0  0  0  0
  143.1659  133.8401  153.1664 H   0  0  0  0  0  0  0  0  0  0  0  0
  147.3886  135.6556  153.2340 H   0  0  0  0  0  0  0  0  0  0  0  0
  145.8741  135.5493  154.1205 H   0  0  0  0  0  0  0  0  0  0  0  0
  146.8692  133.5609  155.4068 H   0  0  0  0  0  0  0  0  0  0  0  0
  149.1050  134.6060  157.2338 H   0  0  0  0  0  0  0  0  0  0  0  0
  147.9986  137.1780  158.2450 H   0  0  0  0  0  0  0  0  0  0  0  0
  152.7005  140.9233  157.6743 H   0  0  0  0  0  0  0  0  0  0  0  0
  149.1788  143.7422  158.1490 H   0  0  0  0  0  0  0  0  0  0  0  0
  149.8256  145.8557  159.2616 H   0  0  0  0  0  0  0  0  0  0  0  0
  152.0868  146.0992  160.2700 H   0  0  0  0  0  0  0  0  0  0  0  0
  153.7076  144.2152  160.1543 H   0  0  0  0  0  0  0  0  0  0  0  0
  153.0815  142.0991  159.0438 H   0  0  0  0  0  0  0  0  0  0  0  0
  153.2877  137.5685  154.5989 H   0  0  0  0  0  0  0  0  0  0  0  0
  150.0458  135.5812  154.4833 H   0  0  0  0  0  0  0  0  0  0  0  0
  150.7992  134.3182  155.4823 H   0  0  0  0  0  0  0  0  0  0  0  0
  148.9983  133.7188  153.4714 H   0  0  0  0  0  0  0  0  0  0  0  0
  149.4027  131.9266  154.4260 H   0  0  0  0  0  0  0  0  0  0  0  0
  1  2  1  0  0  0  0
  1 34  1  0  0  0  0
  1 35  1  0  0  0  0
  1 36  1  0  0  0  0
  2  3  1  0  0  0  0
  2  4  1  0  0  0  0
  2  5  1  0  0  0  0
  3 37  1  0  0  0  0
  3 38  1  0  0  0  0
  3 39  1  0  0  0  0
  4 40  1  0  0  0  0
  4 41  1  0  0  0  0
  4 42  1  0  0  0  0
  5  6  1  0  0  0  0
  5  7  1  0  0  0  0
  5  8  1  0  0  0  0
  6 43  1  0  0  0  0
  6 44  1  0  0  0  0
  6 45  1  0  0  0  0
  7 46  1  0  0  0  0
  7 47  1  0  0  0  0
  7 48  1  0  0  0  0
  8  9  1  0  0  0  0
  9 10  1  0  0  0  0
  9 49  1  0  0  0  0
  9 50  1  0  0  0  0
 10 32  1  0  0  0  0
 10 11  1  0  0  0  0
 10 51  1  0  0  0  0
 11 12  1  0  0  0  0
 12 13  1  0  0  0  0
 12 31  1  0  0  0  0
 12 52  1  0  0  0  0
 13 30  1  0  0  0  0
 13 14  1  0  0  0  0
 14 15  2  0  0  0  0
 14 53  1  0  0  0  0
 15 16  1  0  0  0  0
 16 30  2  0  0  0  0
 16 17  1  0  0  0  0
 17 18  1  0  0  0  0
 17 27  2  0  0  0  0
 18 19  1  0  0  0  0
 18 54  1  0  0  0  0
 19 20  2  0  0  0  0
 19 21  1  0  0  0  0
 21 26  1  0  0  0  0
 21 22  2  0  0  0  0
 22 23  1  0  0  0  0
 22 55  1  0  0  0  0
 23 24  2  0  0  0  0
 23 56  1  0  0  0  0
 24 25  1  0  0  0  0
 24 57  1  0  0  0  0
 25 26  2  0  0  0  0
 25 58  1  0  0  0  0
 26 59  1  0  0  0  0
 27 28  1  0  0  0  0
 28 29  2  0  0  0  0
 28 60  1  0  0  0  0
 29 30  1  0  0  0  0
 31 32  1  0  0  0  0
 31 61  1  0  0  0  0
 31 62  1  0  0  0  0
 32 33  1  0  0  0  0
 32 63  1  0  0  0  0
 33 64  1  0  0  0  0
M  END
> <s_m_source_file>
AV-unprocessed.smi

> <i_m_source_file_index>
36

> <i_lp_mmshare_version>
43012

> <i_f3d_flags>
0

> <s_epik_input>
W0NIM11DKFtDSDNdKShbQ0gzXSlbU2ldKFtDSDNdKShbQ0gzXSlPW0NIMl1bQ0BASF0xT1tDQEhdKFtDSDJdW0NASF0xW09IXSluKFtjSF1uMiljKGMyMyluW2NIXW5jM1tOSF1DKD1PKWM0W2NIXVtjSF1bY0hdW2NIXVtjSF00

> <s_epik_cmdline>
J2VwaWtfcHl0aG9uJywgJy1waCcsICc3LjAnLCAnLXRuJywgJzgnLCAnLW1hJywgJzIwMCcsICctbWV0YWxfYmluZGluZycsICctaW1hZScsICc8aW5maWxlLm1hZT4nLCAnLW9tYWUnLCAnPG91dGZpbGUubWFlPic=

> <r_lp_tautomer_probability>
1

> <r_epik_Ionization_Penalty>
0.00150433

> <r_epik_Ionization_Penalty_Charging>
0

> <r_epik_Ionization_Penalty_Neutral>
0.00150433

> <r_epik_State_Penalty>
0.00724046

> <r_epik_Charging_Adjusted_Penalty>
0.00724046

> <i_epik_Tot_Q>
0

> <i_epik_Tot_abs_Q>
0

> <r_epik_Metal_State_Penalty>
0.323355

> <b_epik_Metal_Only>
0

> <s_epik_Chemistry_Notes>
This compound contains an acetal/aminal-like group ( X-CH(R)-Y where X, Y are N, S, or O) that may be acid/base labile, releasing an aldehyde.

> <s_lp_Force_Field>
OPLS_2005

> <r_lp_Energy>
37.1131

> <b_lp_Chiralities_Consistent>
1

> <s_lp_Variant>
AV-unprocessed.smi:36-3

> <Gold.Version>
5.8.1

> <Gold.Id.Protein>
6NUR|6NUR_protein|mol2

> <Gold.PLP.Fitness>
57.4460

> <Gold.PLP.PLP>
-52.5888

> <Gold.PLP.part.hbond>
-2.0000

> <Gold.PLP.part.metal>
0.0000

> <Gold.PLP.part.buried>
-5.3511

> <Gold.PLP.part.nonpolar>
-45.6286

> <Gold.PLP.part.repulsive>
0.4177

> <Gold.PLP.ligand.clash>
0.0456

> <Gold.PLP.ligand.torsion>
0.7445

> <Gold.PLP.Chemscore.Hbond>
2.0000

> <Gold.PLP.Chemscore.CHOScore>
0.0000

> <Gold.PLP.Chemscore.Metal>
0.0000

> <Gold.Chemscore.Hbonds>
donor molecule, donor type, donor heavy atom, donor atom, acceptor molecule, acceptor atom, score
      P1  H  7997  8010       L1    27  0.58
      P1  H 10752 10765       L1    29  0.22

> <Gold.PLP.Chemscore.Internal.Correction>
0.3919

> <Gold.Rescore>
     Score         DG    S(hbond)    S(metal)    S(lipo)     H(rot)  DE(clash)    DE(int)     intcor
     12.10     -17.63       1.10        0.00     131.68       2.70       0.28       5.25       ----

> <Gold.Chemscore.Fitness>
12.0951

> <Gold.Chemscore.DG>
-17.6307

> <Gold.Chemscore.ZeroCoef>
-5.4800

> <Gold.Chemscore.Hbond>
1.0979

> <Gold.Chemscore.Metal>
0.0000

> <Gold.Chemscore.Lipo>
131.6777

> <Gold.Chemscore.Internal_Hbond>
0.0000

> <Gold.Chemscore.DEClash>
0.2839

> <Gold.Chemscore.DEInternal>
5.2517

> <Gold.Chemscore.Rot>
2.7041

> <Gold.Chemscore.Internal.Correction>
   9.000000E+99

> <Gold.Chemscore.Hbonds>
donor molecule, donor type, donor heavy atom, donor atom, acceptor molecule, acceptor atom, score
      P1  H  7997  8010       L1    27  0.51

> <Gold.Chemscore.Hbond.Weighted>
-3.6669

> <Gold.Chemscore.Metal.Weighted>
-0.0000

> <Gold.Chemscore.Lipo.Weighted>
-15.4063

> <Gold.Chemscore.Internal_Hbond.Weighted>
0.0000

> <Gold.Chemscore.DEClash.Weighted>
0.2839

> <Gold.Chemscore.DEInternal.Weighted>
5.2517

> <Gold.Chemscore.Rot.Weighted>
6.9225

> <Gold.Chemscore.Internal.Correction.Weighted>
   9.000000E+99

> <Gold.Protein.RotatedTorsions>
[ 6907 6896 6895 6894 ] final  -39.58 input  -60.11 | X-H torsion
[ 7974 7965 7964 7962 ] final   24.20 input  175.53 | X-H torsion
[ 8008 7997 7996 7995 ] final  105.42 input   59.86 | X-H torsion
[ 10167 10162 10161 10158 ] final  -88.74 input  -65.29 | X-H torsion
[ 10718 10713 10712 10709 ] final -120.94 input   66.30 | X-H torsion
[ 10763 10752 10751 10750 ] final -179.78 input  -60.55 | X-H torsion
[ 11005 11000 10999 10996 ] final  149.42 input  -57.11 | X-H torsion

> <Gold.Protein.ActiveResidues>
 VAL166  LYS551  ARG553  GLY616  TRP617  ASP618  TYR619  PRO620  LYS621  CYS622 
 ASP623  PHE694  ASN695  SER759  ASP760  ASP761  ALA762  ILE779  LEU786  VAL792 
 PHE793  MET794  SER795  GLU796  ALA797  LYS798  CYS799  TRP800  GLU811  SER814 

> <Gold.Protein.RotatedAtoms>
  150.9886  134.9226  159.7886 H   0  0  0  0  0  0  0  0  0  0  0  0  # atno 6907 bound_to 6896
  152.5244  134.3312  159.9193 H   0  0  0  0  0  0  0  0  0  0  0  0  # atno 6908 bound_to 6896
  151.3318  133.3956  159.2698 H   0  0  0  0  0  0  0  0  0  0  0  0  # atno 6909 bound_to 6896
  146.1948  139.7637  142.8805 H   0  0  0  0  0  0  0  0  0  0  0  0  # atno 7974 bound_to 7965
  156.1657  140.3131  155.8885 H   0  0  0  0  0  0  0  0  0  0  0  0  # atno 8008 bound_to 7997
  155.3691  140.0481  157.3062 H   0  0  0  0  0  0  0  0  0  0  0  0  # atno 8009 bound_to 7997
  154.5190  140.2191  155.9022 H   0  0  0  0  0  0  0  0  0  0  0  0  # atno 8010 bound_to 7997
  140.3717  143.2791  151.9492 H   0  0  0  0  0  0  0  0  0  0  0  0  # atno 10167 bound_to 10162
  156.1297  130.6386  150.9601 H   0  0  0  0  0  0  0  0  0  0  0  0  # atno 10718 bound_to 10713
  154.5306  135.2799  155.1183 H   0  0  0  0  0  0  0  0  0  0  0  0  # atno 10763 bound_to 10752
  154.2704  135.6304  153.5312 H   0  0  0  0  0  0  0  0  0  0  0  0  # atno 10764 bound_to 10752
  152.9956  135.5627  154.5819 H   0  0  0  0  0  0  0  0  0  0  0  0  # atno 10765 bound_to 10752
  140.1044  134.8963  157.1843 H   0  0  0  0  0  0  0  0  0  0  0  0  # atno 11005 bound_to 11000
  145.3677  141.0337  143.3249 LP  0  0  0  0  0  0  0  0  0  0  0  0  # atno 17320 bound_to 7965
  144.8559  139.5250  143.6835 LP  0  0  0  0  0  0  0  0  0  0  0  0  # atno 17321 bound_to 7965
  139.4803  144.5901  151.7787 LP  0  0  0  0  0  0  0  0  0  0  0  0  # atno 17342 bound_to 10162
  140.5026  144.1145  150.5975 LP  0  0  0  0  0  0  0  0  0  0  0  0  # atno 17343 bound_to 10162
  157.6476  131.0902  150.8120 LP  0  0  0  0  0  0  0  0  0  0  0  0  # atno 17370 bound_to 10713
  156.8206  130.4982  149.5343 LP  0  0  0  0  0  0  0  0  0  0  0  0  # atno 17371 bound_to 10713
  140.3176  134.2952  155.7253 LP  0  0  0  0  0  0  0  0  0  0  0  0  # atno 17394 bound_to 11000
  141.2114  133.7690  156.9866 LP  0  0  0  0  0  0  0  0  0  0  0  0  # atno 17395 bound_to 11000

$$$$
