AV-unprocessed.smi:1393|AV-procd|sdf|5663|dock2
  -GOLD-   22720 5283D 1   1.00000     0.00000
 Structure written by MMmdl.
 39 40  0  0  0  0  0  0  0  0  1 V2000
  149.1138  141.0980  157.3583 O   0  0  0  0  0  0  0  0  0  0  0  0
  150.3326  141.1207  157.1798 C   0  0  0  0  0  0  0  0  0  0  0  0
  151.1503  142.3928  157.4469 C   0  0  0  0  0  0  0  0  0  0  0  0
  151.8419  142.3888  158.7475 N   0  0  0  0  0  0  0  0  0  0  0  0
  151.5343  143.4370  159.6332 C   0  0  0  0  0  0  0  0  0  0  0  0
  152.1020  143.5277  160.8433 C   0  0  0  0  0  0  0  0  0  0  0  0
  153.0478  142.5097  161.2309 C   0  0  0  0  0  0  0  0  0  0  0  0
  153.3637  141.4887  160.4007 C   0  0  0  0  0  0  0  0  0  0  0  0
  154.3514  140.3954  160.8015 C   0  0  0  0  0  0  0  0  0  0  0  0
  155.4560  140.4712  160.0583 F   0  0  0  0  0  0  0  0  0  0  0  0
  154.7125  140.4993  162.0813 F   0  0  0  0  0  0  0  0  0  0  0  0
  153.8147  139.1867  160.6283 F   0  0  0  0  0  0  0  0  0  0  0  0
  152.7355  141.4015  159.0664 C   0  0  0  0  0  0  0  0  0  0  0  0
  152.9937  140.4941  158.2735 O   0  0  0  0  0  0  0  0  0  0  0  0
  151.0310  140.0633  156.7388 N   0  0  0  0  0  0  0  0  0  0  0  0
  150.4792  138.7500  156.4056 C   0  0  2  0  0  0  0  0  0  0  0  0
  151.2990  137.6240  157.0903 C   0  0  0  0  0  0  0  0  0  0  0  0
  151.2986  136.2527  156.3823 C   0  0  0  0  0  0  0  0  0  0  0  0
  149.9074  135.6478  156.1046 C   0  0  0  0  0  0  0  0  0  0  0  0
  148.9027  136.5448  155.3442 C   0  0  0  0  0  0  0  0  0  0  0  0
  149.5298  137.5363  154.4716 N   0  0  0  0  0  0  0  0  0  0  0  0
  150.2569  138.5873  154.8887 C   0  0  0  0  0  0  0  0  0  0  0  0
  150.7459  139.3859  154.0905 O   0  0  0  0  0  0  0  0  0  0  0  0
  151.8708  142.5291  156.6381 H   0  0  0  0  0  0  0  0  0  0  0  0
  150.4788  143.2496  157.3747 H   0  0  0  0  0  0  0  0  0  0  0  0
  150.8106  144.1522  159.2703 H   0  0  0  0  0  0  0  0  0  0  0  0
  151.8542  144.3380  161.5130 H   0  0  0  0  0  0  0  0  0  0  0  0
  153.5007  142.5770  162.2087 H   0  0  0  0  0  0  0  0  0  0  0  0
  152.0267  140.1749  156.6116 H   0  0  0  0  0  0  0  0  0  0  0  0
  149.4772  138.7281  156.8360 H   0  0  0  0  0  0  0  0  0  0  0  0
  152.3391  137.9404  157.1819 H   0  0  0  0  0  0  0  0  0  0  0  0
  150.9417  137.5003  158.1134 H   0  0  0  0  0  0  0  0  0  0  0  0
  151.8514  136.3303  155.4450 H   0  0  0  0  0  0  0  0  0  0  0  0
  151.8698  135.5478  156.9870 H   0  0  0  0  0  0  0  0  0  0  0  0
  150.0564  134.7336  155.5289 H   0  0  0  0  0  0  0  0  0  0  0  0
  149.4539  135.3294  157.0436 H   0  0  0  0  0  0  0  0  0  0  0  0
  148.2429  135.9217  154.7402 H   0  0  0  0  0  0  0  0  0  0  0  0
  148.2464  137.0532  156.0513 H   0  0  0  0  0  0  0  0  0  0  0  0
  149.3936  137.4217  153.4776 H   0  0  0  0  0  0  0  0  0  0  0  0
  1  2  2  0  0  0  0
  2  3  1  0  0  0  0
  2 15  1  0  0  0  0
  3  4  1  0  0  0  0
  3 24  1  0  0  0  0
  3 25  1  0  0  0  0
  4 13  1  0  0  0  0
  4  5  1  0  0  0  0
  5  6  2  0  0  0  0
  5 26  1  0  0  0  0
  6  7  1  0  0  0  0
  6 27  1  0  0  0  0
  7  8  2  0  0  0  0
  7 28  1  0  0  0  0
  8  9  1  0  0  0  0
  8 13  1  0  0  0  0
  9 10  1  0  0  0  0
  9 11  1  0  0  0  0
  9 12  1  0  0  0  0
 13 14  2  0  0  0  0
 15 16  1  0  0  0  0
 15 29  1  0  0  0  0
 16 22  1  0  0  0  0
 16 17  1  0  0  0  0
 16 30  1  0  0  0  0
 17 18  1  0  0  0  0
 17 31  1  0  0  0  0
 17 32  1  0  0  0  0
 18 19  1  0  0  0  0
 18 33  1  0  0  0  0
 18 34  1  0  0  0  0
 19 20  1  0  0  0  0
 19 35  1  0  0  0  0
 19 36  1  0  0  0  0
 20 21  1  0  0  0  0
 20 37  1  0  0  0  0
 20 38  1  0  0  0  0
 21 22  1  0  0  0  0
 21 39  1  0  0  0  0
 22 23  2  0  0  0  0
M  END
> <s_m_source_file>
AV-unprocessed.smi

> <i_m_source_file_index>
1393

> <i_lp_mmshare_version>
43012

> <i_f3d_flags>
0

> <s_epik_input>
RkMoRikoRiljKGMxPU8pW2NIXVtjSF1bY0hdbjFbQ0gyXUMoPU8pW05IXVtDQEBIXTJbQ0gyXVtDSDJdW0NIMl1bQ0gyXVtOSF1DMj1P

> <s_epik_cmdline>
J2VwaWtfcHl0aG9uJywgJy1waCcsICc3LjAnLCAnLXRuJywgJzgnLCAnLW1hJywgJzIwMCcsICctbWV0YWxfYmluZGluZycsICctaW1hZScsICc8aW5maWxlLm1hZT4nLCAnLW9tYWUnLCAnPG91dGZpbGUubWFlPic=

> <r_lp_tautomer_probability>
1

> <r_epik_Ionization_Penalty>
5.5009e-08

> <r_epik_Ionization_Penalty_Charging>
1.68727e-09

> <r_epik_Ionization_Penalty_Neutral>
5.33217e-08

> <r_epik_State_Penalty>
-0

> <r_epik_Charging_Adjusted_Penalty>
1.68727e-09

> <i_epik_Tot_Q>
0

> <i_epik_Tot_abs_Q>
0

> <r_epik_Metal_State_Penalty>
-0

> <b_epik_Metal_Only>
0

> <s_lp_Force_Field>
OPLS_2005

> <r_lp_Energy>
24.6208

> <b_lp_Chiralities_Consistent>
1

> <s_lp_Variant>
AV-unprocessed.smi:1393-1

> <Gold.Version>
5.8.1

> <Gold.Id.Protein>
6NUR|6NUR_protein|mol2

> <Gold.PLP.Fitness>
45.5163

> <Gold.PLP.PLP>
-38.1214

> <Gold.PLP.part.hbond>
-3.0000

> <Gold.PLP.part.metal>
0.0000

> <Gold.PLP.part.buried>
-3.4156

> <Gold.PLP.part.nonpolar>
-32.0666

> <Gold.PLP.part.repulsive>
0.3169

> <Gold.PLP.ligand.clash>
0.1737

> <Gold.PLP.ligand.torsion>
0.6703

> <Gold.PLP.Chemscore.Hbond>
2.8320

> <Gold.PLP.Chemscore.CHOScore>
0.0000

> <Gold.PLP.Chemscore.Metal>
0.0000

> <Gold.Chemscore.Hbonds>
donor molecule, donor type, donor heavy atom, donor atom, acceptor molecule, acceptor atom, score
      L1  H    21    39       P1  7948  1.00
      P1  H  7989  7998       L1    23  1.00
      P1  H  7997  8009       L1    14  0.74

> <Gold.PLP.Chemscore.Internal.Correction>
0.4132

> <Gold.Rescore>
     Score         DG    S(hbond)    S(metal)    S(lipo)     H(rot)  DE(clash)    DE(int)     intcor
     15.54     -19.23       2.73        0.00      77.32       1.72       0.19       3.50       ----

> <Gold.Chemscore.Fitness>
15.5424

> <Gold.Chemscore.DG>
-19.2288

> <Gold.Chemscore.ZeroCoef>
-5.4800

> <Gold.Chemscore.Hbond>
2.7273

> <Gold.Chemscore.Metal>
0.0000

> <Gold.Chemscore.Lipo>
77.3161

> <Gold.Chemscore.Internal_Hbond>
0.0000

> <Gold.Chemscore.DEClash>
0.1889

> <Gold.Chemscore.DEInternal>
3.4975

> <Gold.Chemscore.Rot>
1.7212

> <Gold.Chemscore.Internal.Correction>
   9.000000E+99

> <Gold.Chemscore.Hbonds>
donor molecule, donor type, donor heavy atom, donor atom, acceptor molecule, acceptor atom, score
      L1  H    21    39       P1  7948  0.85
      P1  H  7989  7998       L1    23  1.00
      P1  H  7997  8009       L1    14  0.72

> <Gold.Chemscore.Hbond.Weighted>
-9.1090

> <Gold.Chemscore.Metal.Weighted>
-0.0000

> <Gold.Chemscore.Lipo.Weighted>
-9.0460

> <Gold.Chemscore.Internal_Hbond.Weighted>
0.0000

> <Gold.Chemscore.DEClash.Weighted>
0.1889

> <Gold.Chemscore.DEInternal.Weighted>
3.4975

> <Gold.Chemscore.Rot.Weighted>
4.4062

> <Gold.Chemscore.Internal.Correction.Weighted>
   9.000000E+99

> <Gold.Protein.RotatedTorsions>
[ 6907 6896 6895 6894 ] final  -45.76 input  -60.11 | X-H torsion
[ 7974 7965 7964 7962 ] final  147.37 input  175.53 | X-H torsion
[ 8008 7997 7996 7995 ] final  159.50 input   59.86 | X-H torsion
[ 10167 10162 10161 10158 ] final  -65.89 input  -65.29 | X-H torsion
[ 10718 10713 10712 10709 ] final   81.83 input   66.30 | X-H torsion
[ 10763 10752 10751 10750 ] final  133.48 input  -60.55 | X-H torsion
[ 11005 11000 10999 10996 ] final  -84.18 input  -57.11 | X-H torsion

> <Gold.Protein.ActiveResidues>
 VAL166  LYS551  ARG553  GLY616  TRP617  ASP618  TYR619  PRO620  LYS621  CYS622 
 ASP623  PHE694  ASN695  SER759  ASP760  ASP761  ALA762  ILE779  LEU786  VAL792 
 PHE793  MET794  SER795  GLU796  ALA797  LYS798  CYS799  TRP800  GLU811  SER814 

> <Gold.Protein.RotatedAtoms>
  150.9185  134.8603  159.7472 H   0  0  0  0  0  0  0  0  0  0  0  0  # atno 6907 bound_to 6896
  152.4981  134.4253  159.9504 H   0  0  0  0  0  0  0  0  0  0  0  0  # atno 6908 bound_to 6896
  151.4289  133.3636  159.2801 H   0  0  0  0  0  0  0  0  0  0  0  0  # atno 6909 bound_to 6896
  144.8597  139.6020  143.5936 H   0  0  0  0  0  0  0  0  0  0  0  0  # atno 7974 bound_to 7965
  156.2235  140.1829  156.7421 H   0  0  0  0  0  0  0  0  0  0  0  0  # atno 8008 bound_to 7997
  154.5902  140.0652  156.9257 H   0  0  0  0  0  0  0  0  0  0  0  0  # atno 8009 bound_to 7997
  155.2349  140.3317  155.4301 H   0  0  0  0  0  0  0  0  0  0  0  0  # atno 8010 bound_to 7997
  140.5697  143.2317  151.6564 H   0  0  0  0  0  0  0  0  0  0  0  0  # atno 10167 bound_to 10162
  157.6842  131.0021  150.2284 H   0  0  0  0  0  0  0  0  0  0  0  0  # atno 10718 bound_to 10713
  153.8078  135.3133  155.3397 H   0  0  0  0  0  0  0  0  0  0  0  0  # atno 10763 bound_to 10752
  154.8063  135.4695  154.0405 H   0  0  0  0  0  0  0  0  0  0  0  0  # atno 10764 bound_to 10752
  153.1773  135.6888  153.8614 H   0  0  0  0  0  0  0  0  0  0  0  0  # atno 10765 bound_to 10752
  141.1652  133.7333  156.8830 H   0  0  0  0  0  0  0  0  0  0  0  0  # atno 11005 bound_to 11000
  146.2851  139.6981  142.9201 LP  0  0  0  0  0  0  0  0  0  0  0  0  # atno 17320 bound_to 7965
  145.4337  141.0417  143.2896 LP  0  0  0  0  0  0  0  0  0  0  0  0  # atno 17321 bound_to 7965
  139.5111  144.3521  152.0642 LP  0  0  0  0  0  0  0  0  0  0  0  0  # atno 17342 bound_to 10162
  140.2657  144.4019  150.6169 LP  0  0  0  0  0  0  0  0  0  0  0  0  # atno 17343 bound_to 10162
  156.2922  130.3747  149.7831 LP  0  0  0  0  0  0  0  0  0  0  0  0  # atno 17370 bound_to 10713
  156.5487  130.8332  151.3292 LP  0  0  0  0  0  0  0  0  0  0  0  0  # atno 17371 bound_to 10713
  140.1701  134.9106  157.2823 LP  0  0  0  0  0  0  0  0  0  0  0  0  # atno 17394 bound_to 11000
  140.2511  134.3681  155.7442 LP  0  0  0  0  0  0  0  0  0  0  0  0  # atno 17395 bound_to 11000

$$$$
