AV-unprocessed.smi:275|AV-procd|sdf|2062|dock7
  -GOLD-   2262021313D 1   1.00000     0.00000
 Structure written by MMmdl.
 65 69  0  0  0  0  0  0  0  0  1 V2000
  144.4971  134.7679  155.7754 C   0  0  0  0  0  0  0  0  0  0  0  0
  144.3974  135.9020  154.7336 C   0  0  0  0  0  0  0  0  0  0  0  0
  142.9395  136.0637  154.2726 C   0  0  0  0  0  0  0  0  0  0  0  0
  145.3434  135.7983  153.5163 C   0  0  2  0  0  0  0  0  0  0  0  0
  145.1665  136.8401  152.5116 N   0  0  0  0  0  0  0  0  0  0  0  0
  145.9275  138.0223  152.7116 C   0  0  0  0  0  0  0  0  0  0  0  0
  146.2727  138.7102  151.5942 N   0  0  0  0  0  0  0  0  0  0  0  0
  146.9799  139.8411  151.6682 C   0  0  0  0  0  0  0  0  0  0  0  0
  147.4468  140.4619  152.7512 N   0  0  0  0  0  0  0  0  0  0  0  0
  147.1086  139.7850  153.8841 C   0  0  0  0  0  0  0  0  0  0  0  0
  146.3607  138.5744  153.9554 C   0  0  0  0  0  0  0  0  0  0  0  0
  146.2181  138.1949  155.2863 N   0  0  0  0  0  0  0  0  0  0  0  0
  146.8418  139.1233  155.9582 C   0  0  0  0  0  0  0  0  0  0  0  0
  147.4134  140.1128  155.1925 N   0  0  0  0  0  0  0  0  0  0  0  0
  148.1702  141.2579  155.6676 C   0  0  0  0  0  0  0  0  0  0  0  0
  149.4505  140.8612  156.4446 C   0  0  2  0  0  0  0  0  0  0  0  0
  149.8773  141.9325  157.4775 C   0  0  0  0  0  0  0  0  0  0  0  0
  150.3756  143.0927  156.8431 O   0  0  0  0  0  0  0  0  0  0  0  0
  150.6056  140.4766  155.4858 C   0  0  2  0  0  0  0  0  0  0  0  0
  150.4547  139.1206  154.8190 C   0  0  0  0  0  0  0  0  0  0  0  0
  151.8774  138.8286  154.3543 C   0  0  0  0  0  0  0  0  0  0  0  0
  152.7306  139.4496  155.3092 O   0  0  0  0  0  0  0  0  0  0  0  0
  151.9700  140.3007  156.1607 C   0  0  0  0  0  0  0  0  0  0  0  0
  145.6543  135.9523  151.4665 C   0  0  0  0  0  0  0  0  0  0  0  0
  145.2011  134.7808  152.3577 C   0  0  0  0  0  0  0  0  0  0  0  0
  146.1660  133.5860  152.4498 C   0  0  0  0  0  0  0  0  0  0  0  0
  146.1912  132.7249  151.1771 C   0  0  0  0  0  0  0  0  0  0  0  0
  144.7926  132.1946  150.8451 C   0  0  0  0  0  0  0  0  0  0  0  0
  143.7809  133.3425  150.7614 C   0  0  0  0  0  0  0  0  0  0  0  0
  143.8041  134.2113  152.0314 C   0  0  0  0  0  0  0  0  0  0  0  0
  144.3323  133.7870  155.3290 H   0  0  0  0  0  0  0  0  0  0  0  0
  143.7423  134.8955  156.5516 H   0  0  0  0  0  0  0  0  0  0  0  0
  145.4551  134.7532  156.2880 H   0  0  0  0  0  0  0  0  0  0  0  0
  144.6467  136.8253  155.2579 H   0  0  0  0  0  0  0  0  0  0  0  0
  142.5832  135.1699  153.7598 H   0  0  0  0  0  0  0  0  0  0  0  0
  142.8329  136.9046  153.5869 H   0  0  0  0  0  0  0  0  0  0  0  0
  142.2758  136.2464  155.1179 H   0  0  0  0  0  0  0  0  0  0  0  0
  146.3804  135.7658  153.8525 H   0  0  0  0  0  0  0  0  0  0  0  0
  147.2035  140.3152  150.7238 H   0  0  0  0  0  0  0  0  0  0  0  0
  146.9105  139.1071  157.0363 H   0  0  0  0  0  0  0  0  0  0  0  0
  148.4203  141.8687  154.8000 H   0  0  0  0  0  0  0  0  0  0  0  0
  147.5190  141.8673  156.2955 H   0  0  0  0  0  0  0  0  0  0  0  0
  149.2043  139.9674  157.0200 H   0  0  0  0  0  0  0  0  0  0  0  0
  149.0417  142.2148  158.1178 H   0  0  0  0  0  0  0  0  0  0  0  0
  150.6449  141.5432  158.1459 H   0  0  0  0  0  0  0  0  0  0  0  0
  149.6771  143.4848  156.3413 H   0  0  0  0  0  0  0  0  0  0  0  0
  150.7003  141.2329  154.7048 H   0  0  0  0  0  0  0  0  0  0  0  0
  150.1370  138.3706  155.5450 H   0  0  0  0  0  0  0  0  0  0  0  0
  149.7415  139.1212  153.9946 H   0  0  0  0  0  0  0  0  0  0  0  0
  152.0785  137.7603  154.2734 H   0  0  0  0  0  0  0  0  0  0  0  0
  152.0601  139.2832  153.3798 H   0  0  0  0  0  0  0  0  0  0  0  0
  152.4817  141.2499  156.3212 H   0  0  0  0  0  0  0  0  0  0  0  0
  151.8626  139.8074  157.1278 H   0  0  0  0  0  0  0  0  0  0  0  0
  145.1077  136.0473  150.5282 H   0  0  0  0  0  0  0  0  0  0  0  0
  146.7328  135.9889  151.3117 H   0  0  0  0  0  0  0  0  0  0  0  0
  147.1796  133.9339  152.6530 H   0  0  0  0  0  0  0  0  0  0  0  0
  145.8974  132.9592  153.3011 H   0  0  0  0  0  0  0  0  0  0  0  0
  146.5686  133.3157  150.3417 H   0  0  0  0  0  0  0  0  0  0  0  0
  146.8826  131.8916  151.3048 H   0  0  0  0  0  0  0  0  0  0  0  0
  144.8129  131.6422  149.9052 H   0  0  0  0  0  0  0  0  0  0  0  0
  144.4788  131.4881  151.6145 H   0  0  0  0  0  0  0  0  0  0  0  0
  144.0050  133.9609  149.8916 H   0  0  0  0  0  0  0  0  0  0  0  0
  142.7790  132.9427  150.6029 H   0  0  0  0  0  0  0  0  0  0  0  0
  143.4299  133.6288  152.8741 H   0  0  0  0  0  0  0  0  0  0  0  0
  143.0921  135.0210  151.8763 H   0  0  0  0  0  0  0  0  0  0  0  0
  1  2  1  0  0  0  0
  1 31  1  0  0  0  0
  1 32  1  0  0  0  0
  1 33  1  0  0  0  0
  2  3  1  0  0  0  0
  2  4  1  0  0  0  0
  2 34  1  0  0  0  0
  3 35  1  0  0  0  0
  3 36  1  0  0  0  0
  3 37  1  0  0  0  0
  4 25  1  0  0  0  0
  4  5  1  0  0  0  0
  4 38  1  0  0  0  0
  5  6  1  0  0  0  0
  5 24  1  0  0  0  0
  6 11  1  0  0  0  0
  6  7  2  0  0  0  0
  7  8  1  0  0  0  0
  8  9  2  0  0  0  0
  8 39  1  0  0  0  0
  9 10  1  0  0  0  0
 10 14  1  0  0  0  0
 10 11  2  0  0  0  0
 11 12  1  0  0  0  0
 12 13  2  0  0  0  0
 13 14  1  0  0  0  0
 13 40  1  0  0  0  0
 14 15  1  0  0  0  0
 15 16  1  0  0  0  0
 15 41  1  0  0  0  0
 15 42  1  0  0  0  0
 16 17  1  0  0  0  0
 16 19  1  0  0  0  0
 16 43  1  0  0  0  0
 17 18  1  0  0  0  0
 17 44  1  0  0  0  0
 17 45  1  0  0  0  0
 18 46  1  0  0  0  0
 19 23  1  0  0  0  0
 19 20  1  0  0  0  0
 19 47  1  0  0  0  0
 20 21  1  0  0  0  0
 20 48  1  0  0  0  0
 20 49  1  0  0  0  0
 21 22  1  0  0  0  0
 21 50  1  0  0  0  0
 21 51  1  0  0  0  0
 22 23  1  0  0  0  0
 23 52  1  0  0  0  0
 23 53  1  0  0  0  0
 24 25  1  0  0  0  0
 24 54  1  0  0  0  0
 24 55  1  0  0  0  0
 25 30  1  0  0  0  0
 25 26  1  0  0  0  0
 26 27  1  0  0  0  0
 26 56  1  0  0  0  0
 26 57  1  0  0  0  0
 27 28  1  0  0  0  0
 27 58  1  0  0  0  0
 27 59  1  0  0  0  0
 28 29  1  0  0  0  0
 28 60  1  0  0  0  0
 28 61  1  0  0  0  0
 29 30  1  0  0  0  0
 29 62  1  0  0  0  0
 29 63  1  0  0  0  0
 30 64  1  0  0  0  0
 30 65  1  0  0  0  0
M  END
> <s_m_source_file>
AV-unprocessed.smi

> <i_m_source_file_index>
275

> <i_lp_mmshare_version>
43012

> <i_f3d_flags>
0

> <s_epik_input>
W0NIMl0xW0NIMl1bQ0gyXVtDSDJdW0NIMl1DMTJbQ0BIXShbQ0hdKFtDSDNdKVtDSDNdKU4oW0NIMl0yKWMobltjSF1uMyljKGMzNCluW2NIXW40W0NIMl1bQ0BIXShbQ0gyXVtPSF0pW0NAQEhdNVtDSDJdW0NIMl1PW0NIMl01

> <s_epik_cmdline>
J2VwaWtfcHl0aG9uJywgJy1waCcsICc3LjAnLCAnLXRuJywgJzgnLCAnLW1hJywgJzIwMCcsICctbWV0YWxfYmluZGluZycsICctaW1hZScsICc8aW5maWxlLm1hZT4nLCAnLW9tYWUnLCAnPG91dGZpbGUubWFlPic=

> <r_lp_tautomer_probability>
1

> <r_epik_Ionization_Penalty>
0.00375122

> <r_epik_Ionization_Penalty_Charging>
0

> <r_epik_Ionization_Penalty_Neutral>
0.00375122

> <r_epik_State_Penalty>
0.00260593

> <r_epik_Charging_Adjusted_Penalty>
0.00260593

> <i_epik_Tot_Q>
0

> <i_epik_Tot_abs_Q>
0

> <r_epik_Metal_State_Penalty>
-0

> <b_epik_Metal_Only>
0

> <s_lp_Force_Field>
OPLS_2005

> <r_lp_Energy>
69.4255

> <b_lp_Chiralities_Consistent>
1

> <s_lp_Variant>
AV-unprocessed.smi:275-1

> <Gold.Version>
5.8.1

> <Gold.Id.Protein>
6NUR|6NUR_protein|mol2

> <Gold.PLP.Fitness>
42.2073

> <Gold.PLP.PLP>
-37.1371

> <Gold.PLP.part.hbond>
-1.9730

> <Gold.PLP.part.metal>
0.0000

> <Gold.PLP.part.buried>
-6.0571

> <Gold.PLP.part.nonpolar>
-33.4258

> <Gold.PLP.part.repulsive>
4.0937

> <Gold.PLP.ligand.clash>
0.0000

> <Gold.PLP.ligand.torsion>
1.1453

> <Gold.PLP.Chemscore.Hbond>
1.9833

> <Gold.PLP.Chemscore.CHOScore>
0.2820

> <Gold.PLP.Chemscore.Metal>
0.0000

> <Gold.Chemscore.Hbonds>
donor molecule, donor type, donor heavy atom, donor atom, acceptor molecule, acceptor atom, score
      L1  H    18    46       P1  8028  1.00
      P1  H  7997  8010       L1    22  0.80
      L1  C     8    39       P1  7957  0.23

> <Gold.PLP.Chemscore.Internal.Correction>
0.5649

> <Gold.Rescore>
     Score         DG    S(hbond)    S(metal)    S(lipo)     H(rot)  DE(clash)    DE(int)     intcor
      9.84     -15.16       1.63        0.00      91.75       2.54       3.00       2.32       ----

> <Gold.Chemscore.Fitness>
9.8401

> <Gold.Chemscore.DG>
-15.1622

> <Gold.Chemscore.ZeroCoef>
-5.4800

> <Gold.Chemscore.Hbond>
1.6300

> <Gold.Chemscore.Metal>
0.0000

> <Gold.Chemscore.Lipo>
91.7472

> <Gold.Chemscore.Internal_Hbond>
0.0000

> <Gold.Chemscore.DEClash>
2.9983

> <Gold.Chemscore.DEInternal>
2.3239

> <Gold.Chemscore.Rot>
2.5377

> <Gold.Chemscore.Internal.Correction>
   9.000000E+99

> <Gold.Chemscore.Hbonds>
donor molecule, donor type, donor heavy atom, donor atom, acceptor molecule, acceptor atom, score
      L1  H    18    46       P1  8028  0.97
      P1  H  7997  8010       L1    22  0.11

> <Gold.Chemscore.Hbond.Weighted>
-5.4444

> <Gold.Chemscore.Metal.Weighted>
-0.0000

> <Gold.Chemscore.Lipo.Weighted>
-10.7344

> <Gold.Chemscore.Internal_Hbond.Weighted>
0.0000

> <Gold.Chemscore.DEClash.Weighted>
2.9983

> <Gold.Chemscore.DEInternal.Weighted>
2.3239

> <Gold.Chemscore.Rot.Weighted>
6.4966

> <Gold.Chemscore.Internal.Correction.Weighted>
   9.000000E+99

> <Gold.Protein.RotatedTorsions>
[ 6907 6896 6895 6894 ] final  -25.07 input  -60.11 | X-H torsion
[ 7974 7965 7964 7962 ] final  144.53 input  175.53 | X-H torsion
[ 8008 7997 7996 7995 ] final  113.23 input   59.86 | X-H torsion
[ 10167 10162 10161 10158 ] final   90.35 input  -65.29 | X-H torsion
[ 10718 10713 10712 10709 ] final  100.59 input   66.30 | X-H torsion
[ 10763 10752 10751 10750 ] final  111.82 input  -60.55 | X-H torsion
[ 11005 11000 10999 10996 ] final -154.98 input  -57.11 | X-H torsion

> <Gold.Protein.ActiveResidues>
 VAL166  LYS551  ARG553  GLY616  TRP617  ASP618  TYR619  PRO620  LYS621  CYS622 
 ASP623  PHE694  ASN695  SER759  ASP760  ASP761  ALA762  ILE779  LEU786  VAL792 
 PHE793  MET794  SER795  GLU796  ALA797  LYS798  CYS799  TRP800  GLU811  SER814 

> <Gold.Protein.RotatedAtoms>
  151.1805  135.0358  159.8789 H   0  0  0  0  0  0  0  0  0  0  0  0  # atno 6907 bound_to 6896
  152.5445  134.1069  159.8352 H   0  0  0  0  0  0  0  0  0  0  0  0  # atno 6908 bound_to 6896
  151.1185  133.5074  159.2635 H   0  0  0  0  0  0  0  0  0  0  0  0  # atno 6909 bound_to 6896
  144.8828  139.5673  143.5835 H   0  0  0  0  0  0  0  0  0  0  0  0  # atno 7974 bound_to 7965
  156.2244  140.2983  156.0032 H   0  0  0  0  0  0  0  0  0  0  0  0  # atno 8008 bound_to 7997
  155.2394  140.0422  157.2990 H   0  0  0  0  0  0  0  0  0  0  0  0  # atno 8009 bound_to 7997
  154.5892  140.2397  155.7952 H   0  0  0  0  0  0  0  0  0  0  0  0  # atno 8010 bound_to 7997
  139.8482  144.6607  150.9201 H   0  0  0  0  0  0  0  0  0  0  0  0  # atno 10167 bound_to 10162
  157.6850  131.0703  150.5124 H   0  0  0  0  0  0  0  0  0  0  0  0  # atno 10718 bound_to 10713
  153.4689  135.3705  155.2380 H   0  0  0  0  0  0  0  0  0  0  0  0  # atno 10763 bound_to 10752
  154.8757  135.3926  154.3836 H   0  0  0  0  0  0  0  0  0  0  0  0  # atno 10764 bound_to 10752
  153.4421  135.7084  153.6227 H   0  0  0  0  0  0  0  0  0  0  0  0  # atno 10765 bound_to 10752
  140.6915  134.4036  157.5219 H   0  0  0  0  0  0  0  0  0  0  0  0  # atno 11005 bound_to 11000
  146.3005  139.7413  142.9094 LP  0  0  0  0  0  0  0  0  0  0  0  0  # atno 17320 bound_to 7965
  145.3923  141.0374  143.3117 LP  0  0  0  0  0  0  0  0  0  0  0  0  # atno 17321 bound_to 7965
  140.7790  143.3851  151.1408 LP  0  0  0  0  0  0  0  0  0  0  0  0  # atno 17342 bound_to 10162
  139.7491  143.8806  152.3072 LP  0  0  0  0  0  0  0  0  0  0  0  0  # atno 17343 bound_to 10162
  156.5440  130.4215  149.6140 LP  0  0  0  0  0  0  0  0  0  0  0  0  # atno 17370 bound_to 10713
  156.2960  130.7150  151.2011 LP  0  0  0  0  0  0  0  0  0  0  0  0  # atno 17371 bound_to 10713
  139.8922  134.8760  156.2281 LP  0  0  0  0  0  0  0  0  0  0  0  0  # atno 17394 bound_to 11000
  141.0238  133.7026  156.1312 LP  0  0  0  0  0  0  0  0  0  0  0  0  # atno 17395 bound_to 11000

$$$$
