AV-unprocessed.smi:3031|AV-procd|sdf|11545|dock5
  -GOLD-   2272016493D 1   1.00000     0.00000
 Structure written by MMmdl.
 47 48  0  0  0  0  0  0  0  0  2 V2000
  152.7859  142.7909  161.5817 C   0  0  0  0  0  0  0  0  0  0  0  0
  152.8766  141.8413  160.4222 C   0  0  0  0  0  0  0  0  0  0  0  0
  154.0365  141.1853  159.9207 C   0  0  0  0  0  0  0  0  0  0  0  0
  153.7785  140.4034  158.8851 N   0  0  0  0  0  0  0  0  0  0  0  0
  152.4494  140.5323  158.6886 N   0  0  0  0  0  0  0  0  0  0  0  0
  151.8034  139.7944  157.6173 C   0  0  0  0  0  0  0  0  0  0  0  0
  151.6741  140.6277  156.3265 C   0  0  2  0  0  0  0  0  0  0  0  0
  150.7829  141.8589  156.5696 C   0  0  0  0  0  0  0  0  0  0  0  0
  151.1536  139.7907  155.2393 N   0  0  0  0  0  0  0  0  0  0  0  0
  149.9092  139.0802  155.5312 C   0  0  0  0  0  0  0  0  0  0  0  0
  149.8430  137.7452  154.7712 C   0  0  2  0  0  0  0  0  0  0  0  0
  149.9142  138.0361  153.3898 O   0  0  0  0  0  0  0  0  0  0  0  0
  148.5333  136.9714  155.0329 C   0  0  0  0  0  0  0  0  0  0  0  0
  148.5238  135.6391  154.3773 N   0  3  0  0  0  0  0  0  0  0  0  0
  149.6206  134.7473  154.8302 C   0  0  0  0  0  0  0  0  0  0  0  0
  149.5697  133.4081  154.0756 C   0  0  0  0  0  0  0  0  0  0  0  0
  148.2981  132.8006  154.2664 O   0  0  0  0  0  0  0  0  0  0  0  0
  147.2423  133.6064  153.7576 C   0  0  0  0  0  0  0  0  0  0  0  0
  147.2158  134.9525  154.5013 C   0  0  0  0  0  0  0  0  0  0  0  0
  151.8801  141.3956  159.6006 C   0  0  0  0  0  0  0  0  0  0  0  0
  153.5264  143.5875  161.5078 H   0  0  0  0  0  0  0  0  0  0  0  0
  152.9544  142.2816  162.5307 H   0  0  0  0  0  0  0  0  0  0  0  0
  151.8070  143.2673  161.6414 H   0  0  0  0  0  0  0  0  0  0  0  0
  155.0533  141.2526  160.2786 H   0  0  0  0  0  0  0  0  0  0  0  0
  152.3668  138.8789  157.4320 H   0  0  0  0  0  0  0  0  0  0  0  0
  150.8175  139.4856  157.9684 H   0  0  0  0  0  0  0  0  0  0  0  0
  152.6692  140.9843  156.0571 H   0  0  0  0  0  0  0  0  0  0  0  0
  151.1447  142.4375  157.4200 H   0  0  0  0  0  0  0  0  0  0  0  0
  149.7531  141.5695  156.7823 H   0  0  0  0  0  0  0  0  0  0  0  0
  150.7740  142.5328  155.7132 H   0  0  0  0  0  0  0  0  0  0  0  0
  151.8663  139.1277  154.9526 H   0  0  0  0  0  0  0  0  0  0  0  0
  149.8084  138.8948  156.6004 H   0  0  0  0  0  0  0  0  0  0  0  0
  149.0630  139.7038  155.2393 H   0  0  0  0  0  0  0  0  0  0  0  0
  150.7150  137.1465  155.0343 H   0  0  0  0  0  0  0  0  0  0  0  0
  149.3861  137.4080  152.9204 H   0  0  0  0  0  0  0  0  0  0  0  0
  148.3655  136.8378  156.1027 H   0  0  0  0  0  0  0  0  0  0  0  0
  147.6958  137.5703  154.6707 H   0  0  0  0  0  0  0  0  0  0  0  0
  150.5899  135.2163  154.6654 H   0  0  0  0  0  0  0  0  0  0  0  0
  149.5307  134.5705  155.9033 H   0  0  0  0  0  0  0  0  0  0  0  0
  149.7626  133.5521  153.0111 H   0  0  0  0  0  0  0  0  0  0  0  0
  150.3417  132.7358  154.4510 H   0  0  0  0  0  0  0  0  0  0  0  0
  147.3669  133.7558  152.6838 H   0  0  0  0  0  0  0  0  0  0  0  0
  146.2975  133.0810  153.8981 H   0  0  0  0  0  0  0  0  0  0  0  0
  146.9839  134.7937  155.5558 H   0  0  0  0  0  0  0  0  0  0  0  0
  146.4259  135.5815  154.0889 H   0  0  0  0  0  0  0  0  0  0  0  0
  150.8225  141.6148  159.5924 H   0  0  0  0  0  0  0  0  0  0  0  0
  148.6637  135.8065  153.3907 H   0  0  0  0  0  0  0  0  0  0  0  0
  1  2  1  0  0  0  0
  1 21  1  0  0  0  0
  1 22  1  0  0  0  0
  1 23  1  0  0  0  0
  2 20  2  0  0  0  0
  2  3  1  0  0  0  0
  3  4  2  0  0  0  0
  3 24  1  0  0  0  0
  4  5  1  0  0  0  0
  5  6  1  0  0  0  0
  5 20  1  0  0  0  0
  6  7  1  0  0  0  0
  6 25  1  0  0  0  0
  6 26  1  0  0  0  0
  7  8  1  0  0  0  0
  7  9  1  0  0  0  0
  7 27  1  0  0  0  0
  8 28  1  0  0  0  0
  8 29  1  0  0  0  0
  8 30  1  0  0  0  0
  9 10  1  0  0  0  0
  9 31  1  0  0  0  0
 10 11  1  0  0  0  0
 10 32  1  0  0  0  0
 10 33  1  0  0  0  0
 11 12  1  0  0  0  0
 11 13  1  0  0  0  0
 11 34  1  0  0  0  0
 12 35  1  0  0  0  0
 13 14  1  0  0  0  0
 13 36  1  0  0  0  0
 13 37  1  0  0  0  0
 14 19  1  0  0  0  0
 14 15  1  0  0  0  0
 14 47  1  0  0  0  0
 15 16  1  0  0  0  0
 15 38  1  0  0  0  0
 15 39  1  0  0  0  0
 16 17  1  0  0  0  0
 16 40  1  0  0  0  0
 16 41  1  0  0  0  0
 17 18  1  0  0  0  0
 18 19  1  0  0  0  0
 18 42  1  0  0  0  0
 18 43  1  0  0  0  0
 19 44  1  0  0  0  0
 19 45  1  0  0  0  0
 20 46  1  0  0  0  0
M  CHG  1  14   1
M  END
> <s_m_source_file>
AV-unprocessed.smi

> <i_m_source_file_index>
3031

> <i_lp_mmshare_version>
43012

> <i_f3d_flags>
0

> <s_epik_input>
W0NIM11jMVtjSF1ubihbY0hdMSlbQ0gyXVtDQEhdKFtDSDNdKVtOSF1bQ0gyXVtDQEhdKFtPSF0pW0NIMl1OMltDSDJdW0NIMl1PW0NIMl1bQ0gyXTI=

> <s_epik_cmdline>
J2VwaWtfcHl0aG9uJywgJy1waCcsICc3LjAnLCAnLXRuJywgJzgnLCAnLW1hJywgJzIwMCcsICctbWV0YWxfYmluZGluZycsICctaW1hZScsICc8aW5maWxlLm1hZT4nLCAnLW9tYWUnLCAnPG91dGZpbGUubWFlPic=

> <r_epik_Ionization_Penalty>
0.467051

> <r_epik_Ionization_Penalty_Charging>
0.202493

> <r_epik_Ionization_Penalty_Neutral>
0.264558

> <r_epik_State_Penalty>
1.34287

> <r_epik_Charging_Adjusted_Penalty>
1.54537

> <i_epik_Tot_Q>
1

> <i_epik_Tot_abs_Q>
1

> <r_epik_Metal_State_Penalty>
1.34281

> <b_epik_Metal_Only>
0

> <s_lp_Force_Field>
OPLS_2005

> <r_lp_Energy>
23.7878

> <b_lp_Chiralities_Consistent>
1

> <s_lp_Variant>
AV-unprocessed.smi:3031-5

> <Gold.Version>
5.8.1

> <Gold.Id.Protein>
6NUR|6NUR_protein|mol2

> <Gold.PLP.Fitness>
48.1048

> <Gold.PLP.PLP>
-35.5872

> <Gold.PLP.part.hbond>
-6.0000

> <Gold.PLP.part.metal>
0.0000

> <Gold.PLP.part.buried>
-2.5671

> <Gold.PLP.part.nonpolar>
-26.4971

> <Gold.PLP.part.repulsive>
0.0647

> <Gold.PLP.ligand.clash>
0.0000

> <Gold.PLP.ligand.torsion>
0.6190

> <Gold.PLP.Chemscore.Hbond>
4.5259

> <Gold.PLP.Chemscore.CHOScore>
0.0000

> <Gold.PLP.Chemscore.Metal>
0.0000

> <Gold.Chemscore.Hbonds>
donor molecule, donor type, donor heavy atom, donor atom, acceptor molecule, acceptor atom, score
      L1  H    12    35       P1  7948  1.00
      L1  H    14    47       P1  7948  2.00
      P1  H  7989  7998       L1     9  0.25
      P1  H  7997  8010       L1     4  0.82

> <Gold.PLP.Chemscore.Internal.Correction>
0.1779

> <Gold.Rescore>
     Score         DG    S(hbond)    S(metal)    S(lipo)     H(rot)  DE(clash)    DE(int)     intcor
     17.37     -18.05       2.81        0.00      85.21       2.65       0.01       0.67       ----

> <Gold.Chemscore.Fitness>
17.3677

> <Gold.Chemscore.DG>
-18.0494

> <Gold.Chemscore.ZeroCoef>
-5.4800

> <Gold.Chemscore.Hbond>
2.8110

> <Gold.Chemscore.Metal>
0.0000

> <Gold.Chemscore.Lipo>
85.2121

> <Gold.Chemscore.Internal_Hbond>
0.0000

> <Gold.Chemscore.DEClash>
0.0089

> <Gold.Chemscore.DEInternal>
0.6728

> <Gold.Chemscore.Rot>
2.6521

> <Gold.Chemscore.Internal.Correction>
   9.000000E+99

> <Gold.Chemscore.Hbonds>
donor molecule, donor type, donor heavy atom, donor atom, acceptor molecule, acceptor atom, score
      L1  H    12    35       P1  7948  0.89
      L1  H    14    47       P1  7948  0.98
      P1  H  7997  8010       L1     4  0.72

> <Gold.Chemscore.Hbond.Weighted>
-9.3889

> <Gold.Chemscore.Metal.Weighted>
-0.0000

> <Gold.Chemscore.Lipo.Weighted>
-9.9698

> <Gold.Chemscore.Internal_Hbond.Weighted>
0.0000

> <Gold.Chemscore.DEClash.Weighted>
0.0089

> <Gold.Chemscore.DEInternal.Weighted>
0.6728

> <Gold.Chemscore.Rot.Weighted>
6.7894

> <Gold.Chemscore.Internal.Correction.Weighted>
   9.000000E+99

> <Gold.Protein.RotatedTorsions>
[ 6907 6896 6895 6894 ] final  -30.30 input  -60.11 | X-H torsion
[ 7974 7965 7964 7962 ] final -107.21 input  175.53 | X-H torsion
[ 8008 7997 7996 7995 ] final   13.81 input   59.86 | X-H torsion
[ 10167 10162 10161 10158 ] final   98.19 input  -65.29 | X-H torsion
[ 10718 10713 10712 10709 ] final   53.46 input   66.30 | X-H torsion
[ 10763 10752 10751 10750 ] final   40.26 input  -60.55 | X-H torsion
[ 11005 11000 10999 10996 ] final -159.09 input  -57.11 | X-H torsion

> <Gold.Protein.ActiveResidues>
 VAL166  LYS551  ARG553  GLY616  TRP617  ASP618  TYR619  PRO620  LYS621  CYS622 
 ASP623  PHE694  ASN695  SER759  ASP760  ASP761  ALA762  ILE779  LEU786  VAL792 
 PHE793  MET794  SER795  GLU796  ALA797  LYS798  CYS799  TRP800  GLU811  SER814 

> <Gold.Protein.RotatedAtoms>
  151.1074  135.0007  159.8477 H   0  0  0  0  0  0  0  0  0  0  0  0  # atno 6907 bound_to 6896
  152.5441  134.1877  159.8671 H   0  0  0  0  0  0  0  0  0  0  0  0  # atno 6908 bound_to 6896
  151.1924  133.4614  159.2628 H   0  0  0  0  0  0  0  0  0  0  0  0  # atno 6909 bound_to 6896
  145.2082  140.9085  143.3330 H   0  0  0  0  0  0  0  0  0  0  0  0  # atno 7974 bound_to 7965
  154.8397  140.2912  155.5667 H   0  0  0  0  0  0  0  0  0  0  0  0  # atno 8008 bound_to 7997
  156.3011  140.2516  156.3269 H   0  0  0  0  0  0  0  0  0  0  0  0  # atno 8009 bound_to 7997
  154.9139  140.0388  157.1950 H   0  0  0  0  0  0  0  0  0  0  0  0  # atno 8010 bound_to 7997
  139.7731  144.6915  151.0128 H   0  0  0  0  0  0  0  0  0  0  0  0  # atno 10167 bound_to 10162
  157.5169  130.8538  149.8507 H   0  0  0  0  0  0  0  0  0  0  0  0  # atno 10718 bound_to 10713
  152.9942  135.6196  154.2597 H   0  0  0  0  0  0  0  0  0  0  0  0  # atno 10763 bound_to 10752
  154.2334  135.2791  155.2883 H   0  0  0  0  0  0  0  0  0  0  0  0  # atno 10764 bound_to 10752
  154.5430  135.5755  153.6914 H   0  0  0  0  0  0  0  0  0  0  0  0  # atno 10765 bound_to 10752
  140.6464  134.4496  157.5234 H   0  0  0  0  0  0  0  0  0  0  0  0  # atno 11005 bound_to 11000
  144.9882  139.3716  143.6228 LP  0  0  0  0  0  0  0  0  0  0  0  0  # atno 17320 bound_to 7965
  146.3403  139.9053  142.8788 LP  0  0  0  0  0  0  0  0  0  0  0  0  # atno 17321 bound_to 7965
  140.7815  143.4566  151.0337 LP  0  0  0  0  0  0  0  0  0  0  0  0  # atno 17342 bound_to 10162
  139.8249  143.7769  152.3178 LP  0  0  0  0  0  0  0  0  0  0  0  0  # atno 17343 bound_to 10162
  156.0326  130.3760  150.1645 LP  0  0  0  0  0  0  0  0  0  0  0  0  # atno 17370 bound_to 10713
  156.9834  130.9871  151.3432 LP  0  0  0  0  0  0  0  0  0  0  0  0  # atno 17371 bound_to 10713
  139.9061  134.8446  156.1701 LP  0  0  0  0  0  0  0  0  0  0  0  0  # atno 17394 bound_to 11000
  141.0569  133.6861  156.1877 LP  0  0  0  0  0  0  0  0  0  0  0  0  # atno 17395 bound_to 11000

$$$$
