#       Name:                AV-unprocessed.smi:1897
#       Creating user name   scv26
#       Creation time:       Fri Mar 27 09:43:39 2020


#       File generated by GOLD software.
#

@<TRIPOS>MOLECULE
AV-unprocessed.smi:1897
    43    45     1
SMALL
NO_CHARGES


@<TRIPOS>ATOM
      1 ****        -4.4163   3.7627  -1.5486 C.3            1 S1                 0.0000
      2 ****        -2.9973   3.6258  -1.1143 C.2            1 S1                 0.0000
      3 ****        -2.6426   3.5072   0.1674 N.2            1 S1                 0.0000
      4 ****        -1.2690   3.3948   0.3212 N.2            1 S1                 0.0000
      5 ****        -0.6060   3.4147  -0.8443 C.2            1 S1                 0.0000
      6 ****         0.7337   3.3044  -0.9155 N.pl3          1 S1                -1.0000
      7 ****         1.3635   2.1047  -1.0087 C.2            1 S1                 0.0000
      8 ****         2.5875   1.9811  -1.0161 O.2            1 S1                 0.0000
      9 ****         0.5981   0.9989  -1.0843 N.am           1 S1                 0.0000
     10 ****         1.0845  -0.3763  -1.1077 C.3            1 S1                 0.0000
     11 ****         0.0425  -1.3751  -1.5935 C.3            1 S1                 0.0000
     12 ****         0.5815  -2.7113  -1.0740 C.3            1 S1                 0.0000
     13 ****         1.3863  -2.4087   0.1351 N.4            1 S1                 1.0000
     14 ****         0.9437  -3.1389   1.3529 C.3            1 S1                 0.0000
     15 ****         1.5429  -2.5096   2.6190 C.3            1 S1                 0.0000
     16 ****         1.0749  -1.0536   2.8007 C.3            1 S1                 0.0000
     17 ****         0.6467  -0.4021   1.4719 C.3            1 S1                 0.0000
     18 ****         1.4795  -0.9276   0.2755 C.3            1 S1                 0.0000
     19 ****        -1.6566   3.5995  -2.2476 S.3            1 S1                 0.0000
     20 ****        -4.8920   2.7826  -1.5800 H              1 S1                 0.0000
     21 ****        -4.4665   4.2096  -2.5417 H              1 S1                 0.0000
     22 ****        -4.9655   4.3980  -0.8532 H              1 S1                 0.0000
     23 ****        -0.4031   1.1285  -1.0805 H              1 S1                 0.0000
     24 ****         1.9453  -0.4436  -1.7763 H              1 S1                 0.0000
     25 ****        -0.9261  -1.1642  -1.1372 H              1 S1                 0.0000
     26 ****        -0.0863  -1.3641  -2.6762 H              1 S1                 0.0000
     27 ****        -0.2229  -3.4245  -0.8889 H              1 S1                 0.0000
     28 ****         1.2464  -3.1577  -1.8141 H              1 S1                 0.0000
     29 ****        -0.1452  -3.1235   1.4262 H              1 S1                 0.0000
     30 ****         1.2397  -4.1847   1.2668 H              1 S1                 0.0000
     31 ****         1.2816  -3.0973   3.4995 H              1 S1                 0.0000
     32 ****         2.6310  -2.5367   2.5466 H              1 S1                 0.0000
     33 ****         0.2384  -1.0124   3.4993 H              1 S1                 0.0000
     34 ****         1.8794  -0.4767   3.2582 H              1 S1                 0.0000
     35 ****        -0.4098  -0.6072   1.2931 H              1 S1                 0.0000
     36 ****         0.7310   0.6809   1.5668 H              1 S1                 0.0000
     37 ****         2.5229  -0.6734   0.4676 H              1 S1                 0.0000
     38 ****         2.3252  -2.7225  -0.0645 H              1 S1                 0.0000
     39 ****        -3.2919   3.5002   0.9279 LP             1 S1                 0.0000
     40 ****        -0.8191   3.3078   1.2100 LP             1 S1                 0.0000
     41 ****         1.2863   4.1376  -0.8992 LP             1 S1                 0.0000
     42 ****         3.1721   2.7898  -0.9514 LP             1 S1                 0.0000
     43 ****         2.9978   1.0719  -1.0869 LP             1 S1                 0.0000
@<TRIPOS>BOND
    1    1    2 1     
    2    1   20 1     
    3    1   21 1     
    4    1   22 1     
    5    2   19 1     
    6    2    3 2     
    7    3    4 1     
    8    4    5 2     
    9    5    6 1     
   10    5   19 1     
   11    6    7 1     
   12    7    8 2     
   13    7    9 am    
   14    9   10 1     
   15    9   23 1     
   16   10   18 1     
   17   10   11 1     
   18   10   24 1     
   19   11   12 1     
   20   11   25 1     
   21   11   26 1     
   22   12   13 1     
   23   12   27 1     
   24   12   28 1     
   25   13   18 1     
   26   13   14 1     
   27   13   38 1     
   28   14   15 1     
   29   14   29 1     
   30   14   30 1     
   31   15   16 1     
   32   15   31 1     
   33   15   32 1     
   34   16   17 1     
   35   16   33 1     
   36   16   34 1     
   37   17   18 1     
   38   17   35 1     
   39   17   36 1     
   40   18   37 1     
   41    3   39 1     
   42    4   40 1     
   43    6   41 1     
   44    8   42 1     
   45    8   43 1     
@<TRIPOS>SUBSTRUCTURE
      1 S1             1
@<TRIPOS>SET
LONE_PAIRS      STATIC     ATOMS    <user>   **** ""
5 39 40 41 42 43
DONOR_HYDROGENS      STATIC     ATOMS    <user>   **** ""
2 23 38
ATOM$BLUE        STATIC     ATOMS    COLORGROUP SYSTEM
5 39 40 41 42 43
ATOM$RED        STATIC     ATOMS    COLORGROUP SYSTEM
2 23 38
