#       Name:                AV-unprocessed.smi:236
#       Creating user name   scv26
#       Creation time:       Thu Mar 26 20:39:58 2020


#       File generated by GOLD software.
#

@<TRIPOS>MOLECULE
AV-unprocessed.smi:236
    70    74     1
SMALL
NO_CHARGES


@<TRIPOS>ATOM
      1 ****        -6.8708  -2.6887   0.9249 C.3            1 S1                 0.0000
      2 ****        -6.1244  -2.1092   2.1358 C.3            1 S1                 0.0000
      3 ****        -6.7093  -0.8768   2.5489 O.3            1 S1                 0.0000
      4 ****        -5.7028   0.0069   3.0359 C.3            1 S1                 0.0000
      5 ****        -4.4185  -0.8154   3.0819 C.3            1 S1                 0.0000
      6 ****        -4.6244  -1.8120   1.9475 C.3            1 S1                 0.0000
      7 ****        -3.8572  -2.9723   2.2095 O.3            1 S1                 0.0000
      8 ****        -4.2590  -1.2547   0.5446 C.3            1 S1                 0.0000
      9 ****        -2.8964  -0.7550   0.4484 N.pl3          1 S1                 0.0000
     10 ****        -1.7537  -1.5006   0.2684 C.2            1 S1                 0.0000
     11 ****        -0.6444  -0.8150   0.2206 N.2            1 S1                 0.0000
     12 ****        -1.0520   0.5069   0.3626 C.ar           1 S1                 0.0000
     13 ****        -0.3720   1.7583   0.4050 C.ar           1 S1                 0.0000
     14 ****         0.9764   1.8728   0.2821 N.3            1 S1                 0.0000
     15 ****         1.6048   3.1176   0.7192 C.3            1 S1                 0.0000
     16 ****         3.1306   2.9464   0.7814 C.3            1 S1                 0.0000
     17 ****         3.6090   2.4914  -0.4798 O.3            1 S1                 0.0000
     18 ****         3.0727   1.2185  -0.8330 C.3            1 S1                 0.0000
     19 ****         3.7164   0.7725  -2.1517 C.3            1 S1                 0.0000
     20 ****         5.0715   0.4303  -1.9120 O.3            1 S1                 0.0000
     21 ****         5.7316  -0.0342  -3.0765 C.3            1 S1                 0.0000
     22 ****         7.1782  -0.3276  -2.7408 C.3            1 S1                 0.0000
     23 ****         7.9704  -1.3155  -3.5670 C.3            1 S1                 0.0000
     24 ****         7.5784  -1.6619  -2.1530 C.3            1 S1                 0.0000
     25 ****         1.5423   1.3518  -0.9589 C.3            1 S1                 0.0000
     26 ****        -1.1318   2.8724   0.5866 N.ar           1 S1                 0.0000
     27 ****        -2.4589   2.7765   0.7073 C.ar           1 S1                 0.0000
     28 ****        -3.2215   1.6826   0.6812 N.ar           1 S1                 0.0000
     29 ****        -2.4677   0.5596   0.5086 C.ar           1 S1                 0.0000
     30 ****        -6.4039  -3.6119   0.5814 H              1 S1                 0.0000
     31 ****        -6.8925  -1.9884   0.0899 H              1 S1                 0.0000
     32 ****        -7.9047  -2.9169   1.1841 H              1 S1                 0.0000
     33 ****        -6.2428  -2.7960   2.9764 H              1 S1                 0.0000
     34 ****        -5.6013   0.8394   2.3390 H              1 S1                 0.0000
     35 ****        -5.9685   0.4139   4.0115 H              1 S1                 0.0000
     36 ****        -3.5170  -0.2090   3.0028 H              1 S1                 0.0000
     37 ****        -4.3702  -1.3387   4.0386 H              1 S1                 0.0000
     38 ****        -4.0954  -3.6371   1.5815 H              1 S1                 0.0000
     39 ****        -4.3874  -2.0250  -0.2166 H              1 S1                 0.0000
     40 ****        -4.9363  -0.4449   0.2710 H              1 S1                 0.0000
     41 ****        -1.7681  -2.5773   0.1807 H              1 S1                 0.0000
     42 ****         1.3493   3.9174   0.0227 H              1 S1                 0.0000
     43 ****         1.2296   3.4064   1.7018 H              1 S1                 0.0000
     44 ****         3.6070   3.8971   1.0209 H              1 S1                 0.0000
     45 ****         3.4116   2.2417   1.5657 H              1 S1                 0.0000
     46 ****         3.3103   0.4877  -0.0574 H              1 S1                 0.0000
     47 ****         3.1911  -0.1016  -2.5396 H              1 S1                 0.0000
     48 ****         3.6415   1.5612  -2.9020 H              1 S1                 0.0000
     49 ****         5.2486  -0.9373  -3.4533 H              1 S1                 0.0000
     50 ****         5.6968   0.7204  -3.8636 H              1 S1                 0.0000
     51 ****         7.7286   0.5381  -2.3770 H              1 S1                 0.0000
     52 ****         7.4533  -1.8346  -4.3718 H              1 S1                 0.0000
     53 ****         9.0169  -1.0859  -3.7568 H              1 S1                 0.0000
     54 ****         8.3629  -1.6624  -1.3989 H              1 S1                 0.0000
     55 ****         6.7992  -2.4089  -2.0152 H              1 S1                 0.0000
     56 ****         1.1166   0.3841  -1.2193 H              1 S1                 0.0000
     57 ****         1.2920   2.0340  -1.7725 H              1 S1                 0.0000
     58 ****        -2.9848   3.7097   0.8455 H              1 S1                 0.0000
     59 ****        -7.3734  -1.0535   3.2754 LP             1 S1                 0.0000
     60 ****        -7.1720  -0.4533   1.7701 LP             1 S1                 0.0000
     61 ****        -4.0460  -3.2997   3.1354 LP             1 S1                 0.0000
     62 ****        -2.8839  -2.7598   2.1231 LP             1 S1                 0.0000
     63 ****         0.2869  -1.1614   0.1076 LP             1 S1                 0.0000
     64 ****         1.2489   1.2323   1.0001 LP             1 S1                 0.0000
     65 ****         4.6057   2.4208  -0.4395 LP             1 S1                 0.0000
     66 ****         3.3499   3.1556  -1.1810 LP             1 S1                 0.0000
     67 ****         5.1020  -0.2893  -1.2182 LP             1 S1                 0.0000
     68 ****         5.5511   1.2400  -1.5737 LP             1 S1                 0.0000
     69 ****        -0.6934   3.7701   0.6301 LP             1 S1                 0.0000
     70 ****        -4.2170   1.6856   0.7760 LP             1 S1                 0.0000
@<TRIPOS>BOND
    1    1    2 1     
    2    1   30 1     
    3    1   31 1     
    4    1   32 1     
    5    2    6 1     
    6    2    3 1     
    7    2   33 1     
    8    3    4 1     
    9    4    5 1     
   10    4   34 1     
   11    4   35 1     
   12    5    6 1     
   13    5   36 1     
   14    5   37 1     
   15    6    7 1     
   16    6    8 1     
   17    7   38 1     
   18    8    9 1     
   19    8   39 1     
   20    8   40 1     
   21    9   29 1     
   22    9   10 1     
   23   10   11 2     
   24   10   41 1     
   25   11   12 1     
   26   12   29 ar    
   27   12   13 ar    
   28   13   14 1     
   29   13   26 ar    
   30   14   25 1     
   31   14   15 1     
   32   15   16 1     
   33   15   42 1     
   34   15   43 1     
   35   16   17 1     
   36   16   44 1     
   37   16   45 1     
   38   17   18 1     
   39   18   19 1     
   40   18   25 1     
   41   18   46 1     
   42   19   20 1     
   43   19   47 1     
   44   19   48 1     
   45   20   21 1     
   46   21   22 1     
   47   21   49 1     
   48   21   50 1     
   49   22   24 1     
   50   22   23 1     
   51   22   51 1     
   52   23   24 1     
   53   23   52 1     
   54   23   53 1     
   55   24   54 1     
   56   24   55 1     
   57   25   56 1     
   58   25   57 1     
   59   26   27 ar    
   60   27   28 ar    
   61   27   58 1     
   62   28   29 ar    
   63    3   59 1     
   64    3   60 1     
   65    7   61 1     
   66    7   62 1     
   67   11   63 1     
   68   14   64 1     
   69   17   65 1     
   70   17   66 1     
   71   20   67 1     
   72   20   68 1     
   73   26   69 1     
   74   28   70 1     
@<TRIPOS>SUBSTRUCTURE
      1 S1             1
@<TRIPOS>SET
LONE_PAIRS      STATIC     ATOMS    <user>   **** ""
12 59 60 61 62 63 64 65 66 67 68 69 70
DONOR_HYDROGENS      STATIC     ATOMS    <user>   **** ""
1 38
ATOM$BLUE        STATIC     ATOMS    COLORGROUP SYSTEM
12 59 60 61 62 63 64 65 66 67 68 69 70
ATOM$RED        STATIC     ATOMS    COLORGROUP SYSTEM
1 38
