AV-unprocessed.smi:1737|AV-procd|sdf|6994|dock1
  -GOLD-   22720 8203D 1   1.00000     0.00000
 Structure written by MMmdl.
 42 43  0  0  0  0  0  0  0  0  1 V2000
  147.4529  132.9390  152.4372 C   0  0  0  0  0  0  0  0  0  0  0  0
  146.2582  133.1739  151.5270 C   0  0  0  0  0  0  0  0  0  0  0  0
  145.6507  132.0726  150.8870 C   0  0  0  0  0  0  0  0  0  0  0  0
  144.5444  132.2913  150.0487 C   0  0  0  0  0  0  0  0  0  0  0  0
  144.0891  133.6107  149.8852 C   0  0  0  0  0  0  0  0  0  0  0  0
  144.6643  134.6689  150.4917 N   0  0  0  0  0  0  0  0  0  0  0  0
  145.7340  134.4754  151.3036 C   0  0  0  0  0  0  0  0  0  0  0  0
  146.3919  135.5452  151.9739 N   0  0  0  0  0  0  0  0  0  0  0  0
  145.8594  136.4843  152.7760 C   0  0  0  0  0  0  0  0  0  0  0  0
  144.6693  136.5740  153.0794 O   0  0  0  0  0  0  0  0  0  0  0  0
  146.7992  137.3313  153.2198 N   0  0  0  0  0  0  0  0  0  0  0  0
  146.5557  138.4590  154.1156 C   0  0  0  0  0  0  0  0  0  0  0  0
  147.5293  139.6531  153.8926 C   0  0  1  0  0  0  0  0  0  0  0  0
  146.7376  140.9780  154.0343 C   0  0  0  0  0  0  0  0  0  0  0  0
  148.7238  139.6013  154.7681 N   0  0  0  0  0  0  0  0  0  0  0  0
  149.3443  140.9179  154.9564 C   0  0  0  0  0  0  0  0  0  0  0  0
  150.5994  140.8656  155.8442 C   0  0  0  0  0  0  0  0  0  0  0  0
  151.5422  139.9616  155.2856 O   0  0  0  0  0  0  0  0  0  0  0  0
  151.0097  138.6510  155.1552 C   0  0  0  0  0  0  0  0  0  0  0  0
  149.7545  138.6849  154.2656 C   0  0  0  0  0  0  0  0  0  0  0  0
  147.7194  131.8824  152.4792 H   0  0  0  0  0  0  0  0  0  0  0  0
  147.2286  133.2690  153.4521 H   0  0  0  0  0  0  0  0  0  0  0  0
  148.3223  133.4898  152.0772 H   0  0  0  0  0  0  0  0  0  0  0  0
  146.0257  131.0703  151.0345 H   0  0  0  0  0  0  0  0  0  0  0  0
  144.0571  131.4699  149.5446 H   0  0  0  0  0  0  0  0  0  0  0  0
  143.2409  133.8234  149.2516 H   0  0  0  0  0  0  0  0  0  0  0  0
  147.3875  135.6023  151.8201 H   0  0  0  0  0  0  0  0  0  0  0  0
  147.7524  137.1866  152.9210 H   0  0  0  0  0  0  0  0  0  0  0  0
  145.5266  138.7889  153.9705 H   0  0  0  0  0  0  0  0  0  0  0  0
  146.6114  138.0686  155.1308 H   0  0  0  0  0  0  0  0  0  0  0  0
  147.8731  139.6001  152.8586 H   0  0  0  0  0  0  0  0  0  0  0  0
  145.8321  140.9903  153.4288 H   0  0  0  0  0  0  0  0  0  0  0  0
  147.3131  141.8391  153.6970 H   0  0  0  0  0  0  0  0  0  0  0  0
  146.4428  141.1525  155.0694 H   0  0  0  0  0  0  0  0  0  0  0  0
  149.6030  141.3478  153.9875 H   0  0  0  0  0  0  0  0  0  0  0  0
  148.6480  141.6057  155.4329 H   0  0  0  0  0  0  0  0  0  0  0  0
  151.0537  141.8539  155.9156 H   0  0  0  0  0  0  0  0  0  0  0  0
  150.3434  140.5571  156.8591 H   0  0  0  0  0  0  0  0  0  0  0  0
  151.7674  138.0018  154.7163 H   0  0  0  0  0  0  0  0  0  0  0  0
  150.7734  138.2461  156.1404 H   0  0  0  0  0  0  0  0  0  0  0  0
  149.3771  137.6659  154.2169 H   0  0  0  0  0  0  0  0  0  0  0  0
  150.0377  138.9677  153.2505 H   0  0  0  0  0  0  0  0  0  0  0  0
  1  2  1  0  0  0  0
  1 21  1  0  0  0  0
  1 22  1  0  0  0  0
  1 23  1  0  0  0  0
  2  7  1  0  0  0  0
  2  3  2  0  0  0  0
  3  4  1  0  0  0  0
  3 24  1  0  0  0  0
  4  5  2  0  0  0  0
  4 25  1  0  0  0  0
  5  6  1  0  0  0  0
  5 26  1  0  0  0  0
  6  7  2  0  0  0  0
  7  8  1  0  0  0  0
  8  9  1  0  0  0  0
  8 27  1  0  0  0  0
  9 10  2  0  0  0  0
  9 11  1  0  0  0  0
 11 12  1  0  0  0  0
 11 28  1  0  0  0  0
 12 13  1  0  0  0  0
 12 29  1  0  0  0  0
 12 30  1  0  0  0  0
 13 14  1  0  0  0  0
 13 15  1  0  0  0  0
 13 31  1  0  0  0  0
 14 32  1  0  0  0  0
 14 33  1  0  0  0  0
 14 34  1  0  0  0  0
 15 20  1  0  0  0  0
 15 16  1  0  0  0  0
 16 17  1  0  0  0  0
 16 35  1  0  0  0  0
 16 36  1  0  0  0  0
 17 18  1  0  0  0  0
 17 37  1  0  0  0  0
 17 38  1  0  0  0  0
 18 19  1  0  0  0  0
 19 20  1  0  0  0  0
 19 39  1  0  0  0  0
 19 40  1  0  0  0  0
 20 41  1  0  0  0  0
 20 42  1  0  0  0  0
M  END
> <s_m_source_file>
AV-unprocessed.smi

> <i_m_source_file_index>
1737

> <i_lp_mmshare_version>
43012

> <i_f3d_flags>
0

> <s_epik_input>
W0NIM11jMVtjSF1bY0hdW2NIXW5jMVtOSF1DKD1PKVtOSF1bQ0gyXVtDQEhdKFtDSDNdKU4yW0NIMl1bQ0gyXU9bQ0gyXVtDSDJdMg==

> <s_epik_cmdline>
J2VwaWtfcHl0aG9uJywgJy1waCcsICc3LjAnLCAnLXRuJywgJzgnLCAnLW1hJywgJzIwMCcsICctbWV0YWxfYmluZGluZycsICctaW1hZScsICc8aW5maWxlLm1hZT4nLCAnLW9tYWUnLCAnPG91dGZpbGUubWFlPic=

> <r_epik_Ionization_Penalty>
0.266048

> <r_epik_Ionization_Penalty_Charging>
0

> <r_epik_Ionization_Penalty_Neutral>
0.266048

> <r_epik_State_Penalty>
0.257924

> <r_epik_Charging_Adjusted_Penalty>
0.257924

> <i_epik_Tot_Q>
0

> <i_epik_Tot_abs_Q>
0

> <r_epik_Metal_State_Penalty>
0.257922

> <b_epik_Metal_Only>
0

> <s_lp_Force_Field>
OPLS_2005

> <r_lp_Energy>
31.0805

> <b_lp_Chiralities_Consistent>
1

> <s_lp_Variant>
AV-unprocessed.smi:1737-2

> <Gold.Version>
5.8.1

> <Gold.Id.Protein>
6NUR|6NUR_protein|mol2

> <Gold.PLP.Fitness>
43.3498

> <Gold.PLP.PLP>
-34.7217

> <Gold.PLP.part.hbond>
-3.0000

> <Gold.PLP.part.metal>
0.0000

> <Gold.PLP.part.buried>
-4.3192

> <Gold.PLP.part.nonpolar>
-27.5782

> <Gold.PLP.part.repulsive>
0.4953

> <Gold.PLP.ligand.clash>
0.0000

> <Gold.PLP.ligand.torsion>
1.6705

> <Gold.PLP.Chemscore.Hbond>
2.9600

> <Gold.PLP.Chemscore.CHOScore>
1.0000

> <Gold.PLP.Chemscore.Metal>
0.0000

> <Gold.Chemscore.Hbonds>
donor molecule, donor type, donor heavy atom, donor atom, acceptor molecule, acceptor atom, score
      L1  H     8    27       P1  7948  1.00
      L1  H    11    28       P1  7948  0.96
      P1  H  7989  7998       L1    18  0.80
      L1  C     5    26       P1 10186  1.00

> <Gold.PLP.Chemscore.Internal.Correction>
0.0891

> <Gold.Rescore>
     Score         DG    S(hbond)    S(metal)    S(lipo)     H(rot)  DE(clash)    DE(int)     intcor
     18.28     -19.93       2.47        0.00      85.11       1.47       0.09       1.56       ----

> <Gold.Chemscore.Fitness>
18.2842

> <Gold.Chemscore.DG>
-19.9337

> <Gold.Chemscore.ZeroCoef>
-5.4800

> <Gold.Chemscore.Hbond>
2.4701

> <Gold.Chemscore.Metal>
0.0000

> <Gold.Chemscore.Lipo>
85.1148

> <Gold.Chemscore.Internal_Hbond>
0.0000

> <Gold.Chemscore.DEClash>
0.0918

> <Gold.Chemscore.DEInternal>
1.5576

> <Gold.Chemscore.Rot>
1.4667

> <Gold.Chemscore.Internal.Correction>
   9.000000E+99

> <Gold.Chemscore.Hbonds>
donor molecule, donor type, donor heavy atom, donor atom, acceptor molecule, acceptor atom, score
      L1  H     8    27       P1  7948  0.99
      L1  H    11    28       P1  7948  0.92
      P1  H  7989  7998       L1    18  0.09

> <Gold.Chemscore.Hbond.Weighted>
-8.2501

> <Gold.Chemscore.Metal.Weighted>
-0.0000

> <Gold.Chemscore.Lipo.Weighted>
-9.9584

> <Gold.Chemscore.Internal_Hbond.Weighted>
0.0000

> <Gold.Chemscore.DEClash.Weighted>
0.0918

> <Gold.Chemscore.DEInternal.Weighted>
1.5576

> <Gold.Chemscore.Rot.Weighted>
3.7549

> <Gold.Chemscore.Internal.Correction.Weighted>
   9.000000E+99

> <Gold.Protein.RotatedTorsions>
[ 6907 6896 6895 6894 ] final  -90.66 input  -60.11 | X-H torsion
[ 7974 7965 7964 7962 ] final   22.18 input  175.53 | X-H torsion
[ 8008 7997 7996 7995 ] final   55.66 input   59.86 | X-H torsion
[ 10167 10162 10161 10158 ] final   92.58 input  -65.29 | X-H torsion
[ 10718 10713 10712 10709 ] final   54.15 input   66.30 | X-H torsion
[ 10763 10752 10751 10750 ] final    2.72 input  -60.55 | X-H torsion
[ 11005 11000 10999 10996 ] final  144.32 input  -57.11 | X-H torsion

> <Gold.Protein.ActiveResidues>
 VAL166  LYS551  ARG553  GLY616  TRP617  ASP618  TYR619  PRO620  LYS621  CYS622 
 ASP623  PHE694  ASN695  SER759  ASP760  ASP761  ALA762  ILE779  LEU786  VAL792 
 PHE793  MET794  SER795  GLU796  ALA797  LYS798  CYS799  TRP800  GLU811  SER814 

> <Gold.Protein.RotatedAtoms>
  150.6884  134.2397  159.4467 H   0  0  0  0  0  0  0  0  0  0  0  0  # atno 6907 bound_to 6896
  152.0342  134.9747  160.0582 H   0  0  0  0  0  0  0  0  0  0  0  0  # atno 6908 bound_to 6896
  152.1274  133.4353  159.4741 H   0  0  0  0  0  0  0  0  0  0  0  0  # atno 6909 bound_to 6896
  146.2040  139.7921  142.8740 H   0  0  0  0  0  0  0  0  0  0  0  0  # atno 7974 bound_to 7965
  155.5047  140.3475  155.4377 H   0  0  0  0  0  0  0  0  0  0  0  0  # atno 8008 bound_to 7997
  156.0890  140.1405  156.9644 H   0  0  0  0  0  0  0  0  0  0  0  0  # atno 8009 bound_to 7997
  154.4623  140.0930  156.6904 H   0  0  0  0  0  0  0  0  0  0  0  0  # atno 8010 bound_to 7997
  139.8263  144.6708  150.9456 H   0  0  0  0  0  0  0  0  0  0  0  0  # atno 10167 bound_to 10162
  157.5231  130.8579  149.8586 H   0  0  0  0  0  0  0  0  0  0  0  0  # atno 10718 bound_to 10713
  153.2921  135.6949  153.7283 H   0  0  0  0  0  0  0  0  0  0  0  0  # atno 10763 bound_to 10752
  153.6230  135.3424  155.3018 H   0  0  0  0  0  0  0  0  0  0  0  0  # atno 10764 bound_to 10752
  154.8527  135.4391  154.2007 H   0  0  0  0  0  0  0  0  0  0  0  0  # atno 10765 bound_to 10752
  140.0623  134.9198  157.1205 H   0  0  0  0  0  0  0  0  0  0  0  0  # atno 11005 bound_to 11000
  145.3386  141.0282  143.3405 LP  0  0  0  0  0  0  0  0  0  0  0  0  # atno 17320 bound_to 7965
  144.8748  139.4987  143.6751 LP  0  0  0  0  0  0  0  0  0  0  0  0  # atno 17321 bound_to 7965
  140.7810  143.4043  151.1096 LP  0  0  0  0  0  0  0  0  0  0  0  0  # atno 17342 bound_to 10162
  139.7700  143.8508  152.3118 LP  0  0  0  0  0  0  0  0  0  0  0  0  # atno 17343 bound_to 10162
  156.0368  130.3749  150.1540 LP  0  0  0  0  0  0  0  0  0  0  0  0  # atno 17370 bound_to 10713
  156.9727  130.9839  151.3455 LP  0  0  0  0  0  0  0  0  0  0  0  0  # atno 17371 bound_to 10713
  140.3751  134.2347  155.7175 LP  0  0  0  0  0  0  0  0  0  0  0  0  # atno 17394 bound_to 11000
  141.1978  133.8050  157.0610 LP  0  0  0  0  0  0  0  0  0  0  0  0  # atno 17395 bound_to 11000

$$$$
