AV-unprocessed.smi:2268|AV-procd|sdf|9151|dock8
  -GOLD-   2272012353D 1   1.00000     0.00000
 Structure written by MMmdl.
 37 38  0  0  0  0  0  0  0  0  1 V2000
  151.0042  140.0335  158.5084 C   0  0  0  0  0  0  0  0  0  0  0  0
  151.7403  141.2830  158.9613 C   0  0  0  0  0  0  0  0  0  0  0  0
  151.0258  142.4987  159.0307 C   0  0  0  0  0  0  0  0  0  0  0  0
  151.6602  143.6791  159.4587 C   0  0  0  0  0  0  0  0  0  0  0  0
  150.9637  144.8384  159.5227 F   0  0  0  0  0  0  0  0  0  0  0  0
  153.0172  143.6516  159.8242 C   0  0  0  0  0  0  0  0  0  0  0  0
  153.7379  142.4451  159.7564 C   0  0  0  0  0  0  0  0  0  0  0  0
  153.1152  141.2530  159.3180 C   0  0  0  0  0  0  0  0  0  0  0  0
  153.9305  139.9609  159.2665 C   0  0  1  0  0  0  0  0  0  0  0  0
  153.9035  139.3819  157.9760 O   0  0  0  0  0  0  0  0  0  0  0  0
  155.4004  140.2268  159.6644 C   0  0  0  0  0  0  0  0  0  0  0  0
  155.9028  139.2528  160.6496 N   0  0  0  0  0  0  0  0  0  0  0  0
  155.3661  137.9565  160.5737 C   0  0  0  0  0  0  0  0  0  0  0  0
  155.7371  137.0182  161.3815 N   0  0  0  0  0  0  0  0  0  0  0  0
  156.6962  137.2829  162.3630 C   0  0  0  0  0  0  0  0  0  0  0  0
  157.0591  136.1114  163.2584 C   0  0  0  0  0  0  0  0  0  0  0  0
  157.2547  138.5173  162.4908 C   0  0  0  0  0  0  0  0  0  0  0  0
  158.3021  138.8639  163.5418 C   0  0  0  0  0  0  0  0  0  0  0  0
  156.8416  139.5961  161.5782 C   0  0  0  0  0  0  0  0  0  0  0  0
  157.3062  140.7357  161.6408 O   0  0  0  0  0  0  0  0  0  0  0  0
  149.9360  140.2208  158.3943 H   0  0  0  0  0  0  0  0  0  0  0  0
  151.1218  139.2319  159.2372 H   0  0  0  0  0  0  0  0  0  0  0  0
  151.3870  139.6916  157.5466 H   0  0  0  0  0  0  0  0  0  0  0  0
  149.9810  142.5316  158.7580 H   0  0  0  0  0  0  0  0  0  0  0  0
  153.5061  144.5549  160.1585 H   0  0  0  0  0  0  0  0  0  0  0  0
  154.7779  142.4409  160.0482 H   0  0  0  0  0  0  0  0  0  0  0  0
  153.4896  139.2236  159.9358 H   0  0  0  0  0  0  0  0  0  0  0  0
  153.7684  138.4510  158.0675 H   0  0  0  0  0  0  0  0  0  0  0  0
  156.0341  140.2777  158.7768 H   0  0  0  0  0  0  0  0  0  0  0  0
  155.4751  141.2252  160.1008 H   0  0  0  0  0  0  0  0  0  0  0  0
  154.6237  137.8016  159.7890 H   0  0  0  0  0  0  0  0  0  0  0  0
  158.1215  135.8814  163.1742 H   0  0  0  0  0  0  0  0  0  0  0  0
  156.5011  135.2146  162.9859 H   0  0  0  0  0  0  0  0  0  0  0  0
  156.8327  136.3425  164.2995 H   0  0  0  0  0  0  0  0  0  0  0  0
  157.9355  139.6622  164.1881 H   0  0  0  0  0  0  0  0  0  0  0  0
  159.2170  139.2114  163.0611 H   0  0  0  0  0  0  0  0  0  0  0  0
  158.5663  138.0223  164.1798 H   0  0  0  0  0  0  0  0  0  0  0  0
  1  2  1  0  0  0  0
  1 21  1  0  0  0  0
  1 22  1  0  0  0  0
  1 23  1  0  0  0  0
  2  8  1  0  0  0  0
  2  3  2  0  0  0  0
  3  4  1  0  0  0  0
  3 24  1  0  0  0  0
  4  5  1  0  0  0  0
  4  6  2  0  0  0  0
  6  7  1  0  0  0  0
  6 25  1  0  0  0  0
  7  8  2  0  0  0  0
  7 26  1  0  0  0  0
  8  9  1  0  0  0  0
  9 10  1  0  0  0  0
  9 11  1  0  0  0  0
  9 27  1  0  0  0  0
 10 28  1  0  0  0  0
 11 12  1  0  0  0  0
 11 29  1  0  0  0  0
 11 30  1  0  0  0  0
 12 19  1  0  0  0  0
 12 13  1  0  0  0  0
 13 14  2  0  0  0  0
 13 31  1  0  0  0  0
 14 15  1  0  0  0  0
 15 16  1  0  0  0  0
 15 17  2  0  0  0  0
 16 32  1  0  0  0  0
 16 33  1  0  0  0  0
 16 34  1  0  0  0  0
 17 18  1  0  0  0  0
 17 19  1  0  0  0  0
 18 35  1  0  0  0  0
 18 36  1  0  0  0  0
 18 37  1  0  0  0  0
 19 20  2  0  0  0  0
M  END
> <s_m_source_file>
AV-unprocessed.smi

> <i_m_source_file_index>
2268

> <i_lp_mmshare_version>
43012

> <i_f3d_flags>
0

> <s_epik_input>
W0NIM11jMVtjSF1jKEYpW2NIXVtjSF1jMVtDQEhdKFtPSF0pW0NIMl1uMltjSF1uYyhbQ0gzXSljKFtDSDNdKWMyPU8=

> <s_epik_cmdline>
J2VwaWtfcHl0aG9uJywgJy1waCcsICc3LjAnLCAnLXRuJywgJzgnLCAnLW1hJywgJzIwMCcsICctbWV0YWxfYmluZGluZycsICctaW1hZScsICc8aW5maWxlLm1hZT4nLCAnLW9tYWUnLCAnPG91dGZpbGUubWFlPic=

> <r_lp_tautomer_probability>
1

> <r_epik_Ionization_Penalty>
5.07449e-05

> <r_epik_Ionization_Penalty_Charging>
7.56727e-08

> <r_epik_Ionization_Penalty_Neutral>
5.06692e-05

> <r_epik_State_Penalty>
-0

> <r_epik_Charging_Adjusted_Penalty>
7.56727e-08

> <i_epik_Tot_Q>
0

> <i_epik_Tot_abs_Q>
0

> <r_epik_Metal_State_Penalty>
-0

> <b_epik_Metal_Only>
0

> <s_lp_Force_Field>
OPLS_2005

> <r_lp_Energy>
20.6014

> <b_lp_Chiralities_Consistent>
1

> <s_lp_Variant>
AV-unprocessed.smi:2268-2

> <Gold.Version>
5.8.1

> <Gold.Id.Protein>
6NUR|6NUR_protein|mol2

> <Gold.PLP.Fitness>
45.9662

> <Gold.PLP.PLP>
-45.0490

> <Gold.PLP.part.hbond>
-1.0021

> <Gold.PLP.part.metal>
0.0000

> <Gold.PLP.part.buried>
-5.7856

> <Gold.PLP.part.nonpolar>
-38.3580

> <Gold.PLP.part.repulsive>
0.0000

> <Gold.PLP.ligand.clash>
0.0000

> <Gold.PLP.ligand.torsion>
1.0459

> <Gold.PLP.Chemscore.Hbond>
1.0000

> <Gold.PLP.Chemscore.CHOScore>
0.0000

> <Gold.PLP.Chemscore.Metal>
0.0000

> <Gold.Chemscore.Hbonds>
donor molecule, donor type, donor heavy atom, donor atom, acceptor molecule, acceptor atom, score
      P1  H  7997  8008       L1    10  0.52

> <Gold.PLP.Chemscore.Internal.Correction>
0.0089

> <Gold.Rescore>
     Score         DG    S(hbond)    S(metal)    S(lipo)     H(rot)  DE(clash)    DE(int)     intcor
     16.05     -17.16       0.98        0.00     115.11       1.98       0.06       1.05       ----

> <Gold.Chemscore.Fitness>
16.0529

> <Gold.Chemscore.DG>
-17.1580

> <Gold.Chemscore.ZeroCoef>
-5.4800

> <Gold.Chemscore.Hbond>
0.9835

> <Gold.Chemscore.Metal>
0.0000

> <Gold.Chemscore.Lipo>
115.1112

> <Gold.Chemscore.Internal_Hbond>
0.0000

> <Gold.Chemscore.DEClash>
0.0570

> <Gold.Chemscore.DEInternal>
1.0481

> <Gold.Chemscore.Rot>
1.9823

> <Gold.Chemscore.Internal.Correction>
   9.000000E+99

> <Gold.Chemscore.Hbonds>
donor molecule, donor type, donor heavy atom, donor atom, acceptor molecule, acceptor atom, score
      P1  H  7997  8008       L1    10  0.47

> <Gold.Chemscore.Hbond.Weighted>
-3.2848

> <Gold.Chemscore.Metal.Weighted>
-0.0000

> <Gold.Chemscore.Lipo.Weighted>
-13.4680

> <Gold.Chemscore.Internal_Hbond.Weighted>
0.0000

> <Gold.Chemscore.DEClash.Weighted>
0.0570

> <Gold.Chemscore.DEInternal.Weighted>
1.0481

> <Gold.Chemscore.Rot.Weighted>
5.0748

> <Gold.Chemscore.Internal.Correction.Weighted>
   9.000000E+99

> <Gold.Protein.RotatedTorsions>
[ 6907 6896 6895 6894 ] final -141.99 input  -60.11 | X-H torsion
[ 7974 7965 7964 7962 ] final  167.49 input  175.53 | X-H torsion
[ 8008 7997 7996 7995 ] final  -86.38 input   59.86 | X-H torsion
[ 10167 10162 10161 10158 ] final  101.29 input  -65.29 | X-H torsion
[ 10718 10713 10712 10709 ] final   99.57 input   66.30 | X-H torsion
[ 10763 10752 10751 10750 ] final -152.67 input  -60.55 | X-H torsion
[ 11005 11000 10999 10996 ] final  136.29 input  -57.11 | X-H torsion

> <Gold.Protein.ActiveResidues>
 VAL166  LYS551  ARG553  GLY616  TRP617  ASP618  TYR619  PRO620  LYS621  CYS622 
 ASP623  PHE694  ASN695  SER759  ASP760  ASP761  ALA762  ILE779  LEU786  VAL792 
 PHE793  MET794  SER795  GLU796  ALA797  LYS798  CYS799  TRP800  GLU811  SER814 

> <Gold.Protein.RotatedAtoms>
  151.0811  133.5389  159.2620 H   0  0  0  0  0  0  0  0  0  0  0  0  # atno 6907 bound_to 6896
  151.2292  135.0547  159.8991 H   0  0  0  0  0  0  0  0  0  0  0  0  # atno 6908 bound_to 6896
  152.5424  134.0602  159.8202 H   0  0  0  0  0  0  0  0  0  0  0  0  # atno 6909 bound_to 6896
  144.7422  139.8769  143.6393 H   0  0  0  0  0  0  0  0  0  0  0  0  # atno 7974 bound_to 7965
  154.6512  140.0579  156.9958 H   0  0  0  0  0  0  0  0  0  0  0  0  # atno 8008 bound_to 7997
  155.1368  140.3261  155.4443 H   0  0  0  0  0  0  0  0  0  0  0  0  # atno 8009 bound_to 7997
  156.2577  140.1971  156.6485 H   0  0  0  0  0  0  0  0  0  0  0  0  # atno 8010 bound_to 7997
  139.7451  144.7000  151.0516 H   0  0  0  0  0  0  0  0  0  0  0  0  # atno 10167 bound_to 10162
  157.6873  131.0673  150.4969 H   0  0  0  0  0  0  0  0  0  0  0  0  # atno 10718 bound_to 10713
  154.7979  135.3231  154.7622 H   0  0  0  0  0  0  0  0  0  0  0  0  # atno 10763 bound_to 10752
  153.8296  135.6880  153.4820 H   0  0  0  0  0  0  0  0  0  0  0  0  # atno 10764 bound_to 10752
  153.1680  135.4634  154.9806 H   0  0  0  0  0  0  0  0  0  0  0  0  # atno 10765 bound_to 10752
  140.0036  134.9468  157.0126 H   0  0  0  0  0  0  0  0  0  0  0  0  # atno 11005 bound_to 11000
  146.1240  139.4262  143.0211 LP  0  0  0  0  0  0  0  0  0  0  0  0  # atno 17320 bound_to 7965
  145.7263  141.0058  143.1375 LP  0  0  0  0  0  0  0  0  0  0  0  0  # atno 17321 bound_to 7965
  140.7791  143.4876  150.9935 LP  0  0  0  0  0  0  0  0  0  0  0  0  # atno 17342 bound_to 10162
  139.8564  143.7371  152.3176 LP  0  0  0  0  0  0  0  0  0  0  0  0  # atno 17343 bound_to 10162
  156.5293  130.4181  149.6210 LP  0  0  0  0  0  0  0  0  0  0  0  0  # atno 17370 bound_to 10713
  156.3084  130.7215  151.2102 LP  0  0  0  0  0  0  0  0  0  0  0  0  # atno 17371 bound_to 10713
  140.4682  134.1413  155.7199 LP  0  0  0  0  0  0  0  0  0  0  0  0  # atno 17394 bound_to 11000
  141.1660  133.8701  157.1712 LP  0  0  0  0  0  0  0  0  0  0  0  0  # atno 17395 bound_to 11000

$$$$
