#       Name:                AV-unprocessed.smi:1978
#       Creating user name   scv26
#       Creation time:       Fri Mar 27 10:19:08 2020


#       File generated by GOLD software.
#

@<TRIPOS>MOLECULE
AV-unprocessed.smi:1978
    50    51     1
SMALL
NO_CHARGES


@<TRIPOS>ATOM
      1 ****        -6.4354   5.1948  -0.4834 C.3            1 S1                 0.0000
      2 ****        -5.0691   4.6230  -0.6500 C.2            1 S1                 0.0000
      3 ****        -4.1920   4.0466   0.2243 C.2            1 S1                 0.0000
      4 ****        -3.0823   3.7156  -0.6005 C.2            1 S1                 0.0000
      5 ****        -1.9457   3.1261  -0.1986 N.pl3          1 S1                -1.0000
      6 ****        -1.8796   1.7798  -0.0905 C.2            1 S1                 0.0000
      7 ****        -2.7990   0.9833  -0.2933 O.2            1 S1                 0.0000
      8 ****        -0.6698   1.3313   0.2721 N.am           1 S1                 0.0000
      9 ****        -0.2822  -0.0663   0.4375 C.3            1 S1                 0.0000
     10 ****         1.1922  -0.2882   0.0312 C.3            1 S1                 0.0000
     11 ****         1.4668   0.0959  -1.4398 C.3            1 S1                 0.0000
     12 ****         1.6508  -1.6769   0.3635 N.4            1 S1                 1.0000
     13 ****         1.0149  -2.7381  -0.4733 C.3            1 S1                 0.0000
     14 ****         1.3002  -4.1396   0.0836 C.3            1 S1                 0.0000
     15 ****         2.8074  -4.3859   0.1671 C.3            1 S1                 0.0000
     16 ****         3.4624  -3.2789   0.9986 C.3            1 S1                 0.0000
     17 ****         3.1378  -1.8713   0.4499 C.3            1 S1                 0.0000
     18 ****         3.8547  -0.8219   1.3242 C.3            1 S1                 0.0000
     19 ****        -3.2617   4.0782  -1.8595 N.2            1 S1                 0.0000
     20 ****        -4.5364   4.6552  -1.9012 O.3            1 S1                 0.0000
     21 ****        -6.4053   6.0874   0.1413 H              1 S1                 0.0000
     22 ****        -7.1000   4.4720  -0.0103 H              1 S1                 0.0000
     23 ****        -6.8674   5.4698  -1.4460 H              1 S1                 0.0000
     24 ****        -4.3248   3.8808   1.2829 H              1 S1                 0.0000
     25 ****         0.0462   2.0253   0.4310 H              1 S1                 0.0000
     26 ****        -0.4313  -0.3401   1.4827 H              1 S1                 0.0000
     27 ****        -0.9430  -0.6992  -0.1536 H              1 S1                 0.0000
     28 ****         1.7433   0.4123   0.6541 H              1 S1                 0.0000
     29 ****         1.2539   1.1502  -1.6182 H              1 S1                 0.0000
     30 ****         0.8468  -0.4755  -2.1305 H              1 S1                 0.0000
     31 ****         2.5097  -0.0629  -1.7120 H              1 S1                 0.0000
     32 ****        -0.0645  -2.6125  -0.5218 H              1 S1                 0.0000
     33 ****         1.3834  -2.6737  -1.4979 H              1 S1                 0.0000
     34 ****         0.8506  -4.2431   1.0721 H              1 S1                 0.0000
     35 ****         0.8349  -4.8948  -0.5507 H              1 S1                 0.0000
     36 ****         3.0074  -5.3613   0.6115 H              1 S1                 0.0000
     37 ****         3.2378  -4.4028  -0.8350 H              1 S1                 0.0000
     38 ****         3.1257  -3.3565   2.0335 H              1 S1                 0.0000
     39 ****         4.5416  -3.4361   1.0155 H              1 S1                 0.0000
     40 ****         3.5500  -1.8026  -0.5578 H              1 S1                 0.0000
     41 ****         4.8966  -1.0989   1.4887 H              1 S1                 0.0000
     42 ****         3.3832  -0.7269   2.3029 H              1 S1                 0.0000
     43 ****         3.8766   0.1609   0.8541 H              1 S1                 0.0000
     44 ****         1.3146  -1.8344   1.3027 H              1 S1                 0.0000
     45 ****        -1.1455   3.6839   0.0215 LP             1 S1                 0.0000
     46 ****        -3.7004   1.3192  -0.5666 LP             1 S1                 0.0000
     47 ****        -2.6431   0.0015  -0.1845 LP             1 S1                 0.0000
     48 ****        -2.6226   3.9644  -2.6202 LP             1 S1                 0.0000
     49 ****        -4.4672   5.6027  -2.2135 LP             1 S1                 0.0000
     50 ****        -5.1193   4.1391  -2.5288 LP             1 S1                 0.0000
@<TRIPOS>BOND
    1    1    2 1     
    2    1   21 1     
    3    1   22 1     
    4    1   23 1     
    5    2   20 1     
    6    2    3 2     
    7    3    4 1     
    8    3   24 1     
    9    4    5 1     
   10    4   19 2     
   11    5    6 1     
   12    6    7 2     
   13    6    8 am    
   14    8    9 1     
   15    8   25 1     
   16    9   10 1     
   17    9   26 1     
   18    9   27 1     
   19   10   11 1     
   20   10   12 1     
   21   10   28 1     
   22   11   29 1     
   23   11   30 1     
   24   11   31 1     
   25   12   17 1     
   26   12   13 1     
   27   12   44 1     
   28   13   14 1     
   29   13   32 1     
   30   13   33 1     
   31   14   15 1     
   32   14   34 1     
   33   14   35 1     
   34   15   16 1     
   35   15   36 1     
   36   15   37 1     
   37   16   17 1     
   38   16   38 1     
   39   16   39 1     
   40   17   18 1     
   41   17   40 1     
   42   18   41 1     
   43   18   42 1     
   44   18   43 1     
   45   19   20 1     
   46    5   45 1     
   47    7   46 1     
   48    7   47 1     
   49   19   48 1     
   50   20   49 1     
   51   20   50 1     
@<TRIPOS>SUBSTRUCTURE
      1 S1             1
@<TRIPOS>SET
LONE_PAIRS      STATIC     ATOMS    <user>   **** ""
6 45 46 47 48 49 50
DONOR_HYDROGENS      STATIC     ATOMS    <user>   **** ""
2 25 44
ATOM$BLUE        STATIC     ATOMS    COLORGROUP SYSTEM
6 45 46 47 48 49 50
ATOM$RED        STATIC     ATOMS    COLORGROUP SYSTEM
2 25 44
