AV-unprocessed.smi:1809|AV-procd|sdf|7324|dock10
  -GOLD-   22720 8583D 1   1.00000     0.00000
 Structure written by MMmdl.
 39 41  0  0  0  0  0  0  0  0  3 V2000
  147.1904  135.3746  162.7871 C   0  0  0  0  0  0  0  0  0  0  0  0
  147.5098  135.8845  161.4236 C   0  0  0  0  0  0  0  0  0  0  0  0
  147.9205  137.1348  161.1983 N   0  0  0  0  0  0  0  0  0  0  0  0
  148.1476  137.3754  159.8509 N   0  0  0  0  0  0  0  0  0  0  0  0
  147.8976  136.3096  159.0770 C   0  0  0  0  0  0  0  0  0  0  0  0
  148.0550  136.3355  157.7432 N   0  5  0  0  0  0  0  0  0  0  0  0
  149.2121  136.7847  157.2080 C   0  0  0  0  0  0  0  0  0  0  0  0
  150.1585  137.2814  157.8234 O   0  0  0  0  0  0  0  0  0  0  0  0
  149.2753  136.6575  155.8753 N   0  0  0  0  0  0  0  0  0  0  0  0
  150.3912  137.0743  155.0329 C   0  0  0  0  0  0  0  0  0  0  0  0
  150.2791  138.5563  154.6350 C   0  0  1  0  0  0  0  0  0  0  0  0
  148.8871  138.9002  154.0834 C   0  0  0  0  0  0  0  0  0  0  0  0
  148.7862  140.3398  153.7342 N   0  3  1  0  0  0  0  0  0  0  0  0
  147.3906  140.7574  153.4744 C   0  0  0  0  0  0  0  0  0  0  0  0
  146.8750  141.4086  154.7711 C   0  0  0  0  0  0  0  0  0  0  0  0
  148.0691  141.4213  155.7321 C   0  0  0  0  0  0  0  0  0  0  0  0
  149.2728  141.2328  154.8089 C   0  0  1  0  0  0  0  0  0  0  0  0
  150.5693  140.7331  155.4793 C   0  0  0  0  0  0  0  0  0  0  0  0
  150.4843  139.3516  155.7961 O   0  0  0  0  0  0  0  0  0  0  0  0
  147.3724  134.8906  159.9829 S   0  0  0  0  0  0  0  0  0  0  0  0
  146.2099  135.7349  163.0986 H   0  0  0  0  0  0  0  0  0  0  0  0
  147.9364  135.7188  163.5036 H   0  0  0  0  0  0  0  0  0  0  0  0
  147.1806  134.2846  162.7912 H   0  0  0  0  0  0  0  0  0  0  0  0
  148.4802  136.2435  155.4109 H   0  0  0  0  0  0  0  0  0  0  0  0
  151.3302  136.8904  155.5574 H   0  0  0  0  0  0  0  0  0  0  0  0
  150.4057  136.4452  154.1426 H   0  0  0  0  0  0  0  0  0  0  0  0
  151.0346  138.7880  153.8820 H   0  0  0  0  0  0  0  0  0  0  0  0
  148.6752  138.3049  153.1945 H   0  0  0  0  0  0  0  0  0  0  0  0
  148.1287  138.6436  154.8251 H   0  0  0  0  0  0  0  0  0  0  0  0
  147.3985  141.4962  152.6722 H   0  0  0  0  0  0  0  0  0  0  0  0
  146.7610  139.9297  153.1438 H   0  0  0  0  0  0  0  0  0  0  0  0
  146.5301  142.4236  154.5701 H   0  0  0  0  0  0  0  0  0  0  0  0
  146.0368  140.8552  155.1961 H   0  0  0  0  0  0  0  0  0  0  0  0
  148.1284  142.3388  156.3185 H   0  0  0  0  0  0  0  0  0  0  0  0
  147.9926  140.5855  156.4291 H   0  0  0  0  0  0  0  0  0  0  0  0
  149.4827  142.2002  154.3491 H   0  0  0  0  0  0  0  0  0  0  0  0
  151.4237  140.8985  154.8208 H   0  0  0  0  0  0  0  0  0  0  0  0
  150.7670  141.2985  156.3903 H   0  0  0  0  0  0  0  0  0  0  0  0
  149.3459  140.4893  152.9066 H   0  0  0  0  0  0  0  0  0  0  0  0
  1  2  1  0  0  0  0
  1 21  1  0  0  0  0
  1 22  1  0  0  0  0
  1 23  1  0  0  0  0
  2 20  1  0  0  0  0
  2  3  2  0  0  0  0
  3  4  1  0  0  0  0
  4  5  2  0  0  0  0
  5  6  1  0  0  0  0
  5 20  1  0  0  0  0
  6  7  1  0  0  0  0
  7  8  2  0  0  0  0
  7  9  1  0  0  0  0
  9 10  1  0  0  0  0
  9 24  1  0  0  0  0
 10 11  1  0  0  0  0
 10 25  1  0  0  0  0
 10 26  1  0  0  0  0
 11 19  1  0  0  0  0
 11 12  1  0  0  0  0
 11 27  1  0  0  0  0
 12 13  1  0  0  0  0
 12 28  1  0  0  0  0
 12 29  1  0  0  0  0
 13 17  1  0  0  0  0
 13 14  1  0  0  0  0
 13 39  1  0  0  0  0
 14 15  1  0  0  0  0
 14 30  1  0  0  0  0
 14 31  1  0  0  0  0
 15 16  1  0  0  0  0
 15 32  1  0  0  0  0
 15 33  1  0  0  0  0
 16 17  1  0  0  0  0
 16 34  1  0  0  0  0
 16 35  1  0  0  0  0
 17 18  1  0  0  0  0
 17 36  1  0  0  0  0
 18 19  1  0  0  0  0
 18 37  1  0  0  0  0
 18 38  1  0  0  0  0
M  CHG  1   6  -1
M  CHG  1  13   1
M  END
> <s_m_source_file>
AV-unprocessed.smi

> <i_m_source_file_index>
1809

> <i_lp_mmshare_version>
43012

> <i_f3d_flags>
0

> <s_epik_input>
W0NIM11jMW5uYyhzMSlbTkhdQyg9TylbTkhdW0NIMl1bQ0BIXShbQ0gyXTIpT1tDSDJdW0NAQEhdKE4yMylbQ0gyXVtDSDJdW0NIMl0z

> <s_epik_cmdline>
J2VwaWtfcHl0aG9uJywgJy1waCcsICc3LjAnLCAnLXRuJywgJzgnLCAnLW1hJywgJzIwMCcsICctbWV0YWxfYmluZGluZycsICctaW1hZScsICc8aW5maWxlLm1hZT4nLCAnLW9tYWUnLCAnPG91dGZpbGUubWFlPic=

> <r_lp_tautomer_probability>
1

> <r_epik_Ionization_Penalty>
3.2601

> <r_epik_Ionization_Penalty_Charging>
3.1406

> <r_epik_Ionization_Penalty_Neutral>
0.119497

> <r_epik_State_Penalty>
3.08894

> <r_epik_Charging_Adjusted_Penalty>
6.22954

> <i_epik_Tot_Q>
0

> <i_epik_Tot_abs_Q>
2

> <r_epik_Metal_State_Penalty>
0.510807

> <b_epik_Metal_Only>
1

> <s_lp_Force_Field>
OPLS_2005

> <r_lp_Energy>
28.9947

> <b_lp_Chiralities_Consistent>
1

> <s_lp_Variant>
AV-unprocessed.smi:1809-16

> <Gold.Version>
5.8.1

> <Gold.Id.Protein>
6NUR|6NUR_protein|mol2

> <Gold.PLP.Fitness>
37.7320

> <Gold.PLP.PLP>
-33.2145

> <Gold.PLP.part.hbond>
-4.9253

> <Gold.PLP.part.metal>
0.0000

> <Gold.PLP.part.buried>
-2.8009

> <Gold.PLP.part.nonpolar>
-25.9907

> <Gold.PLP.part.repulsive>
0.1569

> <Gold.PLP.ligand.clash>
0.0000

> <Gold.PLP.ligand.torsion>
0.6879

> <Gold.PLP.Chemscore.Hbond>
1.9600

> <Gold.PLP.Chemscore.CHOScore>
0.0000

> <Gold.PLP.Chemscore.Metal>
0.0000

> <Gold.Chemscore.Hbonds>
donor molecule, donor type, donor heavy atom, donor atom, acceptor molecule, acceptor atom, score
      L1  H    13    39       P1  7957  0.93
      P1  H  6931  6943       L1     3  1.00

> <Gold.PLP.Chemscore.Internal.Correction>
0.0132

> <Gold.Rescore>
     Score         DG    S(hbond)    S(metal)    S(lipo)     H(rot)  DE(clash)    DE(int)     intcor
     12.96     -16.33       1.68        0.00      73.80       1.32       0.18       3.19       ----

> <Gold.Chemscore.Fitness>
12.9567

> <Gold.Chemscore.DG>
-16.3305

> <Gold.Chemscore.ZeroCoef>
-5.4800

> <Gold.Chemscore.Hbond>
1.6788

> <Gold.Chemscore.Metal>
0.0000

> <Gold.Chemscore.Lipo>
73.7975

> <Gold.Chemscore.Internal_Hbond>
0.0000

> <Gold.Chemscore.DEClash>
0.1850

> <Gold.Chemscore.DEInternal>
3.1888

> <Gold.Chemscore.Rot>
1.3246

> <Gold.Chemscore.Internal.Correction>
   9.000000E+99

> <Gold.Chemscore.Hbonds>
donor molecule, donor type, donor heavy atom, donor atom, acceptor molecule, acceptor atom, score
      L1  H    13    39       P1  7957  0.90
      P1  H  6931  6943       L1     3  0.24

> <Gold.Chemscore.Hbond.Weighted>
-5.6072

> <Gold.Chemscore.Metal.Weighted>
-0.0000

> <Gold.Chemscore.Lipo.Weighted>
-8.6343

> <Gold.Chemscore.Internal_Hbond.Weighted>
0.0000

> <Gold.Chemscore.DEClash.Weighted>
0.1850

> <Gold.Chemscore.DEInternal.Weighted>
3.1888

> <Gold.Chemscore.Rot.Weighted>
3.3910

> <Gold.Chemscore.Internal.Correction.Weighted>
   9.000000E+99

> <Gold.Protein.RotatedTorsions>
[ 6907 6896 6895 6894 ] final   40.18 input  -60.11 | X-H torsion
[ 7974 7965 7964 7962 ] final -159.26 input  175.53 | X-H torsion
[ 8008 7997 7996 7995 ] final  114.59 input   59.86 | X-H torsion
[ 10167 10162 10161 10158 ] final  121.17 input  -65.29 | X-H torsion
[ 10718 10713 10712 10709 ] final -160.39 input   66.30 | X-H torsion
[ 10763 10752 10751 10750 ] final -151.66 input  -60.55 | X-H torsion
[ 11005 11000 10999 10996 ] final  -92.80 input  -57.11 | X-H torsion

> <Gold.Protein.ActiveResidues>
 VAL166  LYS551  ARG553  GLY616  TRP617  ASP618  TYR619  PRO620  LYS621  CYS622 
 ASP623  PHE694  ASN695  SER759  ASP760  ASP761  ALA762  ILE779  LEU786  VAL792 
 PHE793  MET794  SER795  GLU796  ALA797  LYS798  CYS799  TRP800  GLU811  SER814 

> <Gold.Protein.RotatedAtoms>
  152.1792  134.8768  160.0527 H   0  0  0  0  0  0  0  0  0  0  0  0  # atno 6907 bound_to 6896
  151.9699  133.3717  159.4075 H   0  0  0  0  0  0  0  0  0  0  0  0  # atno 6908 bound_to 6896
  150.6914  134.4074  159.5190 H   0  0  0  0  0  0  0  0  0  0  0  0  # atno 6909 bound_to 6896
  144.7472  140.3710  143.6076 H   0  0  0  0  0  0  0  0  0  0  0  0  # atno 7974 bound_to 7965
  156.2330  140.2956  156.0238 H   0  0  0  0  0  0  0  0  0  0  0  0  # atno 8008 bound_to 7997
  155.2171  140.0414  157.2960 H   0  0  0  0  0  0  0  0  0  0  0  0  # atno 8009 bound_to 7997
  154.6029  140.2431  155.7776 H   0  0  0  0  0  0  0  0  0  0  0  0  # atno 8010 bound_to 7997
  139.5936  144.7034  151.3230 H   0  0  0  0  0  0  0  0  0  0  0  0  # atno 10167 bound_to 10162
  156.5815  130.8731  151.2865 H   0  0  0  0  0  0  0  0  0  0  0  0  # atno 10718 bound_to 10713
  154.8044  135.3254  154.7469 H   0  0  0  0  0  0  0  0  0  0  0  0  # atno 10763 bound_to 10752
  153.8131  135.6894  153.4842 H   0  0  0  0  0  0  0  0  0  0  0  0  # atno 10764 bound_to 10752
  153.1780  135.4597  154.9934 H   0  0  0  0  0  0  0  0  0  0  0  0  # atno 10765 bound_to 10752
  141.1513  133.7845  157.0071 H   0  0  0  0  0  0  0  0  0  0  0  0  # atno 11005 bound_to 11000
  145.7078  139.1677  143.2556 LP  0  0  0  0  0  0  0  0  0  0  0  0  # atno 17320 bound_to 7965
  146.1369  140.7110  142.9385 LP  0  0  0  0  0  0  0  0  0  0  0  0  # atno 17321 bound_to 7965
  140.7194  143.7178  150.7719 LP  0  0  0  0  0  0  0  0  0  0  0  0  # atno 17342 bound_to 10162
  140.0740  143.5034  152.2565 LP  0  0  0  0  0  0  0  0  0  0  0  0  # atno 17343 bound_to 10162
  157.7325  130.9717  150.1933 LP  0  0  0  0  0  0  0  0  0  0  0  0  # atno 17370 bound_to 10713
  156.2628  130.3713  149.8113 LP  0  0  0  0  0  0  0  0  0  0  0  0  # atno 17371 bound_to 10713
  140.0902  134.9597  157.1764 LP  0  0  0  0  0  0  0  0  0  0  0  0  # atno 17394 bound_to 11000
  140.3456  134.2655  155.7205 LP  0  0  0  0  0  0  0  0  0  0  0  0  # atno 17395 bound_to 11000

$$$$
