AV-unprocessed.smi:1740|AV-procd|sdf|7009|dock5
  -GOLD-   22720 8223D 1   1.00000     0.00000
 Structure written by MMmdl.
 52 54  0  0  0  0  0  0  0  0  2 V2000
  152.4127  129.4452  154.0250 N   0  0  0  0  0  0  0  0  0  0  0  0
  151.4243  130.2171  154.4839 C   0  0  0  0  0  0  0  0  0  0  0  0
  150.3204  130.2634  153.9458 O   0  0  0  0  0  0  0  0  0  0  0  0
  151.7226  131.0666  155.7247 C   0  0  0  0  0  0  0  0  0  0  0  0
  151.5271  132.5232  155.5388 N   0  0  0  0  0  0  0  0  0  0  0  0
  151.9601  133.3007  156.7096 C   0  0  0  0  0  0  0  0  0  0  0  0
  151.8014  134.8092  156.4485 C   0  0  0  0  0  0  0  0  0  0  0  0
  150.3494  135.1646  156.0897 C   0  0  0  0  0  0  0  0  0  0  0  0
  150.2350  136.5707  155.7143 N   0  0  0  0  0  0  0  0  0  0  0  0
  150.5479  137.6071  156.5044 C   0  0  0  0  0  0  0  0  0  0  0  0
  150.9725  137.4872  157.6537 O   0  0  0  0  0  0  0  0  0  0  0  0
  150.3605  138.7776  155.8723 N   0  0  0  0  0  0  0  0  0  0  0  0
  150.6166  140.0834  156.3763 C   0  0  0  0  0  0  0  0  0  0  0  0
  151.7643  140.3458  157.1673 C   0  0  0  0  0  0  0  0  0  0  0  0
  151.9599  141.6260  157.7186 C   0  0  0  0  0  0  0  0  0  0  0  0
  150.9965  142.6217  157.4839 C   0  0  0  0  0  0  0  0  0  0  0  0
  149.9098  142.3378  156.7363 N   0  3  0  0  0  0  0  0  0  0  0  0
  149.6723  141.1299  156.1661 C   0  0  0  0  0  0  0  0  0  0  0  0
  148.4978  140.9824  155.3933 N   0  0  0  0  0  0  0  0  0  0  0  0
  147.1861  141.0223  156.0298 C   0  0  0  0  0  0  0  0  0  0  0  0
  146.1952  141.2115  154.8845 C   0  0  0  0  0  0  0  0  0  0  0  0
  146.9740  142.1032  153.9222 C   0  0  0  0  0  0  0  0  0  0  0  0
  148.4248  141.6407  154.0923 C   0  0  0  0  0  0  0  0  0  0  0  0
  149.8921  134.2732  154.9273 C   0  0  0  0  0  0  0  0  0  0  0  0
  150.1128  132.7856  155.2517 C   0  0  0  0  0  0  0  0  0  0  0  0
  152.2608  128.8637  153.2136 H   0  0  0  0  0  0  0  0  0  0  0  0
  153.3061  129.4423  154.4955 H   0  0  0  0  0  0  0  0  0  0  0  0
  151.0704  130.7106  156.5237 H   0  0  0  0  0  0  0  0  0  0  0  0
  152.7457  130.8708  156.0518 H   0  0  0  0  0  0  0  0  0  0  0  0
  151.3852  133.0068  157.5897 H   0  0  0  0  0  0  0  0  0  0  0  0
  153.0078  133.1076  156.9404 H   0  0  0  0  0  0  0  0  0  0  0  0
  152.1179  135.3675  157.3303 H   0  0  0  0  0  0  0  0  0  0  0  0
  152.4690  135.1075  155.6386 H   0  0  0  0  0  0  0  0  0  0  0  0
  149.7075  134.9638  156.9498 H   0  0  0  0  0  0  0  0  0  0  0  0
  149.8950  136.7641  154.7837 H   0  0  0  0  0  0  0  0  0  0  0  0
  150.1083  138.7250  154.8963 H   0  0  0  0  0  0  0  0  0  0  0  0
  152.4886  139.5736  157.3787 H   0  0  0  0  0  0  0  0  0  0  0  0
  152.8303  141.8358  158.3232 H   0  0  0  0  0  0  0  0  0  0  0  0
  151.0584  143.6285  157.8710 H   0  0  0  0  0  0  0  0  0  0  0  0
  146.9869  140.1084  156.5904 H   0  0  0  0  0  0  0  0  0  0  0  0
  147.1180  141.8690  156.7142 H   0  0  0  0  0  0  0  0  0  0  0  0
  145.9806  140.2520  154.4121 H   0  0  0  0  0  0  0  0  0  0  0  0
  145.2509  141.6513  155.2069 H   0  0  0  0  0  0  0  0  0  0  0  0
  146.6233  142.0290  152.8923 H   0  0  0  0  0  0  0  0  0  0  0  0
  146.8811  143.1445  154.2341 H   0  0  0  0  0  0  0  0  0  0  0  0
  149.1188  142.4792  154.0147 H   0  0  0  0  0  0  0  0  0  0  0  0
  148.6784  140.9166  153.3175 H   0  0  0  0  0  0  0  0  0  0  0  0
  148.8375  134.4505  154.7132 H   0  0  0  0  0  0  0  0  0  0  0  0
  150.4399  134.5303  154.0191 H   0  0  0  0  0  0  0  0  0  0  0  0
  149.7923  132.1896  154.3961 H   0  0  0  0  0  0  0  0  0  0  0  0
  149.4906  132.4861  156.0972 H   0  0  0  0  0  0  0  0  0  0  0  0
  149.2288  143.0819  156.5838 H   0  0  0  0  0  0  0  0  0  0  0  0
  1  2  1  0  0  0  0
  1 26  1  0  0  0  0
  1 27  1  0  0  0  0
  2  3  2  0  0  0  0
  2  4  1  0  0  0  0
  4  5  1  0  0  0  0
  4 28  1  0  0  0  0
  4 29  1  0  0  0  0
  5 25  1  0  0  0  0
  5  6  1  0  0  0  0
  6  7  1  0  0  0  0
  6 30  1  0  0  0  0
  6 31  1  0  0  0  0
  7  8  1  0  0  0  0
  7 32  1  0  0  0  0
  7 33  1  0  0  0  0
  8  9  1  0  0  0  0
  8 24  1  0  0  0  0
  8 34  1  0  0  0  0
  9 10  1  0  0  0  0
  9 35  1  0  0  0  0
 10 11  2  0  0  0  0
 10 12  1  0  0  0  0
 12 13  1  0  0  0  0
 12 36  1  0  0  0  0
 13 18  1  0  0  0  0
 13 14  2  0  0  0  0
 14 15  1  0  0  0  0
 14 37  1  0  0  0  0
 15 16  2  0  0  0  0
 15 38  1  0  0  0  0
 16 17  1  0  0  0  0
 16 39  1  0  0  0  0
 17 18  2  0  0  0  0
 17 52  1  0  0  0  0
 18 19  1  0  0  0  0
 19 23  1  0  0  0  0
 19 20  1  0  0  0  0
 20 21  1  0  0  0  0
 20 40  1  0  0  0  0
 20 41  1  0  0  0  0
 21 22  1  0  0  0  0
 21 42  1  0  0  0  0
 21 43  1  0  0  0  0
 22 23  1  0  0  0  0
 22 44  1  0  0  0  0
 22 45  1  0  0  0  0
 23 46  1  0  0  0  0
 23 47  1  0  0  0  0
 24 25  1  0  0  0  0
 24 48  1  0  0  0  0
 24 49  1  0  0  0  0
 25 50  1  0  0  0  0
 25 51  1  0  0  0  0
M  CHG  1  17   1
M  END
> <s_m_source_file>
AV-unprocessed.smi

> <i_m_source_file_index>
1740

> <i_lp_mmshare_version>
43012

> <i_f3d_flags>
0

> <s_epik_input>
W05IMl1DKD1PKVtDSDJdTjFbQ0gyXVtDSDJdW0NIXShbQ0gyXVtDSDJdMSlbTkhdQyg9TylbTkhdYzJbY0hdW2NIXVtjSF1uYzJOM1tDSDJdW0NIMl1bQ0gyXVtDSDJdMw==

> <s_epik_cmdline>
J2VwaWtfcHl0aG9uJywgJy1waCcsICc3LjAnLCAnLXRuJywgJzgnLCAnLW1hJywgJzIwMCcsICctbWV0YWxfYmluZGluZycsICctaW1hZScsICc8aW5maWxlLm1hZT4nLCAnLW9tYWUnLCAnPG91dGZpbGUubWFlPic=

> <r_epik_Ionization_Penalty>
1.24114

> <r_epik_Ionization_Penalty_Charging>
1.08532

> <r_epik_Ionization_Penalty_Neutral>
0.155817

> <r_epik_State_Penalty>
1.33508

> <r_epik_Charging_Adjusted_Penalty>
2.4204

> <i_epik_Tot_Q>
1

> <i_epik_Tot_abs_Q>
1

> <r_epik_Metal_State_Penalty>
1.43573

> <b_epik_Metal_Only>
0

> <s_lp_Force_Field>
OPLS_2005

> <r_lp_Energy>
46.1835

> <b_lp_Chiralities_Consistent>
1

> <s_lp_Variant>
AV-unprocessed.smi:1740-4

> <Gold.Version>
5.8.1

> <Gold.Id.Protein>
6NUR|6NUR_protein|mol2

> <Gold.PLP.Fitness>
40.3689

> <Gold.PLP.PLP>
-32.0845

> <Gold.PLP.part.hbond>
-2.0000

> <Gold.PLP.part.metal>
0.0000

> <Gold.PLP.part.buried>
-4.4474

> <Gold.PLP.part.nonpolar>
-25.6532

> <Gold.PLP.part.repulsive>
0.3616

> <Gold.PLP.ligand.clash>
0.0000

> <Gold.PLP.ligand.torsion>
0.5334

> <Gold.PLP.Chemscore.Hbond>
2.9920

> <Gold.PLP.Chemscore.CHOScore>
0.0000

> <Gold.PLP.Chemscore.Metal>
0.0000

> <Gold.Chemscore.Hbonds>
donor molecule, donor type, donor heavy atom, donor atom, acceptor molecule, acceptor atom, score
      L1  H     1    26       P1 10737  0.75
      L1  H    17    52       P1  8028  1.82

> <Gold.PLP.Chemscore.Internal.Correction>
0.3752

> <Gold.Rescore>
     Score         DG    S(hbond)    S(metal)    S(lipo)     H(rot)  DE(clash)    DE(int)     intcor
     12.62     -14.48       1.78        0.00      74.08       2.19       0.03       1.82       ----

> <Gold.Chemscore.Fitness>
12.6246

> <Gold.Chemscore.DG>
-14.4774

> <Gold.Chemscore.ZeroCoef>
-5.4800

> <Gold.Chemscore.Hbond>
1.7781

> <Gold.Chemscore.Metal>
0.0000

> <Gold.Chemscore.Lipo>
74.0834

> <Gold.Chemscore.Internal_Hbond>
0.0000

> <Gold.Chemscore.DEClash>
0.0284

> <Gold.Chemscore.DEInternal>
1.8244

> <Gold.Chemscore.Rot>
2.1911

> <Gold.Chemscore.Internal.Correction>
   9.000000E+99

> <Gold.Chemscore.Hbonds>
donor molecule, donor type, donor heavy atom, donor atom, acceptor molecule, acceptor atom, score
      L1  H     1    26       P1 10737  0.09
      L1  H    17    52       P1  8028  0.88

> <Gold.Chemscore.Hbond.Weighted>
-5.9389

> <Gold.Chemscore.Metal.Weighted>
-0.0000

> <Gold.Chemscore.Lipo.Weighted>
-8.6678

> <Gold.Chemscore.Internal_Hbond.Weighted>
0.0000

> <Gold.Chemscore.DEClash.Weighted>
0.0284

> <Gold.Chemscore.DEInternal.Weighted>
1.8244

> <Gold.Chemscore.Rot.Weighted>
5.6092

> <Gold.Chemscore.Internal.Correction.Weighted>
   9.000000E+99

> <Gold.Protein.RotatedTorsions>
[ 6907 6896 6895 6894 ] final  -54.83 input  -60.11 | X-H torsion
[ 7974 7965 7964 7962 ] final   22.22 input  175.53 | X-H torsion
[ 8008 7997 7996 7995 ] final   18.78 input   59.86 | X-H torsion
[ 10167 10162 10161 10158 ] final -118.36 input  -65.29 | X-H torsion
[ 10718 10713 10712 10709 ] final -164.26 input   66.30 | X-H torsion
[ 10763 10752 10751 10750 ] final  -81.53 input  -60.55 | X-H torsion
[ 11005 11000 10999 10996 ] final   28.72 input  -57.11 | X-H torsion

> <Gold.Protein.ActiveResidues>
 VAL166  LYS551  ARG553  GLY616  TRP617  ASP618  TYR619  PRO620  LYS621  CYS622 
 ASP623  PHE694  ASN695  SER759  ASP760  ASP761  ALA762  ILE779  LEU786  VAL792 
 PHE793  MET794  SER795  GLU796  ALA797  LYS798  CYS799  TRP800  GLU811  SER814 

> <Gold.Protein.RotatedAtoms>
  150.8304  134.7554  159.6848 H   0  0  0  0  0  0  0  0  0  0  0  0  # atno 6907 bound_to 6896
  152.4409  134.5590  159.9898 H   0  0  0  0  0  0  0  0  0  0  0  0  # atno 6908 bound_to 6896
  151.5752  133.3347  159.3033 H   0  0  0  0  0  0  0  0  0  0  0  0  # atno 6909 bound_to 6896
  146.2038  139.7916  142.8741 H   0  0  0  0  0  0  0  0  0  0  0  0  # atno 7974 bound_to 7965
  154.9111  140.3014  155.5266 H   0  0  0  0  0  0  0  0  0  0  0  0  # atno 8008 bound_to 7997
  156.3015  140.2389  156.4086 H   0  0  0  0  0  0  0  0  0  0  0  0  # atno 8009 bound_to 7997
  154.8424  140.0413  157.1539 H   0  0  0  0  0  0  0  0  0  0  0  0  # atno 8010 bound_to 7997
  140.0583  143.4993  152.2045 H   0  0  0  0  0  0  0  0  0  0  0  0  # atno 10167 bound_to 10162
  156.6365  130.8951  151.2988 H   0  0  0  0  0  0  0  0  0  0  0  0  # atno 10718 bound_to 10713
  154.5647  135.5623  153.7040 H   0  0  0  0  0  0  0  0  0  0  0  0  # atno 10763 bound_to 10752
  153.0029  135.6282  154.2196 H   0  0  0  0  0  0  0  0  0  0  0  0  # atno 10764 bound_to 10752
  154.2135  135.2872  155.2930 H   0  0  0  0  0  0  0  0  0  0  0  0  # atno 10765 bound_to 10752
  140.3126  134.2633  155.7731 H   0  0  0  0  0  0  0  0  0  0  0  0  # atno 11005 bound_to 11000
  145.3392  141.0284  143.3402 LP  0  0  0  0  0  0  0  0  0  0  0  0  # atno 17320 bound_to 7965
  144.8744  139.4992  143.6752 LP  0  0  0  0  0  0  0  0  0  0  0  0  # atno 17321 bound_to 7965
  139.5910  144.7550  151.3402 LP  0  0  0  0  0  0  0  0  0  0  0  0  # atno 17342 bound_to 10162
  140.7184  143.7203  150.7701 LP  0  0  0  0  0  0  0  0  0  0  0  0  # atno 17343 bound_to 10162
  157.7184  130.9527  150.1343 LP  0  0  0  0  0  0  0  0  0  0  0  0  # atno 17370 bound_to 10713
  156.2193  130.3672  149.8575 LP  0  0  0  0  0  0  0  0  0  0  0  0  # atno 17371 bound_to 10713
  141.2105  133.7718  156.9929 LP  0  0  0  0  0  0  0  0  0  0  0  0  # atno 17394 bound_to 11000
  140.1012  134.9534  157.1925 LP  0  0  0  0  0  0  0  0  0  0  0  0  # atno 17395 bound_to 11000

$$$$
