AV-unprocessed.smi:1768|AV-procd|sdf|7149|dock8
  -GOLD-   22720 8383D 1   1.00000     0.00000
 Structure written by MMmdl.
 32 33  0  0  0  0  0  0  0  0  2 V2000
  150.1546  135.2115  155.1188 C   0  0  0  0  0  0  0  0  0  0  0  0
  150.6684  136.3569  155.9216 C   0  0  0  0  0  0  0  0  0  0  0  0
  151.9175  136.4068  156.3905 N   0  0  0  0  0  0  0  0  0  0  0  0
  152.1614  137.5715  157.1039 N   0  0  0  0  0  0  0  0  0  0  0  0
  151.0999  138.3887  157.1560 C   0  0  0  0  0  0  0  0  0  0  0  0
  151.1303  139.5672  157.8001 N   0  5  0  0  0  0  0  0  0  0  0  0
  152.3023  140.0483  158.2744 C   0  0  0  0  0  0  0  0  0  0  0  0
  153.4038  139.4998  158.1911 O   0  0  0  0  0  0  0  0  0  0  0  0
  152.1902  141.2372  158.8839 N   0  0  0  0  0  0  0  0  0  0  0  0
  153.2776  142.0051  159.4870 C   0  0  2  0  0  0  0  0  0  0  0  0
  153.8033  141.2674  160.7313 C   0  0  0  0  0  0  0  0  0  0  0  0
  152.7691  143.4208  159.8203 C   0  0  1  0  0  0  0  0  0  0  0  0
  152.3464  144.2532  158.6080 C   0  0  0  0  0  0  0  0  0  0  0  0
  151.3285  145.2311  159.1755 C   0  0  0  0  0  0  0  0  0  0  0  0
  150.9856  144.6568  160.5521 C   0  0  0  0  0  0  0  0  0  0  0  0
  151.5609  143.3589  160.5634 O   0  0  0  0  0  0  0  0  0  0  0  0
  149.6807  137.7510  156.3258 S   0  0  0  0  0  0  0  0  0  0  0  0
  150.5101  135.2884  154.0912 H   0  0  0  0  0  0  0  0  0  0  0  0
  149.0645  135.2114  155.1139 H   0  0  0  0  0  0  0  0  0  0  0  0
  150.5011  134.2683  155.5418 H   0  0  0  0  0  0  0  0  0  0  0  0
  151.2694  141.6486  158.9239 H   0  0  0  0  0  0  0  0  0  0  0  0
  154.0913  142.0976  158.7654 H   0  0  0  0  0  0  0  0  0  0  0  0
  154.6395  141.7989  161.1854 H   0  0  0  0  0  0  0  0  0  0  0  0
  154.1573  140.2677  160.4777 H   0  0  0  0  0  0  0  0  0  0  0  0
  153.0248  141.1619  161.4874 H   0  0  0  0  0  0  0  0  0  0  0  0
  153.5135  143.9672  160.4034 H   0  0  0  0  0  0  0  0  0  0  0  0
  153.1882  144.7525  158.1272 H   0  0  0  0  0  0  0  0  0  0  0  0
  151.8635  143.6177  157.8642 H   0  0  0  0  0  0  0  0  0  0  0  0
  151.7442  146.2347  159.2697 H   0  0  0  0  0  0  0  0  0  0  0  0
  150.4487  145.2905  158.5339 H   0  0  0  0  0  0  0  0  0  0  0  0
  151.4396  145.2569  161.3419 H   0  0  0  0  0  0  0  0  0  0  0  0
  149.9114  144.6119  160.7329 H   0  0  0  0  0  0  0  0  0  0  0  0
  1  2  1  0  0  0  0
  1 18  1  0  0  0  0
  1 19  1  0  0  0  0
  1 20  1  0  0  0  0
  2 17  1  0  0  0  0
  2  3  2  0  0  0  0
  3  4  1  0  0  0  0
  4  5  2  0  0  0  0
  5  6  1  0  0  0  0
  5 17  1  0  0  0  0
  6  7  1  0  0  0  0
  7  8  2  0  0  0  0
  7  9  1  0  0  0  0
  9 10  1  0  0  0  0
  9 21  1  0  0  0  0
 10 11  1  0  0  0  0
 10 12  1  0  0  0  0
 10 22  1  0  0  0  0
 11 23  1  0  0  0  0
 11 24  1  0  0  0  0
 11 25  1  0  0  0  0
 12 16  1  0  0  0  0
 12 13  1  0  0  0  0
 12 26  1  0  0  0  0
 13 14  1  0  0  0  0
 13 27  1  0  0  0  0
 13 28  1  0  0  0  0
 14 15  1  0  0  0  0
 14 29  1  0  0  0  0
 14 30  1  0  0  0  0
 15 16  1  0  0  0  0
 15 31  1  0  0  0  0
 15 32  1  0  0  0  0
M  CHG  1   6  -1
M  END
> <s_m_source_file>
AV-unprocessed.smi

> <i_m_source_file_index>
1768

> <i_lp_mmshare_version>
43012

> <i_f3d_flags>
0

> <s_epik_input>
W0NIM11jMW5uYyhzMSlbTkhdQyg9TylbTkhdW0NASF0oW0NIM10pW0NAQEhdMltDSDJdW0NIMl1bQ0gyXU8y

> <s_epik_cmdline>
J2VwaWtfcHl0aG9uJywgJy1waCcsICc3LjAnLCAnLXRuJywgJzgnLCAnLW1hJywgJzIwMCcsICctbWV0YWxfYmluZGluZycsICctaW1hZScsICc8aW5maWxlLm1hZT4nLCAnLW9tYWUnLCAnPG91dGZpbGUubWFlPic=

> <r_lp_tautomer_probability>
1

> <r_epik_Ionization_Penalty>
4.3376

> <r_epik_Ionization_Penalty_Charging>
4.19392

> <r_epik_Ionization_Penalty_Neutral>
0.143681

> <r_epik_State_Penalty>
4.19342

> <r_epik_Charging_Adjusted_Penalty>
8.38735

> <i_epik_Tot_Q>
-1

> <i_epik_Tot_abs_Q>
1

> <r_epik_Metal_State_Penalty>
0.686065

> <b_epik_Metal_Only>
1

> <s_lp_Force_Field>
OPLS_2005

> <r_lp_Energy>
16.4236

> <b_lp_Chiralities_Consistent>
1

> <s_lp_Variant>
AV-unprocessed.smi:1768-7

> <Gold.Version>
5.8.1

> <Gold.Id.Protein>
6NUR|6NUR_protein|mol2

> <Gold.PLP.Fitness>
38.8307

> <Gold.PLP.PLP>
-33.1234

> <Gold.PLP.part.hbond>
-2.2051

> <Gold.PLP.part.metal>
0.0000

> <Gold.PLP.part.buried>
-4.4065

> <Gold.PLP.part.nonpolar>
-26.2336

> <Gold.PLP.part.repulsive>
0.1898

> <Gold.PLP.ligand.clash>
0.0000

> <Gold.PLP.ligand.torsion>
0.1612

> <Gold.PLP.Chemscore.Hbond>
2.0000

> <Gold.PLP.Chemscore.CHOScore>
0.0000

> <Gold.PLP.Chemscore.Metal>
0.0000

> <Gold.Chemscore.Hbonds>
donor molecule, donor type, donor heavy atom, donor atom, acceptor molecule, acceptor atom, score
      P1  H  7997  8008       L1     8  1.00
      P1  H 10752 10765       L1     3  0.98

> <Gold.PLP.Chemscore.Internal.Correction>
0.0297

> <Gold.Rescore>
     Score         DG    S(hbond)    S(metal)    S(lipo)     H(rot)  DE(clash)    DE(int)     intcor
     16.28     -18.22       1.93        0.00      81.65       1.28       0.07       1.88       ----

> <Gold.Chemscore.Fitness>
16.2829

> <Gold.Chemscore.DG>
-18.2236

> <Gold.Chemscore.ZeroCoef>
-5.4800

> <Gold.Chemscore.Hbond>
1.9344

> <Gold.Chemscore.Metal>
0.0000

> <Gold.Chemscore.Lipo>
81.6517

> <Gold.Chemscore.Internal_Hbond>
0.0000

> <Gold.Chemscore.DEClash>
0.0650

> <Gold.Chemscore.DEInternal>
1.8756

> <Gold.Chemscore.Rot>
1.2776

> <Gold.Chemscore.Internal.Correction>
   9.000000E+99

> <Gold.Chemscore.Hbonds>
donor molecule, donor type, donor heavy atom, donor atom, acceptor molecule, acceptor atom, score
      P1  H  7997  8008       L1     8  0.91
      P1  H 10752 10765       L1     3  0.69

> <Gold.Chemscore.Hbond.Weighted>
-6.4609

> <Gold.Chemscore.Metal.Weighted>
-0.0000

> <Gold.Chemscore.Lipo.Weighted>
-9.5532

> <Gold.Chemscore.Internal_Hbond.Weighted>
0.0000

> <Gold.Chemscore.DEClash.Weighted>
0.0650

> <Gold.Chemscore.DEInternal.Weighted>
1.8756

> <Gold.Chemscore.Rot.Weighted>
3.2706

> <Gold.Chemscore.Internal.Correction.Weighted>
   9.000000E+99

> <Gold.Protein.RotatedTorsions>
[ 6907 6896 6895 6894 ] final   65.87 input  -60.11 | X-H torsion
[ 7974 7965 7964 7962 ] final  -71.24 input  175.53 | X-H torsion
[ 8008 7997 7996 7995 ] final  -72.10 input   59.86 | X-H torsion
[ 10167 10162 10161 10158 ] final  -28.10 input  -65.29 | X-H torsion
[ 10718 10713 10712 10709 ] final  -90.32 input   66.30 | X-H torsion
[ 10763 10752 10751 10750 ] final -146.48 input  -60.55 | X-H torsion
[ 11005 11000 10999 10996 ] final  -16.58 input  -57.11 | X-H torsion

> <Gold.Protein.ActiveResidues>
 VAL166  LYS551  ARG553  GLY616  TRP617  ASP618  TYR619  PRO620  LYS621  CYS622 
 ASP623  PHE694  ASN695  SER759  ASP760  ASP761  ALA762  ILE779  LEU786  VAL792 
 PHE793  MET794  SER795  GLU796  ALA797  LYS798  CYS799  TRP800  GLU811  SER814 

> <Gold.Protein.RotatedAtoms>
  152.4440  134.5533  159.9872 H   0  0  0  0  0  0  0  0  0  0  0  0  # atno 6907 bound_to 6896
  151.5623  133.3395  159.2981 H   0  0  0  0  0  0  0  0  0  0  0  0  # atno 6908 bound_to 6896
  150.8351  134.7654  159.6950 H   0  0  0  0  0  0  0  0  0  0  0  0  # atno 6909 bound_to 6896
  145.6807  140.9189  143.0834 H   0  0  0  0  0  0  0  0  0  0  0  0  # atno 7974 bound_to 7965
  154.5140  140.0803  156.8044 H   0  0  0  0  0  0  0  0  0  0  0  0  # atno 8008 bound_to 7997
  155.3722  140.3423  155.4225 H   0  0  0  0  0  0  0  0  0  0  0  0  # atno 8009 bound_to 7997
  156.1606  140.1587  156.8606 H   0  0  0  0  0  0  0  0  0  0  0  0  # atno 8010 bound_to 7997
  140.7272  143.4038  151.1219 H   0  0  0  0  0  0  0  0  0  0  0  0  # atno 10167 bound_to 10162
  155.9987  130.4905  150.5306 H   0  0  0  0  0  0  0  0  0  0  0  0  # atno 10718 bound_to 10713
  154.8334  135.3385  154.6668 H   0  0  0  0  0  0  0  0  0  0  0  0  # atno 10763 bound_to 10752
  153.7286  135.6953  153.4999 H   0  0  0  0  0  0  0  0  0  0  0  0  # atno 10764 bound_to 10752
  153.2329  135.4410  155.0567 H   0  0  0  0  0  0  0  0  0  0  0  0  # atno 10765 bound_to 10752
  140.8082  133.8161  155.9537 H   0  0  0  0  0  0  0  0  0  0  0  0  # atno 11005 bound_to 11000
  144.7027  139.8692  143.7439 LP  0  0  0  0  0  0  0  0  0  0  0  0  # atno 17320 bound_to 7965
  146.0967  139.3960  143.0372 LP  0  0  0  0  0  0  0  0  0  0  0  0  # atno 17321 bound_to 7965
  139.7662  143.8562  152.3111 LP  0  0  0  0  0  0  0  0  0  0  0  0  # atno 17342 bound_to 10162
  139.8464  144.7185  150.9267 LP  0  0  0  0  0  0  0  0  0  0  0  0  # atno 17343 bound_to 10162
  157.3255  131.0690  151.1900 LP  0  0  0  0  0  0  0  0  0  0  0  0  # atno 17370 bound_to 10713
  157.2798  130.6744  149.6060 LP  0  0  0  0  0  0  0  0  0  0  0  0  # atno 17371 bound_to 10713
  140.9225  134.2123  157.4917 LP  0  0  0  0  0  0  0  0  0  0  0  0  # atno 17394 bound_to 11000
  139.8716  134.9798  156.5052 LP  0  0  0  0  0  0  0  0  0  0  0  0  # atno 17395 bound_to 11000

$$$$
