AV-unprocessed.smi:2149|AV-procd|sdf|8755|dock7
  -GOLD-   2272011533D 1   1.00000     0.00000
 Structure written by MMmdl.
 43 44  0  0  0  0  0  0  0  0  2 V2000
  152.2163  138.2486  156.6978 C   0  0  0  0  0  0  0  0  0  0  0  0
  152.1871  138.6605  154.9043 S   0  0  0  0  0  0  0  0  0  0  0  0
  153.3663  139.4933  154.6211 O   0  0  0  0  0  0  0  0  0  0  0  0
  151.9528  137.4317  154.1309 O   0  0  0  0  0  0  0  0  0  0  0  0
  150.7785  139.6612  154.7484 N   0  0  0  0  0  0  0  0  0  0  0  0
  150.6543  140.8071  155.6719 C   0  0  0  0  0  0  0  0  0  0  0  0
  149.6069  141.8182  155.1794 C   0  0  0  0  0  0  0  0  0  0  0  0
  148.2563  141.1398  154.9351 C   0  0  0  0  0  0  0  0  0  0  0  0
  148.4392  139.9920  153.9292 C   0  0  2  0  0  0  0  0  0  0  0  0
  147.1065  139.2828  153.6536 C   0  0  0  0  0  0  0  0  0  0  0  0
  146.1487  139.4415  154.4114 O   0  0  0  0  0  0  0  0  0  0  0  0
  147.0583  138.4970  152.5666 N   0  0  0  0  0  0  0  0  0  0  0  0
  145.8940  137.7282  152.1435 C   0  0  0  0  0  0  0  0  0  0  0  0
  146.1622  136.9748  150.8294 C   0  0  0  0  0  0  0  0  0  0  0  0
  145.6943  135.5339  150.8864 C   0  0  0  0  0  0  0  0  0  0  0  0
  144.4210  135.1368  150.4231 C   0  0  0  0  0  0  0  0  0  0  0  0
  144.0502  133.7783  150.5083 C   0  0  0  0  0  0  0  0  0  0  0  0
  144.9578  132.8477  151.0557 C   0  0  0  0  0  0  0  0  0  0  0  0
  146.2156  133.2996  151.5049 C   0  0  0  0  0  0  0  0  0  0  0  0
  146.5343  134.6090  151.4051 N   0  3  0  0  0  0  0  0  0  0  0  0
  149.4973  138.9914  154.4425 C   0  0  0  0  0  0  0  0  0  0  0  0
  153.1203  137.6817  156.9199 H   0  0  0  0  0  0  0  0  0  0  0  0
  151.3473  137.6468  156.9596 H   0  0  0  0  0  0  0  0  0  0  0  0
  152.2152  139.1678  157.2828 H   0  0  0  0  0  0  0  0  0  0  0  0
  150.3835  140.4352  156.6611 H   0  0  0  0  0  0  0  0  0  0  0  0
  151.6166  141.3057  155.7770 H   0  0  0  0  0  0  0  0  0  0  0  0
  149.4935  142.6193  155.9103 H   0  0  0  0  0  0  0  0  0  0  0  0
  149.9558  142.2875  154.2587 H   0  0  0  0  0  0  0  0  0  0  0  0
  147.8589  140.7643  155.8795 H   0  0  0  0  0  0  0  0  0  0  0  0
  147.5380  141.8689  154.5578 H   0  0  0  0  0  0  0  0  0  0  0  0
  148.8024  140.4159  152.9908 H   0  0  0  0  0  0  0  0  0  0  0  0
  147.8885  138.4245  151.9960 H   0  0  0  0  0  0  0  0  0  0  0  0
  145.6008  137.0340  152.9331 H   0  0  0  0  0  0  0  0  0  0  0  0
  145.0605  138.4188  152.0125 H   0  0  0  0  0  0  0  0  0  0  0  0
  145.6637  137.4808  150.0015 H   0  0  0  0  0  0  0  0  0  0  0  0
  147.2282  136.9842  150.5972 H   0  0  0  0  0  0  0  0  0  0  0  0
  143.7359  135.8620  150.0080 H   0  0  0  0  0  0  0  0  0  0  0  0
  143.0810  133.4542  150.1579 H   0  0  0  0  0  0  0  0  0  0  0  0
  144.6929  131.8031  151.1302 H   0  0  0  0  0  0  0  0  0  0  0  0
  146.9704  132.6586  151.9369 H   0  0  0  0  0  0  0  0  0  0  0  0
  149.6585  138.2241  153.6853 H   0  0  0  0  0  0  0  0  0  0  0  0
  149.1496  138.4789  155.3410 H   0  0  0  0  0  0  0  0  0  0  0  0
  147.4504  134.9144  151.7352 H   0  0  0  0  0  0  0  0  0  0  0  0
  1  2  1  0  0  0  0
  1 22  1  0  0  0  0
  1 23  1  0  0  0  0
  1 24  1  0  0  0  0
  2  3  2  0  0  0  0
  2  4  2  0  0  0  0
  2  5  1  0  0  0  0
  5 21  1  0  0  0  0
  5  6  1  0  0  0  0
  6  7  1  0  0  0  0
  6 25  1  0  0  0  0
  6 26  1  0  0  0  0
  7  8  1  0  0  0  0
  7 27  1  0  0  0  0
  7 28  1  0  0  0  0
  8  9  1  0  0  0  0
  8 29  1  0  0  0  0
  8 30  1  0  0  0  0
  9 10  1  0  0  0  0
  9 21  1  0  0  0  0
  9 31  1  0  0  0  0
 10 11  2  0  0  0  0
 10 12  1  0  0  0  0
 12 13  1  0  0  0  0
 12 32  1  0  0  0  0
 13 14  1  0  0  0  0
 13 33  1  0  0  0  0
 13 34  1  0  0  0  0
 14 15  1  0  0  0  0
 14 35  1  0  0  0  0
 14 36  1  0  0  0  0
 15 20  1  0  0  0  0
 15 16  2  0  0  0  0
 16 17  1  0  0  0  0
 16 37  1  0  0  0  0
 17 18  2  0  0  0  0
 17 38  1  0  0  0  0
 18 19  1  0  0  0  0
 18 39  1  0  0  0  0
 19 20  2  0  0  0  0
 19 40  1  0  0  0  0
 20 43  1  0  0  0  0
 21 41  1  0  0  0  0
 21 42  1  0  0  0  0
M  CHG  1  20   1
M  END
> <s_m_source_file>
AV-unprocessed.smi

> <i_m_source_file_index>
2149

> <i_lp_mmshare_version>
43012

> <i_f3d_flags>
0

> <s_epik_input>
W0NIM11TKD1PKSg9TylOMVtDSDJdW0NIMl1bQ0gyXVtDQEhdKFtDSDJdMSlDKD1PKVtOSF1bQ0gyXVtDSDJdYzJbY0hdW2NIXVtjSF1bY0hdbjI=

> <s_epik_cmdline>
J2VwaWtfcHl0aG9uJywgJy1waCcsICc3LjAnLCAnLXRuJywgJzgnLCAnLW1hJywgJzIwMCcsICctbWV0YWxfYmluZGluZycsICctaW1hZScsICc8aW5maWxlLm1hZT4nLCAnLW9tYWUnLCAnPG91dGZpbGUubWFlPic=

> <r_epik_Ionization_Penalty>
1.83523

> <r_epik_Ionization_Penalty_Charging>
1.83523

> <r_epik_Ionization_Penalty_Neutral>
2.62835e-08

> <r_epik_State_Penalty>
1.95153

> <r_epik_Charging_Adjusted_Penalty>
3.78676

> <i_epik_Tot_Q>
1

> <i_epik_Tot_abs_Q>
1

> <r_epik_Metal_State_Penalty>
1.97791

> <b_epik_Metal_Only>
0

> <s_lp_Force_Field>
OPLS_2005

> <r_lp_Energy>
9.7414

> <b_lp_Chiralities_Consistent>
1

> <s_lp_Variant>
AV-unprocessed.smi:2149-4

> <Gold.Version>
5.8.1

> <Gold.Id.Protein>
6NUR|6NUR_protein|mol2

> <Gold.PLP.Fitness>
48.6208

> <Gold.PLP.PLP>
-38.3758

> <Gold.PLP.part.hbond>
-6.2072

> <Gold.PLP.part.metal>
0.0000

> <Gold.PLP.part.buried>
0.0201

> <Gold.PLP.part.nonpolar>
-33.8307

> <Gold.PLP.part.repulsive>
0.4890

> <Gold.PLP.ligand.clash>
0.0000

> <Gold.PLP.ligand.torsion>
1.6934

> <Gold.PLP.Chemscore.Hbond>
4.2926

> <Gold.PLP.Chemscore.CHOScore>
0.0000

> <Gold.PLP.Chemscore.Metal>
0.0000

> <Gold.Chemscore.Hbonds>
donor molecule, donor type, donor heavy atom, donor atom, acceptor molecule, acceptor atom, score
      L1  H    12    32       P1  7948  0.02
      L1  H    20    43       P1  7948  2.00
      P1  H  7989  7998       L1     5  0.26
      P1  H  7997  8008       L1     3  1.00
      P1  H 10752 10765       L1     4  0.98

> <Gold.PLP.Chemscore.Internal.Correction>
0.7538

> <Gold.Rescore>
     Score         DG    S(hbond)    S(metal)    S(lipo)     H(rot)  DE(clash)    DE(int)     intcor
     17.97     -21.39       3.11        0.00      89.65       1.95       1.71       1.72       ----

> <Gold.Chemscore.Fitness>
17.9650

> <Gold.Chemscore.DG>
-21.3877

> <Gold.Chemscore.ZeroCoef>
-5.4800

> <Gold.Chemscore.Hbond>
3.1144

> <Gold.Chemscore.Metal>
0.0000

> <Gold.Chemscore.Lipo>
89.6480

> <Gold.Chemscore.Internal_Hbond>
0.0000

> <Gold.Chemscore.DEClash>
1.7055

> <Gold.Chemscore.DEInternal>
1.7171

> <Gold.Chemscore.Rot>
1.9466

> <Gold.Chemscore.Internal.Correction>
   9.000000E+99

> <Gold.Chemscore.Hbonds>
donor molecule, donor type, donor heavy atom, donor atom, acceptor molecule, acceptor atom, score
      L1  H    12    32       P1  7948  0.04
      L1  H    20    43       P1  7948  0.71
      P1  H  7997  8008       L1     3  1.00
      P1  H 10752 10765       L1     4  0.89

> <Gold.Chemscore.Hbond.Weighted>
-10.4021

> <Gold.Chemscore.Metal.Weighted>
-0.0000

> <Gold.Chemscore.Lipo.Weighted>
-10.4888

> <Gold.Chemscore.Internal_Hbond.Weighted>
0.0000

> <Gold.Chemscore.DEClash.Weighted>
1.7055

> <Gold.Chemscore.DEInternal.Weighted>
1.7171

> <Gold.Chemscore.Rot.Weighted>
4.9832

> <Gold.Chemscore.Internal.Correction.Weighted>
   9.000000E+99

> <Gold.Protein.RotatedTorsions>
[ 6907 6896 6895 6894 ] final  -33.59 input  -60.11 | X-H torsion
[ 7974 7965 7964 7962 ] final  122.62 input  175.53 | X-H torsion
[ 8008 7997 7996 7995 ] final   -7.33 input   59.86 | X-H torsion
[ 10167 10162 10161 10158 ] final -122.32 input  -65.29 | X-H torsion
[ 10718 10713 10712 10709 ] final  103.47 input   66.30 | X-H torsion
[ 10763 10752 10751 10750 ] final  154.74 input  -60.55 | X-H torsion
[ 11005 11000 10999 10996 ] final -146.08 input  -57.11 | X-H torsion

> <Gold.Protein.ActiveResidues>
 VAL166  LYS551  ARG553  GLY616  TRP617  ASP618  TYR619  PRO620  LYS621  CYS622 
 ASP623  PHE694  ASN695  SER759  ASP760  ASP761  ALA762  ILE779  LEU786  VAL792 
 PHE793  MET794  SER795  GLU796  ALA797  LYS798  CYS799  TRP800  GLU811  SER814 

> <Gold.Protein.RotatedAtoms>
  151.0637  134.9753  159.8273 H   0  0  0  0  0  0  0  0  0  0  0  0  # atno 6907 bound_to 6896
  152.5399  134.2386  159.8863 H   0  0  0  0  0  0  0  0  0  0  0  0  # atno 6908 bound_to 6896
  151.2407  133.4358  159.2641 H   0  0  0  0  0  0  0  0  0  0  0  0  # atno 6909 bound_to 6896
  145.1054  139.3489  143.4790 H   0  0  0  0  0  0  0  0  0  0  0  0  # atno 7974 bound_to 7965
  154.5849  140.2410  155.8002 H   0  0  0  0  0  0  0  0  0  0  0  0  # atno 8008 bound_to 7997
  156.2206  140.2999  155.9898 H   0  0  0  0  0  0  0  0  0  0  0  0  # atno 8009 bound_to 7997
  155.2476  140.0409  157.2973 H   0  0  0  0  0  0  0  0  0  0  0  0  # atno 8010 bound_to 7997
  140.0156  143.5397  152.2244 H   0  0  0  0  0  0  0  0  0  0  0  0  # atno 10167 bound_to 10162
  157.6771  131.0780  150.5561 H   0  0  0  0  0  0  0  0  0  0  0  0  # atno 10718 bound_to 10713
  154.1571  135.2812  155.3119 H   0  0  0  0  0  0  0  0  0  0  0  0  # atno 10763 bound_to 10752
  154.6174  135.5478  153.7542 H   0  0  0  0  0  0  0  0  0  0  0  0  # atno 10764 bound_to 10752
  153.0203  135.6430  154.1714 H   0  0  0  0  0  0  0  0  0  0  0  0  # atno 10765 bound_to 10752
  140.7857  134.3027  157.5031 H   0  0  0  0  0  0  0  0  0  0  0  0  # atno 11005 bound_to 11000
  146.3528  140.0950  142.8610 LP  0  0  0  0  0  0  0  0  0  0  0  0  # atno 17320 bound_to 7965
  145.0907  140.9283  143.4770 LP  0  0  0  0  0  0  0  0  0  0  0  0  # atno 17321 bound_to 7965
  139.6175  144.7622  151.2814 LP  0  0  0  0  0  0  0  0  0  0  0  0  # atno 17342 bound_to 10162
  140.7364  143.6709  150.8082 LP  0  0  0  0  0  0  0  0  0  0  0  0  # atno 17343 bound_to 10162
  156.5864  130.4318  149.5955 LP  0  0  0  0  0  0  0  0  0  0  0  0  # atno 17370 bound_to 10713
  156.2619  130.6967  151.1738 LP  0  0  0  0  0  0  0  0  0  0  0  0  # atno 17371 bound_to 10713
  139.8737  134.9345  156.3608 LP  0  0  0  0  0  0  0  0  0  0  0  0  # atno 17394 bound_to 11000
  140.9439  133.7496  156.0183 LP  0  0  0  0  0  0  0  0  0  0  0  0  # atno 17395 bound_to 11000

$$$$
