AV-unprocessed.smi:653|AV-procd|sdf|3207|dock6
  -GOLD-   22720 0143D 1   1.00000     0.00000
 Structure written by MMmdl.
 44 45  0  0  0  0  0  0  0  0  1 V2000
  145.5922  143.6215  153.9287 C   0  0  0  0  0  0  0  0  0  0  0  0
  146.5645  142.5171  154.2873 C   0  0  0  0  0  0  0  0  0  0  0  0
  147.0670  142.3946  155.5999 C   0  0  0  0  0  0  0  0  0  0  0  0
  147.9679  141.3489  155.8783 C   0  0  0  0  0  0  0  0  0  0  0  0
  148.3313  140.4690  154.8378 C   0  0  0  0  0  0  0  0  0  0  0  0
  149.3064  139.3315  155.0842 C   0  0  0  0  0  0  0  0  0  0  0  0
  150.6447  139.8730  155.5884 C   0  0  0  0  0  0  0  0  0  0  0  0
  151.5566  140.0986  154.7932 O   0  0  0  0  0  0  0  0  0  0  0  0
  150.7483  140.0787  156.9108 N   0  0  0  0  0  0  0  0  0  0  0  0
  151.9375  140.5772  157.5921 C   0  0  0  0  0  0  0  0  0  0  0  0
  152.1536  139.8929  158.9563 C   0  0  1  0  0  0  0  0  0  0  0  0
  152.7479  138.5001  158.8715 C   0  0  0  0  0  0  0  0  0  0  0  0
  153.2710  138.3029  160.2892 C   0  0  0  0  0  0  0  0  0  0  0  0
  153.7097  139.5888  160.7139 O   0  0  0  0  0  0  0  0  0  0  0  0
  153.1821  140.5979  159.8536 C   0  0  2  0  0  0  0  0  0  0  0  0
  152.6628  141.8089  160.6621 C   0  0  0  0  0  0  0  0  0  0  0  0
  152.3063  142.9766  159.7285 C   0  0  0  0  0  0  0  0  0  0  0  0
  153.6346  142.2735  161.7622 C   0  0  0  0  0  0  0  0  0  0  0  0
  147.7678  140.6770  153.5608 C   0  0  0  0  0  0  0  0  0  0  0  0
  146.9041  141.6772  153.2845 N   0  0  0  0  0  0  0  0  0  0  0  0
  145.5774  144.3968  154.6953 H   0  0  0  0  0  0  0  0  0  0  0  0
  144.5842  143.2181  153.8301 H   0  0  0  0  0  0  0  0  0  0  0  0
  145.8708  144.0874  152.9828 H   0  0  0  0  0  0  0  0  0  0  0  0
  146.7721  143.0849  156.3765 H   0  0  0  0  0  0  0  0  0  0  0  0
  148.3757  141.2282  156.8714 H   0  0  0  0  0  0  0  0  0  0  0  0
  148.8854  138.6403  155.8158 H   0  0  0  0  0  0  0  0  0  0  0  0
  149.4622  138.7632  154.1663 H   0  0  0  0  0  0  0  0  0  0  0  0
  149.9478  139.8644  157.4881 H   0  0  0  0  0  0  0  0  0  0  0  0
  152.7954  140.4021  156.9422 H   0  0  0  0  0  0  0  0  0  0  0  0
  151.8637  141.6586  157.7168 H   0  0  0  0  0  0  0  0  0  0  0  0
  151.1996  139.8149  159.4766 H   0  0  0  0  0  0  0  0  0  0  0  0
  152.0234  137.7397  158.5786 H   0  0  0  0  0  0  0  0  0  0  0  0
  153.5751  138.4785  158.1606 H   0  0  0  0  0  0  0  0  0  0  0  0
  152.4660  137.9764  160.9486 H   0  0  0  0  0  0  0  0  0  0  0  0
  154.0738  137.5672  160.3423 H   0  0  0  0  0  0  0  0  0  0  0  0
  154.0107  140.9227  159.2216 H   0  0  0  0  0  0  0  0  0  0  0  0
  151.7368  141.5056  161.1520 H   0  0  0  0  0  0  0  0  0  0  0  0
  153.1862  143.3442  159.1996 H   0  0  0  0  0  0  0  0  0  0  0  0
  151.8813  143.8111  160.2868 H   0  0  0  0  0  0  0  0  0  0  0  0
  151.5712  142.6751  158.9819 H   0  0  0  0  0  0  0  0  0  0  0  0
  154.5999  142.5624  161.3452 H   0  0  0  0  0  0  0  0  0  0  0  0
  153.8106  141.4987  162.5072 H   0  0  0  0  0  0  0  0  0  0  0  0
  153.2351  143.1379  162.2929 H   0  0  0  0  0  0  0  0  0  0  0  0
  148.0208  140.0271  152.7359 H   0  0  0  0  0  0  0  0  0  0  0  0
  1  2  1  0  0  0  0
  1 21  1  0  0  0  0
  1 22  1  0  0  0  0
  1 23  1  0  0  0  0
  2 20  1  0  0  0  0
  2  3  2  0  0  0  0
  3  4  1  0  0  0  0
  3 24  1  0  0  0  0
  4  5  2  0  0  0  0
  4 25  1  0  0  0  0
  5  6  1  0  0  0  0
  5 19  1  0  0  0  0
  6  7  1  0  0  0  0
  6 26  1  0  0  0  0
  6 27  1  0  0  0  0
  7  8  2  0  0  0  0
  7  9  1  0  0  0  0
  9 10  1  0  0  0  0
  9 28  1  0  0  0  0
 10 11  1  0  0  0  0
 10 29  1  0  0  0  0
 10 30  1  0  0  0  0
 11 15  1  0  0  0  0
 11 12  1  0  0  0  0
 11 31  1  0  0  0  0
 12 13  1  0  0  0  0
 12 32  1  0  0  0  0
 12 33  1  0  0  0  0
 13 14  1  0  0  0  0
 13 34  1  0  0  0  0
 13 35  1  0  0  0  0
 14 15  1  0  0  0  0
 15 16  1  0  0  0  0
 15 36  1  0  0  0  0
 16 17  1  0  0  0  0
 16 18  1  0  0  0  0
 16 37  1  0  0  0  0
 17 38  1  0  0  0  0
 17 39  1  0  0  0  0
 17 40  1  0  0  0  0
 18 41  1  0  0  0  0
 18 42  1  0  0  0  0
 18 43  1  0  0  0  0
 19 20  2  0  0  0  0
 19 44  1  0  0  0  0
M  END
> <s_m_source_file>
AV-unprocessed.smi

> <i_m_source_file_index>
653

> <i_lp_mmshare_version>
43012

> <i_f3d_flags>
0

> <s_epik_input>
W0NIM11jMVtjSF1bY0hdYyhbY0hdbjEpW0NIMl1DKD1PKVtOSF1bQ0gyXVtDQEBIXTJbQ0gyXVtDSDJdT1tDQEhdMltDSF0oW0NIM10pW0NIM10=

> <s_epik_cmdline>
J2VwaWtfcHl0aG9uJywgJy1waCcsICc3LjAnLCAnLXRuJywgJzgnLCAnLW1hJywgJzIwMCcsICctbWV0YWxfYmluZGluZycsICctaW1hZScsICc8aW5maWxlLm1hZT4nLCAnLW9tYWUnLCAnPG91dGZpbGUubWFlPic=

> <r_epik_Ionization_Penalty>
0.0166429

> <r_epik_Ionization_Penalty_Charging>
0

> <r_epik_Ionization_Penalty_Neutral>
0.0166429

> <r_epik_State_Penalty>
0.0131478

> <r_epik_Charging_Adjusted_Penalty>
0.0131478

> <i_epik_Tot_Q>
0

> <i_epik_Tot_abs_Q>
0

> <r_epik_Metal_State_Penalty>
0.012786

> <b_epik_Metal_Only>
0

> <s_lp_Force_Field>
OPLS_2005

> <r_lp_Energy>
17.7281

> <b_lp_Chiralities_Consistent>
1

> <s_lp_Variant>
AV-unprocessed.smi:653-4

> <Gold.Version>
5.8.1

> <Gold.Id.Protein>
6NUR|6NUR_protein|mol2

> <Gold.PLP.Fitness>
39.3380

> <Gold.PLP.PLP>
-34.8414

> <Gold.PLP.part.hbond>
-0.8466

> <Gold.PLP.part.metal>
0.0000

> <Gold.PLP.part.buried>
-2.7954

> <Gold.PLP.part.nonpolar>
-30.4156

> <Gold.PLP.part.repulsive>
0.3102

> <Gold.PLP.ligand.clash>
0.0000

> <Gold.PLP.ligand.torsion>
0.7660

> <Gold.PLP.Chemscore.Hbond>
1.0000

> <Gold.PLP.Chemscore.CHOScore>
1.0000

> <Gold.PLP.Chemscore.Metal>
0.0000

> <Gold.Chemscore.Hbonds>
donor molecule, donor type, donor heavy atom, donor atom, acceptor molecule, acceptor atom, score
      P1  H  7989  7998       L1     8  0.93
      L1  C    19    44       P1  7957  1.00

> <Gold.PLP.Chemscore.Internal.Correction>
0.0286

> <Gold.Rescore>
     Score         DG    S(hbond)    S(metal)    S(lipo)     H(rot)  DE(clash)    DE(int)     intcor
     16.06     -16.99       0.99        0.00     102.57       1.48       0.09       0.84       ----

> <Gold.Chemscore.Fitness>
16.0552

> <Gold.Chemscore.DG>
-16.9868

> <Gold.Chemscore.ZeroCoef>
-5.4800

> <Gold.Chemscore.Hbond>
0.9903

> <Gold.Chemscore.Metal>
0.0000

> <Gold.Chemscore.Lipo>
102.5700

> <Gold.Chemscore.Internal_Hbond>
0.0000

> <Gold.Chemscore.DEClash>
0.0874

> <Gold.Chemscore.DEInternal>
0.8442

> <Gold.Chemscore.Rot>
1.4850

> <Gold.Chemscore.Internal.Correction>
   9.000000E+99

> <Gold.Chemscore.Hbonds>
donor molecule, donor type, donor heavy atom, donor atom, acceptor molecule, acceptor atom, score
      P1  H  7989  7998       L1     8  0.87

> <Gold.Chemscore.Hbond.Weighted>
-3.3076

> <Gold.Chemscore.Metal.Weighted>
-0.0000

> <Gold.Chemscore.Lipo.Weighted>
-12.0007

> <Gold.Chemscore.Internal_Hbond.Weighted>
0.0000

> <Gold.Chemscore.DEClash.Weighted>
0.0874

> <Gold.Chemscore.DEInternal.Weighted>
0.8442

> <Gold.Chemscore.Rot.Weighted>
3.8015

> <Gold.Chemscore.Internal.Correction.Weighted>
   9.000000E+99

> <Gold.Protein.RotatedTorsions>
[ 6907 6896 6895 6894 ] final   66.16 input  -60.11 | X-H torsion
[ 7974 7965 7964 7962 ] final -143.70 input  175.53 | X-H torsion
[ 8008 7997 7996 7995 ] final -177.82 input   59.86 | X-H torsion
[ 10167 10162 10161 10158 ] final -111.48 input  -65.29 | X-H torsion
[ 10718 10713 10712 10709 ] final -134.98 input   66.30 | X-H torsion
[ 10763 10752 10751 10750 ] final  -23.98 input  -60.55 | X-H torsion
[ 11005 11000 10999 10996 ] final   68.06 input  -57.11 | X-H torsion

> <Gold.Protein.ActiveResidues>
 VAL166  LYS551  ARG553  GLY616  TRP617  ASP618  TYR619  PRO620  LYS621  CYS622 
 ASP623  PHE694  ASN695  SER759  ASP760  ASP761  ALA762  ILE779  LEU786  VAL792 
 PHE793  MET794  SER795  GLU796  ALA797  LYS798  CYS799  TRP800  GLU811  SER814 

> <Gold.Protein.RotatedAtoms>
  152.4461  134.5492  159.9861 H   0  0  0  0  0  0  0  0  0  0  0  0  # atno 6907 bound_to 6896
  151.5577  133.3402  159.2973 H   0  0  0  0  0  0  0  0  0  0  0  0  # atno 6908 bound_to 6896
  150.8377  134.7690  159.6970 H   0  0  0  0  0  0  0  0  0  0  0  0  # atno 6909 bound_to 6896
  144.8350  140.5802  143.5490 H   0  0  0  0  0  0  0  0  0  0  0  0  # atno 7974 bound_to 7965
  156.0115  140.1241  157.0449 H   0  0  0  0  0  0  0  0  0  0  0  0  # atno 8008 bound_to 7997
  154.4277  140.1087  156.5906 H   0  0  0  0  0  0  0  0  0  0  0  0  # atno 8009 bound_to 7997
  155.6072  140.3471  155.4614 H   0  0  0  0  0  0  0  0  0  0  0  0  # atno 8010 bound_to 7997
  140.1332  143.4343  152.1613 H   0  0  0  0  0  0  0  0  0  0  0  0  # atno 10167 bound_to 10162
  156.2612  130.7211  151.1146 H   0  0  0  0  0  0  0  0  0  0  0  0  # atno 10718 bound_to 10713
  153.6764  135.6969  153.5131 H   0  0  0  0  0  0  0  0  0  0  0  0  # atno 10763 bound_to 10752
  153.2518  135.4272  155.0804 H   0  0  0  0  0  0  0  0  0  0  0  0  # atno 10764 bound_to 10752
  154.8412  135.3533  154.6308 H   0  0  0  0  0  0  0  0  0  0  0  0  # atno 10765 bound_to 10752
  139.9734  134.6863  156.0402 H   0  0  0  0  0  0  0  0  0  0  0  0  # atno 11005 bound_to 11000
  145.4814  139.1495  143.3760 LP  0  0  0  0  0  0  0  0  0  0  0  0  # atno 17320 bound_to 7965
  146.2650  140.4950  142.8838 LP  0  0  0  0  0  0  0  0  0  0  0  0  # atno 17321 bound_to 7965
  139.5509  144.7337  151.4438 LP  0  0  0  0  0  0  0  0  0  0  0  0  # atno 17342 bound_to 10162
  140.6805  143.8093  150.7115 LP  0  0  0  0  0  0  0  0  0  0  0  0  # atno 17343 bound_to 10162
  157.7251  131.0655  150.5966 LP  0  0  0  0  0  0  0  0  0  0  0  0  # atno 17370 bound_to 10713
  156.6054  130.4366  149.5880 LP  0  0  0  0  0  0  0  0  0  0  0  0  # atno 17371 bound_to 10713
  141.1412  133.6564  156.3735 LP  0  0  0  0  0  0  0  0  0  0  0  0  # atno 17394 bound_to 11000
  140.5246  134.6271  157.5330 LP  0  0  0  0  0  0  0  0  0  0  0  0  # atno 17395 bound_to 11000

$$$$
