AV-unprocessed.smi:951|AV-procd|sdf|4252|dock3
  -GOLD-   22720 2153D 1   1.00000     0.00000
 Structure written by MMmdl.
 51 53  0  0  0  0  0  0  0  0  1 V2000
  152.1952  138.2184  158.1052 O   0  0  0  0  0  0  0  0  0  0  0  0
  151.1427  138.6218  157.6084 C   0  0  0  0  0  0  0  0  0  0  0  0
  149.9346  138.3262  158.1082 N   0  0  0  0  0  0  0  0  0  0  0  0
  149.7116  137.4837  159.2746 C   0  0  0  0  0  0  0  0  0  0  0  0
  148.4148  136.6774  159.1196 C   0  0  0  0  0  0  0  0  0  0  0  0
  147.8743  136.1960  160.4529 C   0  0  0  0  0  0  0  0  0  0  0  0
  147.6963  134.8185  160.7041 C   0  0  0  0  0  0  0  0  0  0  0  0
  147.1962  134.4249  161.9604 C   0  0  0  0  0  0  0  0  0  0  0  0
  146.8964  135.4182  162.9126 C   0  0  0  0  0  0  0  0  0  0  0  0
  147.1115  136.7668  162.5648 C   0  0  0  0  0  0  0  0  0  0  0  0
  147.5895  137.1550  161.3628 N   0  0  0  0  0  0  0  0  0  0  0  0
  151.1622  139.5300  156.3630 C   0  0  1  0  0  0  0  0  0  0  0  0
  150.1816  138.9868  155.3117 C   0  0  0  0  0  0  0  0  0  0  0  0
  149.7221  140.2116  154.5470 C   0  0  0  0  0  0  0  0  0  0  0  0
  149.7905  141.3489  155.5642 C   0  0  0  0  0  0  0  0  0  0  0  0
  150.7409  140.9268  156.5986 N   0  0  0  0  0  0  0  0  0  0  0  0
  151.2261  141.7406  157.5728 C   0  0  0  0  0  0  0  0  0  0  0  0
  152.1326  141.3795  158.3241 O   0  0  0  0  0  0  0  0  0  0  0  0
  150.6380  143.1636  157.7434 C   0  0  0  0  0  0  0  0  0  0  0  0
  151.6017  144.2550  157.2213 C   0  0  0  0  0  0  0  0  0  0  0  0
  152.7672  144.5461  158.1832 C   0  0  0  0  0  0  0  0  0  0  0  0
  152.2483  144.9263  159.5773 C   0  0  0  0  0  0  0  0  0  0  0  0
  151.3496  143.8233  160.1543 C   0  0  0  0  0  0  0  0  0  0  0  0
  150.1931  143.4737  159.1960 C   0  0  0  0  0  0  0  0  0  0  0  0
  149.1191  138.7017  157.6462 H   0  0  0  0  0  0  0  0  0  0  0  0
  150.5586  136.8069  159.3998 H   0  0  0  0  0  0  0  0  0  0  0  0
  149.6629  138.1095  160.1673 H   0  0  0  0  0  0  0  0  0  0  0  0
  147.6525  137.2845  158.6285 H   0  0  0  0  0  0  0  0  0  0  0  0
  148.5861  135.8168  158.4713 H   0  0  0  0  0  0  0  0  0  0  0  0
  147.9385  134.0792  159.9543 H   0  0  0  0  0  0  0  0  0  0  0  0
  147.0460  133.3803  162.1896 H   0  0  0  0  0  0  0  0  0  0  0  0
  146.5119  135.1533  163.8863 H   0  0  0  0  0  0  0  0  0  0  0  0
  146.8940  137.5548  163.2706 H   0  0  0  0  0  0  0  0  0  0  0  0
  152.1691  139.5613  155.9421 H   0  0  0  0  0  0  0  0  0  0  0  0
  150.6382  138.2395  154.6618 H   0  0  0  0  0  0  0  0  0  0  0  0
  149.3125  138.5240  155.7832 H   0  0  0  0  0  0  0  0  0  0  0  0
  150.4235  140.4103  153.7355 H   0  0  0  0  0  0  0  0  0  0  0  0
  148.7311  140.0942  154.1077 H   0  0  0  0  0  0  0  0  0  0  0  0
  150.0848  142.2834  155.0845 H   0  0  0  0  0  0  0  0  0  0  0  0
  148.8092  141.4907  156.0190 H   0  0  0  0  0  0  0  0  0  0  0  0
  149.7249  143.2278  157.1547 H   0  0  0  0  0  0  0  0  0  0  0  0
  151.9980  143.9762  156.2442 H   0  0  0  0  0  0  0  0  0  0  0  0
  151.0388  145.1751  157.0597 H   0  0  0  0  0  0  0  0  0  0  0  0
  153.4216  143.6770  158.2566 H   0  0  0  0  0  0  0  0  0  0  0  0
  153.3792  145.3559  157.7849 H   0  0  0  0  0  0  0  0  0  0  0  0
  153.0867  145.1115  160.2493 H   0  0  0  0  0  0  0  0  0  0  0  0
  151.6882  145.8603  159.5169 H   0  0  0  0  0  0  0  0  0  0  0  0
  151.9490  142.9396  160.3704 H   0  0  0  0  0  0  0  0  0  0  0  0
  150.9430  144.1466  161.1128 H   0  0  0  0  0  0  0  0  0  0  0  0
  149.4999  144.3154  159.1725 H   0  0  0  0  0  0  0  0  0  0  0  0
  149.6234  142.6365  159.6018 H   0  0  0  0  0  0  0  0  0  0  0  0
  1  2  2  0  0  0  0
  2  3  1  0  0  0  0
  2 12  1  0  0  0  0
  3  4  1  0  0  0  0
  3 25  1  0  0  0  0
  4  5  1  0  0  0  0
  4 26  1  0  0  0  0
  4 27  1  0  0  0  0
  5  6  1  0  0  0  0
  5 28  1  0  0  0  0
  5 29  1  0  0  0  0
  6 11  1  0  0  0  0
  6  7  2  0  0  0  0
  7  8  1  0  0  0  0
  7 30  1  0  0  0  0
  8  9  2  0  0  0  0
  8 31  1  0  0  0  0
  9 10  1  0  0  0  0
  9 32  1  0  0  0  0
 10 11  2  0  0  0  0
 10 33  1  0  0  0  0
 12 16  1  0  0  0  0
 12 13  1  0  0  0  0
 12 34  1  0  0  0  0
 13 14  1  0  0  0  0
 13 35  1  0  0  0  0
 13 36  1  0  0  0  0
 14 15  1  0  0  0  0
 14 37  1  0  0  0  0
 14 38  1  0  0  0  0
 15 16  1  0  0  0  0
 15 39  1  0  0  0  0
 15 40  1  0  0  0  0
 16 17  1  0  0  0  0
 17 18  2  0  0  0  0
 17 19  1  0  0  0  0
 19 24  1  0  0  0  0
 19 20  1  0  0  0  0
 19 41  1  0  0  0  0
 20 21  1  0  0  0  0
 20 42  1  0  0  0  0
 20 43  1  0  0  0  0
 21 22  1  0  0  0  0
 21 44  1  0  0  0  0
 21 45  1  0  0  0  0
 22 23  1  0  0  0  0
 22 46  1  0  0  0  0
 22 47  1  0  0  0  0
 23 24  1  0  0  0  0
 23 48  1  0  0  0  0
 23 49  1  0  0  0  0
 24 50  1  0  0  0  0
 24 51  1  0  0  0  0
M  END
> <s_m_source_file>
AV-unprocessed.smi

> <i_m_source_file_index>
951

> <i_lp_mmshare_version>
43012

> <i_f3d_flags>
0

> <s_epik_input>
bjFbY0hdW2NIXVtjSF1bY0hdYzFbQ0gyXVtDSDJdW05IXUMoPU8pW0NAQEhdMltDSDJdW0NIMl1bQ0gyXU4yQyg9TylbQ0hdM1tDSDJdW0NIMl1bQ0gyXVtDSDJdW0NIMl0z

> <s_epik_cmdline>
J2VwaWtfcHl0aG9uJywgJy1waCcsICc3LjAnLCAnLXRuJywgJzgnLCAnLW1hJywgJzIwMCcsICctbWV0YWxfYmluZGluZycsICctaW1hZScsICc8aW5maWxlLm1hZT4nLCAnLW9tYWUnLCAnPG91dGZpbGUubWFlPic=

> <r_epik_Ionization_Penalty>
0.0265505

> <r_epik_Ionization_Penalty_Charging>
0

> <r_epik_Ionization_Penalty_Neutral>
0.0265505

> <r_epik_State_Penalty>
0.02168

> <r_epik_Charging_Adjusted_Penalty>
0.02168

> <i_epik_Tot_Q>
0

> <i_epik_Tot_abs_Q>
0

> <r_epik_Metal_State_Penalty>
0.020746

> <b_epik_Metal_Only>
0

> <s_lp_Force_Field>
OPLS_2005

> <r_lp_Energy>
20.7073

> <b_lp_Chiralities_Consistent>
1

> <s_lp_Variant>
AV-unprocessed.smi:951-2

> <Gold.Version>
5.8.1

> <Gold.Id.Protein>
6NUR|6NUR_protein|mol2

> <Gold.PLP.Fitness>
54.4745

> <Gold.PLP.PLP>
-50.1687

> <Gold.PLP.part.hbond>
-2.0000

> <Gold.PLP.part.metal>
0.0000

> <Gold.PLP.part.buried>
-3.5805

> <Gold.PLP.part.nonpolar>
-47.4179

> <Gold.PLP.part.repulsive>
0.1003

> <Gold.PLP.ligand.clash>
0.0000

> <Gold.PLP.ligand.torsion>
0.7141

> <Gold.PLP.Chemscore.Hbond>
1.8800

> <Gold.PLP.Chemscore.CHOScore>
0.0000

> <Gold.PLP.Chemscore.Metal>
0.0000

> <Gold.Chemscore.Hbonds>
donor molecule, donor type, donor heavy atom, donor atom, acceptor molecule, acceptor atom, score
      P1  H  6931  6943       L1    11  0.96
      P1  H  6934  6947       L1    11  0.86

> <Gold.PLP.Chemscore.Internal.Correction>
0.0940

> <Gold.Rescore>
     Score         DG    S(hbond)    S(metal)    S(lipo)     H(rot)  DE(clash)    DE(int)     intcor
     20.34     -22.04       1.13        0.00     143.17       1.55       0.20       1.51       ----

> <Gold.Chemscore.Fitness>
20.3380

> <Gold.Chemscore.DG>
-22.0434

> <Gold.Chemscore.ZeroCoef>
-5.4800

> <Gold.Chemscore.Hbond>
1.1322

> <Gold.Chemscore.Metal>
0.0000

> <Gold.Chemscore.Lipo>
143.1727

> <Gold.Chemscore.Internal_Hbond>
0.0000

> <Gold.Chemscore.DEClash>
0.1967

> <Gold.Chemscore.DEInternal>
1.5088

> <Gold.Chemscore.Rot>
1.5506

> <Gold.Chemscore.Internal.Correction>
   9.000000E+99

> <Gold.Chemscore.Hbonds>
donor molecule, donor type, donor heavy atom, donor atom, acceptor molecule, acceptor atom, score
      P1  H  6931  6943       L1    11  0.22
      P1  H  6934  6947       L1    11  0.71

> <Gold.Chemscore.Hbond.Weighted>
-3.7817

> <Gold.Chemscore.Metal.Weighted>
-0.0000

> <Gold.Chemscore.Lipo.Weighted>
-16.7512

> <Gold.Chemscore.Internal_Hbond.Weighted>
0.0000

> <Gold.Chemscore.DEClash.Weighted>
0.1967

> <Gold.Chemscore.DEInternal.Weighted>
1.5088

> <Gold.Chemscore.Rot.Weighted>
3.9695

> <Gold.Chemscore.Internal.Correction.Weighted>
   9.000000E+99

> <Gold.Protein.RotatedTorsions>
[ 6907 6896 6895 6894 ] final  120.28 input  -60.11 | X-H torsion
[ 7974 7965 7964 7962 ] final   70.87 input  175.53 | X-H torsion
[ 8008 7997 7996 7995 ] final  -69.02 input   59.86 | X-H torsion
[ 10167 10162 10161 10158 ] final -101.37 input  -65.29 | X-H torsion
[ 10718 10713 10712 10709 ] final   10.44 input   66.30 | X-H torsion
[ 10763 10752 10751 10750 ] final   33.84 input  -60.55 | X-H torsion
[ 11005 11000 10999 10996 ] final  -43.76 input  -57.11 | X-H torsion

> <Gold.Protein.ActiveResidues>
 VAL166  LYS551  ARG553  GLY616  TRP617  ASP618  TYR619  PRO620  LYS621  CYS622 
 ASP623  PHE694  ASN695  SER759  ASP760  ASP761  ALA762  ILE779  LEU786  VAL792 
 PHE793  MET794  SER795  GLU796  ALA797  LYS798  CYS799  TRP800  GLU811  SER814 

> <Gold.Protein.RotatedAtoms>
  152.4410  133.7448  159.6660 H   0  0  0  0  0  0  0  0  0  0  0  0  # atno 6907 bound_to 6896
  150.8301  133.8096  159.3108 H   0  0  0  0  0  0  0  0  0  0  0  0  # atno 6908 bound_to 6896
  151.5752  135.1063  160.0056 H   0  0  0  0  0  0  0  0  0  0  0  0  # atno 6909 bound_to 6896
  145.7729  139.2851  143.1311 H   0  0  0  0  0  0  0  0  0  0  0  0  # atno 7974 bound_to 7965
  154.4909  140.0861  156.7591 H   0  0  0  0  0  0  0  0  0  0  0  0  # atno 8008 bound_to 7997
  155.4234  140.3446  155.4255 H   0  0  0  0  0  0  0  0  0  0  0  0  # atno 8009 bound_to 7997
  156.1328  140.1506  156.9028 H   0  0  0  0  0  0  0  0  0  0  0  0  # atno 8010 bound_to 7997
  140.2420  143.3532  152.0793 H   0  0  0  0  0  0  0  0  0  0  0  0  # atno 10167 bound_to 10162
  156.9810  130.6006  149.5677 H   0  0  0  0  0  0  0  0  0  0  0  0  # atno 10718 bound_to 10713
  153.0192  135.6376  154.1575 H   0  0  0  0  0  0  0  0  0  0  0  0  # atno 10763 bound_to 10752
  154.1312  135.2840  155.3186 H   0  0  0  0  0  0  0  0  0  0  0  0  # atno 10764 bound_to 10752
  154.6193  135.5530  153.7620 H   0  0  0  0  0  0  0  0  0  0  0  0  # atno 10765 bound_to 10752
  141.0405  133.6782  156.2778 H   0  0  0  0  0  0  0  0  0  0  0  0  # atno 11005 bound_to 11000
  146.0152  140.8399  142.9951 LP  0  0  0  0  0  0  0  0  0  0  0  0  # atno 17320 bound_to 7965
  144.6809  140.2548  143.7327 LP  0  0  0  0  0  0  0  0  0  0  0  0  # atno 17321 bound_to 7965
  139.5074  144.6831  151.5957 LP  0  0  0  0  0  0  0  0  0  0  0  0  # atno 17342 bound_to 10162
  140.6106  143.9443  150.6450 LP  0  0  0  0  0  0  0  0  0  0  0  0  # atno 17343 bound_to 10162
  156.0244  130.5338  150.8366 LP  0  0  0  0  0  0  0  0  0  0  0  0  # atno 17370 bound_to 10713
  157.5526  131.0944  150.9674 LP  0  0  0  0  0  0  0  0  0  0  0  0  # atno 17371 bound_to 10713
  140.6243  134.5330  157.5551 LP  0  0  0  0  0  0  0  0  0  0  0  0  # atno 17394 bound_to 11000
  139.9272  134.8032  156.1033 LP  0  0  0  0  0  0  0  0  0  0  0  0  # atno 17395 bound_to 11000

$$$$
