AV-unprocessed.smi:1335|AV-procd|sdf|5494|dock10
  -GOLD-   22720 5 73D 1   1.00000     0.00000
 Structure written by MMmdl.
 47 49  0  0  0  0  0  0  0  0  1 V2000
  145.3970  142.8914  158.0486 C   0  0  0  0  0  0  0  0  0  0  0  0
  146.0483  141.7025  157.6242 O   0  0  0  0  0  0  0  0  0  0  0  0
  146.4491  141.6066  156.3067 C   0  0  0  0  0  0  0  0  0  0  0  0
  146.1869  142.6098  155.3380 C   0  0  0  0  0  0  0  0  0  0  0  0
  146.6316  142.4611  154.0109 C   0  0  0  0  0  0  0  0  0  0  0  0
  147.3487  141.3132  153.6329 C   0  0  0  0  0  0  0  0  0  0  0  0
  147.6149  140.3116  154.5828 C   0  0  0  0  0  0  0  0  0  0  0  0
  147.1591  140.4448  155.9128 C   0  0  0  0  0  0  0  0  0  0  0  0
  147.4730  139.3476  156.9196 C   0  0  0  0  0  0  0  0  0  0  0  0
  148.4022  139.7766  157.9015 O   0  0  0  0  0  0  0  0  0  0  0  0
  149.7333  139.8510  157.4182 C   0  0  0  0  0  0  0  0  0  0  0  0
  150.2472  141.2843  157.6203 C   0  0  2  0  0  0  0  0  0  0  0  0
  149.6358  142.0963  156.6388 O   0  0  0  0  0  0  0  0  0  0  0  0
  151.7791  141.3856  157.4661 C   0  0  0  0  0  0  0  0  0  0  0  0
  152.4508  141.3113  158.7608 N   0  0  0  0  0  0  0  0  0  0  0  0
  153.3349  140.3670  159.1596 C   0  0  0  0  0  0  0  0  0  0  0  0
  153.7055  139.3986  158.4964 O   0  0  0  0  0  0  0  0  0  0  0  0
  153.7457  140.6810  160.4110 N   0  0  0  0  0  0  0  0  0  0  0  0
  154.7048  139.9496  161.2295 C   0  0  0  0  0  0  0  0  0  0  0  0
  153.1202  141.8670  160.8167 C   0  0  0  0  0  0  0  0  0  0  0  0
  153.2222  142.6039  162.0090 C   0  0  0  0  0  0  0  0  0  0  0  0
  152.4499  143.7854  162.1058 C   0  0  0  0  0  0  0  0  0  0  0  0
  151.6140  144.1979  161.0353 C   0  0  0  0  0  0  0  0  0  0  0  0
  151.5316  143.4367  159.8457 C   0  0  0  0  0  0  0  0  0  0  0  0
  152.3064  142.2657  159.7779 C   0  0  0  0  0  0  0  0  0  0  0  0
  145.1400  142.8026  159.1042 H   0  0  0  0  0  0  0  0  0  0  0  0
  144.4704  143.0579  157.4976 H   0  0  0  0  0  0  0  0  0  0  0  0
  146.0451  143.7620  157.9401 H   0  0  0  0  0  0  0  0  0  0  0  0
  145.6463  143.5097  155.5878 H   0  0  0  0  0  0  0  0  0  0  0  0
  146.4262  143.2325  153.2833 H   0  0  0  0  0  0  0  0  0  0  0  0
  147.6964  141.2017  152.6163 H   0  0  0  0  0  0  0  0  0  0  0  0
  148.1743  139.4379  154.2828 H   0  0  0  0  0  0  0  0  0  0  0  0
  146.5396  139.0429  157.3955 H   0  0  0  0  0  0  0  0  0  0  0  0
  147.8817  138.4735  156.4110 H   0  0  0  0  0  0  0  0  0  0  0  0
  150.3712  139.1343  157.9384 H   0  0  0  0  0  0  0  0  0  0  0  0
  149.7457  139.5948  156.3573 H   0  0  0  0  0  0  0  0  0  0  0  0
  149.9302  141.6331  158.6043 H   0  0  0  0  0  0  0  0  0  0  0  0
  149.7342  143.0012  156.8930 H   0  0  0  0  0  0  0  0  0  0  0  0
  152.1516  140.5566  156.8635 H   0  0  0  0  0  0  0  0  0  0  0  0
  152.0657  142.2875  156.9221 H   0  0  0  0  0  0  0  0  0  0  0  0
  154.2915  139.7609  162.2206 H   0  0  0  0  0  0  0  0  0  0  0  0
  155.6193  140.5317  161.3452 H   0  0  0  0  0  0  0  0  0  0  0  0
  154.9692  138.9876  160.7888 H   0  0  0  0  0  0  0  0  0  0  0  0
  153.8632  142.2851  162.8176 H   0  0  0  0  0  0  0  0  0  0  0  0
  152.4985  144.3819  163.0048 H   0  0  0  0  0  0  0  0  0  0  0  0
  151.0341  145.1040  161.1289 H   0  0  0  0  0  0  0  0  0  0  0  0
  150.9010  143.7468  159.0261 H   0  0  0  0  0  0  0  0  0  0  0  0
  1  2  1  0  0  0  0
  1 26  1  0  0  0  0
  1 27  1  0  0  0  0
  1 28  1  0  0  0  0
  2  3  1  0  0  0  0
  3  8  1  0  0  0  0
  3  4  2  0  0  0  0
  4  5  1  0  0  0  0
  4 29  1  0  0  0  0
  5  6  2  0  0  0  0
  5 30  1  0  0  0  0
  6  7  1  0  0  0  0
  6 31  1  0  0  0  0
  7  8  2  0  0  0  0
  7 32  1  0  0  0  0
  8  9  1  0  0  0  0
  9 10  1  0  0  0  0
  9 33  1  0  0  0  0
  9 34  1  0  0  0  0
 10 11  1  0  0  0  0
 11 12  1  0  0  0  0
 11 35  1  0  0  0  0
 11 36  1  0  0  0  0
 12 13  1  0  0  0  0
 12 14  1  0  0  0  0
 12 37  1  0  0  0  0
 13 38  1  0  0  0  0
 14 15  1  0  0  0  0
 14 39  1  0  0  0  0
 14 40  1  0  0  0  0
 15 25  1  0  0  0  0
 15 16  1  0  0  0  0
 16 17  2  0  0  0  0
 16 18  1  0  0  0  0
 18 19  1  0  0  0  0
 18 20  1  0  0  0  0
 19 41  1  0  0  0  0
 19 42  1  0  0  0  0
 19 43  1  0  0  0  0
 20 25  2  0  0  0  0
 20 21  1  0  0  0  0
 21 22  2  0  0  0  0
 21 44  1  0  0  0  0
 22 23  1  0  0  0  0
 22 45  1  0  0  0  0
 23 24  2  0  0  0  0
 23 46  1  0  0  0  0
 24 25  1  0  0  0  0
 24 47  1  0  0  0  0
M  END
> <s_m_source_file>
AV-unprocessed.smi

> <i_m_source_file_index>
1335

> <i_lp_mmshare_version>
43012

> <i_f3d_flags>
0

> <s_epik_input>
W0NIM11PYzFbY0hdW2NIXVtjSF1bY0hdYzFbQ0gyXU9bQ0gyXVtDQEhdKFtPSF0pW0NIMl1uKGMoPU8pbjJbQ0gzXSljKGMyMylbY0hdW2NIXVtjSF1bY0hdMw==

> <s_epik_cmdline>
J2VwaWtfcHl0aG9uJywgJy1waCcsICc3LjAnLCAnLXRuJywgJzgnLCAnLW1hJywgJzIwMCcsICctbWV0YWxfYmluZGluZycsICctaW1hZScsICc8aW5maWxlLm1hZT4nLCAnLW9tYWUnLCAnPG91dGZpbGUubWFlPic=

> <r_lp_tautomer_probability>
1

> <r_epik_Ionization_Penalty>
1.07897e-06

> <r_epik_Ionization_Penalty_Charging>
2.2947e-09

> <r_epik_Ionization_Penalty_Neutral>
1.07667e-06

> <r_epik_State_Penalty>
-0

> <r_epik_Charging_Adjusted_Penalty>
2.2947e-09

> <i_epik_Tot_Q>
0

> <i_epik_Tot_abs_Q>
0

> <r_epik_Metal_State_Penalty>
-0

> <b_epik_Metal_Only>
0

> <s_lp_Force_Field>
OPLS_2005

> <r_lp_Energy>
50.1795

> <b_lp_Chiralities_Consistent>
1

> <s_lp_Variant>
AV-unprocessed.smi:1335-1

> <Gold.Version>
5.8.1

> <Gold.Id.Protein>
6NUR|6NUR_protein|mol2

> <Gold.PLP.Fitness>
50.4714

> <Gold.PLP.PLP>
-48.9162

> <Gold.PLP.part.hbond>
-2.5529

> <Gold.PLP.part.metal>
0.0000

> <Gold.PLP.part.buried>
-7.8422

> <Gold.PLP.part.nonpolar>
-38.2724

> <Gold.PLP.part.repulsive>
0.0554

> <Gold.PLP.ligand.clash>
0.0000

> <Gold.PLP.ligand.torsion>
1.0989

> <Gold.PLP.Chemscore.Hbond>
1.2176

> <Gold.PLP.Chemscore.CHOScore>
0.0000

> <Gold.PLP.Chemscore.Metal>
0.0000

> <Gold.Chemscore.Hbonds>
donor molecule, donor type, donor heavy atom, donor atom, acceptor molecule, acceptor atom, score
      L1  H    13    38       P1  8028  0.18
      P1  H  7997  8008       L1    17  1.00

> <Gold.PLP.Chemscore.Internal.Correction>
0.1002

> <Gold.Rescore>
     Score         DG    S(hbond)    S(metal)    S(lipo)     H(rot)  DE(clash)    DE(int)     intcor
     16.75     -17.98       1.53        0.00     117.92       2.50       0.05       1.18       ----

> <Gold.Chemscore.Fitness>
16.7495

> <Gold.Chemscore.DG>
-17.9794

> <Gold.Chemscore.ZeroCoef>
-5.4800

> <Gold.Chemscore.Hbond>
1.5306

> <Gold.Chemscore.Metal>
0.0000

> <Gold.Chemscore.Lipo>
117.9214

> <Gold.Chemscore.Internal_Hbond>
0.0000

> <Gold.Chemscore.DEClash>
0.0548

> <Gold.Chemscore.DEInternal>
1.1751

> <Gold.Chemscore.Rot>
2.5038

> <Gold.Chemscore.Internal.Correction>
   9.000000E+99

> <Gold.Chemscore.Hbonds>
donor molecule, donor type, donor heavy atom, donor atom, acceptor molecule, acceptor atom, score
      L1  H    13    38       P1  8028  0.18
      P1  H  7997  8008       L1    17  0.60

> <Gold.Chemscore.Hbond.Weighted>
-5.1123

> <Gold.Chemscore.Metal.Weighted>
-0.0000

> <Gold.Chemscore.Lipo.Weighted>
-13.7968

> <Gold.Chemscore.Internal_Hbond.Weighted>
0.0000

> <Gold.Chemscore.DEClash.Weighted>
0.0548

> <Gold.Chemscore.DEInternal.Weighted>
1.1751

> <Gold.Chemscore.Rot.Weighted>
6.4098

> <Gold.Chemscore.Internal.Correction.Weighted>
   9.000000E+99

> <Gold.Protein.RotatedTorsions>
[ 6907 6896 6895 6894 ] final  -79.92 input  -60.11 | X-H torsion
[ 7974 7965 7964 7962 ] final   58.92 input  175.53 | X-H torsion
[ 8008 7997 7996 7995 ] final -101.21 input   59.86 | X-H torsion
[ 10167 10162 10161 10158 ] final   88.17 input  -65.29 | X-H torsion
[ 10718 10713 10712 10709 ] final -123.48 input   66.30 | X-H torsion
[ 10763 10752 10751 10750 ] final -158.25 input  -60.55 | X-H torsion
[ 11005 11000 10999 10996 ] final -146.71 input  -57.11 | X-H torsion

> <Gold.Protein.ActiveResidues>
 VAL166  LYS551  ARG553  GLY616  TRP617  ASP618  TYR619  PRO620  LYS621  CYS622 
 ASP623  PHE694  ASN695  SER759  ASP760  ASP761  ALA762  ILE779  LEU786  VAL792 
 PHE793  MET794  SER795  GLU796  ALA797  LYS798  CYS799  TRP800  GLU811  SER814 

> <Gold.Protein.RotatedAtoms>
  150.6940  134.4048  159.5134 H   0  0  0  0  0  0  0  0  0  0  0  0  # atno 6907 bound_to 6896
  152.1816  134.8747  160.0535 H   0  0  0  0  0  0  0  0  0  0  0  0  # atno 6908 bound_to 6896
  151.9735  133.3699  159.4117 H   0  0  0  0  0  0  0  0  0  0  0  0  # atno 6909 bound_to 6896
  145.9128  139.3668  143.0525 H   0  0  0  0  0  0  0  0  0  0  0  0  # atno 7974 bound_to 7965
  154.8393  140.0436  157.1531 H   0  0  0  0  0  0  0  0  0  0  0  0  # atno 8008 bound_to 7997
  154.9064  140.3007  155.5269 H   0  0  0  0  0  0  0  0  0  0  0  0  # atno 8009 bound_to 7997
  156.2991  140.2366  156.4098 H   0  0  0  0  0  0  0  0  0  0  0  0  # atno 8010 bound_to 7997
  139.8700  144.6498  150.8961 H   0  0  0  0  0  0  0  0  0  0  0  0  # atno 10167 bound_to 10162
  156.1506  130.6532  150.9908 H   0  0  0  0  0  0  0  0  0  0  0  0  # atno 10718 bound_to 10713
  154.7572  135.3108  154.8448 H   0  0  0  0  0  0  0  0  0  0  0  0  # atno 10763 bound_to 10752
  153.9218  135.6795  153.4752 H   0  0  0  0  0  0  0  0  0  0  0  0  # atno 10764 bound_to 10752
  153.1170  135.4840  154.9062 H   0  0  0  0  0  0  0  0  0  0  0  0  # atno 10765 bound_to 10752
  140.7792  134.3099  157.5051 H   0  0  0  0  0  0  0  0  0  0  0  0  # atno 11005 bound_to 11000
  145.8649  140.9454  143.0681 LP  0  0  0  0  0  0  0  0  0  0  0  0  # atno 17320 bound_to 7965
  144.6745  140.0579  143.7477 LP  0  0  0  0  0  0  0  0  0  0  0  0  # atno 17321 bound_to 7965
  140.7762  143.3672  151.1717 LP  0  0  0  0  0  0  0  0  0  0  0  0  # atno 17342 bound_to 10162
  139.7293  143.9098  152.3014 LP  0  0  0  0  0  0  0  0  0  0  0  0  # atno 17343 bound_to 10162
  157.6654  131.0873  150.7742 LP  0  0  0  0  0  0  0  0  0  0  0  0  # atno 17370 bound_to 10713
  156.7810  130.4859  149.5401 LP  0  0  0  0  0  0  0  0  0  0  0  0  # atno 17371 bound_to 10713
  139.8745  134.9308  156.3511 LP  0  0  0  0  0  0  0  0  0  0  0  0  # atno 17394 bound_to 11000
  140.9499  133.7458  156.0258 LP  0  0  0  0  0  0  0  0  0  0  0  0  # atno 17395 bound_to 11000

$$$$
