AV-unprocessed.smi:498|AV-procd|sdf|2730|dock2
  -GOLD-   2262023183D 1   1.00000     0.00000
 Structure written by MMmdl.
 41 43  0  0  0  0  0  0  0  0  2 V2000
  147.5880  141.8168  154.1695 C   0  0  0  0  0  0  0  0  0  0  0  0
  148.8443  141.3397  154.9007 C   0  0  0  0  0  0  0  0  0  0  0  0
  148.7816  139.9316  155.0404 O   0  0  0  0  0  0  0  0  0  0  0  0
  149.6690  139.4370  156.0298 C   0  0  0  0  0  0  0  0  0  0  0  0
  149.4020  140.1400  157.3702 C   0  0  0  0  0  0  0  0  0  0  0  0
  150.6085  140.2553  158.1963 N   0  0  0  0  0  0  0  0  0  0  0  0
  151.3615  139.2909  158.8114 C   0  0  0  0  0  0  0  0  0  0  0  0
  151.0661  137.8098  158.7586 C   0  0  0  0  0  0  0  0  0  0  0  0
  149.8122  137.4917  159.4357 N   0  5  0  0  0  0  0  0  0  0  0  0
  149.2454  136.2543  159.4539 C   0  0  0  0  0  0  0  0  0  0  0  0
  149.3153  135.3390  158.6267 O   0  0  0  0  0  0  0  0  0  0  0  0
  148.4662  136.0241  160.6913 C   0  0  0  0  0  0  0  0  0  0  0  0
  147.9704  134.8785  161.2611 C   0  0  0  0  0  0  0  0  0  0  0  0
  147.3331  135.2644  162.4724 C   0  0  0  0  0  0  0  0  0  0  0  0
  147.4919  136.6169  162.5638 C   0  0  0  0  0  0  0  0  0  0  0  0
  148.1861  137.0924  161.4946 O   0  0  0  0  0  0  0  0  0  0  0  0
  152.4145  139.7424  159.4981 N   0  0  0  0  0  0  0  0  0  0  0  0
  152.3402  141.1090  159.3270 C   0  0  0  0  0  0  0  0  0  0  0  0
  153.1736  142.1403  159.8162 C   0  0  0  0  0  0  0  0  0  0  0  0
  152.8967  143.4882  159.5086 C   0  0  0  0  0  0  0  0  0  0  0  0
  151.7849  143.8225  158.7091 C   0  0  0  0  0  0  0  0  0  0  0  0
  150.9439  142.8092  158.2107 C   0  0  0  0  0  0  0  0  0  0  0  0
  151.2245  141.4638  158.5196 C   0  0  0  0  0  0  0  0  0  0  0  0
  147.6019  142.8984  154.0357 H   0  0  0  0  0  0  0  0  0  0  0  0
  146.6888  141.5594  154.7293 H   0  0  0  0  0  0  0  0  0  0  0  0
  147.5120  141.3575  153.1838 H   0  0  0  0  0  0  0  0  0  0  0  0
  149.7328  141.6224  154.3345 H   0  0  0  0  0  0  0  0  0  0  0  0
  148.9106  141.8138  155.8809 H   0  0  0  0  0  0  0  0  0  0  0  0
  149.5420  138.3603  156.1384 H   0  0  0  0  0  0  0  0  0  0  0  0
  150.7009  139.6073  155.7206 H   0  0  0  0  0  0  0  0  0  0  0  0
  148.9608  141.1229  157.2055 H   0  0  0  0  0  0  0  0  0  0  0  0
  148.6560  139.5776  157.9319 H   0  0  0  0  0  0  0  0  0  0  0  0
  151.0613  137.5110  157.7096 H   0  0  0  0  0  0  0  0  0  0  0  0
  151.9038  137.2724  159.2048 H   0  0  0  0  0  0  0  0  0  0  0  0
  148.0578  133.8818  160.8539 H   0  0  0  0  0  0  0  0  0  0  0  0
  146.8269  134.6323  163.1866 H   0  0  0  0  0  0  0  0  0  0  0  0
  147.1935  137.3608  163.2876 H   0  0  0  0  0  0  0  0  0  0  0  0
  154.0260  141.8924  160.4308 H   0  0  0  0  0  0  0  0  0  0  0  0
  153.5391  144.2687  159.8887 H   0  0  0  0  0  0  0  0  0  0  0  0
  151.5772  144.8572  158.4793 H   0  0  0  0  0  0  0  0  0  0  0  0
  150.0889  143.0631  157.6021 H   0  0  0  0  0  0  0  0  0  0  0  0
  1  2  1  0  0  0  0
  1 24  1  0  0  0  0
  1 25  1  0  0  0  0
  1 26  1  0  0  0  0
  2  3  1  0  0  0  0
  2 27  1  0  0  0  0
  2 28  1  0  0  0  0
  3  4  1  0  0  0  0
  4  5  1  0  0  0  0
  4 29  1  0  0  0  0
  4 30  1  0  0  0  0
  5  6  1  0  0  0  0
  5 31  1  0  0  0  0
  5 32  1  0  0  0  0
  6 23  1  0  0  0  0
  6  7  1  0  0  0  0
  7  8  1  0  0  0  0
  7 17  2  0  0  0  0
  8  9  1  0  0  0  0
  8 33  1  0  0  0  0
  8 34  1  0  0  0  0
  9 10  1  0  0  0  0
 10 11  2  0  0  0  0
 10 12  1  0  0  0  0
 12 16  1  0  0  0  0
 12 13  2  0  0  0  0
 13 14  1  0  0  0  0
 13 35  1  0  0  0  0
 14 15  2  0  0  0  0
 14 36  1  0  0  0  0
 15 16  1  0  0  0  0
 15 37  1  0  0  0  0
 17 18  1  0  0  0  0
 18 23  2  0  0  0  0
 18 19  1  0  0  0  0
 19 20  2  0  0  0  0
 19 38  1  0  0  0  0
 20 21  1  0  0  0  0
 20 39  1  0  0  0  0
 21 22  2  0  0  0  0
 21 40  1  0  0  0  0
 22 23  1  0  0  0  0
 22 41  1  0  0  0  0
M  CHG  1   9  -1
M  END
> <s_m_source_file>
AV-unprocessed.smi

> <i_m_source_file_index>
498

> <i_lp_mmshare_version>
43012

> <i_f3d_flags>
0

> <s_epik_input>
W0NIM11bQ0gyXU9bQ0gyXVtDSDJdbihjKGMxMilbY0hdW2NIXVtjSF1bY0hdMiljKG4xKVtDSDJdW05IXUMoPU8pYzNbY0hdW2NIXVtjSF1vMw==

> <s_epik_cmdline>
J2VwaWtfcHl0aG9uJywgJy1waCcsICc3LjAnLCAnLXRuJywgJzgnLCAnLW1hJywgJzIwMCcsICctbWV0YWxfYmluZGluZycsICctaW1hZScsICc8aW5maWxlLm1hZT4nLCAnLW9tYWUnLCAnPG91dGZpbGUubWFlPic=

> <r_epik_Ionization_Penalty>
7.14443

> <r_epik_Ionization_Penalty_Charging>
6.27046

> <r_epik_Ionization_Penalty_Neutral>
0.873973

> <r_epik_State_Penalty>
6.33192

> <r_epik_Charging_Adjusted_Penalty>
12.6024

> <i_epik_Tot_Q>
-1

> <i_epik_Tot_abs_Q>
1

> <r_epik_Metal_State_Penalty>
2.32923

> <b_epik_Metal_Only>
1

> <s_lp_Force_Field>
OPLS_2005

> <r_lp_Energy>
15.7295

> <b_lp_Chiralities_Consistent>
1

> <s_lp_Variant>
AV-unprocessed.smi:498-3

> <Gold.Version>
5.8.1

> <Gold.Id.Protein>
6NUR|6NUR_protein|mol2

> <Gold.PLP.Fitness>
54.0487

> <Gold.PLP.PLP>
-47.1205

> <Gold.PLP.part.hbond>
-3.9050

> <Gold.PLP.part.metal>
0.0000

> <Gold.PLP.part.buried>
-5.9483

> <Gold.PLP.part.nonpolar>
-38.5473

> <Gold.PLP.part.repulsive>
0.0704

> <Gold.PLP.ligand.clash>
0.0000

> <Gold.PLP.ligand.torsion>
0.6227

> <Gold.PLP.Chemscore.Hbond>
2.6720

> <Gold.PLP.Chemscore.CHOScore>
0.0000

> <Gold.PLP.Chemscore.Metal>
0.0000

> <Gold.Chemscore.Hbonds>
donor molecule, donor type, donor heavy atom, donor atom, acceptor molecule, acceptor atom, score
      P1  H  6896  6909       L1    11  1.00
      P1  H  6931  6943       L1    16  0.91
      P1  H  6934  6947       L1    16  0.29

> <Gold.PLP.Chemscore.Internal.Correction>
0.1576

> <Gold.Rescore>
     Score         DG    S(hbond)    S(metal)    S(lipo)     H(rot)  DE(clash)    DE(int)     intcor
     20.57     -21.23       2.21        0.00     113.08       1.90       0.15       0.51       ----

> <Gold.Chemscore.Fitness>
20.5676

> <Gold.Chemscore.DG>
-21.2259

> <Gold.Chemscore.ZeroCoef>
-5.4800

> <Gold.Chemscore.Hbond>
2.2088

> <Gold.Chemscore.Metal>
0.0000

> <Gold.Chemscore.Lipo>
113.0819

> <Gold.Chemscore.Internal_Hbond>
0.0000

> <Gold.Chemscore.DEClash>
0.1469

> <Gold.Chemscore.DEInternal>
0.5114

> <Gold.Chemscore.Rot>
1.8992

> <Gold.Chemscore.Internal.Correction>
   9.000000E+99

> <Gold.Chemscore.Hbonds>
donor molecule, donor type, donor heavy atom, donor atom, acceptor molecule, acceptor atom, score
      P1  H  6896  6909       L1    11  0.29
      P1  H  6931  6943       L1    16  0.65
      P1  H  6934  6947       L1    16  0.16

> <Gold.Chemscore.Hbond.Weighted>
-7.3774

> <Gold.Chemscore.Metal.Weighted>
-0.0000

> <Gold.Chemscore.Lipo.Weighted>
-13.2306

> <Gold.Chemscore.Internal_Hbond.Weighted>
0.0000

> <Gold.Chemscore.DEClash.Weighted>
0.1469

> <Gold.Chemscore.DEInternal.Weighted>
0.5114

> <Gold.Chemscore.Rot.Weighted>
4.8621

> <Gold.Chemscore.Internal.Correction.Weighted>
   9.000000E+99

> <Gold.Protein.RotatedTorsions>
[ 6907 6896 6895 6894 ] final   28.26 input  -60.11 | X-H torsion
[ 7974 7965 7964 7962 ] final   97.16 input  175.53 | X-H torsion
[ 8008 7997 7996 7995 ] final  -82.60 input   59.86 | X-H torsion
[ 10167 10162 10161 10158 ] final  162.72 input  -65.29 | X-H torsion
[ 10718 10713 10712 10709 ] final  163.92 input   66.30 | X-H torsion
[ 10763 10752 10751 10750 ] final -151.50 input  -60.55 | X-H torsion
[ 11005 11000 10999 10996 ] final  -13.99 input  -57.11 | X-H torsion

> <Gold.Protein.ActiveResidues>
 VAL166  LYS551  ARG553  GLY616  TRP617  ASP618  TYR619  PRO620  LYS621  CYS622 
 ASP623  PHE694  ASN695  SER759  ASP760  ASP761  ALA762  ILE779  LEU786  VAL792 
 PHE793  MET794  SER795  GLU796  ALA797  LYS798  CYS799  TRP800  GLU811  SER814 

> <Gold.Protein.RotatedAtoms>
  152.0143  134.9858  160.0568 H   0  0  0  0  0  0  0  0  0  0  0  0  # atno 6907 bound_to 6896
  152.1398  133.4452  159.4769 H   0  0  0  0  0  0  0  0  0  0  0  0  # atno 6908 bound_to 6896
  150.6864  134.2237  159.4450 H   0  0  0  0  0  0  0  0  0  0  0  0  # atno 6909 bound_to 6896
  145.4293  139.2312  143.3153 H   0  0  0  0  0  0  0  0  0  0  0  0  # atno 7974 bound_to 7965
  154.6103  140.0631  156.9485 H   0  0  0  0  0  0  0  0  0  0  0  0  # atno 8008 bound_to 7997
  155.1984  140.3313  155.4329 H   0  0  0  0  0  0  0  0  0  0  0  0  # atno 8009 bound_to 7997
  156.2373  140.1869  156.7069 H   0  0  0  0  0  0  0  0  0  0  0  0  # atno 8010 bound_to 7997
  139.4864  144.4409  151.8952 H   0  0  0  0  0  0  0  0  0  0  0  0  # atno 10167 bound_to 10162
  157.1017  131.0445  151.2495 H   0  0  0  0  0  0  0  0  0  0  0  0  # atno 10718 bound_to 10713
  154.8054  135.3258  154.7444 H   0  0  0  0  0  0  0  0  0  0  0  0  # atno 10763 bound_to 10752
  153.8104  135.6896  153.4846 H   0  0  0  0  0  0  0  0  0  0  0  0  # atno 10764 bound_to 10752
  153.1796  135.4592  154.9955 H   0  0  0  0  0  0  0  0  0  0  0  0  # atno 10765 bound_to 10752
  140.7818  133.8357  155.9299 H   0  0  0  0  0  0  0  0  0  0  0  0  # atno 11005 bound_to 11000
  146.2616  140.5027  142.8851 LP  0  0  0  0  0  0  0  0  0  0  0  0  # atno 17320 bound_to 7965
  144.8194  140.6523  143.6363 LP  0  0  0  0  0  0  0  0  0  0  0  0  # atno 17321 bound_to 7965
  140.3861  144.2674  150.5904 LP  0  0  0  0  0  0  0  0  0  0  0  0  # atno 17342 bound_to 10162
  140.5189  143.2271  151.8420 LP  0  0  0  0  0  0  0  0  0  0  0  0  # atno 17343 bound_to 10162
  157.4635  130.7667  149.7257 LP  0  0  0  0  0  0  0  0  0  0  0  0  # atno 17370 bound_to 10713
  155.9872  130.3969  150.3177 LP  0  0  0  0  0  0  0  0  0  0  0  0  # atno 17371 bound_to 10713
  140.9475  134.1822  157.4752 LP  0  0  0  0  0  0  0  0  0  0  0  0  # atno 17394 bound_to 11000
  139.8741  134.9896  156.5465 LP  0  0  0  0  0  0  0  0  0  0  0  0  # atno 17395 bound_to 11000

$$$$
