AV-unprocessed.smi:3330|AV-procd|sdf|12801|dock7
  -GOLD-   2272019163D 1   1.00000     0.00000
 Structure written by MMmdl.
 39 40  0  0  0  0  0  0  0  0  2 V2000
  145.7040  130.5659  151.5052 C   0  0  0  0  0  0  0  0  0  0  0  0
  145.4035  132.0417  151.8245 C   0  0  2  0  0  0  0  0  0  0  0  0
  145.4845  132.2673  153.2854 N   0  3  0  0  0  0  0  0  0  0  0  0
  146.6108  131.6061  153.9770 C   0  0  0  0  0  0  0  0  0  0  0  0
  147.9659  132.1599  153.5001 C   0  0  0  0  0  0  0  0  0  0  0  0
  149.1043  131.4802  154.1340 N   0  0  0  0  0  0  0  0  0  0  0  0
  149.3814  130.1791  153.9759 C   0  0  0  0  0  0  0  0  0  0  0  0
  148.7657  129.3623  153.2923 O   0  0  0  0  0  0  0  0  0  0  0  0
  150.6183  129.8487  154.7822 C   0  0  0  0  0  0  0  0  0  0  0  0
  150.8995  131.1595  155.3264 N   0  0  0  0  0  0  0  0  0  0  0  0
  150.0103  132.0788  154.9296 C   0  0  0  0  0  0  0  0  0  0  0  0
  150.0399  133.2704  155.2326 O   0  0  0  0  0  0  0  0  0  0  0  0
  144.0131  132.4980  151.3048 C   0  0  2  0  0  0  0  0  0  0  0  0
  143.8707  132.3842  149.7757 C   0  0  0  0  0  0  0  0  0  0  0  0
  143.7008  133.8617  151.7238 N   0  0  0  0  0  0  0  0  0  0  0  0
  142.7328  134.2789  152.6144 C   0  0  0  0  0  0  0  0  0  0  0  0
  142.7982  135.6411  152.6819 C   0  0  0  0  0  0  0  0  0  0  0  0
  143.8437  135.9748  151.7772 C   0  0  0  0  0  0  0  0  0  0  0  0
  144.3825  134.9099  151.2072 N   0  0  0  0  0  0  0  0  0  0  0  0
  145.7348  130.3847  150.4312 H   0  0  0  0  0  0  0  0  0  0  0  0
  144.9493  129.9055  151.9335 H   0  0  0  0  0  0  0  0  0  0  0  0
  146.6731  130.2611  151.9003 H   0  0  0  0  0  0  0  0  0  0  0  0
  146.1620  132.6587  151.3401 H   0  0  0  0  0  0  0  0  0  0  0  0
  145.6138  133.2609  153.4146 H   0  0  0  0  0  0  0  0  0  0  0  0
  146.5084  131.7434  155.0536 H   0  0  0  0  0  0  0  0  0  0  0  0
  146.5769  130.5321  153.7891 H   0  0  0  0  0  0  0  0  0  0  0  0
  148.0359  132.0776  152.4140 H   0  0  0  0  0  0  0  0  0  0  0  0
  148.0166  133.2291  153.7131 H   0  0  0  0  0  0  0  0  0  0  0  0
  150.4056  129.1233  155.5680 H   0  0  0  0  0  0  0  0  0  0  0  0
  151.4304  129.4915  154.1485 H   0  0  0  0  0  0  0  0  0  0  0  0
  151.6878  131.3471  155.9291 H   0  0  0  0  0  0  0  0  0  0  0  0
  143.2571  131.8519  151.7542 H   0  0  0  0  0  0  0  0  0  0  0  0
  143.9383  131.3506  149.4379 H   0  0  0  0  0  0  0  0  0  0  0  0
  144.6424  132.9562  149.2593 H   0  0  0  0  0  0  0  0  0  0  0  0
  142.9028  132.7628  149.4455 H   0  0  0  0  0  0  0  0  0  0  0  0
  142.0847  133.5799  153.1227 H   0  0  0  0  0  0  0  0  0  0  0  0
  142.1886  136.2998  153.2825 H   0  0  0  0  0  0  0  0  0  0  0  0
  144.2269  136.9520  151.5225 H   0  0  0  0  0  0  0  0  0  0  0  0
  144.6119  132.0027  153.7202 H   0  0  0  0  0  0  0  0  0  0  0  0
  1  2  1  0  0  0  0
  1 20  1  0  0  0  0
  1 21  1  0  0  0  0
  1 22  1  0  0  0  0
  2  3  1  0  0  0  0
  2 13  1  0  0  0  0
  2 23  1  0  0  0  0
  3  4  1  0  0  0  0
  3 24  1  0  0  0  0
  3 39  1  0  0  0  0
  4  5  1  0  0  0  0
  4 25  1  0  0  0  0
  4 26  1  0  0  0  0
  5  6  1  0  0  0  0
  5 27  1  0  0  0  0
  5 28  1  0  0  0  0
  6 11  1  0  0  0  0
  6  7  1  0  0  0  0
  7  8  2  0  0  0  0
  7  9  1  0  0  0  0
  9 10  1  0  0  0  0
  9 29  1  0  0  0  0
  9 30  1  0  0  0  0
 10 11  1  0  0  0  0
 10 31  1  0  0  0  0
 11 12  2  0  0  0  0
 13 14  1  0  0  0  0
 13 15  1  0  0  0  0
 13 32  1  0  0  0  0
 14 33  1  0  0  0  0
 14 34  1  0  0  0  0
 14 35  1  0  0  0  0
 15 19  1  0  0  0  0
 15 16  1  0  0  0  0
 16 17  2  0  0  0  0
 16 36  1  0  0  0  0
 17 18  1  0  0  0  0
 17 37  1  0  0  0  0
 18 19  2  0  0  0  0
 18 38  1  0  0  0  0
M  CHG  1   3   1
M  END
> <s_m_source_file>
AV-unprocessed.smi

> <i_m_source_file_index>
3330

> <i_lp_mmshare_version>
43012

> <i_f3d_flags>
0

> <s_epik_input>
bjFbY0hdW2NIXVtjSF1uMVtDQEBIXShbQ0gzXSlbQ0BIXShbQ0gzXSlbTkhdW0NIMl1bQ0gyXU4yQyg9TylbQ0gyXVtOSF1DMj1P

> <s_epik_cmdline>
J2VwaWtfcHl0aG9uJywgJy1waCcsICc3LjAnLCAnLXRuJywgJzgnLCAnLW1hJywgJzIwMCcsICctbWV0YWxfYmluZGluZycsICctaW1hZScsICc8aW5maWxlLm1hZT4nLCAnLW9tYWUnLCAnPG91dGZpbGUubWFlPic=

> <r_lp_tautomer_probability>
1

> <r_epik_Ionization_Penalty>
0.0124905

> <r_epik_Ionization_Penalty_Charging>
0.0123685

> <r_epik_Ionization_Penalty_Neutral>
0.000122059

> <r_epik_State_Penalty>
0.00957041

> <r_epik_Charging_Adjusted_Penalty>
0.0219389

> <i_epik_Tot_Q>
1

> <i_epik_Tot_abs_Q>
1

> <r_epik_Metal_State_Penalty>
0.0858301

> <b_epik_Metal_Only>
0

> <s_lp_Force_Field>
OPLS_2005

> <r_lp_Energy>
30.1395

> <b_lp_Chiralities_Consistent>
1

> <s_lp_Variant>
AV-unprocessed.smi:3330-1

> <Gold.Version>
5.8.1

> <Gold.Id.Protein>
6NUR|6NUR_protein|mol2

> <Gold.PLP.Fitness>
40.8845

> <Gold.PLP.PLP>
-33.4556

> <Gold.PLP.part.hbond>
-0.3776

> <Gold.PLP.part.metal>
0.0000

> <Gold.PLP.part.buried>
-6.7969

> <Gold.PLP.part.nonpolar>
-27.5968

> <Gold.PLP.part.repulsive>
0.3462

> <Gold.PLP.ligand.clash>
0.0000

> <Gold.PLP.ligand.torsion>
0.2411

> <Gold.PLP.Chemscore.Hbond>
0.6078

> <Gold.PLP.Chemscore.CHOScore>
1.9943

> <Gold.PLP.Chemscore.Metal>
0.0000

> <Gold.Chemscore.Hbonds>
donor molecule, donor type, donor heavy atom, donor atom, acceptor molecule, acceptor atom, score
      L1  H     3    39       P1 10957  0.63
      L1  C    16    36       P1 10957  1.00
      L1  C    18    38       P1 10171  1.00

> <Gold.PLP.Chemscore.Internal.Correction>
0.1048

> <Gold.Rescore>
     Score         DG    S(hbond)    S(metal)    S(lipo)     H(rot)  DE(clash)    DE(int)     intcor
      6.41      -6.65       0.00        0.00      68.26       2.67       0.02       0.22       ----

> <Gold.Chemscore.Fitness>
6.4057

> <Gold.Chemscore.DG>
-6.6527

> <Gold.Chemscore.ZeroCoef>
-5.4800

> <Gold.Chemscore.Hbond>
0.0038

> <Gold.Chemscore.Metal>
0.0000

> <Gold.Chemscore.Lipo>
68.2603

> <Gold.Chemscore.Internal_Hbond>
0.0000

> <Gold.Chemscore.DEClash>
0.0229

> <Gold.Chemscore.DEInternal>
0.2241

> <Gold.Chemscore.Rot>
2.6666

> <Gold.Chemscore.Internal.Correction>
   9.000000E+99

> <Gold.Chemscore.Hbonds>
donor molecule, donor type, donor heavy atom, donor atom, acceptor molecule, acceptor atom, score
      L1  H     3    39       P1 10957  0.02

> <Gold.Chemscore.Hbond.Weighted>
-0.0127

> <Gold.Chemscore.Metal.Weighted>
-0.0000

> <Gold.Chemscore.Lipo.Weighted>
-7.9865

> <Gold.Chemscore.Internal_Hbond.Weighted>
0.0000

> <Gold.Chemscore.DEClash.Weighted>
0.0229

> <Gold.Chemscore.DEInternal.Weighted>
0.2241

> <Gold.Chemscore.Rot.Weighted>
6.8265

> <Gold.Chemscore.Internal.Correction.Weighted>
   9.000000E+99

> <Gold.Protein.RotatedTorsions>
[ 6907 6896 6895 6894 ] final  -45.49 input  -60.11 | X-H torsion
[ 7974 7965 7964 7962 ] final  172.36 input  175.53 | X-H torsion
[ 8008 7997 7996 7995 ] final   55.97 input   59.86 | X-H torsion
[ 10167 10162 10161 10158 ] final  161.92 input  -65.29 | X-H torsion
[ 10718 10713 10712 10709 ] final  -71.17 input   66.30 | X-H torsion
[ 10763 10752 10751 10750 ] final   61.68 input  -60.55 | X-H torsion
[ 11005 11000 10999 10996 ] final   63.97 input  -57.11 | X-H torsion

> <Gold.Protein.ActiveResidues>
 VAL166  LYS551  ARG553  GLY616  TRP617  ASP618  TYR619  PRO620  LYS621  CYS622 
 ASP623  PHE694  ASN695  SER759  ASP760  ASP761  ALA762  ILE779  LEU786  VAL792 
 PHE793  MET794  SER795  GLU796  ALA797  LYS798  CYS799  TRP800  GLU811  SER814 

> <Gold.Protein.RotatedAtoms>
  150.9214  134.8632  159.7491 H   0  0  0  0  0  0  0  0  0  0  0  0  # atno 6907 bound_to 6896
  152.4994  134.4212  159.9491 H   0  0  0  0  0  0  0  0  0  0  0  0  # atno 6908 bound_to 6896
  151.4246  133.3648  159.2795 H   0  0  0  0  0  0  0  0  0  0  0  0  # atno 6909 bound_to 6896
  144.7270  139.9487  143.6431 H   0  0  0  0  0  0  0  0  0  0  0  0  # atno 7974 bound_to 7965
  155.5099  140.3477  155.4386 H   0  0  0  0  0  0  0  0  0  0  0  0  # atno 8008 bound_to 7997
  156.0856  140.1397  156.9684 H   0  0  0  0  0  0  0  0  0  0  0  0  # atno 8009 bound_to 7997
  154.4605  140.0937  156.6856 H   0  0  0  0  0  0  0  0  0  0  0  0  # atno 8010 bound_to 7997
  139.4854  144.4489  151.8856 H   0  0  0  0  0  0  0  0  0  0  0  0  # atno 10167 bound_to 10162
  156.0375  130.4346  150.2404 H   0  0  0  0  0  0  0  0  0  0  0  0  # atno 10718 bound_to 10713
  152.9958  135.5492  154.6072 H   0  0  0  0  0  0  0  0  0  0  0  0  # atno 10763 bound_to 10752
  154.5400  135.2819  155.1106 H   0  0  0  0  0  0  0  0  0  0  0  0  # atno 10764 bound_to 10752
  154.2387  135.6420  153.5252 H   0  0  0  0  0  0  0  0  0  0  0  0  # atno 10765 bound_to 10752
  139.9989  134.6473  155.9963 H   0  0  0  0  0  0  0  0  0  0  0  0  # atno 11005 bound_to 11000
  146.0728  139.3716  143.0512 LP  0  0  0  0  0  0  0  0  0  0  0  0  # atno 17320 bound_to 7965
  145.7945  140.9799  143.1031 LP  0  0  0  0  0  0  0  0  0  0  0  0  # atno 17321 bound_to 7965
  140.3945  144.2573  150.5897 LP  0  0  0  0  0  0  0  0  0  0  0  0  # atno 17342 bound_to 10162
  140.5115  143.2289  151.8527 LP  0  0  0  0  0  0  0  0  0  0  0  0  # atno 17343 bound_to 10162
  157.0502  131.0060  151.3256 LP  0  0  0  0  0  0  0  0  0  0  0  0  # atno 17370 bound_to 10713
  157.5146  130.7960  149.7742 LP  0  0  0  0  0  0  0  0  0  0  0  0  # atno 17371 bound_to 10713
  141.1626  133.6538  156.4371 LP  0  0  0  0  0  0  0  0  0  0  0  0  # atno 17394 bound_to 11000
  140.4765  134.6704  157.5152 LP  0  0  0  0  0  0  0  0  0  0  0  0  # atno 17395 bound_to 11000

$$$$
