AV-unprocessed.smi:3039|AV-procd|sdf|11592|dock2
  -GOLD-   2272016563D 1   1.00000     0.00000
 Structure written by MMmdl.
 38 39  0  0  0  0  0  0  0  0  1 V2000
  152.6871  140.0385  156.8603 O   0  0  0  0  0  0  0  0  0  0  0  0
  151.8337  140.1647  157.7380 C   0  0  0  0  0  0  0  0  0  0  0  0
  150.5687  139.3061  157.7073 C   0  0  0  0  0  0  0  0  0  0  0  0
  150.0053  139.2594  156.3117 C   0  0  0  0  0  0  0  0  0  0  0  0
  150.6274  138.7832  155.1241 C   0  0  0  0  0  0  0  0  0  0  0  0
  149.6727  138.9701  154.1664 C   0  0  0  0  0  0  0  0  0  0  0  0
  148.5552  139.5163  154.7089 O   0  0  0  0  0  0  0  0  0  0  0  0
  148.7776  139.7007  156.0782 N   0  0  0  0  0  0  0  0  0  0  0  0
  151.9379  141.0325  158.7566 N   0  0  0  0  0  0  0  0  0  0  0  0
  153.0720  141.9193  159.0203 C   0  0  1  0  0  0  0  0  0  0  0  0
  152.6485  143.4066  158.9604 C   0  0  0  0  0  0  0  0  0  0  0  0
  151.4589  143.7845  159.8657 C   0  0  0  0  0  0  0  0  0  0  0  0
  151.8114  144.1151  161.3262 C   0  0  0  0  0  0  0  0  0  0  0  0
  152.9538  143.3057  161.9629 C   0  0  0  0  0  0  0  0  0  0  0  0
  152.9915  141.8091  161.6082 C   0  0  0  0  0  0  0  0  0  0  0  0
  153.8020  141.5068  160.3236 C   0  0  1  0  0  0  0  0  0  0  0  0
  154.2345  140.0227  160.2679 C   0  0  0  0  0  0  0  0  0  0  0  0
  155.1159  139.7891  159.1888 O   0  0  0  0  0  0  0  0  0  0  0  0
  150.8050  138.3040  158.0683 H   0  0  0  0  0  0  0  0  0  0  0  0
  149.8333  139.7191  158.3988 H   0  0  0  0  0  0  0  0  0  0  0  0
  151.6162  138.3677  154.9968 H   0  0  0  0  0  0  0  0  0  0  0  0
  149.6384  138.7750  153.1048 H   0  0  0  0  0  0  0  0  0  0  0  0
  151.1795  141.0643  159.4227 H   0  0  0  0  0  0  0  0  0  0  0  0
  153.7983  141.7760  158.2178 H   0  0  0  0  0  0  0  0  0  0  0  0
  153.5012  144.0552  159.1644 H   0  0  0  0  0  0  0  0  0  0  0  0
  152.3621  143.6249  157.9307 H   0  0  0  0  0  0  0  0  0  0  0  0
  150.9629  144.6579  159.4411 H   0  0  0  0  0  0  0  0  0  0  0  0
  150.7010  143.0020  159.8467 H   0  0  0  0  0  0  0  0  0  0  0  0
  152.0684  145.1725  161.3990 H   0  0  0  0  0  0  0  0  0  0  0  0
  150.9098  143.9943  161.9278 H   0  0  0  0  0  0  0  0  0  0  0  0
  153.9108  143.7649  161.7122 H   0  0  0  0  0  0  0  0  0  0  0  0
  152.8671  143.4083  163.0451 H   0  0  0  0  0  0  0  0  0  0  0  0
  153.4692  141.3005  162.4459 H   0  0  0  0  0  0  0  0  0  0  0  0
  151.9850  141.3931  161.5535 H   0  0  0  0  0  0  0  0  0  0  0  0
  154.7221  142.0922  160.3631 H   0  0  0  0  0  0  0  0  0  0  0  0
  154.7182  139.7171  161.1968 H   0  0  0  0  0  0  0  0  0  0  0  0
  153.3664  139.3768  160.1319 H   0  0  0  0  0  0  0  0  0  0  0  0
  155.5734  138.9770  159.3448 H   0  0  0  0  0  0  0  0  0  0  0  0
  1  2  2  0  0  0  0
  2  3  1  0  0  0  0
  2  9  1  0  0  0  0
  3  4  1  0  0  0  0
  3 19  1  0  0  0  0
  3 20  1  0  0  0  0
  4  8  2  0  0  0  0
  4  5  1  0  0  0  0
  5  6  2  0  0  0  0
  5 21  1  0  0  0  0
  6  7  1  0  0  0  0
  6 22  1  0  0  0  0
  7  8  1  0  0  0  0
  9 10  1  0  0  0  0
  9 23  1  0  0  0  0
 10 16  1  0  0  0  0
 10 11  1  0  0  0  0
 10 24  1  0  0  0  0
 11 12  1  0  0  0  0
 11 25  1  0  0  0  0
 11 26  1  0  0  0  0
 12 13  1  0  0  0  0
 12 27  1  0  0  0  0
 12 28  1  0  0  0  0
 13 14  1  0  0  0  0
 13 29  1  0  0  0  0
 13 30  1  0  0  0  0
 14 15  1  0  0  0  0
 14 31  1  0  0  0  0
 14 32  1  0  0  0  0
 15 16  1  0  0  0  0
 15 33  1  0  0  0  0
 15 34  1  0  0  0  0
 16 17  1  0  0  0  0
 16 35  1  0  0  0  0
 17 18  1  0  0  0  0
 17 36  1  0  0  0  0
 17 37  1  0  0  0  0
 18 38  1  0  0  0  0
M  END
> <s_m_source_file>
AV-unprocessed.smi

> <i_m_source_file_index>
3039

> <i_lp_mmshare_version>
43012

> <i_f3d_flags>
0

> <s_epik_input>
bjFvW2NIXVtjSF1jMVtDSDJdQyg9TylbTkhdW0NAQEhdMltDSDJdW0NIMl1bQ0gyXVtDSDJdW0NIMl1bQ0BIXTJbQ0gyXVtPSF0=

> <s_epik_cmdline>
J2VwaWtfcHl0aG9uJywgJy1waCcsICc3LjAnLCAnLXRuJywgJzgnLCAnLW1hJywgJzIwMCcsICctbWV0YWxfYmluZGluZycsICctaW1hZScsICc8aW5maWxlLm1hZT4nLCAnLW9tYWUnLCAnPG91dGZpbGUubWFlPic=

> <r_lp_tautomer_probability>
1

> <r_epik_Ionization_Penalty>
3.05817e-07

> <r_epik_Ionization_Penalty_Charging>
0

> <r_epik_Ionization_Penalty_Neutral>
3.05817e-07

> <r_epik_State_Penalty>
-0

> <r_epik_Charging_Adjusted_Penalty>
0

> <i_epik_Tot_Q>
0

> <i_epik_Tot_abs_Q>
0

> <r_epik_Metal_State_Penalty>
-0

> <b_epik_Metal_Only>
0

> <s_lp_Force_Field>
OPLS_2005

> <r_lp_Energy>
19.8887

> <b_lp_Chiralities_Consistent>
1

> <s_lp_Variant>
AV-unprocessed.smi:3039-2

> <Gold.Version>
5.8.1

> <Gold.Id.Protein>
6NUR|6NUR_protein|mol2

> <Gold.PLP.Fitness>
43.4666

> <Gold.PLP.PLP>
-33.8965

> <Gold.PLP.part.hbond>
-2.0000

> <Gold.PLP.part.metal>
0.0000

> <Gold.PLP.part.buried>
-3.4701

> <Gold.PLP.part.nonpolar>
-27.9464

> <Gold.PLP.part.repulsive>
0.2338

> <Gold.PLP.ligand.clash>
0.0000

> <Gold.PLP.ligand.torsion>
0.2364

> <Gold.PLP.Chemscore.Hbond>
1.6800

> <Gold.PLP.Chemscore.CHOScore>
1.6464

> <Gold.PLP.Chemscore.Metal>
0.0000

> <Gold.Chemscore.Hbonds>
donor molecule, donor type, donor heavy atom, donor atom, acceptor molecule, acceptor atom, score
      P1  H  7997  8008       L1    18  0.82
      P1  H  7997  8009       L1     1  0.77
      L1  C     6    22       P1  7948  0.14
      L1  C     6    22       P1  7957  1.00

> <Gold.PLP.Chemscore.Internal.Correction>
0.0638

> <Gold.Rescore>
     Score         DG    S(hbond)    S(metal)    S(lipo)     H(rot)  DE(clash)    DE(int)     intcor
     17.62     -18.04       1.89        0.00     102.87       2.26       0.27       0.15       ----

> <Gold.Chemscore.Fitness>
17.6160

> <Gold.Chemscore.DG>
-18.0369

> <Gold.Chemscore.ZeroCoef>
-5.4800

> <Gold.Chemscore.Hbond>
1.8894

> <Gold.Chemscore.Metal>
0.0000

> <Gold.Chemscore.Lipo>
102.8709

> <Gold.Chemscore.Internal_Hbond>
0.0000

> <Gold.Chemscore.DEClash>
0.2713

> <Gold.Chemscore.DEInternal>
0.1496

> <Gold.Chemscore.Rot>
2.2616

> <Gold.Chemscore.Internal.Correction>
   9.000000E+99

> <Gold.Chemscore.Hbonds>
donor molecule, donor type, donor heavy atom, donor atom, acceptor molecule, acceptor atom, score
      P1  H  7997  8008       L1    18  0.18
      P1  H  7997  8009       L1     1  0.78

> <Gold.Chemscore.Hbond.Weighted>
-6.3106

> <Gold.Chemscore.Metal.Weighted>
-0.0000

> <Gold.Chemscore.Lipo.Weighted>
-12.0359

> <Gold.Chemscore.Internal_Hbond.Weighted>
0.0000

> <Gold.Chemscore.DEClash.Weighted>
0.2713

> <Gold.Chemscore.DEInternal.Weighted>
0.1496

> <Gold.Chemscore.Rot.Weighted>
5.7896

> <Gold.Chemscore.Internal.Correction.Weighted>
   9.000000E+99

> <Gold.Protein.RotatedTorsions>
[ 6907 6896 6895 6894 ] final  -23.74 input  -60.11 | X-H torsion
[ 7974 7965 7964 7962 ] final -144.19 input  175.53 | X-H torsion
[ 8008 7997 7996 7995 ] final -150.26 input   59.86 | X-H torsion
[ 10167 10162 10161 10158 ] final   59.72 input  -65.29 | X-H torsion
[ 10718 10713 10712 10709 ] final  -13.80 input   66.30 | X-H torsion
[ 10763 10752 10751 10750 ] final   75.53 input  -60.55 | X-H torsion
[ 11005 11000 10999 10996 ] final  139.65 input  -57.11 | X-H torsion

> <Gold.Protein.ActiveResidues>
 VAL166  LYS551  ARG553  GLY616  TRP617  ASP618  TYR619  PRO620  LYS621  CYS622 
 ASP623  PHE694  ASN695  SER759  ASP760  ASP761  ALA762  ILE779  LEU786  VAL792 
 PHE793  MET794  SER795  GLU796  ALA797  LYS798  CYS799  TRP800  GLU811  SER814 

> <Gold.Protein.RotatedAtoms>
  151.1997  135.0437  159.8866 H   0  0  0  0  0  0  0  0  0  0  0  0  # atno 6907 bound_to 6896
  152.5433  134.0864  159.8268 H   0  0  0  0  0  0  0  0  0  0  0  0  # atno 6908 bound_to 6896
  151.1003  133.5201  159.2642 H   0  0  0  0  0  0  0  0  0  0  0  0  # atno 6909 bound_to 6896
  144.8315  140.5741  143.5512 H   0  0  0  0  0  0  0  0  0  0  0  0  # atno 7974 bound_to 7965
  155.6207  140.0681  157.2679 H   0  0  0  0  0  0  0  0  0  0  0  0  # atno 8008 bound_to 7997
  154.4230  140.1785  156.1417 H   0  0  0  0  0  0  0  0  0  0  0  0  # atno 8009 bound_to 7997
  156.0011  140.3336  155.6850 H   0  0  0  0  0  0  0  0  0  0  0  0  # atno 8010 bound_to 7997
  140.1733  144.4255  150.6650 H   0  0  0  0  0  0  0  0  0  0  0  0  # atno 10167 bound_to 10162
  156.6250  130.4886  149.6150 H   0  0  0  0  0  0  0  0  0  0  0  0  # atno 10718 bound_to 10713
  153.0661  135.4985  154.8203 H   0  0  0  0  0  0  0  0  0  0  0  0  # atno 10763 bound_to 10752
  154.6956  135.2992  154.9419 H   0  0  0  0  0  0  0  0  0  0  0  0  # atno 10764 bound_to 10752
  154.0159  135.6748  153.4821 H   0  0  0  0  0  0  0  0  0  0  0  0  # atno 10765 bound_to 10752
  140.0270  134.9370  157.0587 H   0  0  0  0  0  0  0  0  0  0  0  0  # atno 11005 bound_to 11000
  145.4885  139.1490  143.3723 LP  0  0  0  0  0  0  0  0  0  0  0  0  # atno 17320 bound_to 7965
  146.2618  140.5023  142.8850 LP  0  0  0  0  0  0  0  0  0  0  0  0  # atno 17321 bound_to 7965
  140.6567  143.2240  151.5951 LP  0  0  0  0  0  0  0  0  0  0  0  0  # atno 17342 bound_to 10162
  139.5328  144.2867  152.1186 LP  0  0  0  0  0  0  0  0  0  0  0  0  # atno 17343 bound_to 10162
  156.2280  130.6777  151.1436 LP  0  0  0  0  0  0  0  0  0  0  0  0  # atno 17370 bound_to 10713
  157.7216  131.0677  150.6109 LP  0  0  0  0  0  0  0  0  0  0  0  0  # atno 17371 bound_to 10713
  140.4290  134.1800  155.7167 LP  0  0  0  0  0  0  0  0  0  0  0  0  # atno 17394 bound_to 11000
  141.1808  133.8417  157.1263 LP  0  0  0  0  0  0  0  0  0  0  0  0  # atno 17395 bound_to 11000

$$$$
