AV-unprocessed.smi:3068|AV-procd|sdf|11709|dock7
  -GOLD-   2272017113D 1   1.00000     0.00000
 Structure written by MMmdl.
 39 41  0  0  0  0  0  0  0  0  1 V2000
  154.1302  139.2203  154.5745 N   0  0  0  0  0  0  0  0  0  0  0  0
  153.1035  138.7013  154.6996 C   0  0  0  0  0  0  0  0  0  0  0  0
  151.8108  138.0472  154.8577 C   0  0  0  0  0  0  0  0  0  0  0  0
  151.8114  136.6939  154.8631 N   0  0  0  0  0  0  0  0  0  0  0  0
  150.6202  136.0756  155.0085 C   0  0  0  0  0  0  0  0  0  0  0  0
  149.4235  136.8042  155.1507 C   0  0  0  0  0  0  0  0  0  0  0  0
  149.4139  138.1539  155.1478 N   0  0  0  0  0  0  0  0  0  0  0  0
  150.6037  138.7887  154.9989 C   0  0  0  0  0  0  0  0  0  0  0  0
  150.6106  140.1961  154.9955 N   0  0  0  0  0  0  0  0  0  0  0  0
  150.0281  140.9684  156.0869 C   0  0  0  0  0  0  0  0  0  0  0  0
  151.0908  141.5059  157.0593 C   0  0  1  0  0  0  0  0  0  0  0  0
  150.5859  142.7418  157.8261 C   0  0  0  0  0  0  0  0  0  0  0  0
  151.5610  143.2109  158.8022 N   0  0  0  0  0  0  0  0  0  0  0  0
  151.0671  144.3798  159.5280 C   0  0  0  0  0  0  0  0  0  0  0  0
  152.0918  144.9166  160.5399 C   0  0  0  0  0  0  0  0  0  0  0  0
  152.4971  143.8111  161.5253 C   0  0  0  0  0  0  0  0  0  0  0  0
  152.9634  142.5650  160.7569 C   0  0  0  0  0  0  0  0  0  0  0  0
  151.9049  142.1246  159.7246 C   0  0  2  0  0  0  0  0  0  0  0  0
  152.3821  140.8771  158.9533 C   0  0  0  0  0  0  0  0  0  0  0  0
  151.3933  140.4846  158.0067 O   0  0  0  0  0  0  0  0  0  0  0  0
  150.6220  134.9955  155.0124 H   0  0  0  0  0  0  0  0  0  0  0  0
  148.4733  136.3044  155.2672 H   0  0  0  0  0  0  0  0  0  0  0  0
  150.8237  140.6812  154.1355 H   0  0  0  0  0  0  0  0  0  0  0  0
  149.4380  141.7891  155.6773 H   0  0  0  0  0  0  0  0  0  0  0  0
  149.3257  140.3304  156.6240 H   0  0  0  0  0  0  0  0  0  0  0  0
  151.9962  141.7721  156.5111 H   0  0  0  0  0  0  0  0  0  0  0  0
  150.3628  143.5411  157.1183 H   0  0  0  0  0  0  0  0  0  0  0  0
  149.6477  142.4991  158.3278 H   0  0  0  0  0  0  0  0  0  0  0  0
  150.8177  145.1715  158.8205 H   0  0  0  0  0  0  0  0  0  0  0  0
  150.1417  144.1288  160.0485 H   0  0  0  0  0  0  0  0  0  0  0  0
  152.9734  145.2798  160.0103 H   0  0  0  0  0  0  0  0  0  0  0  0
  151.6781  145.7688  161.0793 H   0  0  0  0  0  0  0  0  0  0  0  0
  153.2859  144.1649  162.1896 H   0  0  0  0  0  0  0  0  0  0  0  0
  151.6461  143.5541  162.1570 H   0  0  0  0  0  0  0  0  0  0  0  0
  153.9044  142.7824  160.2495 H   0  0  0  0  0  0  0  0  0  0  0  0
  153.1681  141.7548  161.4577 H   0  0  0  0  0  0  0  0  0  0  0  0
  151.0050  141.8419  160.2740 H   0  0  0  0  0  0  0  0  0  0  0  0
  153.3252  141.0714  158.4398 H   0  0  0  0  0  0  0  0  0  0  0  0
  152.5568  140.0484  159.6397 H   0  0  0  0  0  0  0  0  0  0  0  0
  1  2  3  0  0  0  0
  2  3  1  0  0  0  0
  3  8  1  0  0  0  0
  3  4  2  0  0  0  0
  4  5  1  0  0  0  0
  5  6  2  0  0  0  0
  5 21  1  0  0  0  0
  6  7  1  0  0  0  0
  6 22  1  0  0  0  0
  7  8  2  0  0  0  0
  8  9  1  0  0  0  0
  9 10  1  0  0  0  0
  9 23  1  0  0  0  0
 10 11  1  0  0  0  0
 10 24  1  0  0  0  0
 10 25  1  0  0  0  0
 11 20  1  0  0  0  0
 11 12  1  0  0  0  0
 11 26  1  0  0  0  0
 12 13  1  0  0  0  0
 12 27  1  0  0  0  0
 12 28  1  0  0  0  0
 13 18  1  0  0  0  0
 13 14  1  0  0  0  0
 14 15  1  0  0  0  0
 14 29  1  0  0  0  0
 14 30  1  0  0  0  0
 15 16  1  0  0  0  0
 15 31  1  0  0  0  0
 15 32  1  0  0  0  0
 16 17  1  0  0  0  0
 16 33  1  0  0  0  0
 16 34  1  0  0  0  0
 17 18  1  0  0  0  0
 17 35  1  0  0  0  0
 17 36  1  0  0  0  0
 18 19  1  0  0  0  0
 18 37  1  0  0  0  0
 19 20  1  0  0  0  0
 19 38  1  0  0  0  0
 19 39  1  0  0  0  0
M  END
> <s_m_source_file>
AV-unprocessed.smi

> <i_m_source_file_index>
3068

> <i_lp_mmshare_version>
43012

> <i_f3d_flags>
0

> <s_epik_input>
TiNDYzFuW2NIXVtjSF1uYzFbTkhdW0NIMl1bQ0BIXShbQ0gyXTIpT1tDSDJdW0NAQEhdKE4yMylbQ0gyXVtDSDJdW0NIMl1bQ0gyXTM=

> <s_epik_cmdline>
J2VwaWtfcHl0aG9uJywgJy1waCcsICc3LjAnLCAnLXRuJywgJzgnLCAnLW1hJywgJzIwMCcsICctbWV0YWxfYmluZGluZycsICctaW1hZScsICc8aW5maWxlLm1hZT4nLCAnLW9tYWUnLCAnPG91dGZpbGUubWFlPic=

> <r_epik_Ionization_Penalty>
1.22359

> <r_epik_Ionization_Penalty_Charging>
0

> <r_epik_Ionization_Penalty_Neutral>
1.22359

> <r_epik_State_Penalty>
1.29103

> <r_epik_Charging_Adjusted_Penalty>
1.29103

> <i_epik_Tot_Q>
0

> <i_epik_Tot_abs_Q>
0

> <r_epik_Metal_State_Penalty>
1.29103

> <b_epik_Metal_Only>
0

> <s_lp_Force_Field>
OPLS_2005

> <r_lp_Energy>
45.8407

> <b_lp_Chiralities_Consistent>
1

> <s_lp_Variant>
AV-unprocessed.smi:3068-12

> <Gold.Version>
5.8.1

> <Gold.Id.Protein>
6NUR|6NUR_protein|mol2

> <Gold.PLP.Fitness>
43.7049

> <Gold.PLP.PLP>
-39.4832

> <Gold.PLP.part.hbond>
-1.8579

> <Gold.PLP.part.metal>
0.0000

> <Gold.PLP.part.buried>
-8.4741

> <Gold.PLP.part.nonpolar>
-31.4092

> <Gold.PLP.part.repulsive>
1.8569

> <Gold.PLP.ligand.clash>
0.0000

> <Gold.PLP.ligand.torsion>
0.8897

> <Gold.PLP.Chemscore.Hbond>
2.0000

> <Gold.PLP.Chemscore.CHOScore>
0.0000

> <Gold.PLP.Chemscore.Metal>
0.0000

> <Gold.Chemscore.Hbonds>
donor molecule, donor type, donor heavy atom, donor atom, acceptor molecule, acceptor atom, score
      P1  H  7997  8010       L1     1  1.00
      P1  H 10752 10765       L1     4  1.00

> <Gold.PLP.Chemscore.Internal.Correction>
0.0011

> <Gold.Rescore>
     Score         DG    S(hbond)    S(metal)    S(lipo)     H(rot)  DE(clash)    DE(int)     intcor
     18.97     -19.89       1.95        0.00      95.87       1.30       0.03       0.89       ----

> <Gold.Chemscore.Fitness>
18.9660

> <Gold.Chemscore.DG>
-19.8890

> <Gold.Chemscore.ZeroCoef>
-5.4800

> <Gold.Chemscore.Hbond>
1.9537

> <Gold.Chemscore.Metal>
0.0000

> <Gold.Chemscore.Lipo>
95.8654

> <Gold.Chemscore.Internal_Hbond>
0.0000

> <Gold.Chemscore.DEClash>
0.0284

> <Gold.Chemscore.DEInternal>
0.8946

> <Gold.Chemscore.Rot>
1.3019

> <Gold.Chemscore.Internal.Correction>
   9.000000E+99

> <Gold.Chemscore.Hbonds>
donor molecule, donor type, donor heavy atom, donor atom, acceptor molecule, acceptor atom, score
      P1  H  7997  8010       L1     1  0.90
      P1  H 10752 10765       L1     4  0.73

> <Gold.Chemscore.Hbond.Weighted>
-6.5254

> <Gold.Chemscore.Metal.Weighted>
-0.0000

> <Gold.Chemscore.Lipo.Weighted>
-11.2163

> <Gold.Chemscore.Internal_Hbond.Weighted>
0.0000

> <Gold.Chemscore.DEClash.Weighted>
0.0284

> <Gold.Chemscore.DEInternal.Weighted>
0.8946

> <Gold.Chemscore.Rot.Weighted>
3.3327

> <Gold.Chemscore.Internal.Correction.Weighted>
   9.000000E+99

> <Gold.Protein.RotatedTorsions>
[ 6907 6896 6895 6894 ] final -138.30 input  -60.11 | X-H torsion
[ 7974 7965 7964 7962 ] final  112.56 input  175.53 | X-H torsion
[ 8008 7997 7996 7995 ] final  119.37 input   59.86 | X-H torsion
[ 10167 10162 10161 10158 ] final -125.09 input  -65.29 | X-H torsion
[ 10718 10713 10712 10709 ] final  -71.85 input   66.30 | X-H torsion
[ 10763 10752 10751 10750 ] final  171.81 input  -60.55 | X-H torsion
[ 11005 11000 10999 10996 ] final  117.25 input  -57.11 | X-H torsion

> <Gold.Protein.ActiveResidues>
 VAL166  LYS551  ARG553  GLY616  TRP617  ASP618  TYR619  PRO620  LYS621  CYS622 
 ASP623  PHE694  ASN695  SER759  ASP760  ASP761  ALA762  ILE779  LEU786  VAL792 
 PHE793  MET794  SER795  GLU796  ALA797  LYS798  CYS799  TRP800  GLU811  SER814 

> <Gold.Protein.RotatedAtoms>
  151.0333  133.5770  159.2658 H   0  0  0  0  0  0  0  0  0  0  0  0  # atno 6907 bound_to 6896
  151.2844  135.0722  159.9191 H   0  0  0  0  0  0  0  0  0  0  0  0  # atno 6908 bound_to 6896
  152.5349  134.0042  159.7963 H   0  0  0  0  0  0  0  0  0  0  0  0  # atno 6909 bound_to 6896
  145.2280  139.2832  143.4183 H   0  0  0  0  0  0  0  0  0  0  0  0  # atno 7974 bound_to 7965
  156.2592  140.2854  156.0981 H   0  0  0  0  0  0  0  0  0  0  0  0  # atno 8008 bound_to 7997
  155.1390  140.0395  157.2811 H   0  0  0  0  0  0  0  0  0  0  0  0  # atno 8009 bound_to 7997
  154.6544  140.2552  155.7184 H   0  0  0  0  0  0  0  0  0  0  0  0  # atno 8010 bound_to 7997
  139.9858  143.5693  152.2361 H   0  0  0  0  0  0  0  0  0  0  0  0  # atno 10167 bound_to 10162
  156.0345  130.4360  150.2505 H   0  0  0  0  0  0  0  0  0  0  0  0  # atno 10718 bound_to 10713
  154.4171  135.2757  155.1999 H   0  0  0  0  0  0  0  0  0  0  0  0  # atno 10763 bound_to 10752
  154.3960  135.6055  153.5874 H   0  0  0  0  0  0  0  0  0  0  0  0  # atno 10764 bound_to 10752
  152.9832  135.5915  154.4462 H   0  0  0  0  0  0  0  0  0  0  0  0  # atno 10765 bound_to 10752
  139.9068  134.9608  156.7323 H   0  0  0  0  0  0  0  0  0  0  0  0  # atno 11005 bound_to 11000
  146.3360  140.2606  142.8602 LP  0  0  0  0  0  0  0  0  0  0  0  0  # atno 17320 bound_to 7965
  144.9703  140.8362  143.5459 LP  0  0  0  0  0  0  0  0  0  0  0  0  # atno 17321 bound_to 7965
  139.6376  144.7651  151.2406 LP  0  0  0  0  0  0  0  0  0  0  0  0  # atno 17342 bound_to 10162
  140.7472  143.6372  150.8368 LP  0  0  0  0  0  0  0  0  0  0  0  0  # atno 17343 bound_to 10162
  157.0605  131.0088  151.3224 LP  0  0  0  0  0  0  0  0  0  0  0  0  # atno 17370 bound_to 10713
  157.5074  130.7917  149.7668 LP  0  0  0  0  0  0  0  0  0  0  0  0  # atno 17371 bound_to 10713
  140.6915  133.9385  155.7969 LP  0  0  0  0  0  0  0  0  0  0  0  0  # atno 17394 bound_to 11000
  141.0438  134.0584  157.3870 LP  0  0  0  0  0  0  0  0  0  0  0  0  # atno 17395 bound_to 11000

$$$$
