AV-unprocessed.smi:21|AV-procd|sdf|167|dock6
  -GOLD-   2262015413D 1   1.00000     0.00000
 Structure written by MMmdl.
 61 64  0  0  0  0  0  0  0  0  1 V2000
  152.2921  144.0974  161.4304 C   0  0  0  0  0  0  0  0  0  0  0  0
  151.3911  143.6601  160.4260 O   0  0  0  0  0  0  0  0  0  0  0  0
  152.0385  143.1317  159.2773 C   0  0  1  0  0  0  0  0  0  0  0  0
  152.4597  141.6746  159.5242 C   0  0  0  0  0  0  0  0  0  0  0  0
  151.6707  140.8592  158.4868 C   0  0  2  0  0  0  0  0  0  0  0  0
  152.3760  139.5528  158.0637 C   0  0  0  0  0  0  0  0  0  0  0  0
  152.5810  138.6378  159.1896 N   0  0  0  0  0  0  0  0  0  0  0  0
  151.4213  137.9194  159.7029 C   0  0  0  0  0  0  0  0  0  0  0  0
  153.7309  138.6899  159.9216 C   0  0  0  0  0  0  0  0  0  0  0  0
  154.8766  139.0630  159.2913 N   0  0  0  0  0  0  0  0  0  0  0  0
  156.0336  139.1351  159.9533 C   0  0  0  0  0  0  0  0  0  0  0  0
  156.2746  138.8763  161.2376 N   0  0  0  0  0  0  0  0  0  0  0  0
  155.1374  138.4962  161.8850 C   0  0  0  0  0  0  0  0  0  0  0  0
  153.8354  138.3801  161.3140 C   0  0  0  0  0  0  0  0  0  0  0  0
  152.9360  137.9886  162.3015 N   0  0  0  0  0  0  0  0  0  0  0  0
  153.6590  137.8756  163.3807 C   0  0  0  0  0  0  0  0  0  0  0  0
  154.9985  138.1389  163.2155 N   0  0  0  0  0  0  0  0  0  0  0  0
  156.0213  138.0983  164.2466 C   0  0  0  0  0  0  0  0  0  0  0  0
  155.8141  139.0941  165.4230 C   0  0  1  0  0  0  0  0  0  0  0  0
  156.9067  138.8476  166.4920 C   0  0  0  0  0  0  0  0  0  0  0  0
  156.8800  137.5148  166.9604 O   0  0  0  0  0  0  0  0  0  0  0  0
  155.7889  140.5868  164.9742 C   0  0  1  0  0  0  0  0  0  0  0  0
  155.6096  141.6136  166.0862 C   0  0  0  0  0  0  0  0  0  0  0  0
  156.1857  142.9023  165.5014 C   0  0  0  0  0  0  0  0  0  0  0  0
  157.0094  142.5129  164.4105 O   0  0  0  0  0  0  0  0  0  0  0  0
  157.1028  141.0976  164.3726 C   0  0  0  0  0  0  0  0  0  0  0  0
  151.4224  141.7935  157.4004 N   0  0  0  0  0  0  0  0  0  0  0  0
  150.3721  141.3676  156.4847 C   0  0  0  0  0  0  0  0  0  0  0  0
  151.0873  143.0309  158.0773 C   0  0  0  0  0  0  0  0  0  0  0  0
  152.9226  143.7199  159.0245 H   0  0  0  0  0  0  0  0  0  0  0  0
  150.7097  140.6022  158.9367 H   0  0  0  0  0  0  0  0  0  0  0  0
  151.7299  144.4747  162.2845 H   0  0  0  0  0  0  0  0  0  0  0  0
  152.9343  144.9024  161.0716 H   0  0  0  0  0  0  0  0  0  0  0  0
  152.9208  143.2775  161.7793 H   0  0  0  0  0  0  0  0  0  0  0  0
  153.5332  141.5777  159.3580 H   0  0  0  0  0  0  0  0  0  0  0  0
  152.2535  141.3411  160.5420 H   0  0  0  0  0  0  0  0  0  0  0  0
  151.7618  139.0259  157.3338 H   0  0  0  0  0  0  0  0  0  0  0  0
  153.3034  139.7790  157.5379 H   0  0  0  0  0  0  0  0  0  0  0  0
  151.7002  136.9213  160.0418 H   0  0  0  0  0  0  0  0  0  0  0  0
  150.6639  137.8030  158.9275 H   0  0  0  0  0  0  0  0  0  0  0  0
  150.9676  138.4623  160.5324 H   0  0  0  0  0  0  0  0  0  0  0  0
  156.8887  139.4418  159.3693 H   0  0  0  0  0  0  0  0  0  0  0  0
  153.2326  137.5836  164.3294 H   0  0  0  0  0  0  0  0  0  0  0  0
  156.0486  137.0724  164.6145 H   0  0  0  0  0  0  0  0  0  0  0  0
  156.9908  138.2775  163.7799 H   0  0  0  0  0  0  0  0  0  0  0  0
  154.8564  138.8784  165.8979 H   0  0  0  0  0  0  0  0  0  0  0  0
  157.8967  139.0711  166.0936 H   0  0  0  0  0  0  0  0  0  0  0  0
  156.7626  139.4808  167.3662 H   0  0  0  0  0  0  0  0  0  0  0  0
  155.9814  137.2230  166.9870 H   0  0  0  0  0  0  0  0  0  0  0  0
  154.9987  140.7286  164.2353 H   0  0  0  0  0  0  0  0  0  0  0  0
  154.5725  141.7512  166.3866 H   0  0  0  0  0  0  0  0  0  0  0  0
  156.1822  141.3218  166.9677 H   0  0  0  0  0  0  0  0  0  0  0  0
  155.3939  143.5514  165.1272 H   0  0  0  0  0  0  0  0  0  0  0  0
  156.7580  143.4597  166.2435 H   0  0  0  0  0  0  0  0  0  0  0  0
  157.9557  140.7839  164.9768 H   0  0  0  0  0  0  0  0  0  0  0  0
  157.2638  140.7575  163.3493 H   0  0  0  0  0  0  0  0  0  0  0  0
  150.1899  142.1325  155.7294 H   0  0  0  0  0  0  0  0  0  0  0  0
  149.4354  141.1838  157.0128 H   0  0  0  0  0  0  0  0  0  0  0  0
  150.6536  140.4534  155.9629 H   0  0  0  0  0  0  0  0  0  0  0  0
  150.0573  142.9871  158.4360 H   0  0  0  0  0  0  0  0  0  0  0  0
  151.1682  143.8893  157.4098 H   0  0  0  0  0  0  0  0  0  0  0  0
  1  2  1  0  0  0  0
  1 32  1  0  0  0  0
  1 33  1  0  0  0  0
  1 34  1  0  0  0  0
  2  3  1  0  0  0  0
  3 30  1  0  0  0  0
  3 29  1  0  0  0  0
  3  4  1  0  0  0  0
  4  5  1  0  0  0  0
  4 35  1  0  0  0  0
  4 36  1  0  0  0  0
  5 31  1  0  0  0  0
  5  6  1  0  0  0  0
  5 27  1  0  0  0  0
  6  7  1  0  0  0  0
  6 37  1  0  0  0  0
  6 38  1  0  0  0  0
  7  8  1  0  0  0  0
  7  9  1  0  0  0  0
  8 39  1  0  0  0  0
  8 40  1  0  0  0  0
  8 41  1  0  0  0  0
  9 14  1  0  0  0  0
  9 10  2  0  0  0  0
 10 11  1  0  0  0  0
 11 12  2  0  0  0  0
 11 42  1  0  0  0  0
 12 13  1  0  0  0  0
 13 17  1  0  0  0  0
 13 14  2  0  0  0  0
 14 15  1  0  0  0  0
 15 16  2  0  0  0  0
 16 17  1  0  0  0  0
 16 43  1  0  0  0  0
 17 18  1  0  0  0  0
 18 19  1  0  0  0  0
 18 44  1  0  0  0  0
 18 45  1  0  0  0  0
 19 20  1  0  0  0  0
 19 22  1  0  0  0  0
 19 46  1  0  0  0  0
 20 21  1  0  0  0  0
 20 47  1  0  0  0  0
 20 48  1  0  0  0  0
 21 49  1  0  0  0  0
 22 26  1  0  0  0  0
 22 23  1  0  0  0  0
 22 50  1  0  0  0  0
 23 24  1  0  0  0  0
 23 51  1  0  0  0  0
 23 52  1  0  0  0  0
 24 25  1  0  0  0  0
 24 53  1  0  0  0  0
 24 54  1  0  0  0  0
 25 26  1  0  0  0  0
 26 55  1  0  0  0  0
 26 56  1  0  0  0  0
 27 28  1  0  0  0  0
 27 29  1  0  0  0  0
 28 57  1  0  0  0  0
 28 58  1  0  0  0  0
 28 59  1  0  0  0  0
 29 60  1  0  0  0  0
 29 61  1  0  0  0  0
M  END
> <s_m_source_file>
AV-unprocessed.smi

> <i_m_source_file_index>
21

> <i_lp_mmshare_version>
43012

> <i_f3d_flags>
0

> <s_epik_input>
W0NIM11PW0NASF0xW0NIMl1bQ0BIXShOKFtDSDNdKVtDSDJdMSlbQ0gyXU4oW0NIM10pYyhuW2NIXW4yKWMoYzIzKW5bY0hdbjNbQ0gyXVtDQEhdKFtDSDJdW09IXSlbQ0BASF00W0NIMl1bQ0gyXU9bQ0gyXTQ=

> <s_epik_cmdline>
J2VwaWtfcHl0aG9uJywgJy1waCcsICc3LjAnLCAnLXRuJywgJzgnLCAnLW1hJywgJzIwMCcsICctbWV0YWxfYmluZGluZycsICctaW1hZScsICc8aW5maWxlLm1hZT4nLCAnLW9tYWUnLCAnPG91dGZpbGUubWFlPic=

> <r_lp_tautomer_probability>
1

> <r_epik_Ionization_Penalty>
2.17574

> <r_epik_Ionization_Penalty_Charging>
0

> <r_epik_Ionization_Penalty_Neutral>
2.17574

> <r_epik_State_Penalty>
2.31336

> <r_epik_Charging_Adjusted_Penalty>
2.31336

> <i_epik_Tot_Q>
0

> <i_epik_Tot_abs_Q>
0

> <r_epik_Metal_State_Penalty>
2.31025

> <b_epik_Metal_Only>
0

> <s_lp_Force_Field>
OPLS_2005

> <r_lp_Energy>
70.7714

> <b_lp_Chiralities_Consistent>
1

> <s_lp_Variant>
AV-unprocessed.smi:21-47

> <Gold.Version>
5.8.1

> <Gold.Id.Protein>
6NUR|6NUR_protein|mol2

> <Gold.PLP.Fitness>
44.0185

> <Gold.PLP.PLP>
-41.8091

> <Gold.PLP.part.hbond>
-4.2384

> <Gold.PLP.part.metal>
0.0000

> <Gold.PLP.part.buried>
-2.4634

> <Gold.PLP.part.nonpolar>
-33.6259

> <Gold.PLP.part.repulsive>
0.1266

> <Gold.PLP.ligand.clash>
0.0000

> <Gold.PLP.ligand.torsion>
0.7289

> <Gold.PLP.Chemscore.Hbond>
1.0000

> <Gold.PLP.Chemscore.CHOScore>
0.0000

> <Gold.PLP.Chemscore.Metal>
0.0000

> <Gold.Chemscore.Hbonds>
donor molecule, donor type, donor heavy atom, donor atom, acceptor molecule, acceptor atom, score
      P1  H  7997  8010       L1    10  0.52

> <Gold.PLP.Chemscore.Internal.Correction>
0.6673

> <Gold.Rescore>
     Score         DG    S(hbond)    S(metal)    S(lipo)     H(rot)  DE(clash)    DE(int)     intcor
     10.37     -12.62       1.07        0.00      96.03       3.00       0.03       2.21       ----

> <Gold.Chemscore.Fitness>
10.3720

> <Gold.Chemscore.DG>
-12.6169

> <Gold.Chemscore.ZeroCoef>
-5.4800

> <Gold.Chemscore.Hbond>
1.0748

> <Gold.Chemscore.Metal>
0.0000

> <Gold.Chemscore.Lipo>
96.0270

> <Gold.Chemscore.Internal_Hbond>
0.0000

> <Gold.Chemscore.DEClash>
0.0317

> <Gold.Chemscore.DEInternal>
2.2133

> <Gold.Chemscore.Rot>
3.0031

> <Gold.Chemscore.Internal.Correction>
   9.000000E+99

> <Gold.Chemscore.Hbonds>
donor molecule, donor type, donor heavy atom, donor atom, acceptor molecule, acceptor atom, score
      P1  H  7997  8010       L1    10  0.44

> <Gold.Chemscore.Hbond.Weighted>
-3.5898

> <Gold.Chemscore.Metal.Weighted>
-0.0000

> <Gold.Chemscore.Lipo.Weighted>
-11.2352

> <Gold.Chemscore.Internal_Hbond.Weighted>
0.0000

> <Gold.Chemscore.DEClash.Weighted>
0.0317

> <Gold.Chemscore.DEInternal.Weighted>
2.2133

> <Gold.Chemscore.Rot.Weighted>
7.6880

> <Gold.Chemscore.Internal.Correction.Weighted>
   9.000000E+99

> <Gold.Protein.RotatedTorsions>
[ 6907 6896 6895 6894 ] final  158.01 input  -60.11 | X-H torsion
[ 7974 7965 7964 7962 ] final  -38.62 input  175.53 | X-H torsion
[ 8008 7997 7996 7995 ] final   11.09 input   59.86 | X-H torsion
[ 10167 10162 10161 10158 ] final  156.45 input  -65.29 | X-H torsion
[ 10718 10713 10712 10709 ] final  -31.02 input   66.30 | X-H torsion
[ 10763 10752 10751 10750 ] final -122.01 input  -60.55 | X-H torsion
[ 11005 11000 10999 10996 ] final -163.02 input  -57.11 | X-H torsion

> <Gold.Protein.ActiveResidues>
 VAL166  LYS551  ARG553  GLY616  TRP617  ASP618  TYR619  PRO620  LYS621  CYS622 
 ASP623  PHE694  ASN695  SER759  ASP760  ASP761  ALA762  ILE779  LEU786  VAL792 
 PHE793  MET794  SER795  GLU796  ALA797  LYS798  CYS799  TRP800  GLU811  SER814 

> <Gold.Protein.RotatedAtoms>
  152.0067  133.3845  159.4202 H   0  0  0  0  0  0  0  0  0  0  0  0  # atno 6907 bound_to 6896
  150.6904  134.3775  159.5029 H   0  0  0  0  0  0  0  0  0  0  0  0  # atno 6908 bound_to 6896
  152.1530  134.8973  160.0597 H   0  0  0  0  0  0  0  0  0  0  0  0  # atno 6909 bound_to 6896
  146.0470  140.6533  142.9060 H   0  0  0  0  0  0  0  0  0  0  0  0  # atno 7974 bound_to 7965
  154.8021  140.2854  155.5914 H   0  0  0  0  0  0  0  0  0  0  0  0  # atno 8008 bound_to 7997
  156.2978  140.2584  156.2821 H   0  0  0  0  0  0  0  0  0  0  0  0  # atno 8009 bound_to 7997
  154.9545  140.0378  157.2150 H   0  0  0  0  0  0  0  0  0  0  0  0  # atno 8010 bound_to 7997
  139.4821  144.5007  151.8172 H   0  0  0  0  0  0  0  0  0  0  0  0  # atno 10167 bound_to 10162
  156.3924  130.4375  149.7384 H   0  0  0  0  0  0  0  0  0  0  0  0  # atno 10718 bound_to 10713
  154.8680  135.4148  154.2712 H   0  0  0  0  0  0  0  0  0  0  0  0  # atno 10763 bound_to 10752
  153.3622  135.7004  153.6709 H   0  0  0  0  0  0  0  0  0  0  0  0  # atno 10764 bound_to 10752
  153.5605  135.3611  155.2769 H   0  0  0  0  0  0  0  0  0  0  0  0  # atno 10765 bound_to 10752
  140.6027  134.4931  157.5207 H   0  0  0  0  0  0  0  0  0  0  0  0  # atno 11005 bound_to 11000
  144.7103  140.4012  143.7086 LP  0  0  0  0  0  0  0  0  0  0  0  0  # atno 17320 bound_to 7965
  145.6789  139.1614  143.2712 LP  0  0  0  0  0  0  0  0  0  0  0  0  # atno 17321 bound_to 7965
  140.4500  144.1868  150.5897 LP  0  0  0  0  0  0  0  0  0  0  0  0  # atno 17342 bound_to 10162
  140.4595  143.2454  151.9240 LP  0  0  0  0  0  0  0  0  0  0  0  0  # atno 17343 bound_to 10162
  156.4432  130.7871  151.2892 LP  0  0  0  0  0  0  0  0  0  0  0  0  # atno 17370 bound_to 10713
  157.7500  131.0118  150.3360 LP  0  0  0  0  0  0  0  0  0  0  0  0  # atno 17371 bound_to 10713
  139.9225  134.8120  156.1167 LP  0  0  0  0  0  0  0  0  0  0  0  0  # atno 17394 bound_to 11000
  141.0861  133.6733  156.2440 LP  0  0  0  0  0  0  0  0  0  0  0  0  # atno 17395 bound_to 11000

$$$$
