AV-unprocessed.smi:658|AV-procd|sdf|3236|dock6
  -GOLD-   22720 0183D 1   1.00000     0.00000
 Structure written by MMmdl.
 37 37  0  0  0  0  0  0  0  0  3 V2000
  145.7533  136.6651  153.8723 C   0  0  0  0  0  0  0  0  0  0  0  0
  145.7674  135.2843  153.1915 C   0  0  2  0  0  0  0  0  0  0  0  0
  147.1572  134.7743  153.1766 N   0  3  0  0  0  0  0  0  0  0  0  0
  147.6565  134.2994  154.4827 C   0  0  0  0  0  0  0  0  0  0  0  0
  149.0746  133.7354  154.3535 C   0  0  0  0  0  0  0  0  0  0  0  0
  150.1337  134.6885  154.9194 C   0  0  0  0  0  0  0  0  0  0  0  0
  150.8764  134.0040  156.4578 S   0  0  0  0  0  0  0  0  0  0  0  0
  152.0591  135.0676  156.7229 N   0  5  0  0  0  0  0  0  0  0  0  0
  149.8157  134.0698  157.4749 O   0  0  0  0  0  0  0  0  0  0  0  0
  151.3870  132.6723  156.0998 O   0  0  0  0  0  0  0  0  0  0  0  0
  145.1785  135.3128  151.7546 C   0  0  1  0  0  0  0  0  0  0  0  0
  145.9024  136.3046  150.8235 C   0  0  0  0  0  0  0  0  0  0  0  0
  145.1574  133.9868  151.1501 N   0  0  0  0  0  0  0  0  0  0  0  0
  144.0652  133.2575  150.7265 C   0  0  0  0  0  0  0  0  0  0  0  0
  144.5320  132.0746  150.2294 C   0  0  0  0  0  0  0  0  0  0  0  0
  145.9418  132.1712  150.3924 C   0  0  0  0  0  0  0  0  0  0  0  0
  146.3130  133.3145  150.9453 N   0  0  0  0  0  0  0  0  0  0  0  0
  144.7384  137.0375  154.0137 H   0  0  0  0  0  0  0  0  0  0  0  0
  146.3001  137.4030  153.2843 H   0  0  0  0  0  0  0  0  0  0  0  0
  146.2155  136.6186  154.8590 H   0  0  0  0  0  0  0  0  0  0  0  0
  145.1542  134.6222  153.8058 H   0  0  0  0  0  0  0  0  0  0  0  0
  147.2159  134.0178  152.5102 H   0  0  0  0  0  0  0  0  0  0  0  0
  147.6468  135.1283  155.1916 H   0  0  0  0  0  0  0  0  0  0  0  0
  146.9878  133.5320  154.8743 H   0  0  0  0  0  0  0  0  0  0  0  0
  149.1346  132.7786  154.8736 H   0  0  0  0  0  0  0  0  0  0  0  0
  149.2939  133.5323  153.3045 H   0  0  0  0  0  0  0  0  0  0  0  0
  150.9368  134.8496  154.1998 H   0  0  0  0  0  0  0  0  0  0  0  0
  149.6989  135.6594  155.1580 H   0  0  0  0  0  0  0  0  0  0  0  0
  151.6870  135.8174  157.3178 H   0  0  0  0  0  0  0  0  0  0  0  0
  144.1387  135.6362  151.8269 H   0  0  0  0  0  0  0  0  0  0  0  0
  145.7906  137.3323  151.1685 H   0  0  0  0  0  0  0  0  0  0  0  0
  145.4942  136.2609  149.8132 H   0  0  0  0  0  0  0  0  0  0  0  0
  146.9696  136.0897  150.7594 H   0  0  0  0  0  0  0  0  0  0  0  0
  143.0573  133.6361  150.8132 H   0  0  0  0  0  0  0  0  0  0  0  0
  143.9547  131.2634  149.8110 H   0  0  0  0  0  0  0  0  0  0  0  0
  146.7006  131.4500  150.1274 H   0  0  0  0  0  0  0  0  0  0  0  0
  147.7654  135.5191  152.8676 H   0  0  0  0  0  0  0  0  0  0  0  0
  1  2  1  0  0  0  0
  1 18  1  0  0  0  0
  1 19  1  0  0  0  0
  1 20  1  0  0  0  0
  2  3  1  0  0  0  0
  2 11  1  0  0  0  0
  2 21  1  0  0  0  0
  3  4  1  0  0  0  0
  3 22  1  0  0  0  0
  3 37  1  0  0  0  0
  4  5  1  0  0  0  0
  4 23  1  0  0  0  0
  4 24  1  0  0  0  0
  5  6  1  0  0  0  0
  5 25  1  0  0  0  0
  5 26  1  0  0  0  0
  6  7  1  0  0  0  0
  6 27  1  0  0  0  0
  6 28  1  0  0  0  0
  7  8  1  0  0  0  0
  7  9  2  0  0  0  0
  7 10  2  0  0  0  0
  8 29  1  0  0  0  0
 11 12  1  0  0  0  0
 11 13  1  0  0  0  0
 11 30  1  0  0  0  0
 12 31  1  0  0  0  0
 12 32  1  0  0  0  0
 12 33  1  0  0  0  0
 13 17  1  0  0  0  0
 13 14  1  0  0  0  0
 14 15  2  0  0  0  0
 14 34  1  0  0  0  0
 15 16  1  0  0  0  0
 15 35  1  0  0  0  0
 16 17  2  0  0  0  0
 16 36  1  0  0  0  0
M  CHG  1   3   1
M  CHG  1   8  -1
M  END
> <s_m_source_file>
AV-unprocessed.smi

> <i_m_source_file_index>
658

> <i_lp_mmshare_version>
43012

> <i_f3d_flags>
0

> <s_epik_input>
bjFbY0hdW2NIXVtjSF1uMVtDQEBIXShbQ0gzXSlbQ0BIXShbQ0gzXSlbTkhdW0NIMl1bQ0gyXVtDSDJdUyg9TykoPU8pW05IMl0=

> <s_epik_cmdline>
J2VwaWtfcHl0aG9uJywgJy1waCcsICc3LjAnLCAnLXRuJywgJzgnLCAnLW1hJywgJzIwMCcsICctbWV0YWxfYmluZGluZycsICctaW1hZScsICc8aW5maWxlLm1hZT4nLCAnLW9tYWUnLCAnPG91dGZpbGUubWFlPic=

> <r_lp_tautomer_probability>
1

> <r_epik_Ionization_Penalty>
4.63642

> <r_epik_Ionization_Penalty_Charging>
4.63641

> <r_epik_Ionization_Penalty_Neutral>
1.08396e-05

> <r_epik_State_Penalty>
4.63466

> <r_epik_Charging_Adjusted_Penalty>
9.27106

> <i_epik_Tot_Q>
0

> <i_epik_Tot_abs_Q>
2

> <r_epik_Metal_State_Penalty>
0.890424

> <b_epik_Metal_Only>
1

> <s_lp_Force_Field>
OPLS_2005

> <r_lp_Energy>
-1.73265

> <b_lp_Chiralities_Consistent>
1

> <s_lp_Variant>
AV-unprocessed.smi:658-7

> <Gold.Version>
5.8.1

> <Gold.Id.Protein>
6NUR|6NUR_protein|mol2

> <Gold.PLP.Fitness>
47.0232

> <Gold.PLP.PLP>
-27.7621

> <Gold.PLP.part.hbond>
-3.0000

> <Gold.PLP.part.metal>
0.0000

> <Gold.PLP.part.buried>
-4.0100

> <Gold.PLP.part.nonpolar>
-20.8924

> <Gold.PLP.part.repulsive>
0.1905

> <Gold.PLP.ligand.clash>
0.0000

> <Gold.PLP.ligand.torsion>
0.9252

> <Gold.PLP.Chemscore.Hbond>
4.9913

> <Gold.PLP.Chemscore.CHOScore>
2.0000

> <Gold.PLP.Chemscore.Metal>
0.0000

> <Gold.Chemscore.Hbonds>
donor molecule, donor type, donor heavy atom, donor atom, acceptor molecule, acceptor atom, score
      L1  H     3    37       P1  7948  2.00
      P1  H  6896  6909       L1     9  0.99
      P1  H 10752 10764       L1     8  2.00
      L1  C    14    34       P1 10186  1.00
      L1  C    16    36       P1 10747  1.00

> <Gold.PLP.Chemscore.Internal.Correction>
0.1377

> <Gold.Rescore>
     Score         DG    S(hbond)    S(metal)    S(lipo)     H(rot)  DE(clash)    DE(int)     intcor
     11.38     -13.68       2.73        0.00      58.73       3.04       0.01       2.30       ----

> <Gold.Chemscore.Fitness>
11.3750

> <Gold.Chemscore.DG>
-13.6843

> <Gold.Chemscore.ZeroCoef>
-5.4800

> <Gold.Chemscore.Hbond>
2.7299

> <Gold.Chemscore.Metal>
0.0000

> <Gold.Chemscore.Lipo>
58.7275

> <Gold.Chemscore.Internal_Hbond>
0.0000

> <Gold.Chemscore.DEClash>
0.0075

> <Gold.Chemscore.DEInternal>
2.3018

> <Gold.Chemscore.Rot>
3.0409

> <Gold.Chemscore.Internal.Correction>
   9.000000E+99

> <Gold.Chemscore.Hbonds>
donor molecule, donor type, donor heavy atom, donor atom, acceptor molecule, acceptor atom, score
      L1  H     3    37       P1  7948  0.97
      P1  H  6896  6909       L1     9  0.54
      P1  H 10752 10764       L1     8  0.90

> <Gold.Chemscore.Hbond.Weighted>
-9.1180

> <Gold.Chemscore.Metal.Weighted>
-0.0000

> <Gold.Chemscore.Lipo.Weighted>
-6.8711

> <Gold.Chemscore.Internal_Hbond.Weighted>
0.0000

> <Gold.Chemscore.DEClash.Weighted>
0.0075

> <Gold.Chemscore.DEInternal.Weighted>
2.3018

> <Gold.Chemscore.Rot.Weighted>
7.7848

> <Gold.Chemscore.Internal.Correction.Weighted>
   9.000000E+99

> <Gold.Protein.RotatedTorsions>
[ 6907 6896 6895 6894 ] final   10.80 input  -60.11 | X-H torsion
[ 7974 7965 7964 7962 ] final  169.69 input  175.53 | X-H torsion
[ 8008 7997 7996 7995 ] final   63.22 input   59.86 | X-H torsion
[ 10167 10162 10161 10158 ] final    2.57 input  -65.29 | X-H torsion
[ 10718 10713 10712 10709 ] final -177.50 input   66.30 | X-H torsion
[ 10763 10752 10751 10750 ] final   -9.93 input  -60.55 | X-H torsion
[ 11005 11000 10999 10996 ] final    2.08 input  -57.11 | X-H torsion

> <Gold.Protein.ActiveResidues>
 VAL166  LYS551  ARG553  GLY616  TRP617  ASP618  TYR619  PRO620  LYS621  CYS622 
 ASP623  PHE694  ASN695  SER759  ASP760  ASP761  ALA762  ILE779  LEU786  VAL792 
 PHE793  MET794  SER795  GLU796  ALA797  LYS798  CYS799  TRP800  GLU811  SER814 

> <Gold.Protein.RotatedAtoms>
  151.7441  135.0847  160.0320 H   0  0  0  0  0  0  0  0  0  0  0  0  # atno 6907 bound_to 6896
  152.3460  133.6118  159.5919 H   0  0  0  0  0  0  0  0  0  0  0  0  # atno 6908 bound_to 6896
  150.7509  133.9565  159.3543 H   0  0  0  0  0  0  0  0  0  0  0  0  # atno 6909 bound_to 6896
  144.7347  139.9092  143.6414 H   0  0  0  0  0  0  0  0  0  0  0  0  # atno 7974 bound_to 7965
  155.6267  140.3496  155.4669 H   0  0  0  0  0  0  0  0  0  0  0  0  # atno 8008 bound_to 7997
  156.0036  140.1218  157.0547 H   0  0  0  0  0  0  0  0  0  0  0  0  # atno 8009 bound_to 7997
  154.4257  140.1095  156.5717 H   0  0  0  0  0  0  0  0  0  0  0  0  # atno 8010 bound_to 7997
  140.6629  143.7257  150.7771 H   0  0  0  0  0  0  0  0  0  0  0  0  # atno 10167 bound_to 10162
  156.8303  130.9651  151.3107 H   0  0  0  0  0  0  0  0  0  0  0  0  # atno 10718 bound_to 10713
  153.4618  135.7016  153.6046 H   0  0  0  0  0  0  0  0  0  0  0  0  # atno 10763 bound_to 10752
  153.4337  135.3796  155.2186 H   0  0  0  0  0  0  0  0  0  0  0  0  # atno 10764 bound_to 10752
  154.8727  135.3957  154.4045 H   0  0  0  0  0  0  0  0  0  0  0  0  # atno 10765 bound_to 10752
  140.6083  133.9772  155.8165 H   0  0  0  0  0  0  0  0  0  0  0  0  # atno 11005 bound_to 11000
  146.1014  139.4010  143.0344 LP  0  0  0  0  0  0  0  0  0  0  0  0  # atno 17320 bound_to 7965
  145.7573  140.9949  143.1218 LP  0  0  0  0  0  0  0  0  0  0  0  0  # atno 17321 bound_to 7965
  140.0929  143.4860  152.2468 LP  0  0  0  0  0  0  0  0  0  0  0  0  # atno 17342 bound_to 10162
  139.5868  144.7534  151.3501 LP  0  0  0  0  0  0  0  0  0  0  0  0  # atno 17343 bound_to 10162
  157.6410  130.8805  149.9448 LP  0  0  0  0  0  0  0  0  0  0  0  0  # atno 17370 bound_to 10713
  156.0938  130.3661  150.0345 LP  0  0  0  0  0  0  0  0  0  0  0  0  # atno 17371 bound_to 10713
  141.0826  134.0040  157.3363 LP  0  0  0  0  0  0  0  0  0  0  0  0  # atno 17394 bound_to 11000
  139.9203  135.0200  156.8039 LP  0  0  0  0  0  0  0  0  0  0  0  0  # atno 17395 bound_to 11000

$$$$
