AV-unprocessed.smi:1033|AV-procd|sdf|4498|dock2
  -GOLD-   22720 2493D 1   1.00000     0.00000
 Structure written by MMmdl.
 57 59  0  0  0  0  0  0  0  0  3 V2000
  152.7445  142.2599  162.1241 C   0  0  0  0  0  0  0  0  0  0  0  0
  152.2519  141.9907  160.7123 C   0  0  0  0  0  0  0  0  0  0  0  0
  152.6551  140.7963  160.0738 C   0  0  0  0  0  0  0  0  0  0  0  0
  152.1887  140.5781  158.7831 C   0  0  0  0  0  0  0  0  0  0  0  0
  152.4046  139.5174  157.9013 N   0  3  0  0  0  0  0  0  0  0  0  0
  151.7346  139.7488  156.7389 C   0  0  0  0  0  0  0  0  0  0  0  0
  151.0946  140.9436  156.8634 N   0  0  0  0  0  0  0  0  0  0  0  0
  150.2329  141.6492  155.9029 C   0  0  0  0  0  0  0  0  0  0  0  0
  149.5233  140.6963  154.9209 C   0  0  2  0  0  0  0  0  0  0  0  0
  150.4552  140.2210  153.9688 O   0  0  0  0  0  0  0  0  0  0  0  0
  148.3715  141.4014  154.1763 C   0  0  0  0  0  0  0  0  0  0  0  0
  147.3254  141.9240  155.0924 N   0  3  0  0  0  0  0  0  0  0  0  0
  147.0627  141.0079  156.2323 C   0  0  0  0  0  0  0  0  0  0  0  0
  146.0284  141.6273  157.1944 C   0  0  0  0  0  0  0  0  0  0  0  0
  144.7647  141.9691  156.5424 N   0  0  0  0  0  0  0  0  0  0  0  0
  143.9682  140.7869  156.1926 C   0  0  0  0  0  0  0  0  0  0  0  0
  142.6412  141.0736  155.4625 C   0  0  2  0  0  0  0  0  0  0  0  0
  141.6877  141.9570  156.2801 C   0  0  0  0  0  0  0  0  0  0  0  0
  142.0003  139.8385  155.2243 O   0  0  0  0  0  0  0  0  0  0  0  0
  145.0493  142.8695  155.4221 C   0  0  0  0  0  0  0  0  0  0  0  0
  146.0553  142.2871  154.4083 C   0  0  0  0  0  0  0  0  0  0  0  0
  151.3479  141.4975  158.1252 C   0  0  0  0  0  0  0  0  0  0  0  0
  150.9416  142.6797  158.7410 C   0  0  0  0  0  0  0  0  0  0  0  0
  151.4061  142.9203  160.0540 C   0  0  0  0  0  0  0  0  0  0  0  0
  150.9810  144.2024  160.7496 C   0  0  0  0  0  0  0  0  0  0  0  0
  153.4095  141.4693  162.4727 H   0  0  0  0  0  0  0  0  0  0  0  0
  151.9046  142.3187  162.8168 H   0  0  0  0  0  0  0  0  0  0  0  0
  153.2953  143.1999  162.1667 H   0  0  0  0  0  0  0  0  0  0  0  0
  153.2990  140.0839  160.5689 H   0  0  0  0  0  0  0  0  0  0  0  0
  151.7142  139.0997  155.8753 H   0  0  0  0  0  0  0  0  0  0  0  0
  149.4918  142.1982  156.4852 H   0  0  0  0  0  0  0  0  0  0  0  0
  150.8197  142.4011  155.3746 H   0  0  0  0  0  0  0  0  0  0  0  0
  149.1470  139.8428  155.4841 H   0  0  0  0  0  0  0  0  0  0  0  0
  150.0159  140.1337  153.1361 H   0  0  0  0  0  0  0  0  0  0  0  0
  148.7541  142.2204  153.5654 H   0  0  0  0  0  0  0  0  0  0  0  0
  147.9236  140.6887  153.4817 H   0  0  0  0  0  0  0  0  0  0  0  0
  146.7218  140.0400  155.8624 H   0  0  0  0  0  0  0  0  0  0  0  0
  147.9910  140.8270  156.7754 H   0  0  0  0  0  0  0  0  0  0  0  0
  145.8440  140.9481  158.0277 H   0  0  0  0  0  0  0  0  0  0  0  0
  146.4545  142.5288  157.6370 H   0  0  0  0  0  0  0  0  0  0  0  0
  144.5629  140.1008  155.5899 H   0  0  0  0  0  0  0  0  0  0  0  0
  143.7321  140.2398  157.1066 H   0  0  0  0  0  0  0  0  0  0  0  0
  142.8237  141.5300  154.4903 H   0  0  0  0  0  0  0  0  0  0  0  0
  142.1213  142.9410  156.4605 H   0  0  0  0  0  0  0  0  0  0  0  0
  141.4637  141.5105  157.2497 H   0  0  0  0  0  0  0  0  0  0  0  0
  140.7432  142.1073  155.7561 H   0  0  0  0  0  0  0  0  0  0  0  0
  142.5303  139.3348  154.6251 H   0  0  0  0  0  0  0  0  0  0  0  0
  144.1288  143.1525  154.9137 H   0  0  0  0  0  0  0  0  0  0  0  0
  145.4555  143.8018  155.8171 H   0  0  0  0  0  0  0  0  0  0  0  0
  146.2435  143.0325  153.6369 H   0  0  0  0  0  0  0  0  0  0  0  0
  145.6381  141.4153  153.9029 H   0  0  0  0  0  0  0  0  0  0  0  0
  150.3011  143.3916  158.2421 H   0  0  0  0  0  0  0  0  0  0  0  0
  150.3092  144.7921  160.1253 H   0  0  0  0  0  0  0  0  0  0  0  0
  151.8504  144.8191  160.9786 H   0  0  0  0  0  0  0  0  0  0  0  0
  150.4591  143.9792  161.6806 H   0  0  0  0  0  0  0  0  0  0  0  0
  147.6967  142.7725  155.4962 H   0  0  0  0  0  0  0  0  0  0  0  0
  152.9654  138.6937  158.0785 H   0  0  0  0  0  0  0  0  0  0  0  0
  1  2  1  0  0  0  0
  1 26  1  0  0  0  0
  1 27  1  0  0  0  0
  1 28  1  0  0  0  0
  2 24  1  0  0  0  0
  2  3  2  0  0  0  0
  3  4  1  0  0  0  0
  3 29  1  0  0  0  0
  4 22  2  0  0  0  0
  4  5  1  0  0  0  0
  5  6  2  0  0  0  0
  5 57  1  0  0  0  0
  6  7  1  0  0  0  0
  6 30  1  0  0  0  0
  7  8  1  0  0  0  0
  7 22  1  0  0  0  0
  8  9  1  0  0  0  0
  8 31  1  0  0  0  0
  8 32  1  0  0  0  0
  9 10  1  0  0  0  0
  9 11  1  0  0  0  0
  9 33  1  0  0  0  0
 10 34  1  0  0  0  0
 11 12  1  0  0  0  0
 11 35  1  0  0  0  0
 11 36  1  0  0  0  0
 12 21  1  0  0  0  0
 12 13  1  0  0  0  0
 12 56  1  0  0  0  0
 13 14  1  0  0  0  0
 13 37  1  0  0  0  0
 13 38  1  0  0  0  0
 14 15  1  0  0  0  0
 14 39  1  0  0  0  0
 14 40  1  0  0  0  0
 15 16  1  0  0  0  0
 15 20  1  0  0  0  0
 16 17  1  0  0  0  0
 16 41  1  0  0  0  0
 16 42  1  0  0  0  0
 17 18  1  0  0  0  0
 17 19  1  0  0  0  0
 17 43  1  0  0  0  0
 18 44  1  0  0  0  0
 18 45  1  0  0  0  0
 18 46  1  0  0  0  0
 19 47  1  0  0  0  0
 20 21  1  0  0  0  0
 20 48  1  0  0  0  0
 20 49  1  0  0  0  0
 21 50  1  0  0  0  0
 21 51  1  0  0  0  0
 22 23  1  0  0  0  0
 23 24  2  0  0  0  0
 23 52  1  0  0  0  0
 24 25  1  0  0  0  0
 25 53  1  0  0  0  0
 25 54  1  0  0  0  0
 25 55  1  0  0  0  0
M  CHG  1   5   1
M  CHG  1  12   1
M  END
> <s_m_source_file>
AV-unprocessed.smi

> <i_m_source_file_index>
1033

> <i_lp_mmshare_version>
43012

> <i_f3d_flags>
0

> <s_epik_input>
W0NIM11jKFtjSF0xKWMoW0NIM10pW2NIXWMoYzEyKW4oW2NIXW4yKVtDSDJdW0NASF0oW09IXSlbQ0gyXU4zW0NIMl1bQ0gyXU4oW0NIMl1bQ0gyXTMpW0NIMl1bQ0BIXShbQ0gzXSlbT0hd

> <s_epik_cmdline>
J2VwaWtfcHl0aG9uJywgJy1waCcsICc3LjAnLCAnLXRuJywgJzgnLCAnLW1hJywgJzIwMCcsICctbWV0YWxfYmluZGluZycsICctaW1hZScsICc8aW5maWxlLm1hZT4nLCAnLW9tYWUnLCAnPG91dGZpbGUubWFlPic=

> <r_epik_Ionization_Penalty>
1.22049

> <r_epik_Ionization_Penalty_Charging>
1.17952

> <r_epik_Ionization_Penalty_Neutral>
0.0409743

> <r_epik_State_Penalty>
1.61468

> <r_epik_Charging_Adjusted_Penalty>
2.7942

> <i_epik_Tot_Q>
2

> <i_epik_Tot_abs_Q>
2

> <r_epik_Metal_State_Penalty>
5.63169

> <b_epik_Metal_Only>
0

> <s_lp_Force_Field>
OPLS_2005

> <r_lp_Energy>
42.2447

> <b_lp_Chiralities_Consistent>
1

> <s_lp_Variant>
AV-unprocessed.smi:1033-9

> <Gold.Version>
5.8.1

> <Gold.Id.Protein>
6NUR|6NUR_protein|mol2

> <Gold.PLP.Fitness>
59.8843

> <Gold.PLP.PLP>
-49.0325

> <Gold.PLP.part.hbond>
-3.2875

> <Gold.PLP.part.metal>
0.0000

> <Gold.PLP.part.buried>
-5.1679

> <Gold.PLP.part.nonpolar>
-39.5104

> <Gold.PLP.part.repulsive>
0.3025

> <Gold.PLP.ligand.clash>
0.0000

> <Gold.PLP.ligand.torsion>
0.6417

> <Gold.PLP.Chemscore.Hbond>
4.0000

> <Gold.PLP.Chemscore.CHOScore>
0.0000

> <Gold.PLP.Chemscore.Metal>
0.0000

> <Gold.Chemscore.Hbonds>
donor molecule, donor type, donor heavy atom, donor atom, acceptor molecule, acceptor atom, score
      L1  H    10    34       P1  7957  1.00
      L1  H    12    56       P1  8028  0.85
      P1  H  7989  7998       L1    10  0.56

> <Gold.PLP.Chemscore.Internal.Correction>
0.1351

> <Gold.Rescore>
     Score         DG    S(hbond)    S(metal)    S(lipo)     H(rot)  DE(clash)    DE(int)     intcor
     18.65     -19.34       2.34        0.00     120.50       3.15       0.07       0.62       ----

> <Gold.Chemscore.Fitness>
18.6502

> <Gold.Chemscore.DG>
-19.3417

> <Gold.Chemscore.ZeroCoef>
-5.4800

> <Gold.Chemscore.Hbond>
2.3420

> <Gold.Chemscore.Metal>
0.0000

> <Gold.Chemscore.Lipo>
120.5041

> <Gold.Chemscore.Internal_Hbond>
0.0000

> <Gold.Chemscore.DEClash>
0.0696

> <Gold.Chemscore.DEInternal>
0.6219

> <Gold.Chemscore.Rot>
3.1483

> <Gold.Chemscore.Internal.Correction>
   9.000000E+99

> <Gold.Chemscore.Hbonds>
donor molecule, donor type, donor heavy atom, donor atom, acceptor molecule, acceptor atom, score
      L1  H    10    34       P1  7957  0.95
      L1  H    12    56       P1  8028  0.28
      P1  H  7989  7998       L1    10  0.08

> <Gold.Chemscore.Hbond.Weighted>
-7.8224

> <Gold.Chemscore.Metal.Weighted>
-0.0000

> <Gold.Chemscore.Lipo.Weighted>
-14.0990

> <Gold.Chemscore.Internal_Hbond.Weighted>
0.0000

> <Gold.Chemscore.DEClash.Weighted>
0.0696

> <Gold.Chemscore.DEInternal.Weighted>
0.6219

> <Gold.Chemscore.Rot.Weighted>
8.0597

> <Gold.Chemscore.Internal.Correction.Weighted>
   9.000000E+99

> <Gold.Protein.RotatedTorsions>
[ 6907 6896 6895 6894 ] final   -0.20 input  -60.11 | X-H torsion
[ 7974 7965 7964 7962 ] final  -99.21 input  175.53 | X-H torsion
[ 8008 7997 7996 7995 ] final  -63.26 input   59.86 | X-H torsion
[ 10167 10162 10161 10158 ] final  -35.58 input  -65.29 | X-H torsion
[ 10718 10713 10712 10709 ] final  -49.46 input   66.30 | X-H torsion
[ 10763 10752 10751 10750 ] final -141.79 input  -60.55 | X-H torsion
[ 11005 11000 10999 10996 ] final   93.42 input  -57.11 | X-H torsion

> <Gold.Protein.ActiveResidues>
 VAL166  LYS551  ARG553  GLY616  TRP617  ASP618  TYR619  PRO620  LYS621  CYS622 
 ASP623  PHE694  ASN695  SER759  ASP760  ASP761  ALA762  ILE779  LEU786  VAL792 
 PHE793  MET794  SER795  GLU796  ALA797  LYS798  CYS799  TRP800  GLU811  SER814 

> <Gold.Protein.RotatedAtoms>
  151.5661  135.1064  159.9983 H   0  0  0  0  0  0  0  0  0  0  0  0  # atno 6907 bound_to 6896
  152.4423  133.7467  159.6682 H   0  0  0  0  0  0  0  0  0  0  0  0  # atno 6908 bound_to 6896
  150.8331  133.7989  159.3114 H   0  0  0  0  0  0  0  0  0  0  0  0  # atno 6909 bound_to 6896
  145.3105  140.9399  143.2772 H   0  0  0  0  0  0  0  0  0  0  0  0  # atno 7974 bound_to 7965
  154.4544  140.0978  156.6714 H   0  0  0  0  0  0  0  0  0  0  0  0  # atno 8008 bound_to 7997
  155.5183  140.3478  155.4383 H   0  0  0  0  0  0  0  0  0  0  0  0  # atno 8009 bound_to 7997
  156.0748  140.1358  156.9774 H   0  0  0  0  0  0  0  0  0  0  0  0  # atno 8010 bound_to 7997
  140.7162  143.3467  151.2241 H   0  0  0  0  0  0  0  0  0  0  0  0  # atno 10167 bound_to 10162
  156.1891  130.4152  149.9397 H   0  0  0  0  0  0  0  0  0  0  0  0  # atno 10718 bound_to 10713
  154.8533  135.3514  154.5924 H   0  0  0  0  0  0  0  0  0  0  0  0  # atno 10763 bound_to 10752
  153.6533  135.6993  153.5206 H   0  0  0  0  0  0  0  0  0  0  0  0  # atno 10764 bound_to 10752
  153.2876  135.4244  155.1095 H   0  0  0  0  0  0  0  0  0  0  0  0  # atno 10765 bound_to 10752
  139.8810  134.8789  156.3716 H   0  0  0  0  0  0  0  0  0  0  0  0  # atno 11005 bound_to 11000
  144.9020  139.4637  143.6628 LP  0  0  0  0  0  0  0  0  0  0  0  0  # atno 17320 bound_to 7965
  146.3120  139.7779  142.9013 LP  0  0  0  0  0  0  0  0  0  0  0  0  # atno 17321 bound_to 7965
  139.6988  143.9567  152.2896 LP  0  0  0  0  0  0  0  0  0  0  0  0  # atno 17342 bound_to 10162
  139.9253  144.6774  150.8418 LP  0  0  0  0  0  0  0  0  0  0  0  0  # atno 17343 bound_to 10162
  156.7143  130.8982  151.3612 LP  0  0  0  0  0  0  0  0  0  0  0  0  # atno 17370 bound_to 10713
  157.6917  130.9241  150.0533 LP  0  0  0  0  0  0  0  0  0  0  0  0  # atno 17371 bound_to 10713
  140.9460  133.7482  156.0209 LP  0  0  0  0  0  0  0  0  0  0  0  0  # atno 17394 bound_to 11000
  140.8162  134.3342  157.5396 LP  0  0  0  0  0  0  0  0  0  0  0  0  # atno 17395 bound_to 11000

$$$$
