AV-unprocessed.smi:657|AV-procd|sdf|3220|dock10
  -GOLD-   22720 0163D 1   1.00000     0.00000
 Structure written by MMmdl.
 47 48  0  0  0  0  0  0  0  0  2 V2000
  144.0764  136.4794  152.8040 C   0  0  0  0  0  0  0  0  0  0  0  0
  145.6098  136.4780  152.6421 C   0  0  0  0  0  0  0  0  0  0  0  0
  146.0798  137.5964  151.6958 C   0  0  0  0  0  0  0  0  0  0  0  0
  146.1742  135.1440  152.2419 N   0  3  2  0  0  0  0  0  0  0  0  0
  145.6058  134.6313  150.9592 C   0  0  0  0  0  0  0  0  0  0  0  0
  146.3298  133.3717  150.4681 C   0  0  0  0  0  0  0  0  0  0  0  0
  146.2446  132.2709  151.5246 C   0  0  0  0  0  0  0  0  0  0  0  0
  146.8419  132.7870  152.8345 C   0  0  0  0  0  0  0  0  0  0  0  0
  146.1693  134.0961  153.3193 C   0  0  1  0  0  0  0  0  0  0  0  0
  146.9069  134.5260  154.5987 C   0  0  0  0  0  0  0  0  0  0  0  0
  146.4275  134.2795  155.7059 O   0  0  0  0  0  0  0  0  0  0  0  0
  148.0512  135.2034  154.4247 N   0  0  0  0  0  0  0  0  0  0  0  0
  148.8503  135.7953  155.4935 C   0  0  0  0  0  0  0  0  0  0  0  0
  150.2810  136.1487  155.0374 C   0  0  0  0  0  0  0  0  0  0  0  0
  150.5446  137.6326  155.0402 C   0  0  0  0  0  0  0  0  0  0  0  0
  150.3020  138.5703  153.9959 C   0  0  0  0  0  0  0  0  0  0  0  0
  150.6121  139.8104  154.3364 N   0  0  0  0  0  0  0  0  0  0  0  0
  151.0695  139.7076  155.6011 N   0  0  0  0  0  0  0  0  0  0  0  0
  151.5020  140.8972  156.3027 C   0  0  0  0  0  0  0  0  0  0  0  0
  151.0475  138.4048  156.0490 C   0  0  0  0  0  0  0  0  0  0  0  0
  143.7349  137.4377  153.1965 H   0  0  0  0  0  0  0  0  0  0  0  0
  143.7413  135.7111  153.5004 H   0  0  0  0  0  0  0  0  0  0  0  0
  143.5623  136.3246  151.8553 H   0  0  0  0  0  0  0  0  0  0  0  0
  146.0188  136.7605  153.6103 H   0  0  0  0  0  0  0  0  0  0  0  0
  145.8058  138.5749  152.0917 H   0  0  0  0  0  0  0  0  0  0  0  0
  145.6339  137.5184  150.7047 H   0  0  0  0  0  0  0  0  0  0  0  0
  147.1641  137.5849  151.5804 H   0  0  0  0  0  0  0  0  0  0  0  0
  144.5476  134.4000  151.0867 H   0  0  0  0  0  0  0  0  0  0  0  0
  145.6713  135.3889  150.1799 H   0  0  0  0  0  0  0  0  0  0  0  0
  145.8838  133.0252  149.5353 H   0  0  0  0  0  0  0  0  0  0  0  0
  147.3731  133.6023  150.2487 H   0  0  0  0  0  0  0  0  0  0  0  0
  145.2062  131.9737  151.6771 H   0  0  0  0  0  0  0  0  0  0  0  0
  146.7812  131.3827  151.1897 H   0  0  0  0  0  0  0  0  0  0  0  0
  146.7510  132.0117  153.5970 H   0  0  0  0  0  0  0  0  0  0  0  0
  147.9123  132.9471  152.6907 H   0  0  0  0  0  0  0  0  0  0  0  0
  145.1305  133.8763  153.5704 H   0  0  0  0  0  0  0  0  0  0  0  0
  148.3673  135.3685  153.4798 H   0  0  0  0  0  0  0  0  0  0  0  0
  148.3504  136.6711  155.9099 H   0  0  0  0  0  0  0  0  0  0  0  0
  148.9014  135.0596  156.2965 H   0  0  0  0  0  0  0  0  0  0  0  0
  150.9920  135.6412  155.6903 H   0  0  0  0  0  0  0  0  0  0  0  0
  150.4514  135.7291  154.0457 H   0  0  0  0  0  0  0  0  0  0  0  0
  149.8982  138.3882  153.0109 H   0  0  0  0  0  0  0  0  0  0  0  0
  151.7281  140.6567  157.3417 H   0  0  0  0  0  0  0  0  0  0  0  0
  150.7135  141.6500  156.2776 H   0  0  0  0  0  0  0  0  0  0  0  0
  152.3973  141.2991  155.8278 H   0  0  0  0  0  0  0  0  0  0  0  0
  151.3749  138.1380  157.0431 H   0  0  0  0  0  0  0  0  0  0  0  0
  147.1526  135.3177  152.0605 H   0  0  0  0  0  0  0  0  0  0  0  0
  1  2  1  0  0  0  0
  1 21  1  0  0  0  0
  1 22  1  0  0  0  0
  1 23  1  0  0  0  0
  2  3  1  0  0  0  0
  2  4  1  0  0  0  0
  2 24  1  0  0  0  0
  3 25  1  0  0  0  0
  3 26  1  0  0  0  0
  3 27  1  0  0  0  0
  4  9  1  0  0  0  0
  4  5  1  0  0  0  0
  4 47  1  0  0  0  0
  5  6  1  0  0  0  0
  5 28  1  0  0  0  0
  5 29  1  0  0  0  0
  6  7  1  0  0  0  0
  6 30  1  0  0  0  0
  6 31  1  0  0  0  0
  7  8  1  0  0  0  0
  7 32  1  0  0  0  0
  7 33  1  0  0  0  0
  8  9  1  0  0  0  0
  8 34  1  0  0  0  0
  8 35  1  0  0  0  0
  9 10  1  0  0  0  0
  9 36  1  0  0  0  0
 10 11  2  0  0  0  0
 10 12  1  0  0  0  0
 12 13  1  0  0  0  0
 12 37  1  0  0  0  0
 13 14  1  0  0  0  0
 13 38  1  0  0  0  0
 13 39  1  0  0  0  0
 14 15  1  0  0  0  0
 14 40  1  0  0  0  0
 14 41  1  0  0  0  0
 15 20  2  0  0  0  0
 15 16  1  0  0  0  0
 16 17  2  0  0  0  0
 16 42  1  0  0  0  0
 17 18  1  0  0  0  0
 18 19  1  0  0  0  0
 18 20  1  0  0  0  0
 19 43  1  0  0  0  0
 19 44  1  0  0  0  0
 19 45  1  0  0  0  0
 20 46  1  0  0  0  0
M  CHG  1   4   1
M  END
> <s_m_source_file>
AV-unprocessed.smi

> <i_m_source_file_index>
657

> <i_lp_mmshare_version>
43012

> <i_f3d_flags>
0

> <s_epik_input>
W0NIM11bQ0hdKFtDSDNdKU4xW0NIMl1bQ0gyXVtDSDJdW0NIMl1bQ0BIXTFDKD1PKVtOSF1bQ0gyXVtDSDJdYzJbY0hdbm4oW0NIM10pW2NIXTI=

> <s_epik_cmdline>
J2VwaWtfcHl0aG9uJywgJy1waCcsICc3LjAnLCAnLXRuJywgJzgnLCAnLW1hJywgJzIwMCcsICctbWV0YWxfYmluZGluZycsICctaW1hZScsICc8aW5maWxlLm1hZT4nLCAnLW9tYWUnLCAnPG91dGZpbGUubWFlPic=

> <r_lp_tautomer_probability>
1

> <r_epik_Ionization_Penalty>
0.0244317

> <r_epik_Ionization_Penalty_Charging>
0.0240236

> <r_epik_Ionization_Penalty_Neutral>
0.00040815

> <r_epik_State_Penalty>
0.0194773

> <r_epik_Charging_Adjusted_Penalty>
0.0435009

> <i_epik_Tot_Q>
1

> <i_epik_Tot_abs_Q>
1

> <r_epik_Metal_State_Penalty>
0.0361957

> <b_epik_Metal_Only>
0

> <s_lp_Force_Field>
OPLS_2005

> <r_lp_Energy>
17.8505

> <b_lp_Chiralities_Consistent>
1

> <s_lp_Variant>
AV-unprocessed.smi:657-1

> <Gold.Version>
5.8.1

> <Gold.Id.Protein>
6NUR|6NUR_protein|mol2

> <Gold.PLP.Fitness>
44.2892

> <Gold.PLP.PLP>
-29.4052

> <Gold.PLP.part.hbond>
-3.0000

> <Gold.PLP.part.metal>
0.0000

> <Gold.PLP.part.buried>
-2.4682

> <Gold.PLP.part.nonpolar>
-25.1602

> <Gold.PLP.part.repulsive>
0.1564

> <Gold.PLP.ligand.clash>
0.0000

> <Gold.PLP.ligand.torsion>
1.5535

> <Gold.PLP.Chemscore.Hbond>
4.0000

> <Gold.PLP.Chemscore.CHOScore>
1.9547

> <Gold.PLP.Chemscore.Metal>
0.0000

> <Gold.Chemscore.Hbonds>
donor molecule, donor type, donor heavy atom, donor atom, acceptor molecule, acceptor atom, score
      L1  H     4    47       P1  7948  2.00
      L1  H    12    37       P1  7948  1.00
      P1  H  7989  7998       L1    17  1.00
      L1  C    16    42       P1  7948  0.90
      L1  C    16    42       P1  7957  0.96

> <Gold.PLP.Chemscore.Internal.Correction>
0.1270

> <Gold.Rescore>
     Score         DG    S(hbond)    S(metal)    S(lipo)     H(rot)  DE(clash)    DE(int)     intcor
     18.64     -20.50       2.97        0.00      79.29       1.63       0.24       1.61       ----

> <Gold.Chemscore.Fitness>
18.6417

> <Gold.Chemscore.DG>
-20.4996

> <Gold.Chemscore.ZeroCoef>
-5.4800

> <Gold.Chemscore.Hbond>
2.9671

> <Gold.Chemscore.Metal>
0.0000

> <Gold.Chemscore.Lipo>
79.2898

> <Gold.Chemscore.Internal_Hbond>
0.0000

> <Gold.Chemscore.DEClash>
0.2442

> <Gold.Chemscore.DEInternal>
1.6137

> <Gold.Chemscore.Rot>
1.6279

> <Gold.Chemscore.Internal.Correction>
   9.000000E+99

> <Gold.Chemscore.Hbonds>
donor molecule, donor type, donor heavy atom, donor atom, acceptor molecule, acceptor atom, score
      L1  H     4    47       P1  7948  0.97
      L1  H    12    37       P1  7948  0.99
      P1  H  7989  7998       L1    17  0.70

> <Gold.Chemscore.Hbond.Weighted>
-9.9100

> <Gold.Chemscore.Metal.Weighted>
-0.0000

> <Gold.Chemscore.Lipo.Weighted>
-9.2769

> <Gold.Chemscore.Internal_Hbond.Weighted>
0.0000

> <Gold.Chemscore.DEClash.Weighted>
0.2442

> <Gold.Chemscore.DEInternal.Weighted>
1.6137

> <Gold.Chemscore.Rot.Weighted>
4.1673

> <Gold.Chemscore.Internal.Correction.Weighted>
   9.000000E+99

> <Gold.Protein.RotatedTorsions>
[ 6907 6896 6895 6894 ] final   13.76 input  -60.11 | X-H torsion
[ 7974 7965 7964 7962 ] final -106.10 input  175.53 | X-H torsion
[ 8008 7997 7996 7995 ] final   69.40 input   59.86 | X-H torsion
[ 10167 10162 10161 10158 ] final  175.72 input  -65.29 | X-H torsion
[ 10718 10713 10712 10709 ] final -109.82 input   66.30 | X-H torsion
[ 10763 10752 10751 10750 ] final -163.04 input  -60.55 | X-H torsion
[ 11005 11000 10999 10996 ] final   52.94 input  -57.11 | X-H torsion

> <Gold.Protein.ActiveResidues>
 VAL166  LYS551  ARG553  GLY616  TRP617  ASP618  TYR619  PRO620  LYS621  CYS622 
 ASP623  PHE694  ASN695  SER759  ASP760  ASP761  ALA762  ILE779  LEU786  VAL792 
 PHE793  MET794  SER795  GLU796  ALA797  LYS798  CYS799  TRP800  GLU811  SER814 

> <Gold.Protein.RotatedAtoms>
  151.7914  135.0734  160.0387 H   0  0  0  0  0  0  0  0  0  0  0  0  # atno 6907 bound_to 6896
  152.3153  133.5792  159.5717 H   0  0  0  0  0  0  0  0  0  0  0  0  # atno 6908 bound_to 6896
  150.7341  134.0007  159.3679 H   0  0  0  0  0  0  0  0  0  0  0  0  # atno 6909 bound_to 6896
  145.2221  140.9138  143.3253 H   0  0  0  0  0  0  0  0  0  0  0  0  # atno 7974 bound_to 7965
  155.7230  140.3493  155.5024 H   0  0  0  0  0  0  0  0  0  0  0  0  # atno 8008 bound_to 7997
  155.9252  140.1074  157.1197 H   0  0  0  0  0  0  0  0  0  0  0  0  # atno 8009 bound_to 7997
  154.4076  140.1242  156.4718 H   0  0  0  0  0  0  0  0  0  0  0  0  # atno 8010 bound_to 7997
  139.5188  144.2998  152.0388 H   0  0  0  0  0  0  0  0  0  0  0  0  # atno 10167 bound_to 10162
  156.0557  130.5783  150.8152 H   0  0  0  0  0  0  0  0  0  0  0  0  # atno 10718 bound_to 10713
  154.7159  135.3015  154.9125 H   0  0  0  0  0  0  0  0  0  0  0  0  # atno 10763 bound_to 10752
  154.0012  135.6706  153.4763 H   0  0  0  0  0  0  0  0  0  0  0  0  # atno 10764 bound_to 10752
  153.0793  135.5018  154.8385 H   0  0  0  0  0  0  0  0  0  0  0  0  # atno 10765 bound_to 10752
  140.0808  134.5341  155.8949 H   0  0  0  0  0  0  0  0  0  0  0  0  # atno 11005 bound_to 11000
  144.9755  139.3836  143.6287 LP  0  0  0  0  0  0  0  0  0  0  0  0  # atno 17320 bound_to 7965
  146.3373  139.8873  142.8814 LP  0  0  0  0  0  0  0  0  0  0  0  0  # atno 17321 bound_to 7965
  140.2446  144.4233  150.6246 LP  0  0  0  0  0  0  0  0  0  0  0  0  # atno 17342 bound_to 10162
  140.6267  143.2182  151.6582 LP  0  0  0  0  0  0  0  0  0  0  0  0  # atno 17343 bound_to 10162
  157.5524  131.0944  150.9676 LP  0  0  0  0  0  0  0  0  0  0  0  0  # atno 17370 bound_to 10713
  156.9932  130.5571  149.5305 LP  0  0  0  0  0  0  0  0  0  0  0  0  # atno 17371 bound_to 10713
  141.2046  133.6640  156.6130 LP  0  0  0  0  0  0  0  0  0  0  0  0  # atno 17394 bound_to 11000
  140.3491  134.7784  157.4453 LP  0  0  0  0  0  0  0  0  0  0  0  0  # atno 17395 bound_to 11000

$$$$
