#       Name:                AV-unprocessed.smi:2279
#       Creating user name   scv26
#       Creation time:       Fri Mar 27 12:40:40 2020


#       File generated by GOLD software.
#

@<TRIPOS>MOLECULE
AV-unprocessed.smi:2279
    61    63     1
SMALL
NO_CHARGES


@<TRIPOS>ATOM
      1 ****        -7.0109   3.6953  -0.2565 C.3            1 S1                 0.0000
      2 ****        -6.3739   2.3632  -0.5930 C.ar           1 S1                 0.0000
      3 ****        -7.1633   1.2165  -0.8041 C.ar           1 S1                 0.0000
      4 ****        -6.5097   0.0081  -1.1148 C.ar           1 S1                 0.0000
      5 ****        -7.2961  -1.2637  -1.3527 C.3            1 S1                 0.0000
      6 ****        -5.1675  -0.0992  -1.2134 N.ar           1 S1                 0.0000
      7 ****        -4.3969   0.9979  -1.0102 C.ar           1 S1                 0.0000
      8 ****        -2.9781   0.9877  -1.0823 N.am           1 S1                 0.0000
      9 ****        -2.1692  -0.0543  -1.3442 C.2            1 S1                 0.0000
     10 ****        -2.5422  -1.1965  -1.6134 O.2            1 S1                 0.0000
     11 ****        -0.8769   0.2994  -1.2748 N.am           1 S1                 0.0000
     12 ****         0.2490  -0.6038  -1.4964 C.3            1 S1                 0.0000
     13 ****         0.4762  -1.5160  -0.2730 C.3            1 S1                 0.0000
     14 ****         1.7448  -2.3708  -0.4498 C.3            1 S1                 0.0000
     15 ****         2.9521  -1.5260  -0.6755 N.4            1 S1                 1.0000
     16 ****         3.4393  -0.7620   0.5230 C.3            1 S1                 0.0000
     17 ****         4.7866  -0.0520   0.2487 C.3            1 S1                 0.0000
     18 ****         5.3484   0.6353   1.5046 C.3            1 S1                 0.0000
     19 ****         5.5391  -0.3438   2.5706 N.3            1 S1                 0.0000
     20 ****         6.1373   0.3123   3.7248 C.3            1 S1                 0.0000
     21 ****         4.2460  -0.9048   2.9506 C.3            1 S1                 0.0000
     22 ****         3.6308  -1.6664   1.7646 C.3            1 S1                 0.0000
     23 ****         2.7555  -0.7112  -1.9093 C.3            1 S1                 0.0000
     24 ****         1.5214   0.2070  -1.8037 C.3            1 S1                 0.0000
     25 ****        -4.9730   2.2499  -0.6988 C.ar           1 S1                 0.0000
     26 ****        -8.0978   3.6173  -0.2176 H              1 S1                 0.0000
     27 ****        -6.7492   4.4397  -1.0088 H              1 S1                 0.0000
     28 ****        -6.6591   4.0480   0.7133 H              1 S1                 0.0000
     29 ****        -8.2402   1.2615  -0.7300 H              1 S1                 0.0000
     30 ****        -8.3599  -1.0542  -1.4682 H              1 S1                 0.0000
     31 ****        -7.1706  -1.9471  -0.5125 H              1 S1                 0.0000
     32 ****        -6.9495  -1.7644  -2.2575 H              1 S1                 0.0000
     33 ****        -2.5288   1.8711  -0.8927 H              1 S1                 0.0000
     34 ****        -0.6568   1.2596  -1.0533 H              1 S1                 0.0000
     35 ****         0.0312  -1.2292  -2.3646 H              1 S1                 0.0000
     36 ****         0.5510  -0.9180   0.6360 H              1 S1                 0.0000
     37 ****        -0.3822  -2.1736  -0.1321 H              1 S1                 0.0000
     38 ****         1.8729  -3.0599   0.3826 H              1 S1                 0.0000
     39 ****         1.6150  -3.0156  -1.3202 H              1 S1                 0.0000
     40 ****         2.7035  -0.0002   0.7807 H              1 S1                 0.0000
     41 ****         5.5165  -0.7681  -0.1323 H              1 S1                 0.0000
     42 ****         4.6754   0.7180  -0.5129 H              1 S1                 0.0000
     43 ****         6.3050   1.1013   1.2638 H              1 S1                 0.0000
     44 ****         4.6785   1.4313   1.8347 H              1 S1                 0.0000
     45 ****         6.2922  -0.4023   4.5340 H              1 S1                 0.0000
     46 ****         5.5049   1.1193   4.0979 H              1 S1                 0.0000
     47 ****         7.1096   0.7324   3.4648 H              1 S1                 0.0000
     48 ****         4.3789  -1.5892   3.7896 H              1 S1                 0.0000
     49 ****         3.5722  -0.1144   3.2862 H              1 S1                 0.0000
     50 ****         2.6769  -2.0667   2.1058 H              1 S1                 0.0000
     51 ****         4.2612  -2.5208   1.5131 H              1 S1                 0.0000
     52 ****         3.6433  -0.1395  -2.1702 H              1 S1                 0.0000
     53 ****         2.6135  -1.3957  -2.7470 H              1 S1                 0.0000
     54 ****         1.3926   0.7527  -2.7393 H              1 S1                 0.0000
     55 ****         1.6835   0.9628  -1.0345 H              1 S1                 0.0000
     56 ****        -4.3485   3.1171  -0.5390 H              1 S1                 0.0000
     57 ****         3.6978  -2.1729  -0.8900 H              1 S1                 0.0000
     58 ****        -4.7460  -0.9788  -1.4340 LP             1 S1                 0.0000
     59 ****        -3.5189  -1.4079  -1.6503 LP             1 S1                 0.0000
     60 ****        -1.8684  -1.9128  -1.7951 LP             1 S1                 0.0000
     61 ****         6.1405  -1.0757   2.2501 LP             1 S1                 0.0000
@<TRIPOS>BOND
    1    1    2 1     
    2    1   26 1     
    3    1   27 1     
    4    1   28 1     
    5    2   25 ar    
    6    2    3 ar    
    7    3    4 ar    
    8    3   29 1     
    9    4    5 1     
   10    4    6 ar    
   11    5   30 1     
   12    5   31 1     
   13    5   32 1     
   14    6    7 ar    
   15    7    8 1     
   16    7   25 ar    
   17    8    9 am    
   18    8   33 1     
   19    9   10 2     
   20    9   11 am    
   21   11   12 1     
   22   11   34 1     
   23   12   24 1     
   24   12   13 1     
   25   12   35 1     
   26   13   14 1     
   27   13   36 1     
   28   13   37 1     
   29   14   15 1     
   30   14   38 1     
   31   14   39 1     
   32   15   16 1     
   33   15   23 1     
   34   15   57 1     
   35   16   22 1     
   36   16   17 1     
   37   16   40 1     
   38   17   18 1     
   39   17   41 1     
   40   17   42 1     
   41   18   19 1     
   42   18   43 1     
   43   18   44 1     
   44   19   20 1     
   45   19   21 1     
   46   20   45 1     
   47   20   46 1     
   48   20   47 1     
   49   21   22 1     
   50   21   48 1     
   51   21   49 1     
   52   22   50 1     
   53   22   51 1     
   54   23   24 1     
   55   23   52 1     
   56   23   53 1     
   57   24   54 1     
   58   24   55 1     
   59   25   56 1     
   60    6   58 1     
   61   10   59 1     
   62   10   60 1     
   63   19   61 1     
@<TRIPOS>SUBSTRUCTURE
      1 S1             1
@<TRIPOS>SET
LONE_PAIRS      STATIC     ATOMS    <user>   **** ""
4 58 59 60 61
DONOR_HYDROGENS      STATIC     ATOMS    <user>   **** ""
3 33 34 57
ATOM$BLUE        STATIC     ATOMS    COLORGROUP SYSTEM
4 58 59 60 61
ATOM$RED        STATIC     ATOMS    COLORGROUP SYSTEM
3 33 34 57
