AV-unprocessed.smi:255|AV-procd|sdf|1949|dock4
  -GOLD-   2262021 83D 1   1.00000     0.00000
 Structure written by MMmdl.
 44 47  0  0  0  0  0  0  0  0  1 V2000
  151.6692  145.5253  159.3679 O   0  0  0  0  0  0  0  0  0  0  0  0
  152.1831  144.3914  158.7017 C   0  0  0  0  0  0  0  0  0  0  0  0
  151.8751  143.1092  159.4982 C   0  0  2  0  0  0  0  0  0  0  0  0
  152.4802  143.1154  160.9026 C   0  0  0  0  0  0  0  0  0  0  0  0
  152.4509  141.6336  161.2571 C   0  0  2  0  0  0  0  0  0  0  0  0
  153.3287  141.3176  162.2087 F   0  0  0  0  0  0  0  0  0  0  0  0
  152.7492  140.9399  159.9252 C   0  0  0  0  0  0  0  0  0  0  0  0
  152.4333  141.9091  158.8775 N   0  0  0  0  0  0  0  0  0  0  0  0
  151.7242  141.4274  157.8327 C   0  0  0  0  0  0  0  0  0  0  0  0
  150.6875  142.1428  157.3220 N   0  0  0  0  0  0  0  0  0  0  0  0
  150.0024  141.6688  156.2767 C   0  0  0  0  0  0  0  0  0  0  0  0
  150.1848  140.5287  155.6060 N   0  0  0  0  0  0  0  0  0  0  0  0
  151.2268  139.8122  156.1184 C   0  0  0  0  0  0  0  0  0  0  0  0
  152.0443  140.1887  157.2198 C   0  0  0  0  0  0  0  0  0  0  0  0
  153.0124  139.2204  157.4512 N   0  0  0  0  0  0  0  0  0  0  0  0
  152.7759  138.3158  156.5401 C   0  0  0  0  0  0  0  0  0  0  0  0
  151.7172  138.5870  155.7017 N   0  0  0  0  0  0  0  0  0  0  0  0
  151.2363  137.7539  154.6104 C   0  0  0  0  0  0  0  0  0  0  0  0
  150.3513  136.5769  155.0825 C   0  0  1  0  0  0  0  0  0  0  0  0
  149.1468  136.5794  154.3353 O   0  0  0  0  0  0  0  0  0  0  0  0
  151.0070  135.2059  154.9423 C   0  0  0  0  0  0  0  0  0  0  0  0
  150.4083  134.4231  156.1022 C   0  0  0  0  0  0  0  0  0  0  0  0
  150.3760  135.3881  157.1398 O   0  0  0  0  0  0  0  0  0  0  0  0
  149.9947  136.6414  156.5813 C   0  0  0  0  0  0  0  0  0  0  0  0
  150.7941  142.9999  159.6075 H   0  0  0  0  0  0  0  0  0  0  0  0
  151.4589  141.3530  161.6139 H   0  0  0  0  0  0  0  0  0  0  0  0
  151.5354  146.2116  158.7322 H   0  0  0  0  0  0  0  0  0  0  0  0
  151.7956  144.3370  157.6836 H   0  0  0  0  0  0  0  0  0  0  0  0
  153.2618  144.5310  158.6258 H   0  0  0  0  0  0  0  0  0  0  0  0
  153.5100  143.4754  160.8726 H   0  0  0  0  0  0  0  0  0  0  0  0
  151.9216  143.7328  161.6068 H   0  0  0  0  0  0  0  0  0  0  0  0
  153.8123  140.7098  159.8502 H   0  0  0  0  0  0  0  0  0  0  0  0
  152.2058  139.9985  159.8348 H   0  0  0  0  0  0  0  0  0  0  0  0
  149.1932  142.2926  155.9265 H   0  0  0  0  0  0  0  0  0  0  0  0
  153.3679  137.4158  156.4566 H   0  0  0  0  0  0  0  0  0  0  0  0
  150.6800  138.3867  153.9177 H   0  0  0  0  0  0  0  0  0  0  0  0
  152.0991  137.3810  154.0565 H   0  0  0  0  0  0  0  0  0  0  0  0
  149.3616  136.6916  153.4216 H   0  0  0  0  0  0  0  0  0  0  0  0
  150.8449  134.7345  153.9719 H   0  0  0  0  0  0  0  0  0  0  0  0
  152.0837  135.2847  155.0977 H   0  0  0  0  0  0  0  0  0  0  0  0
  149.3946  134.0913  155.8725 H   0  0  0  0  0  0  0  0  0  0  0  0
  151.0049  133.5536  156.3786 H   0  0  0  0  0  0  0  0  0  0  0  0
  150.5281  137.4380  157.1012 H   0  0  0  0  0  0  0  0  0  0  0  0
  148.9279  136.8043  156.7440 H   0  0  0  0  0  0  0  0  0  0  0  0
  1  2  1  0  0  0  0
  1 27  1  0  0  0  0
  2  3  1  0  0  0  0
  2 28  1  0  0  0  0
  2 29  1  0  0  0  0
  3 25  1  0  0  0  0
  3  8  1  0  0  0  0
  3  4  1  0  0  0  0
  4  5  1  0  0  0  0
  4 30  1  0  0  0  0
  4 31  1  0  0  0  0
  5 26  1  0  0  0  0
  5  6  1  0  0  0  0
  5  7  1  0  0  0  0
  7  8  1  0  0  0  0
  7 32  1  0  0  0  0
  7 33  1  0  0  0  0
  8  9  1  0  0  0  0
  9 14  1  0  0  0  0
  9 10  2  0  0  0  0
 10 11  1  0  0  0  0
 11 12  2  0  0  0  0
 11 34  1  0  0  0  0
 12 13  1  0  0  0  0
 13 17  1  0  0  0  0
 13 14  2  0  0  0  0
 14 15  1  0  0  0  0
 15 16  2  0  0  0  0
 16 17  1  0  0  0  0
 16 35  1  0  0  0  0
 17 18  1  0  0  0  0
 18 19  1  0  0  0  0
 18 36  1  0  0  0  0
 18 37  1  0  0  0  0
 19 24  1  0  0  0  0
 19 20  1  0  0  0  0
 19 21  1  0  0  0  0
 20 38  1  0  0  0  0
 21 22  1  0  0  0  0
 21 39  1  0  0  0  0
 21 40  1  0  0  0  0
 22 23  1  0  0  0  0
 22 41  1  0  0  0  0
 22 42  1  0  0  0  0
 23 24  1  0  0  0  0
 24 43  1  0  0  0  0
 24 44  1  0  0  0  0
M  END
> <s_m_source_file>
AV-unprocessed.smi

> <i_m_source_file_index>
255

> <i_lp_mmshare_version>
43012

> <i_f3d_flags>
0

> <s_epik_input>
W09IXVtDSDJdW0NAQEhdMVtDSDJdW0NASF0oRilbQ0gyXU4xYyhuW2NIXW4yKWMoYzIzKW5bY0hdbjNbQ0gyXVtDQEBdNChbT0hdKVtDSDJdW0NIMl1PW0NIMl00

> <s_epik_cmdline>
J2VwaWtfcHl0aG9uJywgJy1waCcsICc3LjAnLCAnLXRuJywgJzgnLCAnLW1hJywgJzIwMCcsICctbWV0YWxfYmluZGluZycsICctaW1hZScsICc8aW5maWxlLm1hZT4nLCAnLW9tYWUnLCAnPG91dGZpbGUubWFlPic=

> <r_lp_tautomer_probability>
1

> <r_epik_Ionization_Penalty>
0.0058098

> <r_epik_Ionization_Penalty_Charging>
0

> <r_epik_Ionization_Penalty_Neutral>
0.0058098

> <r_epik_State_Penalty>
0.00411166

> <r_epik_Charging_Adjusted_Penalty>
0.00411166

> <i_epik_Tot_Q>
0

> <i_epik_Tot_abs_Q>
0

> <r_epik_Metal_State_Penalty>
-0

> <b_epik_Metal_Only>
0

> <s_lp_Force_Field>
OPLS_2005

> <r_lp_Energy>
52.3254

> <b_lp_Chiralities_Consistent>
1

> <s_lp_Variant>
AV-unprocessed.smi:255-1

> <Gold.Version>
5.8.1

> <Gold.Id.Protein>
6NUR|6NUR_protein|mol2

> <Gold.PLP.Fitness>
50.6621

> <Gold.PLP.PLP>
-43.8278

> <Gold.PLP.part.hbond>
-4.0000

> <Gold.PLP.part.metal>
0.0000

> <Gold.PLP.part.buried>
-4.7569

> <Gold.PLP.part.nonpolar>
-35.6009

> <Gold.PLP.part.repulsive>
0.1540

> <Gold.PLP.ligand.clash>
0.0000

> <Gold.PLP.ligand.torsion>
1.5997

> <Gold.PLP.Chemscore.Hbond>
2.3167

> <Gold.PLP.Chemscore.CHOScore>
1.0000

> <Gold.PLP.Chemscore.Metal>
0.0000

> <Gold.Chemscore.Hbonds>
donor molecule, donor type, donor heavy atom, donor atom, acceptor molecule, acceptor atom, score
      L1  H    20    38       P1  7948  0.91
      P1  H  7997  8010       L1    15  1.00
      L1  C    11    34       P1  8028  1.00

> <Gold.PLP.Chemscore.Internal.Correction>
0.0836

> <Gold.Rescore>
     Score         DG    S(hbond)    S(metal)    S(lipo)     H(rot)  DE(clash)    DE(int)     intcor
      8.91     -13.27       1.94        0.00      84.04       3.33       0.01       4.36       ----

> <Gold.Chemscore.Fitness>
8.9083

> <Gold.Chemscore.DG>
-13.2735

> <Gold.Chemscore.ZeroCoef>
-5.4800

> <Gold.Chemscore.Hbond>
1.9397

> <Gold.Chemscore.Metal>
0.0000

> <Gold.Chemscore.Lipo>
84.0420

> <Gold.Chemscore.Internal_Hbond>
0.0000

> <Gold.Chemscore.DEClash>
0.0085

> <Gold.Chemscore.DEInternal>
4.3567

> <Gold.Chemscore.Rot>
3.3273

> <Gold.Chemscore.Internal.Correction>
   9.000000E+99

> <Gold.Chemscore.Hbonds>
donor molecule, donor type, donor heavy atom, donor atom, acceptor molecule, acceptor atom, score
      L1  H    20    38       P1  7948  0.81
      P1  H  7997  8010       L1    15  0.09

> <Gold.Chemscore.Hbond.Weighted>
-6.4785

> <Gold.Chemscore.Metal.Weighted>
-0.0000

> <Gold.Chemscore.Lipo.Weighted>
-9.8329

> <Gold.Chemscore.Internal_Hbond.Weighted>
0.0000

> <Gold.Chemscore.DEClash.Weighted>
0.0085

> <Gold.Chemscore.DEInternal.Weighted>
4.3567

> <Gold.Chemscore.Rot.Weighted>
8.5179

> <Gold.Chemscore.Internal.Correction.Weighted>
   9.000000E+99

> <Gold.Protein.RotatedTorsions>
[ 6907 6896 6895 6894 ] final  -80.85 input  -60.11 | X-H torsion
[ 7974 7965 7964 7962 ] final   75.68 input  175.53 | X-H torsion
[ 8008 7997 7996 7995 ] final   50.43 input   59.86 | X-H torsion
[ 10167 10162 10161 10158 ] final    0.38 input  -65.29 | X-H torsion
[ 10718 10713 10712 10709 ] final  133.76 input   66.30 | X-H torsion
[ 10763 10752 10751 10750 ] final -155.70 input  -60.55 | X-H torsion
[ 11005 11000 10999 10996 ] final  145.95 input  -57.11 | X-H torsion

> <Gold.Protein.ActiveResidues>
 VAL166  LYS551  ARG553  GLY616  TRP617  ASP618  TYR619  PRO620  LYS621  CYS622 
 ASP623  PHE694  ASN695  SER759  ASP760  ASP761  ALA762  ILE779  LEU786  VAL792 
 PHE793  MET794  SER795  GLU796  ALA797  LYS798  CYS799  TRP800  GLU811  SER814 

> <Gold.Protein.RotatedAtoms>
  150.6922  134.3907  159.5074 H   0  0  0  0  0  0  0  0  0  0  0  0  # atno 6907 bound_to 6896
  152.1695  134.8843  160.0544 H   0  0  0  0  0  0  0  0  0  0  0  0  # atno 6908 bound_to 6896
  151.9874  133.3744  159.4168 H   0  0  0  0  0  0  0  0  0  0  0  0  # atno 6909 bound_to 6896
  145.7126  139.2620  143.1642 H   0  0  0  0  0  0  0  0  0  0  0  0  # atno 7974 bound_to 7965
  155.4186  140.3445  155.4269 H   0  0  0  0  0  0  0  0  0  0  0  0  # atno 8008 bound_to 7997
  156.1406  140.1541  156.8957 H   0  0  0  0  0  0  0  0  0  0  0  0  # atno 8009 bound_to 7997
  154.4968  140.0825  156.7694 H   0  0  0  0  0  0  0  0  0  0  0  0  # atno 8010 bound_to 7997
  140.6731  143.6992  150.7965 H   0  0  0  0  0  0  0  0  0  0  0  0  # atno 10167 bound_to 10162
  157.4740  131.1082  150.9766 H   0  0  0  0  0  0  0  0  0  0  0  0  # atno 10718 bound_to 10713
  154.7768  135.3162  154.8075 H   0  0  0  0  0  0  0  0  0  0  0  0  # atno 10763 bound_to 10752
  153.8797  135.6836  153.4772 H   0  0  0  0  0  0  0  0  0  0  0  0  # atno 10764 bound_to 10752
  153.1393  135.4746  154.9408 H   0  0  0  0  0  0  0  0  0  0  0  0  # atno 10765 bound_to 10752
  140.0754  134.9128  157.1414 H   0  0  0  0  0  0  0  0  0  0  0  0  # atno 11005 bound_to 11000
  146.0699  140.7880  142.9693 LP  0  0  0  0  0  0  0  0  0  0  0  0  # atno 17320 bound_to 7965
  144.6938  140.3326  143.7213 LP  0  0  0  0  0  0  0  0  0  0  0  0  # atno 17321 bound_to 7965
  140.0681  143.5088  152.2594 LP  0  0  0  0  0  0  0  0  0  0  0  0  # atno 17342 bound_to 10162
  139.6009  144.7582  151.3173 LP  0  0  0  0  0  0  0  0  0  0  0  0  # atno 17343 bound_to 10162
  157.0521  130.5791  149.5372 LP  0  0  0  0  0  0  0  0  0  0  0  0  # atno 17370 bound_to 10713
  156.0088  130.5177  150.7919 LP  0  0  0  0  0  0  0  0  0  0  0  0  # atno 17371 bound_to 10713
  140.3566  134.2540  155.7192 LP  0  0  0  0  0  0  0  0  0  0  0  0  # atno 17394 bound_to 11000
  141.2027  133.7930  157.0375 LP  0  0  0  0  0  0  0  0  0  0  0  0  # atno 17395 bound_to 11000

$$$$
