AV-unprocessed.smi:1971|AV-procd|sdf|7972|dock1
  -GOLD-   2272010143D 1   1.00000     0.00000
 Structure written by MMmdl.
 42 43  0  0  0  0  0  0  0  0  2 V2000
  151.8216  145.4410  160.3027 C   0  0  0  0  0  0  0  0  0  0  0  0
  152.0193  144.9111  158.8752 C   0  0  0  0  0  0  0  0  0  0  0  0
  151.6304  143.5163  158.6784 N   0  0  0  0  0  0  0  0  0  0  0  0
  152.6448  142.6104  159.2115 C   0  0  0  0  0  0  0  0  0  0  0  0
  152.2409  141.1357  159.0329 C   0  0  0  0  0  0  0  0  0  0  0  0
  152.0331  140.7853  157.6216 N   0  0  0  0  0  0  0  0  0  0  0  0
  151.6526  139.3676  157.4369 C   0  0  2  0  0  0  0  0  0  0  0  0
  151.9131  138.8406  156.0075 C   0  0  0  0  0  0  0  0  0  0  0  0
  150.1813  139.0535  157.8184 C   0  0  0  0  0  0  0  0  0  0  0  0
  150.0634  137.8571  158.6515 N   0  0  0  0  0  0  0  0  0  0  0  0
  148.9984  137.0475  158.7405 C   0  0  0  0  0  0  0  0  0  0  0  0
  147.9942  137.2701  158.0601 O   0  0  0  0  0  0  0  0  0  0  0  0
  149.1602  136.0316  159.6187 N   0  5  0  0  0  0  0  0  0  0  0  0
  148.3522  135.9326  160.6870 C   0  0  0  0  0  0  0  0  0  0  0  0
  147.8683  136.9978  161.3360 N   0  0  0  0  0  0  0  0  0  0  0  0
  147.0460  136.6650  162.4139 C   0  0  0  0  0  0  0  0  0  0  0  0
  146.8928  135.3146  162.5847 C   0  0  0  0  0  0  0  0  0  0  0  0
  147.7801  134.4152  161.3873 S   0  0  0  0  0  0  0  0  0  0  0  0
  151.0294  141.7114  157.0795 C   0  0  0  0  0  0  0  0  0  0  0  0
  151.4315  143.1857  157.2672 C   0  0  0  0  0  0  0  0  0  0  0  0
  152.2314  146.4466  160.3972 H   0  0  0  0  0  0  0  0  0  0  0  0
  152.3285  144.8070  161.0308 H   0  0  0  0  0  0  0  0  0  0  0  0
  150.7681  145.4944  160.5761 H   0  0  0  0  0  0  0  0  0  0  0  0
  151.4827  145.5493  158.1719 H   0  0  0  0  0  0  0  0  0  0  0  0
  153.0768  145.0188  158.6305 H   0  0  0  0  0  0  0  0  0  0  0  0
  153.6032  142.7896  158.7209 H   0  0  0  0  0  0  0  0  0  0  0  0
  152.7963  142.8115  160.2725 H   0  0  0  0  0  0  0  0  0  0  0  0
  153.0357  140.5278  159.4624 H   0  0  0  0  0  0  0  0  0  0  0  0
  151.3371  140.9281  159.6080 H   0  0  0  0  0  0  0  0  0  0  0  0
  152.2740  138.7659  158.1018 H   0  0  0  0  0  0  0  0  0  0  0  0
  151.5100  137.8360  155.8771 H   0  0  0  0  0  0  0  0  0  0  0  0
  152.9770  138.7721  155.7836 H   0  0  0  0  0  0  0  0  0  0  0  0
  151.4512  139.4803  155.2548 H   0  0  0  0  0  0  0  0  0  0  0  0
  149.7294  139.9162  158.3101 H   0  0  0  0  0  0  0  0  0  0  0  0
  149.5719  138.9053  156.9279 H   0  0  0  0  0  0  0  0  0  0  0  0
  150.8578  137.6340  159.2330 H   0  0  0  0  0  0  0  0  0  0  0  0
  146.6100  137.4554  163.0065 H   0  0  0  0  0  0  0  0  0  0  0  0
  146.3147  134.7967  163.3348 H   0  0  0  0  0  0  0  0  0  0  0  0
  150.8969  141.5470  156.0116 H   0  0  0  0  0  0  0  0  0  0  0  0
  150.0612  141.5307  157.5489 H   0  0  0  0  0  0  0  0  0  0  0  0
  150.6485  143.8121  156.8411 H   0  0  0  0  0  0  0  0  0  0  0  0
  152.3408  143.3928  156.7006 H   0  0  0  0  0  0  0  0  0  0  0  0
  1  2  1  0  0  0  0
  1 21  1  0  0  0  0
  1 22  1  0  0  0  0
  1 23  1  0  0  0  0
  2  3  1  0  0  0  0
  2 24  1  0  0  0  0
  2 25  1  0  0  0  0
  3 20  1  0  0  0  0
  3  4  1  0  0  0  0
  4  5  1  0  0  0  0
  4 26  1  0  0  0  0
  4 27  1  0  0  0  0
  5  6  1  0  0  0  0
  5 28  1  0  0  0  0
  5 29  1  0  0  0  0
  6  7  1  0  0  0  0
  6 19  1  0  0  0  0
  7  8  1  0  0  0  0
  7  9  1  0  0  0  0
  7 30  1  0  0  0  0
  8 31  1  0  0  0  0
  8 32  1  0  0  0  0
  8 33  1  0  0  0  0
  9 10  1  0  0  0  0
  9 34  1  0  0  0  0
  9 35  1  0  0  0  0
 10 11  1  0  0  0  0
 10 36  1  0  0  0  0
 11 12  2  0  0  0  0
 11 13  1  0  0  0  0
 13 14  1  0  0  0  0
 14 18  1  0  0  0  0
 14 15  2  0  0  0  0
 15 16  1  0  0  0  0
 16 17  2  0  0  0  0
 16 37  1  0  0  0  0
 17 18  1  0  0  0  0
 17 38  1  0  0  0  0
 19 20  1  0  0  0  0
 19 39  1  0  0  0  0
 19 40  1  0  0  0  0
 20 41  1  0  0  0  0
 20 42  1  0  0  0  0
M  CHG  1  13  -1
M  END
> <s_m_source_file>
AV-unprocessed.smi

> <i_m_source_file_index>
1971

> <i_lp_mmshare_version>
43012

> <i_f3d_flags>
0

> <s_epik_input>
W0NIM11bQ0gyXU4xW0NIMl1bQ0gyXU4oW0NIMl1bQ0gyXTEpW0NASF0oW0NIM10pW0NIMl1bTkhdQyg9TylbTkhdYzJuW2NIXVtjSF1zMg==

> <s_epik_cmdline>
J2VwaWtfcHl0aG9uJywgJy1waCcsICc3LjAnLCAnLXRuJywgJzgnLCAnLW1hJywgJzIwMCcsICctbWV0YWxfYmluZGluZycsICctaW1hZScsICc8aW5maWxlLm1hZT4nLCAnLW9tYWUnLCAnPG91dGZpbGUubWFlPic=

> <r_lp_tautomer_probability>
0.999

> <r_epik_Ionization_Penalty>
9.52272

> <r_epik_Ionization_Penalty_Charging>
5.92713

> <r_epik_Ionization_Penalty_Neutral>
3.59559

> <r_epik_State_Penalty>
7.69531

> <r_epik_Charging_Adjusted_Penalty>
13.6224

> <i_epik_Tot_Q>
-1

> <i_epik_Tot_abs_Q>
1

> <r_epik_Metal_State_Penalty>
3.66212

> <b_epik_Metal_Only>
1

> <s_lp_Force_Field>
OPLS_2005

> <r_lp_Energy>
40.0066

> <b_lp_Chiralities_Consistent>
1

> <s_lp_Variant>
AV-unprocessed.smi:1971-11

> <Gold.Version>
5.8.1

> <Gold.Id.Protein>
6NUR|6NUR_protein|mol2

> <Gold.PLP.Fitness>
48.4051

> <Gold.PLP.PLP>
-41.2752

> <Gold.PLP.part.hbond>
-3.0000

> <Gold.PLP.part.metal>
0.0000

> <Gold.PLP.part.buried>
-6.6896

> <Gold.PLP.part.nonpolar>
-32.3044

> <Gold.PLP.part.repulsive>
0.2212

> <Gold.PLP.ligand.clash>
0.0000

> <Gold.PLP.ligand.torsion>
2.0555

> <Gold.PLP.Chemscore.Hbond>
3.6439

> <Gold.PLP.Chemscore.CHOScore>
0.0000

> <Gold.PLP.Chemscore.Metal>
0.0000

> <Gold.Chemscore.Hbonds>
donor molecule, donor type, donor heavy atom, donor atom, acceptor molecule, acceptor atom, score
      P1  H  6896  6907       L1    13  1.98
      P1  H  6931  6943       L1    15  1.00
      P1  H  6934  6947       L1    15  0.50

> <Gold.PLP.Chemscore.Internal.Correction>
0.3090

> <Gold.Rescore>
     Score         DG    S(hbond)    S(metal)    S(lipo)     H(rot)  DE(clash)    DE(int)     intcor
     17.69     -19.73       1.89        0.00     105.18       1.70       0.06       1.98       ----

> <Gold.Chemscore.Fitness>
17.6859

> <Gold.Chemscore.DG>
-19.7293

> <Gold.Chemscore.ZeroCoef>
-5.4800

> <Gold.Chemscore.Hbond>
1.8876

> <Gold.Chemscore.Metal>
0.0000

> <Gold.Chemscore.Lipo>
105.1795

> <Gold.Chemscore.Internal_Hbond>
0.0000

> <Gold.Chemscore.DEClash>
0.0606

> <Gold.Chemscore.DEInternal>
1.9828

> <Gold.Chemscore.Rot>
1.7037

> <Gold.Chemscore.Internal.Correction>
   9.000000E+99

> <Gold.Chemscore.Hbonds>
donor molecule, donor type, donor heavy atom, donor atom, acceptor molecule, acceptor atom, score
      P1  H  6896  6907       L1    13  0.81
      P1  H  6931  6943       L1    15  0.62
      P1  H  6934  6947       L1    15  0.13

> <Gold.Chemscore.Hbond.Weighted>
-6.3047

> <Gold.Chemscore.Metal.Weighted>
-0.0000

> <Gold.Chemscore.Lipo.Weighted>
-12.3060

> <Gold.Chemscore.Internal_Hbond.Weighted>
0.0000

> <Gold.Chemscore.DEClash.Weighted>
0.0606

> <Gold.Chemscore.DEInternal.Weighted>
1.9828

> <Gold.Chemscore.Rot.Weighted>
4.3614

> <Gold.Chemscore.Internal.Correction.Weighted>
   9.000000E+99

> <Gold.Protein.RotatedTorsions>
[ 6907 6896 6895 6894 ] final  -53.15 input  -60.11 | X-H torsion
[ 7974 7965 7964 7962 ] final  103.43 input  175.53 | X-H torsion
[ 8008 7997 7996 7995 ] final -136.64 input   59.86 | X-H torsion
[ 10167 10162 10161 10158 ] final   -7.36 input  -65.29 | X-H torsion
[ 10718 10713 10712 10709 ] final  -72.51 input   66.30 | X-H torsion
[ 10763 10752 10751 10750 ] final  141.42 input  -60.55 | X-H torsion
[ 11005 11000 10999 10996 ] final -160.81 input  -57.11 | X-H torsion

> <Gold.Protein.ActiveResidues>
 VAL166  LYS551  ARG553  GLY616  TRP617  ASP618  TYR619  PRO620  LYS621  CYS622 
 ASP623  PHE694  ASN695  SER759  ASP760  ASP761  ALA762  ILE779  LEU786  VAL792 
 PHE793  MET794  SER795  GLU796  ALA797  LYS798  CYS799  TRP800  GLU811  SER814 

> <Gold.Protein.RotatedAtoms>
  150.8453  134.7760  159.6965 H   0  0  0  0  0  0  0  0  0  0  0  0  # atno 6907 bound_to 6896
  152.4531  134.5347  159.9831 H   0  0  0  0  0  0  0  0  0  0  0  0  # atno 6908 bound_to 6896
  151.5478  133.3384  159.2983 H   0  0  0  0  0  0  0  0  0  0  0  0  # atno 6909 bound_to 6896
  145.3460  139.2450  143.3584 H   0  0  0  0  0  0  0  0  0  0  0  0  # atno 7974 bound_to 7965
  155.3986  140.0504  157.3038 H   0  0  0  0  0  0  0  0  0  0  0  0  # atno 8008 bound_to 7997
  154.5001  140.2153  155.9324 H   0  0  0  0  0  0  0  0  0  0  0  0  # atno 8009 bound_to 7997
  156.1457  140.3146  155.8571 H   0  0  0  0  0  0  0  0  0  0  0  0  # atno 8010 bound_to 7997
  140.7026  143.6090  150.8723 H   0  0  0  0  0  0  0  0  0  0  0  0  # atno 10167 bound_to 10162
  156.0317  130.4374  150.2603 H   0  0  0  0  0  0  0  0  0  0  0  0  # atno 10718 bound_to 10713
  153.9390  135.2982  155.3443 H   0  0  0  0  0  0  0  0  0  0  0  0  # atno 10763 bound_to 10752
  154.7487  135.4991  153.9253 H   0  0  0  0  0  0  0  0  0  0  0  0  # atno 10764 bound_to 10752
  153.1052  135.6745  153.9706 H   0  0  0  0  0  0  0  0  0  0  0  0  # atno 10765 bound_to 10752
  140.6273  134.4688  157.5227 H   0  0  0  0  0  0  0  0  0  0  0  0  # atno 11005 bound_to 11000
  146.2988  140.4067  142.8712 LP  0  0  0  0  0  0  0  0  0  0  0  0  # atno 17320 bound_to 7965
  144.8754  140.7329  143.6020 LP  0  0  0  0  0  0  0  0  0  0  0  0  # atno 17321 bound_to 7965
  139.9813  143.5948  152.2942 LP  0  0  0  0  0  0  0  0  0  0  0  0  # atno 17342 bound_to 10162
  139.6570  144.7662  151.2036 LP  0  0  0  0  0  0  0  0  0  0  0  0  # atno 17343 bound_to 10162
  157.0705  131.0115  151.3192 LP  0  0  0  0  0  0  0  0  0  0  0  0  # atno 17370 bound_to 10713
  157.5003  130.7876  149.7598 LP  0  0  0  0  0  0  0  0  0  0  0  0  # atno 17371 bound_to 10713
  139.9130  134.8306  156.1463 LP  0  0  0  0  0  0  0  0  0  0  0  0  # atno 17394 bound_to 11000
  141.0700  133.6801  156.2121 LP  0  0  0  0  0  0  0  0  0  0  0  0  # atno 17395 bound_to 11000

$$$$
