AV-unprocessed.smi:1794|AV-procd|sdf|7232|dock6
  -GOLD-   22720 8473D 1   1.00000     0.00000
 Structure written by MMmdl.
 54 56  0  0  0  0  0  0  0  0  1 V2000
  151.6973  138.3087  154.1231 C   0  0  0  0  0  0  0  0  0  0  0  0
  150.4636  138.4177  155.0556 C   0  0  0  0  0  0  0  0  0  0  0  0
  149.2342  138.6981  154.1579 C   0  0  0  0  0  0  0  0  0  0  0  0
  150.2658  137.0065  155.6812 C   0  0  0  0  0  0  0  0  0  0  0  0
  149.7122  136.0502  154.7233 N   0  0  0  0  0  0  0  0  0  0  0  0
  149.4802  134.7506  154.9525 C   0  0  0  0  0  0  0  0  0  0  0  0
  149.7369  134.1876  156.0162 O   0  0  0  0  0  0  0  0  0  0  0  0
  148.9468  134.1625  153.8689 N   0  0  0  0  0  0  0  0  0  0  0  0
  148.6224  132.7905  153.6652 C   0  0  0  0  0  0  0  0  0  0  0  0
  149.2732  131.7309  154.3434 C   0  0  0  0  0  0  0  0  0  0  0  0
  148.8758  130.4062  154.0861 C   0  0  0  0  0  0  0  0  0  0  0  0
  147.8341  130.1863  153.1673 C   0  0  0  0  0  0  0  0  0  0  0  0
  147.1927  131.1841  152.5260 N   0  0  0  0  0  0  0  0  0  0  0  0
  147.5726  132.4624  152.7690 C   0  0  0  0  0  0  0  0  0  0  0  0
  146.8828  133.4872  152.0968 N   0  0  0  0  0  0  0  0  0  0  0  0
  146.0159  133.0666  151.0093 C   0  0  0  0  0  0  0  0  0  0  0  0
  145.1473  134.2867  150.6979 C   0  0  0  0  0  0  0  0  0  0  0  0
  145.1418  135.1046  151.9956 C   0  0  0  0  0  0  0  0  0  0  0  0
  146.0781  134.3502  152.9450 C   0  0  0  0  0  0  0  0  0  0  0  0
  150.6723  139.4602  156.1001 N   0  0  0  0  0  0  0  0  0  0  0  0
  150.8695  140.8207  155.5851 C   0  0  0  0  0  0  0  0  0  0  0  0
  150.9552  141.8602  156.7156 C   0  0  0  0  0  0  0  0  0  0  0  0
  152.0040  141.5099  157.6099 O   0  0  0  0  0  0  0  0  0  0  0  0
  151.8216  140.2195  158.1796 C   0  0  0  0  0  0  0  0  0  0  0  0
  151.7404  139.1652  157.0624 C   0  0  0  0  0  0  0  0  0  0  0  0
  151.6296  137.4372  153.4710 H   0  0  0  0  0  0  0  0  0  0  0  0
  152.6243  138.2168  154.6902 H   0  0  0  0  0  0  0  0  0  0  0  0
  151.7975  139.1721  153.4656 H   0  0  0  0  0  0  0  0  0  0  0  0
  149.1200  137.9235  153.3987 H   0  0  0  0  0  0  0  0  0  0  0  0
  149.3190  139.6455  153.6263 H   0  0  0  0  0  0  0  0  0  0  0  0
  148.3050  138.7183  154.7270 H   0  0  0  0  0  0  0  0  0  0  0  0
  151.2066  136.6038  156.0554 H   0  0  0  0  0  0  0  0  0  0  0  0
  149.6308  137.0807  156.5660 H   0  0  0  0  0  0  0  0  0  0  0  0
  149.4630  136.4206  153.8179 H   0  0  0  0  0  0  0  0  0  0  0  0
  148.8553  134.7475  153.0511 H   0  0  0  0  0  0  0  0  0  0  0  0
  150.0566  131.9065  155.0639 H   0  0  0  0  0  0  0  0  0  0  0  0
  149.3556  129.5779  154.5860 H   0  0  0  0  0  0  0  0  0  0  0  0
  147.5017  129.1827  152.9476 H   0  0  0  0  0  0  0  0  0  0  0  0
  146.5964  132.7543  150.1406 H   0  0  0  0  0  0  0  0  0  0  0  0
  145.3890  132.2286  151.3174 H   0  0  0  0  0  0  0  0  0  0  0  0
  145.5978  134.8723  149.8955 H   0  0  0  0  0  0  0  0  0  0  0  0
  144.1448  134.0005  150.3784 H   0  0  0  0  0  0  0  0  0  0  0  0
  145.5178  136.1106  151.8050 H   0  0  0  0  0  0  0  0  0  0  0  0
  144.1413  135.1986  152.4188 H   0  0  0  0  0  0  0  0  0  0  0  0
  145.4977  133.7562  153.6523 H   0  0  0  0  0  0  0  0  0  0  0  0
  146.7068  135.0340  153.5159 H   0  0  0  0  0  0  0  0  0  0  0  0
  151.7826  140.8713  154.9916 H   0  0  0  0  0  0  0  0  0  0  0  0
  150.0500  141.1130  154.9312 H   0  0  0  0  0  0  0  0  0  0  0  0
  151.1531  142.8507  156.3057 H   0  0  0  0  0  0  0  0  0  0  0  0
  150.0094  141.9208  157.2566 H   0  0  0  0  0  0  0  0  0  0  0  0
  152.6579  140.0027  158.8442 H   0  0  0  0  0  0  0  0  0  0  0  0
  150.9163  140.2069  158.7886 H   0  0  0  0  0  0  0  0  0  0  0  0
  151.5836  138.1964  157.5330 H   0  0  0  0  0  0  0  0  0  0  0  0
  152.7040  139.1193  156.5546 H   0  0  0  0  0  0  0  0  0  0  0  0
  1  2  1  0  0  0  0
  1 26  1  0  0  0  0
  1 27  1  0  0  0  0
  1 28  1  0  0  0  0
  2  3  1  0  0  0  0
  2  4  1  0  0  0  0
  2 20  1  0  0  0  0
  3 29  1  0  0  0  0
  3 30  1  0  0  0  0
  3 31  1  0  0  0  0
  4  5  1  0  0  0  0
  4 32  1  0  0  0  0
  4 33  1  0  0  0  0
  5  6  1  0  0  0  0
  5 34  1  0  0  0  0
  6  7  2  0  0  0  0
  6  8  1  0  0  0  0
  8  9  1  0  0  0  0
  8 35  1  0  0  0  0
  9 14  1  0  0  0  0
  9 10  2  0  0  0  0
 10 11  1  0  0  0  0
 10 36  1  0  0  0  0
 11 12  2  0  0  0  0
 11 37  1  0  0  0  0
 12 13  1  0  0  0  0
 12 38  1  0  0  0  0
 13 14  2  0  0  0  0
 14 15  1  0  0  0  0
 15 19  1  0  0  0  0
 15 16  1  0  0  0  0
 16 17  1  0  0  0  0
 16 39  1  0  0  0  0
 16 40  1  0  0  0  0
 17 18  1  0  0  0  0
 17 41  1  0  0  0  0
 17 42  1  0  0  0  0
 18 19  1  0  0  0  0
 18 43  1  0  0  0  0
 18 44  1  0  0  0  0
 19 45  1  0  0  0  0
 19 46  1  0  0  0  0
 20 25  1  0  0  0  0
 20 21  1  0  0  0  0
 21 22  1  0  0  0  0
 21 47  1  0  0  0  0
 21 48  1  0  0  0  0
 22 23  1  0  0  0  0
 22 49  1  0  0  0  0
 22 50  1  0  0  0  0
 23 24  1  0  0  0  0
 24 25  1  0  0  0  0
 24 51  1  0  0  0  0
 24 52  1  0  0  0  0
 25 53  1  0  0  0  0
 25 54  1  0  0  0  0
M  END
> <s_m_source_file>
AV-unprocessed.smi

> <i_m_source_file_index>
1794

> <i_lp_mmshare_version>
43012

> <i_f3d_flags>
0

> <s_epik_input>
W0NIMl0xW0NIMl1PW0NIMl1bQ0gyXU4xQyhbQ0gzXSkoW0NIM10pW0NIMl1bTkhdQyg9TylbTkhdYzJbY0hdW2NIXVtjSF1uYzJOM1tDSDJdW0NIMl1bQ0gyXVtDSDJdMw==

> <s_epik_cmdline>
J2VwaWtfcHl0aG9uJywgJy1waCcsICc3LjAnLCAnLXRuJywgJzgnLCAnLW1hJywgJzIwMCcsICctbWV0YWxfYmluZGluZycsICctaW1hZScsICc8aW5maWxlLm1hZT4nLCAnLW9tYWUnLCAnPG91dGZpbGUubWFlPic=

> <r_lp_tautomer_probability>
1

> <r_epik_Ionization_Penalty>
0.366523

> <r_epik_Ionization_Penalty_Charging>
0

> <r_epik_Ionization_Penalty_Neutral>
0.366523

> <r_epik_State_Penalty>
0.351681

> <r_epik_Charging_Adjusted_Penalty>
0.351681

> <i_epik_Tot_Q>
0

> <i_epik_Tot_abs_Q>
0

> <r_epik_Metal_State_Penalty>
0.334668

> <b_epik_Metal_Only>
0

> <s_lp_Force_Field>
OPLS_2005

> <r_lp_Energy>
72.3516

> <b_lp_Chiralities_Consistent>
1

> <s_lp_Variant>
AV-unprocessed.smi:1794-1

> <Gold.Version>
5.8.1

> <Gold.Id.Protein>
6NUR|6NUR_protein|mol2

> <Gold.PLP.Fitness>
42.5838

> <Gold.PLP.PLP>
-37.6147

> <Gold.PLP.part.hbond>
-2.0000

> <Gold.PLP.part.metal>
0.0000

> <Gold.PLP.part.buried>
-4.6256

> <Gold.PLP.part.nonpolar>
-31.2896

> <Gold.PLP.part.repulsive>
1.4947

> <Gold.PLP.ligand.clash>
0.0203

> <Gold.PLP.ligand.torsion>
0.5631

> <Gold.PLP.Chemscore.Hbond>
2.0000

> <Gold.PLP.Chemscore.CHOScore>
0.0000

> <Gold.PLP.Chemscore.Metal>
0.0000

> <Gold.Chemscore.Hbonds>
donor molecule, donor type, donor heavy atom, donor atom, acceptor molecule, acceptor atom, score
      L1  H     5    34       P1  7948  1.00
      L1  H     8    35       P1  7948  0.80

> <Gold.PLP.Chemscore.Internal.Correction>
0.1156

> <Gold.Rescore>
     Score         DG    S(hbond)    S(metal)    S(lipo)     H(rot)  DE(clash)    DE(int)     intcor
     14.26     -16.98       1.63        0.00      85.69       1.55       0.03       2.69       ----

> <Gold.Chemscore.Fitness>
14.2585

> <Gold.Chemscore.DG>
-16.9765

> <Gold.Chemscore.ZeroCoef>
-5.4800

> <Gold.Chemscore.Hbond>
1.6276

> <Gold.Chemscore.Metal>
0.0000

> <Gold.Chemscore.Lipo>
85.6925

> <Gold.Chemscore.Internal_Hbond>
0.0000

> <Gold.Chemscore.DEClash>
0.0266

> <Gold.Chemscore.DEInternal>
2.6914

> <Gold.Chemscore.Rot>
1.5491

> <Gold.Chemscore.Internal.Correction>
   9.000000E+99

> <Gold.Chemscore.Hbonds>
donor molecule, donor type, donor heavy atom, donor atom, acceptor molecule, acceptor atom, score
      L1  H     5    34       P1  7948  0.73
      L1  H     8    35       P1  7948  0.12

> <Gold.Chemscore.Hbond.Weighted>
-5.4362

> <Gold.Chemscore.Metal.Weighted>
-0.0000

> <Gold.Chemscore.Lipo.Weighted>
-10.0260

> <Gold.Chemscore.Internal_Hbond.Weighted>
0.0000

> <Gold.Chemscore.DEClash.Weighted>
0.0266

> <Gold.Chemscore.DEInternal.Weighted>
2.6914

> <Gold.Chemscore.Rot.Weighted>
3.9657

> <Gold.Chemscore.Internal.Correction.Weighted>
   9.000000E+99

> <Gold.Protein.RotatedTorsions>
[ 6907 6896 6895 6894 ] final  112.56 input  -60.11 | X-H torsion
[ 7974 7965 7964 7962 ] final -145.92 input  175.53 | X-H torsion
[ 8008 7997 7996 7995 ] final -129.35 input   59.86 | X-H torsion
[ 10167 10162 10161 10158 ] final   86.59 input  -65.29 | X-H torsion
[ 10718 10713 10712 10709 ] final  146.04 input   66.30 | X-H torsion
[ 10763 10752 10751 10750 ] final   55.32 input  -60.55 | X-H torsion
[ 11005 11000 10999 10996 ] final  -96.57 input  -57.11 | X-H torsion

> <Gold.Protein.ActiveResidues>
 VAL166  LYS551  ARG553  GLY616  TRP617  ASP618  TYR619  PRO620  LYS621  CYS622 
 ASP623  PHE694  ASN695  SER759  ASP760  ASP761  ALA762  ILE779  LEU786  VAL792 
 PHE793  MET794  SER795  GLU796  ALA797  LYS798  CYS799  TRP800  GLU811  SER814 

> <Gold.Protein.RotatedAtoms>
  152.4909  133.8499  159.7195 H   0  0  0  0  0  0  0  0  0  0  0  0  # atno 6907 bound_to 6896
  150.9039  133.7074  159.2878 H   0  0  0  0  0  0  0  0  0  0  0  0  # atno 6908 bound_to 6896
  151.4506  135.1033  159.9749 H   0  0  0  0  0  0  0  0  0  0  0  0  # atno 6909 bound_to 6896
  144.8195  140.5522  143.5588 H   0  0  0  0  0  0  0  0  0  0  0  0  # atno 7974 bound_to 7965
  155.2777  140.0443  157.3013 H   0  0  0  0  0  0  0  0  0  0  0  0  # atno 8008 bound_to 7997
  154.5615  140.2347  155.8296 H   0  0  0  0  0  0  0  0  0  0  0  0  # atno 8009 bound_to 7997
  156.2051  140.3015  155.9617 H   0  0  0  0  0  0  0  0  0  0  0  0  # atno 8010 bound_to 7997
  139.8859  144.6413  150.8791 H   0  0  0  0  0  0  0  0  0  0  0  0  # atno 10167 bound_to 10162
  157.3380  131.0931  151.1106 H   0  0  0  0  0  0  0  0  0  0  0  0  # atno 10718 bound_to 10713
  152.9815  135.5714  154.5048 H   0  0  0  0  0  0  0  0  0  0  0  0  # atno 10763 bound_to 10752
  154.4561  135.2780  155.1748 H   0  0  0  0  0  0  0  0  0  0  0  0  # atno 10764 bound_to 10752
  154.3355  135.6240  153.5625 H   0  0  0  0  0  0  0  0  0  0  0  0  # atno 10765 bound_to 10752
  141.1407  133.8107  157.0589 H   0  0  0  0  0  0  0  0  0  0  0  0  # atno 11005 bound_to 11000
  145.5138  139.1478  143.3590 LP  0  0  0  0  0  0  0  0  0  0  0  0  # atno 17320 bound_to 7965
  146.2499  140.5279  142.8898 LP  0  0  0  0  0  0  0  0  0  0  0  0  # atno 17321 bound_to 7965
  140.7736  143.3548  151.1943 LP  0  0  0  0  0  0  0  0  0  0  0  0  # atno 17342 bound_to 10162
  139.7153  143.9310  152.2964 LP  0  0  0  0  0  0  0  0  0  0  0  0  # atno 17343 bound_to 10162
  157.2329  130.6533  149.5857 LP  0  0  0  0  0  0  0  0  0  0  0  0  # atno 17370 bound_to 10713
  155.9704  130.4593  150.6030 LP  0  0  0  0  0  0  0  0  0  0  0  0  # atno 17371 bound_to 10713
  140.0584  134.9768  157.1261 LP  0  0  0  0  0  0  0  0  0  0  0  0  # atno 17394 bound_to 11000
  140.3885  134.2210  155.7167 LP  0  0  0  0  0  0  0  0  0  0  0  0  # atno 17395 bound_to 11000

$$$$
