AV-unprocessed.smi:148|AV-procd|sdf|1225|dock3
  -GOLD-   2262018423D 1   1.00000     0.00000
 Structure written by MMmdl.
 63 67  0  0  0  0  0  0  0  0  1 V2000
  153.7927  139.1079  158.1097 O   0  0  0  0  0  0  0  0  0  0  0  0
  152.4704  138.9138  157.6488 C   0  0  0  0  0  0  0  0  0  0  0  0
  151.9062  140.1876  156.9776 C   0  0  1  0  0  0  0  0  0  0  0  0
  150.7735  139.7860  155.9959 C   0  0  0  0  0  0  0  0  0  0  0  0
  150.7438  138.3767  155.6484 N   0  0  0  0  0  0  0  0  0  0  0  0
  151.6986  137.6848  154.9362 C   0  0  0  0  0  0  0  0  0  0  0  0
  151.4463  136.4175  154.7513 N   0  0  0  0  0  0  0  0  0  0  0  0
  150.2146  136.2295  155.3642 C   0  0  0  0  0  0  0  0  0  0  0  0
  149.3587  135.1105  155.5334 C   0  0  0  0  0  0  0  0  0  0  0  0
  149.6837  133.8866  155.0633 N   0  0  0  0  0  0  0  0  0  0  0  0
  150.7100  133.2817  155.9155 C   0  0  0  0  0  0  0  0  0  0  0  0
  151.3202  132.0400  155.2593 C   0  0  0  0  0  0  0  0  0  0  0  0
  150.2147  131.0410  154.9159 C   0  0  0  0  0  0  0  0  0  0  0  0
  149.1614  131.7146  154.0270 C   0  0  0  0  0  0  0  0  0  0  0  0
  148.5695  133.0018  154.6638 C   0  0  2  0  0  0  0  0  0  0  0  0
  147.5470  133.6749  153.6816 C   0  0  1  0  0  0  0  0  0  0  0  0
  147.6362  133.2040  152.2171 C   0  0  0  0  0  0  0  0  0  0  0  0
  146.3231  133.6215  151.5455 C   0  0  0  0  0  0  0  0  0  0  0  0
  145.3354  133.9100  152.6811 C   0  0  0  0  0  0  0  0  0  0  0  0
  146.0402  133.4900  153.9751 C   0  0  1  0  0  0  0  0  0  0  0  0
  145.7310  132.1348  154.2419 O   0  0  0  0  0  0  0  0  0  0  0  0
  148.1890  135.2955  156.2010 N   0  0  0  0  0  0  0  0  0  0  0  0
  147.8724  136.5087  156.6639 C   0  0  0  0  0  0  0  0  0  0  0  0
  148.5708  137.6438  156.5793 N   0  0  0  0  0  0  0  0  0  0  0  0
  149.7490  137.4536  155.9183 C   0  0  0  0  0  0  0  0  0  0  0  0
  151.5101  141.2840  158.0109 C   0  0  1  0  0  0  0  0  0  0  0  0
  152.6558  141.7828  158.8781 C   0  0  0  0  0  0  0  0  0  0  0  0
  152.1050  143.0930  159.4210 C   0  0  0  0  0  0  0  0  0  0  0  0
  151.3641  143.6441  158.3432 O   0  0  0  0  0  0  0  0  0  0  0  0
  151.0164  142.6157  157.4207 C   0  0  0  0  0  0  0  0  0  0  0  0
  153.9207  138.5845  158.8862 H   0  0  0  0  0  0  0  0  0  0  0  0
  152.4574  138.0677  156.9621 H   0  0  0  0  0  0  0  0  0  0  0  0
  151.8473  138.6243  158.4955 H   0  0  0  0  0  0  0  0  0  0  0  0
  152.7255  140.5913  156.3817 H   0  0  0  0  0  0  0  0  0  0  0  0
  149.8027  140.0326  156.4273 H   0  0  0  0  0  0  0  0  0  0  0  0
  150.8532  140.3644  155.0746 H   0  0  0  0  0  0  0  0  0  0  0  0
  152.6020  138.1492  154.5685 H   0  0  0  0  0  0  0  0  0  0  0  0
  151.4995  134.0066  156.1217 H   0  0  0  0  0  0  0  0  0  0  0  0
  150.2712  133.0076  156.8764 H   0  0  0  0  0  0  0  0  0  0  0  0
  151.8586  132.3260  154.3548 H   0  0  0  0  0  0  0  0  0  0  0  0
  152.0495  131.5816  155.9274 H   0  0  0  0  0  0  0  0  0  0  0  0
  150.6358  130.1722  154.4094 H   0  0  0  0  0  0  0  0  0  0  0  0
  149.7468  130.6759  155.8311 H   0  0  0  0  0  0  0  0  0  0  0  0
  149.6101  131.9579  153.0626 H   0  0  0  0  0  0  0  0  0  0  0  0
  148.3788  130.9830  153.8287 H   0  0  0  0  0  0  0  0  0  0  0  0
  148.0449  132.7004  155.5712 H   0  0  0  0  0  0  0  0  0  0  0  0
  147.7525  134.7471  153.6741 H   0  0  0  0  0  0  0  0  0  0  0  0
  148.4996  133.6193  151.6963 H   0  0  0  0  0  0  0  0  0  0  0  0
  147.7237  132.1171  152.1816 H   0  0  0  0  0  0  0  0  0  0  0  0
  146.4666  134.5151  150.9368 H   0  0  0  0  0  0  0  0  0  0  0  0
  145.9572  132.8330  150.8870 H   0  0  0  0  0  0  0  0  0  0  0  0
  145.1353  134.9819  152.7133 H   0  0  0  0  0  0  0  0  0  0  0  0
  144.3757  133.4108  152.5399 H   0  0  0  0  0  0  0  0  0  0  0  0
  145.6831  134.0995  154.8025 H   0  0  0  0  0  0  0  0  0  0  0  0
  144.7990  132.0630  154.3811 H   0  0  0  0  0  0  0  0  0  0  0  0
  146.9239  136.5801  157.1750 H   0  0  0  0  0  0  0  0  0  0  0  0
  150.7359  140.8912  158.6721 H   0  0  0  0  0  0  0  0  0  0  0  0
  152.9285  141.0891  159.6738 H   0  0  0  0  0  0  0  0  0  0  0  0
  153.5413  141.9744  158.2701 H   0  0  0  0  0  0  0  0  0  0  0  0
  151.4289  142.9060  160.2564 H   0  0  0  0  0  0  0  0  0  0  0  0
  152.8877  143.7723  159.7589 H   0  0  0  0  0  0  0  0  0  0  0  0
  151.5094  142.8348  156.4730 H   0  0  0  0  0  0  0  0  0  0  0  0
  149.9406  142.6198  157.2513 H   0  0  0  0  0  0  0  0  0  0  0  0
  1  2  1  0  0  0  0
  1 31  1  0  0  0  0
  2  3  1  0  0  0  0
  2 32  1  0  0  0  0
  2 33  1  0  0  0  0
  3  4  1  0  0  0  0
  3 26  1  0  0  0  0
  3 34  1  0  0  0  0
  4  5  1  0  0  0  0
  4 35  1  0  0  0  0
  4 36  1  0  0  0  0
  5 25  1  0  0  0  0
  5  6  1  0  0  0  0
  6  7  2  0  0  0  0
  6 37  1  0  0  0  0
  7  8  1  0  0  0  0
  8 25  2  0  0  0  0
  8  9  1  0  0  0  0
  9 10  1  0  0  0  0
  9 22  2  0  0  0  0
 10 15  1  0  0  0  0
 10 11  1  0  0  0  0
 11 12  1  0  0  0  0
 11 38  1  0  0  0  0
 11 39  1  0  0  0  0
 12 13  1  0  0  0  0
 12 40  1  0  0  0  0
 12 41  1  0  0  0  0
 13 14  1  0  0  0  0
 13 42  1  0  0  0  0
 13 43  1  0  0  0  0
 14 15  1  0  0  0  0
 14 44  1  0  0  0  0
 14 45  1  0  0  0  0
 15 16  1  0  0  0  0
 15 46  1  0  0  0  0
 16 20  1  0  0  0  0
 16 17  1  0  0  0  0
 16 47  1  0  0  0  0
 17 18  1  0  0  0  0
 17 48  1  0  0  0  0
 17 49  1  0  0  0  0
 18 19  1  0  0  0  0
 18 50  1  0  0  0  0
 18 51  1  0  0  0  0
 19 20  1  0  0  0  0
 19 52  1  0  0  0  0
 19 53  1  0  0  0  0
 20 21  1  0  0  0  0
 20 54  1  0  0  0  0
 21 55  1  0  0  0  0
 22 23  1  0  0  0  0
 23 24  2  0  0  0  0
 23 56  1  0  0  0  0
 24 25  1  0  0  0  0
 26 30  1  0  0  0  0
 26 27  1  0  0  0  0
 26 57  1  0  0  0  0
 27 28  1  0  0  0  0
 27 58  1  0  0  0  0
 27 59  1  0  0  0  0
 28 29  1  0  0  0  0
 28 60  1  0  0  0  0
 28 61  1  0  0  0  0
 29 30  1  0  0  0  0
 30 62  1  0  0  0  0
 30 63  1  0  0  0  0
M  END
> <s_m_source_file>
AV-unprocessed.smi

> <i_m_source_file_index>
148

> <i_lp_mmshare_version>
43012

> <i_f3d_flags>
0

> <s_epik_input>
W0NIMl0xT1tDSDJdW0NIMl1bQ0BIXTFbQ0BIXShbQ0gyXVtPSF0pW0NIMl1uKFtjSF1uMiljKGMyMyluW2NIXW5jM040W0NIMl1bQ0gyXVtDSDJdW0NIMl1bQ0BIXTRbQ0BASF01W0NIMl1bQ0gyXVtDSDJdW0NASF01W09IXQ==

> <s_epik_cmdline>
J2VwaWtfcHl0aG9uJywgJy1waCcsICc3LjAnLCAnLXRuJywgJzgnLCAnLW1hJywgJzIwMCcsICctbWV0YWxfYmluZGluZycsICctaW1hZScsICc8aW5maWxlLm1hZT4nLCAnLW9tYWUnLCAnPG91dGZpbGUubWFlPic=

> <r_lp_tautomer_probability>
1

> <r_epik_Ionization_Penalty>
0.00556303

> <r_epik_Ionization_Penalty_Charging>
0

> <r_epik_Ionization_Penalty_Neutral>
0.00556303

> <r_epik_State_Penalty>
0.00401767

> <r_epik_Charging_Adjusted_Penalty>
0.00401767

> <i_epik_Tot_Q>
0

> <i_epik_Tot_abs_Q>
0

> <r_epik_Metal_State_Penalty>
-0

> <b_epik_Metal_Only>
0

> <s_lp_Force_Field>
OPLS_2005

> <r_lp_Energy>
70.5137

> <b_lp_Chiralities_Consistent>
1

> <s_lp_Variant>
AV-unprocessed.smi:148-24

> <Gold.Version>
5.8.1

> <Gold.Id.Protein>
6NUR|6NUR_protein|mol2

> <Gold.PLP.Fitness>
45.4009

> <Gold.PLP.PLP>
-41.6654

> <Gold.PLP.part.hbond>
-3.0000

> <Gold.PLP.part.metal>
0.0000

> <Gold.PLP.part.buried>
-6.3381

> <Gold.PLP.part.nonpolar>
-33.4442

> <Gold.PLP.part.repulsive>
0.3289

> <Gold.PLP.ligand.clash>
0.0000

> <Gold.PLP.ligand.torsion>
2.6159

> <Gold.PLP.Chemscore.Hbond>
2.7963

> <Gold.PLP.Chemscore.CHOScore>
0.0000

> <Gold.PLP.Chemscore.Metal>
0.0000

> <Gold.Chemscore.Hbonds>
donor molecule, donor type, donor heavy atom, donor atom, acceptor molecule, acceptor atom, score
      L1  H    21    55       P1 10957  0.63
      P1  H  7997  8009       L1     1  0.93
      P1  H 10752 10764       L1     7  1.00

> <Gold.PLP.Chemscore.Internal.Correction>
0.5784

> <Gold.Rescore>
     Score         DG    S(hbond)    S(metal)    S(lipo)     H(rot)  DE(clash)    DE(int)     intcor
     14.78     -17.60       2.55        0.00     103.38       3.32       0.01       2.80       ----

> <Gold.Chemscore.Fitness>
14.7830

> <Gold.Chemscore.DG>
-17.5981

> <Gold.Chemscore.ZeroCoef>
-5.4800

> <Gold.Chemscore.Hbond>
2.5518

> <Gold.Chemscore.Metal>
0.0000

> <Gold.Chemscore.Lipo>
103.3778

> <Gold.Chemscore.Internal_Hbond>
0.0000

> <Gold.Chemscore.DEClash>
0.0133

> <Gold.Chemscore.DEInternal>
2.8019

> <Gold.Chemscore.Rot>
3.3203

> <Gold.Chemscore.Internal.Correction>
   9.000000E+99

> <Gold.Chemscore.Hbonds>
donor molecule, donor type, donor heavy atom, donor atom, acceptor molecule, acceptor atom, score
      L1  H    21    55       P1 10957  0.14
      P1  H  7997  8009       L1     1  0.89
      P1  H 10752 10764       L1     7  0.65

> <Gold.Chemscore.Hbond.Weighted>
-8.5229

> <Gold.Chemscore.Metal.Weighted>
-0.0000

> <Gold.Chemscore.Lipo.Weighted>
-12.0952

> <Gold.Chemscore.Internal_Hbond.Weighted>
0.0000

> <Gold.Chemscore.DEClash.Weighted>
0.0133

> <Gold.Chemscore.DEInternal.Weighted>
2.8019

> <Gold.Chemscore.Rot.Weighted>
8.5000

> <Gold.Chemscore.Internal.Correction.Weighted>
   9.000000E+99

> <Gold.Protein.RotatedTorsions>
[ 6907 6896 6895 6894 ] final   96.01 input  -60.11 | X-H torsion
[ 7974 7965 7964 7962 ] final  -43.88 input  175.53 | X-H torsion
[ 8008 7997 7996 7995 ] final  123.72 input   59.86 | X-H torsion
[ 10167 10162 10161 10158 ] final -175.99 input  -65.29 | X-H torsion
[ 10718 10713 10712 10709 ] final   11.16 input   66.30 | X-H torsion
[ 10763 10752 10751 10750 ] final  -61.06 input  -60.55 | X-H torsion
[ 11005 11000 10999 10996 ] final  -68.97 input  -57.11 | X-H torsion

> <Gold.Protein.ActiveResidues>
 VAL166  LYS551  ARG553  GLY616  TRP617  ASP618  TYR619  PRO620  LYS621  CYS622 
 ASP623  PHE694  ASN695  SER759  ASP760  ASP761  ALA762  ILE779  LEU786  VAL792 
 PHE793  MET794  SER795  GLU796  ALA797  LYS798  CYS799  TRP800  GLU811  SER814 

> <Gold.Protein.RotatedAtoms>
  152.5439  134.0951  159.8293 H   0  0  0  0  0  0  0  0  0  0  0  0  # atno 6907 bound_to 6896
  151.1036  133.5218  159.2616 H   0  0  0  0  0  0  0  0  0  0  0  0  # atno 6908 bound_to 6896
  151.1963  135.0433  159.8908 H   0  0  0  0  0  0  0  0  0  0  0  0  # atno 6909 bound_to 6896
  145.9976  140.7111  142.9286 H   0  0  0  0  0  0  0  0  0  0  0  0  # atno 7974 bound_to 7965
  156.2776  140.2756  156.1674 H   0  0  0  0  0  0  0  0  0  0  0  0  # atno 8008 bound_to 7997
  155.0691  140.0387  157.2620 H   0  0  0  0  0  0  0  0  0  0  0  0  # atno 8009 bound_to 7997
  154.7055  140.2658  155.6684 H   0  0  0  0  0  0  0  0  0  0  0  0  # atno 8010 bound_to 7997
  139.5552  144.2006  152.1147 H   0  0  0  0  0  0  0  0  0  0  0  0  # atno 10167 bound_to 10162
  156.9915  130.6044  149.5686 H   0  0  0  0  0  0  0  0  0  0  0  0  # atno 10718 bound_to 10713
  154.2788  135.6276  153.5339 H   0  0  0  0  0  0  0  0  0  0  0  0  # atno 10763 bound_to 10752
  152.9869  135.5628  154.5519 H   0  0  0  0  0  0  0  0  0  0  0  0  # atno 10764 bound_to 10752
  154.5105  135.2877  155.1322 H   0  0  0  0  0  0  0  0  0  0  0  0  # atno 10765 bound_to 10752
  141.1544  133.6753  156.6527 H   0  0  0  0  0  0  0  0  0  0  0  0  # atno 11005 bound_to 11000
  144.6909  140.3177  143.7237 LP  0  0  0  0  0  0  0  0  0  0  0  0  # atno 17320 bound_to 7965
  145.7536  139.1802  143.2307 LP  0  0  0  0  0  0  0  0  0  0  0  0  # atno 17321 bound_to 7965
  140.1509  144.5115  150.6688 LP  0  0  0  0  0  0  0  0  0  0  0  0  # atno 17342 bound_to 10162
  140.6824  143.2333  151.5350 LP  0  0  0  0  0  0  0  0  0  0  0  0  # atno 17343 bound_to 10162
  156.0205  130.5300  150.8262 LP  0  0  0  0  0  0  0  0  0  0  0  0  # atno 17370 bound_to 10713
  157.5455  131.0942  150.9768 LP  0  0  0  0  0  0  0  0  0  0  0  0  # atno 17371 bound_to 10713
  140.3307  134.7931  157.4324 LP  0  0  0  0  0  0  0  0  0  0  0  0  # atno 17394 bound_to 11000
  140.1019  134.5462  155.8345 LP  0  0  0  0  0  0  0  0  0  0  0  0  # atno 17395 bound_to 11000

$$$$
