AV-unprocessed.smi:2110|AV-procd|sdf|8609|dock10
  -GOLD-   2272011353D 1   1.00000     0.00000
 Structure written by MMmdl.
 47 48  0  0  0  0  0  0  0  0  2 V2000
  150.9417  140.2312  155.6908 C   0  0  0  0  0  0  0  0  0  0  0  0
  150.9841  139.0657  154.6941 C   0  0  0  0  0  0  0  0  0  0  0  0
  149.9354  138.0791  154.9971 N   0  0  0  0  0  0  0  0  0  0  0  0
  148.5648  138.5937  155.1495 C   0  0  0  0  0  0  0  0  0  0  0  0
  148.0203  139.1467  153.8250 C   0  0  0  0  0  0  0  0  0  0  0  0
  150.3618  136.5499  155.6949 S   0  0  0  0  0  0  0  0  0  0  0  0
  151.8187  136.3680  155.6013 O   0  0  0  0  0  0  0  0  0  0  0  0
  149.6545  136.4126  156.9767 O   0  0  0  0  0  0  0  0  0  0  0  0
  149.6083  135.5029  154.5462 N   0  0  0  0  0  0  0  0  0  0  0  0
  149.5195  134.0573  154.7658 C   0  0  0  0  0  0  0  0  0  0  0  0
  148.1093  133.5057  154.6500 C   0  0  0  0  0  0  0  0  0  0  0  0
  147.4795  132.9343  155.7747 C   0  0  0  0  0  0  0  0  0  0  0  0
  146.1704  132.4357  155.6447 C   0  0  0  0  0  0  0  0  0  0  0  0
  145.5390  132.5082  154.4537 N   0  3  0  0  0  0  0  0  0  0  0  0
  146.0908  133.0413  153.3359 C   0  0  0  0  0  0  0  0  0  0  0  0
  145.3125  133.0673  152.1571 N   0  0  0  0  0  0  0  0  0  0  0  0
  144.9521  131.7730  151.5798 C   0  0  0  0  0  0  0  0  0  0  0  0
  143.8492  131.9405  150.5209 C   0  0  0  0  0  0  0  0  0  0  0  0
  144.2571  132.8965  149.5492 O   0  0  0  0  0  0  0  0  0  0  0  0
  144.4613  134.1797  150.1282 C   0  0  0  0  0  0  0  0  0  0  0  0
  145.5907  134.1063  151.1693 C   0  0  0  0  0  0  0  0  0  0  0  0
  147.4111  133.5518  153.4219 C   0  0  0  0  0  0  0  0  0  0  0  0
  151.7287  140.9531  155.4726 H   0  0  0  0  0  0  0  0  0  0  0  0
  151.0867  139.8813  156.7131 H   0  0  0  0  0  0  0  0  0  0  0  0
  149.9906  140.7612  155.6511 H   0  0  0  0  0  0  0  0  0  0  0  0
  150.8479  139.4320  153.6762 H   0  0  0  0  0  0  0  0  0  0  0  0
  151.9673  138.5946  154.7210 H   0  0  0  0  0  0  0  0  0  0  0  0
  147.9122  137.7920  155.4955 H   0  0  0  0  0  0  0  0  0  0  0  0
  148.5490  139.3607  155.9247 H   0  0  0  0  0  0  0  0  0  0  0  0
  146.9939  139.4927  153.9466 H   0  0  0  0  0  0  0  0  0  0  0  0
  148.0204  138.3820  153.0483 H   0  0  0  0  0  0  0  0  0  0  0  0
  148.6095  139.9904  153.4658 H   0  0  0  0  0  0  0  0  0  0  0  0
  149.6623  135.8095  153.5750 H   0  0  0  0  0  0  0  0  0  0  0  0
  150.1417  133.5572  154.0238 H   0  0  0  0  0  0  0  0  0  0  0  0
  149.9409  133.8138  155.7409 H   0  0  0  0  0  0  0  0  0  0  0  0
  147.9875  132.8833  156.7268 H   0  0  0  0  0  0  0  0  0  0  0  0
  145.6106  131.9874  156.4527 H   0  0  0  0  0  0  0  0  0  0  0  0
  145.8403  131.3313  151.1267 H   0  0  0  0  0  0  0  0  0  0  0  0
  144.6012  131.0771  152.3415 H   0  0  0  0  0  0  0  0  0  0  0  0
  143.6592  130.9890  150.0241 H   0  0  0  0  0  0  0  0  0  0  0  0
  142.9102  132.2507  150.9822 H   0  0  0  0  0  0  0  0  0  0  0  0
  144.7220  134.8875  149.3413 H   0  0  0  0  0  0  0  0  0  0  0  0
  143.5356  134.5373  150.5825 H   0  0  0  0  0  0  0  0  0  0  0  0
  145.6802  135.0786  151.6543 H   0  0  0  0  0  0  0  0  0  0  0  0
  146.5412  133.8918  150.6790 H   0  0  0  0  0  0  0  0  0  0  0  0
  147.9041  133.9815  152.5632 H   0  0  0  0  0  0  0  0  0  0  0  0
  144.5874  132.1452  154.3937 H   0  0  0  0  0  0  0  0  0  0  0  0
  1  2  1  0  0  0  0
  1 23  1  0  0  0  0
  1 24  1  0  0  0  0
  1 25  1  0  0  0  0
  2  3  1  0  0  0  0
  2 26  1  0  0  0  0
  2 27  1  0  0  0  0
  3  4  1  0  0  0  0
  3  6  1  0  0  0  0
  4  5  1  0  0  0  0
  4 28  1  0  0  0  0
  4 29  1  0  0  0  0
  5 30  1  0  0  0  0
  5 31  1  0  0  0  0
  5 32  1  0  0  0  0
  6  7  2  0  0  0  0
  6  8  2  0  0  0  0
  6  9  1  0  0  0  0
  9 10  1  0  0  0  0
  9 33  1  0  0  0  0
 10 11  1  0  0  0  0
 10 34  1  0  0  0  0
 10 35  1  0  0  0  0
 11 22  1  0  0  0  0
 11 12  2  0  0  0  0
 12 13  1  0  0  0  0
 12 36  1  0  0  0  0
 13 14  2  0  0  0  0
 13 37  1  0  0  0  0
 14 15  1  0  0  0  0
 14 47  1  0  0  0  0
 15 16  1  0  0  0  0
 15 22  2  0  0  0  0
 16 21  1  0  0  0  0
 16 17  1  0  0  0  0
 17 18  1  0  0  0  0
 17 38  1  0  0  0  0
 17 39  1  0  0  0  0
 18 19  1  0  0  0  0
 18 40  1  0  0  0  0
 18 41  1  0  0  0  0
 19 20  1  0  0  0  0
 20 21  1  0  0  0  0
 20 42  1  0  0  0  0
 20 43  1  0  0  0  0
 21 44  1  0  0  0  0
 21 45  1  0  0  0  0
 22 46  1  0  0  0  0
M  CHG  1  14   1
M  END
> <s_m_source_file>
AV-unprocessed.smi

> <i_m_source_file_index>
2110

> <i_lp_mmshare_version>
43012

> <i_f3d_flags>
0

> <s_epik_input>
W0NIM11bQ0gyXU4oW0NIMl1bQ0gzXSlTKD1PKSg9TylbTkhdW0NIMl1jMVtjSF1bY0hdbmMoW2NIXTEpTjJbQ0gyXVtDSDJdT1tDSDJdW0NIMl0y

> <s_epik_cmdline>
J2VwaWtfcHl0aG9uJywgJy1waCcsICc3LjAnLCAnLXRuJywgJzgnLCAnLW1hJywgJzIwMCcsICctbWV0YWxfYmluZGluZycsICctaW1hZScsICc8aW5maWxlLm1hZT4nLCAnLW9tYWUnLCAnPG91dGZpbGUubWFlPic=

> <r_lp_tautomer_probability>
0.999994

> <r_epik_Ionization_Penalty>
1.66934

> <r_epik_Ionization_Penalty_Charging>
1.61364

> <r_epik_Ionization_Penalty_Neutral>
0.0557011

> <r_epik_State_Penalty>
1.67389

> <r_epik_Charging_Adjusted_Penalty>
3.28753

> <i_epik_Tot_Q>
1

> <i_epik_Tot_abs_Q>
1

> <r_epik_Metal_State_Penalty>
4.64949

> <b_epik_Metal_Only>
0

> <s_lp_Force_Field>
OPLS_2005

> <r_lp_Energy>
18.4454

> <b_lp_Chiralities_Consistent>
1

> <s_lp_Variant>
AV-unprocessed.smi:2110-2

> <Gold.Version>
5.8.1

> <Gold.Id.Protein>
6NUR|6NUR_protein|mol2

> <Gold.PLP.Fitness>
42.7112

> <Gold.PLP.PLP>
-32.0429

> <Gold.PLP.part.hbond>
-2.9091

> <Gold.PLP.part.metal>
0.0000

> <Gold.PLP.part.buried>
-3.4747

> <Gold.PLP.part.nonpolar>
-25.2988

> <Gold.PLP.part.repulsive>
0.4188

> <Gold.PLP.ligand.clash>
0.0000

> <Gold.PLP.ligand.torsion>
2.3143

> <Gold.PLP.Chemscore.Hbond>
3.8000

> <Gold.PLP.Chemscore.CHOScore>
0.0000

> <Gold.PLP.Chemscore.Metal>
0.0000

> <Gold.Chemscore.Hbonds>
donor molecule, donor type, donor heavy atom, donor atom, acceptor molecule, acceptor atom, score
      L1  H     9    33       P1  7948  0.90
      L1  H    14    47       P1 10957  2.00
      P1  H 10752 10763       L1     7  1.00

> <Gold.PLP.Chemscore.Internal.Correction>
3.8968

> <Gold.Rescore>
     Score         DG    S(hbond)    S(metal)    S(lipo)     H(rot)  DE(clash)    DE(int)     intcor
     14.00     -16.29       2.28        0.00      65.94       1.77       0.05       2.23       ----

> <Gold.Chemscore.Fitness>
14.0034

> <Gold.Chemscore.DG>
-16.2851

> <Gold.Chemscore.ZeroCoef>
-5.4800

> <Gold.Chemscore.Hbond>
2.2802

> <Gold.Chemscore.Metal>
0.0000

> <Gold.Chemscore.Lipo>
65.9415

> <Gold.Chemscore.Internal_Hbond>
0.0000

> <Gold.Chemscore.DEClash>
0.0524

> <Gold.Chemscore.DEInternal>
2.2293

> <Gold.Chemscore.Rot>
1.7680

> <Gold.Chemscore.Internal.Correction>
   9.000000E+99

> <Gold.Chemscore.Hbonds>
donor molecule, donor type, donor heavy atom, donor atom, acceptor molecule, acceptor atom, score
      L1  H     9    33       P1  7948  0.18
      L1  H    14    47       P1 10957  0.29
      P1  H 10752 10763       L1     7  0.99

> <Gold.Chemscore.Hbond.Weighted>
-7.6160

> <Gold.Chemscore.Metal.Weighted>
-0.0000

> <Gold.Chemscore.Lipo.Weighted>
-7.7152

> <Gold.Chemscore.Internal_Hbond.Weighted>
0.0000

> <Gold.Chemscore.DEClash.Weighted>
0.0524

> <Gold.Chemscore.DEInternal.Weighted>
2.2293

> <Gold.Chemscore.Rot.Weighted>
4.5261

> <Gold.Chemscore.Internal.Correction.Weighted>
   9.000000E+99

> <Gold.Protein.RotatedTorsions>
[ 6907 6896 6895 6894 ] final   19.34 input  -60.11 | X-H torsion
[ 7974 7965 7964 7962 ] final  178.34 input  175.53 | X-H torsion
[ 8008 7997 7996 7995 ] final   67.48 input   59.86 | X-H torsion
[ 10167 10162 10161 10158 ] final  -61.99 input  -65.29 | X-H torsion
[ 10718 10713 10712 10709 ] final   77.49 input   66.30 | X-H torsion
[ 10763 10752 10751 10750 ] final   61.66 input  -60.55 | X-H torsion
[ 11005 11000 10999 10996 ] final   44.66 input  -57.11 | X-H torsion

> <Gold.Protein.ActiveResidues>
 VAL166  LYS551  ARG553  GLY616  TRP617  ASP618  TYR619  PRO620  LYS621  CYS622 
 ASP623  PHE694  ASN695  SER759  ASP760  ASP761  ALA762  ILE779  LEU786  VAL792 
 PHE793  MET794  SER795  GLU796  ALA797  LYS798  CYS799  TRP800  GLU811  SER814 

> <Gold.Protein.RotatedAtoms>
  151.8794  135.0459  160.0486 H   0  0  0  0  0  0  0  0  0  0  0  0  # atno 6907 bound_to 6896
  152.2525  133.5223  159.5342 H   0  0  0  0  0  0  0  0  0  0  0  0  # atno 6908 bound_to 6896
  150.7088  134.0857  159.3956 H   0  0  0  0  0  0  0  0  0  0  0  0  # atno 6909 bound_to 6896
  144.7157  140.0383  143.6438 H   0  0  0  0  0  0  0  0  0  0  0  0  # atno 7974 bound_to 7965
  155.6936  140.3496  155.4903 H   0  0  0  0  0  0  0  0  0  0  0  0  # atno 8008 bound_to 7997
  155.9503  140.1118  157.1005 H   0  0  0  0  0  0  0  0  0  0  0  0  # atno 8009 bound_to 7997
  154.4120  140.1195  156.5030 H   0  0  0  0  0  0  0  0  0  0  0  0  # atno 8010 bound_to 7997
  140.5969  143.2353  151.6015 H   0  0  0  0  0  0  0  0  0  0  0  0  # atno 10167 bound_to 10162
  157.6712  130.9824  150.1649 H   0  0  0  0  0  0  0  0  0  0  0  0  # atno 10718 bound_to 10713
  152.9957  135.5493  154.6069 H   0  0  0  0  0  0  0  0  0  0  0  0  # atno 10763 bound_to 10752
  154.5398  135.2819  155.1108 H   0  0  0  0  0  0  0  0  0  0  0  0  # atno 10764 bound_to 10752
  154.2390  135.6420  153.5253 H   0  0  0  0  0  0  0  0  0  0  0  0  # atno 10765 bound_to 10752
  140.1531  134.4436  155.8368 H   0  0  0  0  0  0  0  0  0  0  0  0  # atno 11005 bound_to 11000
  146.0045  139.3118  143.0907 LP  0  0  0  0  0  0  0  0  0  0  0  0  # atno 17320 bound_to 7965
  145.8754  140.9395  143.0629 LP  0  0  0  0  0  0  0  0  0  0  0  0  # atno 17321 bound_to 7965
  139.5264  144.3045  152.1045 LP  0  0  0  0  0  0  0  0  0  0  0  0  # atno 17342 bound_to 10162
  140.2219  144.4457  150.6338 LP  0  0  0  0  0  0  0  0  0  0  0  0  # atno 17343 bound_to 10162
  156.2417  130.3691  149.8330 LP  0  0  0  0  0  0  0  0  0  0  0  0  # atno 17370 bound_to 10713
  156.6128  130.8594  151.3458 LP  0  0  0  0  0  0  0  0  0  0  0  0  # atno 17371 bound_to 10713
  141.2201  133.6881  156.7458 LP  0  0  0  0  0  0  0  0  0  0  0  0  # atno 17394 bound_to 11000
  140.2580  134.8489  157.3731 LP  0  0  0  0  0  0  0  0  0  0  0  0  # atno 17395 bound_to 11000

$$$$
