AV-unprocessed.smi:166|AV-procd|sdf|1389|dock4
  -GOLD-   2262019123D 1   1.00000     0.00000
 Structure written by MMmdl.
 54 58  0  0  0  0  0  0  0  0  1 V2000
  144.7015  133.0472  153.0012 O   0  0  0  0  0  0  0  0  0  0  0  0
  144.1136  133.6721  151.8728 C   0  0  2  0  0  0  0  0  0  0  0  0
  143.3508  134.9369  152.3331 C   0  0  0  0  0  0  0  0  0  0  0  0
  144.2148  136.0745  152.6123 N   0  0  0  0  0  0  0  0  0  0  0  0
  144.9291  136.8097  151.6929 C   0  0  0  0  0  0  0  0  0  0  0  0
  145.6447  137.7807  152.1904 N   0  0  0  0  0  0  0  0  0  0  0  0
  145.4142  137.7061  153.5590 C   0  0  0  0  0  0  0  0  0  0  0  0
  145.8821  138.4426  154.6837 C   0  0  0  0  0  0  0  0  0  0  0  0
  146.7352  139.4916  154.5687 N   0  0  0  0  0  0  0  0  0  0  0  0
  146.2904  140.7206  155.2246 C   0  0  0  0  0  0  0  0  0  0  0  0
  147.0736  141.9342  154.6988 C   0  0  0  0  0  0  0  0  0  0  0  0
  148.5876  141.7056  154.8211 C   0  0  0  0  0  0  0  0  0  0  0  0
  148.9940  140.4026  154.1133 C   0  0  1  0  0  0  0  0  0  0  0  0
  150.3839  140.2102  154.3381 O   0  0  0  0  0  0  0  0  0  0  0  0
  150.7551  140.1311  155.7082 C   0  0  0  0  0  0  0  0  0  0  0  0
  152.1470  139.5469  155.8668 C   0  0  0  0  0  0  0  0  0  0  0  0
  152.7490  138.6624  154.7942 C   0  0  0  0  0  0  0  0  0  0  0  0
  152.3485  138.0663  156.1168 C   0  0  0  0  0  0  0  0  0  0  0  0
  148.1705  139.2175  154.6607 C   0  0  0  0  0  0  0  0  0  0  0  0
  145.4441  138.0540  155.9114 N   0  0  0  0  0  0  0  0  0  0  0  0
  144.6041  137.0219  156.0331 C   0  0  0  0  0  0  0  0  0  0  0  0
  144.0874  136.2492  155.0758 N   0  0  0  0  0  0  0  0  0  0  0  0
  144.5239  136.6314  153.8417 C   0  0  0  0  0  0  0  0  0  0  0  0
  143.2087  132.6571  151.1843 C   0  0  0  0  0  0  0  0  0  0  0  0
  144.1564  131.9610  150.2170 C   0  0  0  0  0  0  0  0  0  0  0  0
  144.9587  133.0284  149.7427 O   0  0  0  0  0  0  0  0  0  0  0  0
  145.2154  133.9227  150.8214 C   0  0  0  0  0  0  0  0  0  0  0  0
  144.0104  132.6983  153.5427 H   0  0  0  0  0  0  0  0  0  0  0  0
  142.6264  135.2347  151.5740 H   0  0  0  0  0  0  0  0  0  0  0  0
  142.7747  134.7199  153.2336 H   0  0  0  0  0  0  0  0  0  0  0  0
  144.9028  136.6015  150.6330 H   0  0  0  0  0  0  0  0  0  0  0  0
  145.2241  140.8888  155.0778 H   0  0  0  0  0  0  0  0  0  0  0  0
  146.4446  140.6172  156.2995 H   0  0  0  0  0  0  0  0  0  0  0  0
  146.8133  142.1113  153.6545 H   0  0  0  0  0  0  0  0  0  0  0  0
  146.7846  142.8308  155.2473 H   0  0  0  0  0  0  0  0  0  0  0  0
  149.1295  142.5501  154.3939 H   0  0  0  0  0  0  0  0  0  0  0  0
  148.8661  141.6565  155.8747 H   0  0  0  0  0  0  0  0  0  0  0  0
  148.8050  140.5201  153.0446 H   0  0  0  0  0  0  0  0  0  0  0  0
  150.7416  141.1180  156.1704 H   0  0  0  0  0  0  0  0  0  0  0  0
  150.0515  139.5002  156.2531 H   0  0  0  0  0  0  0  0  0  0  0  0
  152.8406  140.2114  156.3788 H   0  0  0  0  0  0  0  0  0  0  0  0
  152.1379  138.4172  153.9276 H   0  0  0  0  0  0  0  0  0  0  0  0
  153.8130  138.7715  154.5948 H   0  0  0  0  0  0  0  0  0  0  0  0
  153.1458  137.7781  156.7989 H   0  0  0  0  0  0  0  0  0  0  0  0
  151.4701  137.4243  156.1328 H   0  0  0  0  0  0  0  0  0  0  0  0
  148.4342  139.0306  155.7026 H   0  0  0  0  0  0  0  0  0  0  0  0
  148.4030  138.3120  154.0997 H   0  0  0  0  0  0  0  0  0  0  0  0
  144.3035  136.7804  157.0420 H   0  0  0  0  0  0  0  0  0  0  0  0
  142.7153  131.9690  151.8718 H   0  0  0  0  0  0  0  0  0  0  0  0
  142.4324  133.1678  150.6126 H   0  0  0  0  0  0  0  0  0  0  0  0
  144.7819  131.2321  150.7349 H   0  0  0  0  0  0  0  0  0  0  0  0
  143.6358  131.4554  149.4036 H   0  0  0  0  0  0  0  0  0  0  0  0
  145.1943  134.9383  150.4291 H   0  0  0  0  0  0  0  0  0  0  0  0
  146.2154  133.7481  151.2209 H   0  0  0  0  0  0  0  0  0  0  0  0
  1  2  1  0  0  0  0
  1 28  1  0  0  0  0
  2 27  1  0  0  0  0
  2  3  1  0  0  0  0
  2 24  1  0  0  0  0
  3  4  1  0  0  0  0
  3 29  1  0  0  0  0
  3 30  1  0  0  0  0
  4 23  1  0  0  0  0
  4  5  1  0  0  0  0
  5  6  2  0  0  0  0
  5 31  1  0  0  0  0
  6  7  1  0  0  0  0
  7 23  2  0  0  0  0
  7  8  1  0  0  0  0
  8  9  1  0  0  0  0
  8 20  2  0  0  0  0
  9 19  1  0  0  0  0
  9 10  1  0  0  0  0
 10 11  1  0  0  0  0
 10 32  1  0  0  0  0
 10 33  1  0  0  0  0
 11 12  1  0  0  0  0
 11 34  1  0  0  0  0
 11 35  1  0  0  0  0
 12 13  1  0  0  0  0
 12 36  1  0  0  0  0
 12 37  1  0  0  0  0
 13 14  1  0  0  0  0
 13 19  1  0  0  0  0
 13 38  1  0  0  0  0
 14 15  1  0  0  0  0
 15 16  1  0  0  0  0
 15 39  1  0  0  0  0
 15 40  1  0  0  0  0
 16 18  1  0  0  0  0
 16 17  1  0  0  0  0
 16 41  1  0  0  0  0
 17 18  1  0  0  0  0
 17 42  1  0  0  0  0
 17 43  1  0  0  0  0
 18 44  1  0  0  0  0
 18 45  1  0  0  0  0
 19 46  1  0  0  0  0
 19 47  1  0  0  0  0
 20 21  1  0  0  0  0
 21 22  2  0  0  0  0
 21 48  1  0  0  0  0
 22 23  1  0  0  0  0
 24 25  1  0  0  0  0
 24 49  1  0  0  0  0
 24 50  1  0  0  0  0
 25 26  1  0  0  0  0
 25 51  1  0  0  0  0
 25 52  1  0  0  0  0
 26 27  1  0  0  0  0
 27 53  1  0  0  0  0
 27 54  1  0  0  0  0
M  END
> <s_m_source_file>
AV-unprocessed.smi

> <i_m_source_file_index>
166

> <i_lp_mmshare_version>
43012

> <i_f3d_flags>
0

> <s_epik_input>
W0NIMl0xT1tDSDJdW0NIMl1bQ0BAXTEoW09IXSlbQ0gyXW4oW2NIXW4yKWMoYzIzKW5bY0hdbmMzTjRbQ0gyXVtDSDJdW0NIMl1bQ0BIXShbQ0gyXTQpT1tDSDJdW0NIXTVbQ0gyXVtDSDJdNQ==

> <s_epik_cmdline>
J2VwaWtfcHl0aG9uJywgJy1waCcsICc3LjAnLCAnLXRuJywgJzgnLCAnLW1hJywgJzIwMCcsICctbWV0YWxfYmluZGluZycsICctaW1hZScsICc8aW5maWxlLm1hZT4nLCAnLW9tYWUnLCAnPG91dGZpbGUubWFlPic=

> <r_lp_tautomer_probability>
1

> <r_epik_Ionization_Penalty>
0.00342552

> <r_epik_Ionization_Penalty_Charging>
0

> <r_epik_Ionization_Penalty_Neutral>
0.00342552

> <r_epik_State_Penalty>
0.0022204

> <r_epik_Charging_Adjusted_Penalty>
0.0022204

> <i_epik_Tot_Q>
0

> <i_epik_Tot_abs_Q>
0

> <r_epik_Metal_State_Penalty>
-0

> <b_epik_Metal_Only>
0

> <s_lp_Force_Field>
OPLS_2005

> <r_lp_Energy>
44.6649

> <b_lp_Chiralities_Consistent>
1

> <s_lp_Variant>
AV-unprocessed.smi:166-2

> <Gold.Version>
5.8.1

> <Gold.Id.Protein>
6NUR|6NUR_protein|mol2

> <Gold.PLP.Fitness>
42.3620

> <Gold.PLP.PLP>
-36.5200

> <Gold.PLP.part.hbond>
-1.9578

> <Gold.PLP.part.metal>
0.0000

> <Gold.PLP.part.buried>
-2.3602

> <Gold.PLP.part.nonpolar>
-34.6995

> <Gold.PLP.part.repulsive>
1.3780

> <Gold.PLP.ligand.clash>
0.0000

> <Gold.PLP.ligand.torsion>
1.2690

> <Gold.PLP.Chemscore.Hbond>
2.0000

> <Gold.PLP.Chemscore.CHOScore>
0.4696

> <Gold.PLP.Chemscore.Metal>
0.0000

> <Gold.Chemscore.Hbonds>
donor molecule, donor type, donor heavy atom, donor atom, acceptor molecule, acceptor atom, score
      L1  H     1    28       P1 10957  0.96
      P1  H  7989  7998       L1    14  1.00
      L1  C     5    31       P1 10171  0.43

> <Gold.PLP.Chemscore.Internal.Correction>
0.9715

> <Gold.Rescore>
     Score         DG    S(hbond)    S(metal)    S(lipo)     H(rot)  DE(clash)    DE(int)     intcor
     13.69     -15.23       1.87        0.00      88.67       2.68       0.13       1.40       ----

> <Gold.Chemscore.Fitness>
13.6948

> <Gold.Chemscore.DG>
-15.2341

> <Gold.Chemscore.ZeroCoef>
-5.4800

> <Gold.Chemscore.Hbond>
1.8697

> <Gold.Chemscore.Metal>
0.0000

> <Gold.Chemscore.Lipo>
88.6693

> <Gold.Chemscore.Internal_Hbond>
0.0000

> <Gold.Chemscore.DEClash>
0.1348

> <Gold.Chemscore.DEInternal>
1.4045

> <Gold.Chemscore.Rot>
2.6817

> <Gold.Chemscore.Internal.Correction>
   9.000000E+99

> <Gold.Chemscore.Hbonds>
donor molecule, donor type, donor heavy atom, donor atom, acceptor molecule, acceptor atom, score
      L1  H     1    28       P1 10957  0.50
      P1  H  7989  7998       L1    14  0.68

> <Gold.Chemscore.Hbond.Weighted>
-6.2449

> <Gold.Chemscore.Metal.Weighted>
-0.0000

> <Gold.Chemscore.Lipo.Weighted>
-10.3743

> <Gold.Chemscore.Internal_Hbond.Weighted>
0.0000

> <Gold.Chemscore.DEClash.Weighted>
0.1348

> <Gold.Chemscore.DEInternal.Weighted>
1.4045

> <Gold.Chemscore.Rot.Weighted>
6.8651

> <Gold.Chemscore.Internal.Correction.Weighted>
   9.000000E+99

> <Gold.Protein.RotatedTorsions>
[ 6907 6896 6895 6894 ] final   93.99 input  -60.11 | X-H torsion
[ 7974 7965 7964 7962 ] final  -83.37 input  175.53 | X-H torsion
[ 8008 7997 7996 7995 ] final   40.21 input   59.86 | X-H torsion
[ 10167 10162 10161 10158 ] final  -35.17 input  -65.29 | X-H torsion
[ 10718 10713 10712 10709 ] final   83.80 input   66.30 | X-H torsion
[ 10763 10752 10751 10750 ] final  112.40 input  -60.55 | X-H torsion
[ 11005 11000 10999 10996 ] final   89.86 input  -57.11 | X-H torsion

> <Gold.Protein.ActiveResidues>
 VAL166  LYS551  ARG553  GLY616  TRP617  ASP618  TYR619  PRO620  LYS621  CYS622 
 ASP623  PHE694  ASN695  SER759  ASP760  ASP761  ALA762  ILE779  LEU786  VAL792 
 PHE793  MET794  SER795  GLU796  ALA797  LYS798  CYS799  TRP800  GLU811  SER814 

> <Gold.Protein.RotatedAtoms>
  152.5451  134.1262  159.8419 H   0  0  0  0  0  0  0  0  0  0  0  0  # atno 6907 bound_to 6896
  151.1313  133.5028  159.2606 H   0  0  0  0  0  0  0  0  0  0  0  0  # atno 6908 bound_to 6896
  151.1672  135.0311  159.8791 H   0  0  0  0  0  0  0  0  0  0  0  0  # atno 6909 bound_to 6896
  145.5209  140.9531  143.1655 H   0  0  0  0  0  0  0  0  0  0  0  0  # atno 7974 bound_to 7965
  155.2493  140.3351  155.4284 H   0  0  0  0  0  0  0  0  0  0  0  0  # atno 8008 bound_to 7997
  156.2222  140.1814  156.7492 H   0  0  0  0  0  0  0  0  0  0  0  0  # atno 8009 bound_to 7997
  154.5843  140.0648  156.9134 H   0  0  0  0  0  0  0  0  0  0  0  0  # atno 8010 bound_to 7997
  140.7170  143.3496  151.2184 H   0  0  0  0  0  0  0  0  0  0  0  0  # atno 10167 bound_to 10162
  157.6886  131.0106  150.2578 H   0  0  0  0  0  0  0  0  0  0  0  0  # atno 10718 bound_to 10713
  153.4773  135.3687  155.2423 H   0  0  0  0  0  0  0  0  0  0  0  0  # atno 10763 bound_to 10752
  154.8756  135.3946  154.3742 H   0  0  0  0  0  0  0  0  0  0  0  0  # atno 10764 bound_to 10752
  153.4339  135.7083  153.6277 H   0  0  0  0  0  0  0  0  0  0  0  0  # atno 10765 bound_to 10752
  139.8867  134.8578  156.3202 H   0  0  0  0  0  0  0  0  0  0  0  0  # atno 11005 bound_to 11000
  144.7676  139.6808  143.7208 LP  0  0  0  0  0  0  0  0  0  0  0  0  # atno 17320 bound_to 7965
  146.2106  139.5460  142.9683 LP  0  0  0  0  0  0  0  0  0  0  0  0  # atno 17321 bound_to 7965
  139.7023  143.9512  152.2911 LP  0  0  0  0  0  0  0  0  0  0  0  0  # atno 17342 bound_to 10162
  139.9209  144.6800  150.8462 LP  0  0  0  0  0  0  0  0  0  0  0  0  # atno 17343 bound_to 10162
  156.3163  130.3779  149.7616 LP  0  0  0  0  0  0  0  0  0  0  0  0  # atno 17370 bound_to 10713
  156.5200  130.8211  151.3200 LP  0  0  0  0  0  0  0  0  0  0  0  0  # atno 17371 bound_to 10713
  140.9792  133.7278  156.0647 LP  0  0  0  0  0  0  0  0  0  0  0  0  # atno 17394 bound_to 11000
  140.7771  134.3767  157.5495 LP  0  0  0  0  0  0  0  0  0  0  0  0  # atno 17395 bound_to 11000

$$$$
