AV-unprocessed.smi:910|AV-procd|sdf|4135|dock5
  -GOLD-   22720 2 43D 1   1.00000     0.00000
 Structure written by MMmdl.
 45 46  0  0  0  0  0  0  0  0  2 V2000
  154.4139  132.9736  165.7089 C   0  0  0  0  0  0  0  0  0  0  0  0
  154.5846  133.9694  164.6049 C   0  0  0  0  0  0  0  0  0  0  0  0
  154.5407  135.3375  164.8271 N   0  0  0  0  0  0  0  0  0  0  0  0
  154.7359  135.9064  163.6360 C   0  0  0  0  0  0  0  0  0  0  0  0
  154.7715  137.2244  163.3811 N   0  5  0  0  0  0  0  0  0  0  0  0
  154.4878  137.6756  162.1384 C   0  0  0  0  0  0  0  0  0  0  0  0
  153.9651  137.0280  161.2278 O   0  0  0  0  0  0  0  0  0  0  0  0
  154.8290  138.9565  161.9363 N   0  0  0  0  0  0  0  0  0  0  0  0
  154.6265  139.7094  160.7026 C   0  0  0  0  0  0  0  0  0  0  0  0
  153.6853  140.9019  160.9201 C   0  0  0  0  0  0  0  0  0  0  0  0
  153.3141  141.4332  159.6565 O   0  0  0  0  0  0  0  0  0  0  0  0
  152.3340  142.4604  159.7220 C   0  0  1  0  0  0  0  0  0  0  0  0
  152.8722  143.6116  160.5978 C   0  0  0  0  0  0  0  0  0  0  0  0
  151.9158  144.8130  160.6012 C   0  0  0  0  0  0  0  0  0  0  0  0
  151.6372  145.2983  159.1717 C   0  0  0  0  0  0  0  0  0  0  0  0
  151.0954  144.1575  158.2970 C   0  0  0  0  0  0  0  0  0  0  0  0
  152.0473  142.9445  158.2827 C   0  0  2  0  0  0  0  0  0  0  0  0
  151.4763  141.8176  157.4067 C   0  0  0  0  0  0  0  0  0  0  0  0
  154.8929  134.9815  162.6463 O   0  0  0  0  0  0  0  0  0  0  0  0
  154.8003  133.7668  163.2682 C   0  0  0  0  0  0  0  0  0  0  0  0
  154.9446  132.5440  162.4281 C   0  0  0  0  0  0  0  0  0  0  0  0
  153.5453  132.3392  165.5332 H   0  0  0  0  0  0  0  0  0  0  0  0
  154.2753  133.4638  166.6730 H   0  0  0  0  0  0  0  0  0  0  0  0
  155.2871  132.3261  165.7906 H   0  0  0  0  0  0  0  0  0  0  0  0
  155.2516  139.4516  162.7080 H   0  0  0  0  0  0  0  0  0  0  0  0
  155.5947  140.0576  160.3425 H   0  0  0  0  0  0  0  0  0  0  0  0
  154.2275  139.0515  159.9290 H   0  0  0  0  0  0  0  0  0  0  0  0
  152.7884  140.5732  161.4466 H   0  0  0  0  0  0  0  0  0  0  0  0
  154.1663  141.6549  161.5449 H   0  0  0  0  0  0  0  0  0  0  0  0
  151.4059  142.0748  160.1490 H   0  0  0  0  0  0  0  0  0  0  0  0
  153.0309  143.2737  161.6217 H   0  0  0  0  0  0  0  0  0  0  0  0
  153.8481  143.9266  160.2259 H   0  0  0  0  0  0  0  0  0  0  0  0
  150.9786  144.5333  161.0836 H   0  0  0  0  0  0  0  0  0  0  0  0
  152.3397  145.6243  161.1935 H   0  0  0  0  0  0  0  0  0  0  0  0
  150.9244  146.1230  159.1911 H   0  0  0  0  0  0  0  0  0  0  0  0
  152.5549  145.6923  158.7329 H   0  0  0  0  0  0  0  0  0  0  0  0
  150.1155  143.8522  158.6674 H   0  0  0  0  0  0  0  0  0  0  0  0
  150.9403  144.5216  157.2809 H   0  0  0  0  0  0  0  0  0  0  0  0
  152.9908  143.2652  157.8381 H   0  0  0  0  0  0  0  0  0  0  0  0
  150.5377  141.4379  157.8115 H   0  0  0  0  0  0  0  0  0  0  0  0
  152.1703  140.9799  157.3353 H   0  0  0  0  0  0  0  0  0  0  0  0
  151.2840  142.1685  156.3928 H   0  0  0  0  0  0  0  0  0  0  0  0
  154.7116  131.6461  163.0006 H   0  0  0  0  0  0  0  0  0  0  0  0
  155.9643  132.4518  162.0545 H   0  0  0  0  0  0  0  0  0  0  0  0
  154.2719  132.5826  161.5712 H   0  0  0  0  0  0  0  0  0  0  0  0
  1 22  1  0  0  0  0
  1 23  1  0  0  0  0
  1 24  1  0  0  0  0
  1  2  1  0  0  0  0
  2  3  1  0  0  0  0
  2 20  2  0  0  0  0
  3  4  2  0  0  0  0
  4 19  1  0  0  0  0
  4  5  1  0  0  0  0
  5  6  1  0  0  0  0
  6  8  1  0  0  0  0
  6  7  2  0  0  0  0
  8  9  1  0  0  0  0
  8 25  1  0  0  0  0
  9 10  1  0  0  0  0
  9 26  1  0  0  0  0
  9 27  1  0  0  0  0
 10 11  1  0  0  0  0
 10 28  1  0  0  0  0
 10 29  1  0  0  0  0
 11 12  1  0  0  0  0
 12 17  1  0  0  0  0
 12 13  1  0  0  0  0
 12 30  1  0  0  0  0
 13 14  1  0  0  0  0
 13 31  1  0  0  0  0
 13 32  1  0  0  0  0
 14 15  1  0  0  0  0
 14 33  1  0  0  0  0
 14 34  1  0  0  0  0
 15 16  1  0  0  0  0
 15 35  1  0  0  0  0
 15 36  1  0  0  0  0
 16 17  1  0  0  0  0
 16 37  1  0  0  0  0
 16 38  1  0  0  0  0
 17 18  1  0  0  0  0
 17 39  1  0  0  0  0
 18 40  1  0  0  0  0
 18 41  1  0  0  0  0
 18 42  1  0  0  0  0
 19 20  1  0  0  0  0
 20 21  1  0  0  0  0
 21 43  1  0  0  0  0
 21 44  1  0  0  0  0
 21 45  1  0  0  0  0
M  CHG  1   5  -1
M  END
> <s_m_source_file>
AV-unprocessed.smi

> <i_m_source_file_index>
910

> <i_lp_mmshare_version>
43012

> <i_f3d_flags>
0

> <s_epik_input>
W0NIM11jMW5jKG9jMVtDSDNdKVtOSF1DKD1PKVtOSF1bQ0gyXVtDSDJdT1tDQEBIXTJbQ0gyXVtDSDJdW0NIMl1bQ0gyXVtDQEhdMltDSDNd

> <s_epik_cmdline>
J2VwaWtfcHl0aG9uJywgJy1waCcsICc3LjAnLCAnLXRuJywgJzgnLCAnLW1hJywgJzIwMCcsICctbWV0YWxfYmluZGluZycsICctaW1hZScsICc8aW5maWxlLm1hZT4nLCAnLW9tYWUnLCAnPG91dGZpbGUubWFlPic=

> <r_lp_tautomer_probability>
0.107061

> <r_epik_Ionization_Penalty>
10.1763

> <r_epik_Ionization_Penalty_Charging>
7.13067

> <r_epik_Ionization_Penalty_Neutral>
3.04564

> <r_epik_State_Penalty>
5.57927

> <r_epik_Charging_Adjusted_Penalty>
12.7099

> <i_epik_Tot_Q>
-1

> <i_epik_Tot_abs_Q>
1

> <r_epik_Metal_State_Penalty>
1.52303

> <b_epik_Metal_Only>
1

> <s_lp_Force_Field>
OPLS_2005

> <r_lp_Energy>
4.71828

> <b_lp_Chiralities_Consistent>
1

> <s_lp_Variant>
AV-unprocessed.smi:910-20

> <Gold.Version>
5.8.1

> <Gold.Id.Protein>
6NUR|6NUR_protein|mol2

> <Gold.PLP.Fitness>
42.0851

> <Gold.PLP.PLP>
-42.4493

> <Gold.PLP.part.hbond>
0.0000

> <Gold.PLP.part.metal>
0.0000

> <Gold.PLP.part.buried>
-7.7877

> <Gold.PLP.part.nonpolar>
-34.8799

> <Gold.PLP.part.repulsive>
0.1137

> <Gold.PLP.ligand.clash>
0.0000

> <Gold.PLP.ligand.torsion>
0.2098

> <Gold.PLP.Chemscore.Hbond>
0.0000

> <Gold.PLP.Chemscore.CHOScore>
0.0000

> <Gold.PLP.Chemscore.Metal>
0.0000

> <Gold.PLP.Chemscore.Internal.Correction>
0.0554

> <Gold.Rescore>
     Score         DG    S(hbond)    S(metal)    S(lipo)     H(rot)  DE(clash)    DE(int)     intcor
     13.65     -15.48       0.00        0.00     120.82       1.62       0.03       1.80       ----

> <Gold.Chemscore.Fitness>
13.6482

> <Gold.Chemscore.DG>
-15.4770

> <Gold.Chemscore.ZeroCoef>
-5.4800

> <Gold.Chemscore.Hbond>
0.0000

> <Gold.Chemscore.Metal>
0.0000

> <Gold.Chemscore.Lipo>
120.8225

> <Gold.Chemscore.Internal_Hbond>
0.0000

> <Gold.Chemscore.DEClash>
0.0288

> <Gold.Chemscore.DEInternal>
1.7999

> <Gold.Chemscore.Rot>
1.6169

> <Gold.Chemscore.Internal.Correction>
   9.000000E+99

> <Gold.Chemscore.Hbond.Weighted>
-0.0000

> <Gold.Chemscore.Metal.Weighted>
-0.0000

> <Gold.Chemscore.Lipo.Weighted>
-14.1362

> <Gold.Chemscore.Internal_Hbond.Weighted>
0.0000

> <Gold.Chemscore.DEClash.Weighted>
0.0288

> <Gold.Chemscore.DEInternal.Weighted>
1.7999

> <Gold.Chemscore.Rot.Weighted>
4.1393

> <Gold.Chemscore.Internal.Correction.Weighted>
   9.000000E+99

> <Gold.Protein.RotatedTorsions>
[ 6907 6896 6895 6894 ] final -108.61 input  -60.11 | X-H torsion
[ 7974 7965 7964 7962 ] final  -41.04 input  175.53 | X-H torsion
[ 8008 7997 7996 7995 ] final  153.92 input   59.86 | X-H torsion
[ 10167 10162 10161 10158 ] final  -98.69 input  -65.29 | X-H torsion
[ 10718 10713 10712 10709 ] final -153.69 input   66.30 | X-H torsion
[ 10763 10752 10751 10750 ] final  -39.10 input  -60.55 | X-H torsion
[ 11005 11000 10999 10996 ] final  153.53 input  -57.11 | X-H torsion

> <Gold.Protein.ActiveResidues>
 VAL166  LYS551  ARG553  GLY616  TRP617  ASP618  TYR619  PRO620  LYS621  CYS622 
 ASP623  PHE694  ASN695  SER759  ASP760  ASP761  ALA762  ILE779  LEU786  VAL792 
 PHE793  MET794  SER795  GLU796  ALA797  LYS798  CYS799  TRP800  GLU811  SER814 

> <Gold.Protein.RotatedAtoms>
  150.7512  133.9651  159.3527 H   0  0  0  0  0  0  0  0  0  0  0  0  # atno 6907 bound_to 6896
  151.7580  135.0815  160.0350 H   0  0  0  0  0  0  0  0  0  0  0  0  # atno 6908 bound_to 6896
  152.3422  133.6043  159.5920 H   0  0  0  0  0  0  0  0  0  0  0  0  # atno 6909 bound_to 6896
  146.0248  140.6805  142.9161 H   0  0  0  0  0  0  0  0  0  0  0  0  # atno 7974 bound_to 7965
  156.2557  140.1980  156.6566 H   0  0  0  0  0  0  0  0  0  0  0  0  # atno 8008 bound_to 7997
  154.6496  140.0573  156.9965 H   0  0  0  0  0  0  0  0  0  0  0  0  # atno 8009 bound_to 7997
  155.1438  140.3245  155.4449 H   0  0  0  0  0  0  0  0  0  0  0  0  # atno 8010 bound_to 7997
  140.2703  143.3348  152.0540 H   0  0  0  0  0  0  0  0  0  0  0  0  # atno 10167 bound_to 10162
  156.4892  130.8339  151.2563 H   0  0  0  0  0  0  0  0  0  0  0  0  # atno 10718 bound_to 10713
  153.9238  135.6779  153.4747 H   0  0  0  0  0  0  0  0  0  0  0  0  # atno 10763 bound_to 10752
  153.1015  135.4826  154.8872 H   0  0  0  0  0  0  0  0  0  0  0  0  # atno 10764 bound_to 10752
  154.7464  135.3173  154.8594 H   0  0  0  0  0  0  0  0  0  0  0  0  # atno 10765 bound_to 10752
  140.1406  134.8741  157.2326 H   0  0  0  0  0  0  0  0  0  0  0  0  # atno 11005 bound_to 11000
  144.7005  140.3631  143.7160 LP  0  0  0  0  0  0  0  0  0  0  0  0  # atno 17320 bound_to 7965
  145.7135  139.1691  143.2525 LP  0  0  0  0  0  0  0  0  0  0  0  0  # atno 17321 bound_to 7965
  139.4991  144.6660  151.6354 LP  0  0  0  0  0  0  0  0  0  0  0  0  # atno 17342 bound_to 10162
  140.5895  143.9805  150.6316 LP  0  0  0  0  0  0  0  0  0  0  0  0  # atno 17343 bound_to 10162
  157.7475  131.0019  150.2980 LP  0  0  0  0  0  0  0  0  0  0  0  0  # atno 17370 bound_to 10713
  156.3443  130.3820  149.7382 LP  0  0  0  0  0  0  0  0  0  0  0  0  # atno 17371 bound_to 10713
  140.2727  134.3441  155.7368 LP  0  0  0  0  0  0  0  0  0  0  0  0  # atno 17394 bound_to 11000
  141.2185  133.7432  156.9247 LP  0  0  0  0  0  0  0  0  0  0  0  0  # atno 17395 bound_to 11000

$$$$
