AV-unprocessed.smi:1335|AV-procd|sdf|5495|dock7
  -GOLD-   22720 5 73D 1   1.00000     0.00000
 Structure written by MMmdl.
 47 49  0  0  0  0  0  0  0  0  1 V2000
  145.5171  137.9569  162.2950 C   0  0  0  0  0  0  0  0  0  0  0  0
  146.6379  137.4293  161.6009 O   0  0  0  0  0  0  0  0  0  0  0  0
  146.7494  136.0593  161.4773 C   0  0  0  0  0  0  0  0  0  0  0  0
  146.1362  135.1428  162.3701 C   0  0  0  0  0  0  0  0  0  0  0  0
  146.2972  133.7550  162.1976 C   0  0  0  0  0  0  0  0  0  0  0  0
  147.0736  133.2617  161.1349 C   0  0  0  0  0  0  0  0  0  0  0  0
  147.6852  134.1594  160.2420 C   0  0  0  0  0  0  0  0  0  0  0  0
  147.5242  135.5511  160.4052 C   0  0  0  0  0  0  0  0  0  0  0  0
  148.2045  136.4819  159.4117 C   0  0  0  0  0  0  0  0  0  0  0  0
  149.6079  136.2810  159.3489 O   0  0  0  0  0  0  0  0  0  0  0  0
  150.2975  137.2692  158.5965 C   0  0  0  0  0  0  0  0  0  0  0  0
  151.2886  137.9839  159.5261 C   0  0  1  0  0  0  0  0  0  0  0  0
  152.1150  136.9951  160.1061 O   0  0  0  0  0  0  0  0  0  0  0  0
  152.1763  138.9901  158.7633 C   0  0  0  0  0  0  0  0  0  0  0  0
  152.4600  140.1710  159.5742 N   0  0  0  0  0  0  0  0  0  0  0  0
  152.9486  140.1820  160.8362 C   0  0  0  0  0  0  0  0  0  0  0  0
  153.2402  139.1911  161.5055 O   0  0  0  0  0  0  0  0  0  0  0  0
  153.0416  141.4714  161.2377 N   0  0  0  0  0  0  0  0  0  0  0  0
  153.5140  141.9560  162.5289 C   0  0  0  0  0  0  0  0  0  0  0  0
  152.5732  142.3062  160.2150 C   0  0  0  0  0  0  0  0  0  0  0  0
  152.4451  143.7042  160.1509 C   0  0  0  0  0  0  0  0  0  0  0  0
  151.9188  144.2500  158.9565 C   0  0  0  0  0  0  0  0  0  0  0  0
  151.5389  143.4089  157.8780 C   0  0  0  0  0  0  0  0  0  0  0  0
  151.6773  142.0040  157.9704 C   0  0  0  0  0  0  0  0  0  0  0  0
  152.2055  141.4886  159.1671 C   0  0  0  0  0  0  0  0  0  0  0  0
  145.5917  139.0439  162.3232 H   0  0  0  0  0  0  0  0  0  0  0  0
  145.4839  137.6028  163.3263 H   0  0  0  0  0  0  0  0  0  0  0  0
  144.5819  137.7043  161.7938 H   0  0  0  0  0  0  0  0  0  0  0  0
  145.5348  135.4791  163.2007 H   0  0  0  0  0  0  0  0  0  0  0  0
  145.8247  133.0682  162.8842 H   0  0  0  0  0  0  0  0  0  0  0  0
  147.1996  132.1969  161.0042 H   0  0  0  0  0  0  0  0  0  0  0  0
  148.2825  133.7769  159.4272 H   0  0  0  0  0  0  0  0  0  0  0  0
  147.7980  136.2664  158.4231 H   0  0  0  0  0  0  0  0  0  0  0  0
  147.9740  137.5304  159.6030 H   0  0  0  0  0  0  0  0  0  0  0  0
  150.8277  136.7818  157.7766 H   0  0  0  0  0  0  0  0  0  0  0  0
  149.6075  137.9908  158.1567 H   0  0  0  0  0  0  0  0  0  0  0  0
  150.7305  138.4776  160.3232 H   0  0  0  0  0  0  0  0  0  0  0  0
  153.0177  137.2389  159.9673 H   0  0  0  0  0  0  0  0  0  0  0  0
  153.1011  138.5247  158.4173 H   0  0  0  0  0  0  0  0  0  0  0  0
  151.6721  139.3260  157.8566 H   0  0  0  0  0  0  0  0  0  0  0  0
  152.6747  142.3172  163.1239 H   0  0  0  0  0  0  0  0  0  0  0  0
  154.2163  142.7789  162.3920 H   0  0  0  0  0  0  0  0  0  0  0  0
  154.0224  141.1756  163.0968 H   0  0  0  0  0  0  0  0  0  0  0  0
  152.7330  144.3368  160.9773 H   0  0  0  0  0  0  0  0  0  0  0  0
  151.8032  145.3200  158.8655 H   0  0  0  0  0  0  0  0  0  0  0  0
  151.1377  143.8464  156.9759 H   0  0  0  0  0  0  0  0  0  0  0  0
  151.3863  141.3601  157.1537 H   0  0  0  0  0  0  0  0  0  0  0  0
  1  2  1  0  0  0  0
  1 26  1  0  0  0  0
  1 27  1  0  0  0  0
  1 28  1  0  0  0  0
  2  3  1  0  0  0  0
  3  8  1  0  0  0  0
  3  4  2  0  0  0  0
  4  5  1  0  0  0  0
  4 29  1  0  0  0  0
  5  6  2  0  0  0  0
  5 30  1  0  0  0  0
  6  7  1  0  0  0  0
  6 31  1  0  0  0  0
  7  8  2  0  0  0  0
  7 32  1  0  0  0  0
  8  9  1  0  0  0  0
  9 10  1  0  0  0  0
  9 33  1  0  0  0  0
  9 34  1  0  0  0  0
 10 11  1  0  0  0  0
 11 12  1  0  0  0  0
 11 35  1  0  0  0  0
 11 36  1  0  0  0  0
 12 13  1  0  0  0  0
 12 14  1  0  0  0  0
 12 37  1  0  0  0  0
 13 38  1  0  0  0  0
 14 15  1  0  0  0  0
 14 39  1  0  0  0  0
 14 40  1  0  0  0  0
 15 25  1  0  0  0  0
 15 16  1  0  0  0  0
 16 17  2  0  0  0  0
 16 18  1  0  0  0  0
 18 19  1  0  0  0  0
 18 20  1  0  0  0  0
 19 41  1  0  0  0  0
 19 42  1  0  0  0  0
 19 43  1  0  0  0  0
 20 25  2  0  0  0  0
 20 21  1  0  0  0  0
 21 22  2  0  0  0  0
 21 44  1  0  0  0  0
 22 23  1  0  0  0  0
 22 45  1  0  0  0  0
 23 24  2  0  0  0  0
 23 46  1  0  0  0  0
 24 25  1  0  0  0  0
 24 47  1  0  0  0  0
M  END
> <s_m_source_file>
AV-unprocessed.smi

> <i_m_source_file_index>
1335

> <i_lp_mmshare_version>
43012

> <i_f3d_flags>
0

> <s_epik_input>
W0NIM11PYzFbY0hdW2NIXVtjSF1bY0hdYzFbQ0gyXU9bQ0gyXVtDQEhdKFtPSF0pW0NIMl1uKGMoPU8pbjJbQ0gzXSljKGMyMylbY0hdW2NIXVtjSF1bY0hdMw==

> <s_epik_cmdline>
J2VwaWtfcHl0aG9uJywgJy1waCcsICc3LjAnLCAnLXRuJywgJzgnLCAnLW1hJywgJzIwMCcsICctbWV0YWxfYmluZGluZycsICctaW1hZScsICc8aW5maWxlLm1hZT4nLCAnLW9tYWUnLCAnPG91dGZpbGUubWFlPic=

> <r_lp_tautomer_probability>
1

> <r_epik_Ionization_Penalty>
1.07897e-06

> <r_epik_Ionization_Penalty_Charging>
2.2947e-09

> <r_epik_Ionization_Penalty_Neutral>
1.07667e-06

> <r_epik_State_Penalty>
-0

> <r_epik_Charging_Adjusted_Penalty>
2.2947e-09

> <i_epik_Tot_Q>
0

> <i_epik_Tot_abs_Q>
0

> <r_epik_Metal_State_Penalty>
-0

> <b_epik_Metal_Only>
0

> <s_lp_Force_Field>
OPLS_2005

> <r_lp_Energy>
49.5291

> <b_lp_Chiralities_Consistent>
1

> <s_lp_Variant>
AV-unprocessed.smi:1335-2

> <Gold.Version>
5.8.1

> <Gold.Id.Protein>
6NUR|6NUR_protein|mol2

> <Gold.PLP.Fitness>
61.4016

> <Gold.PLP.PLP>
-55.9886

> <Gold.PLP.part.hbond>
-4.0000

> <Gold.PLP.part.metal>
0.0000

> <Gold.PLP.part.buried>
-3.7711

> <Gold.PLP.part.nonpolar>
-48.9032

> <Gold.PLP.part.repulsive>
0.0000

> <Gold.PLP.ligand.clash>
0.0000

> <Gold.PLP.ligand.torsion>
1.3004

> <Gold.PLP.Chemscore.Hbond>
2.5971

> <Gold.PLP.Chemscore.CHOScore>
0.0000

> <Gold.PLP.Chemscore.Metal>
0.0000

> <Gold.Chemscore.Hbonds>
donor molecule, donor type, donor heavy atom, donor atom, acceptor molecule, acceptor atom, score
      P1  H  6896  6907       L1    10  0.83
      P1  H  6896  6908       L1    13  0.50
      P1  H  6934  6947       L1     2  0.70

> <Gold.PLP.Chemscore.Internal.Correction>
0.2224

> <Gold.Rescore>
     Score         DG    S(hbond)    S(metal)    S(lipo)     H(rot)  DE(clash)    DE(int)     intcor
     17.15     -20.72       1.76        0.00     134.85       2.50       0.76       2.81       ----

> <Gold.Chemscore.Fitness>
17.1475

> <Gold.Chemscore.DG>
-20.7159

> <Gold.Chemscore.ZeroCoef>
-5.4800

> <Gold.Chemscore.Hbond>
1.7568

> <Gold.Chemscore.Metal>
0.0000

> <Gold.Chemscore.Lipo>
134.8528

> <Gold.Chemscore.Internal_Hbond>
0.0000

> <Gold.Chemscore.DEClash>
0.7588

> <Gold.Chemscore.DEInternal>
2.8095

> <Gold.Chemscore.Rot>
2.5038

> <Gold.Chemscore.Internal.Correction>
   9.000000E+99

> <Gold.Chemscore.Hbonds>
donor molecule, donor type, donor heavy atom, donor atom, acceptor molecule, acceptor atom, score
      P1  H  6896  6907       L1    10  0.66
      P1  H  6896  6908       L1    13  0.15
      P1  H  6934  6947       L1     2  0.07

> <Gold.Chemscore.Hbond.Weighted>
-5.8678

> <Gold.Chemscore.Metal.Weighted>
-0.0000

> <Gold.Chemscore.Lipo.Weighted>
-15.7778

> <Gold.Chemscore.Internal_Hbond.Weighted>
0.0000

> <Gold.Chemscore.DEClash.Weighted>
0.7588

> <Gold.Chemscore.DEInternal.Weighted>
2.8095

> <Gold.Chemscore.Rot.Weighted>
6.4098

> <Gold.Chemscore.Internal.Correction.Weighted>
   9.000000E+99

> <Gold.Protein.RotatedTorsions>
[ 6907 6896 6895 6894 ] final  -74.29 input  -60.11 | X-H torsion
[ 7974 7965 7964 7962 ] final -118.15 input  175.53 | X-H torsion
[ 8008 7997 7996 7995 ] final  -86.77 input   59.86 | X-H torsion
[ 10167 10162 10161 10158 ] final  134.48 input  -65.29 | X-H torsion
[ 10718 10713 10712 10709 ] final  -69.31 input   66.30 | X-H torsion
[ 10763 10752 10751 10750 ] final  131.96 input  -60.55 | X-H torsion
[ 11005 11000 10999 10996 ] final  -11.29 input  -57.11 | X-H torsion

> <Gold.Protein.ActiveResidues>
 VAL166  LYS551  ARG553  GLY616  TRP617  ASP618  TYR619  PRO620  LYS621  CYS622 
 ASP623  PHE694  ASN695  SER759  ASP760  ASP761  ALA762  ILE779  LEU786  VAL792 
 PHE793  MET794  SER795  GLU796  ALA797  LYS798  CYS799  TRP800  GLU811  SER814 

> <Gold.Protein.RotatedAtoms>
  150.7098  134.4891  159.5506 H   0  0  0  0  0  0  0  0  0  0  0  0  # atno 6907 bound_to 6896
  152.2512  134.8127  160.0454 H   0  0  0  0  0  0  0  0  0  0  0  0  # atno 6908 bound_to 6896
  151.8874  133.3473  159.3823 H   0  0  0  0  0  0  0  0  0  0  0  0  # atno 6909 bound_to 6896
  145.0771  140.8400  143.4061 H   0  0  0  0  0  0  0  0  0  0  0  0  # atno 7974 bound_to 7965
  154.6557  140.0574  157.0006 H   0  0  0  0  0  0  0  0  0  0  0  0  # atno 8008 bound_to 7997
  155.1304  140.3256  155.4457 H   0  0  0  0  0  0  0  0  0  0  0  0  # atno 8009 bound_to 7997
  156.2596  140.1982  156.6423 H   0  0  0  0  0  0  0  0  0  0  0  0  # atno 8010 bound_to 7997
  139.5254  144.6565  151.5146 H   0  0  0  0  0  0  0  0  0  0  0  0  # atno 10167 bound_to 10162
  156.0462  130.4310  150.2129 H   0  0  0  0  0  0  0  0  0  0  0  0  # atno 10718 bound_to 10713
  153.7829  135.3166  155.3368 H   0  0  0  0  0  0  0  0  0  0  0  0  # atno 10763 bound_to 10752
  154.8155  135.4639  154.0633 H   0  0  0  0  0  0  0  0  0  0  0  0  # atno 10764 bound_to 10752
  153.1928  135.6911  153.8416 H   0  0  0  0  0  0  0  0  0  0  0  0  # atno 10765 bound_to 10752
  140.7537  133.8571  155.9066 H   0  0  0  0  0  0  0  0  0  0  0  0  # atno 11005 bound_to 11000
  145.1223  139.2686  143.5582 LP  0  0  0  0  0  0  0  0  0  0  0  0  # atno 17320 bound_to 7965
  146.3530  140.0850  142.8615 LP  0  0  0  0  0  0  0  0  0  0  0  0  # atno 17321 bound_to 7965
  140.6393  143.8921  150.6676 LP  0  0  0  0  0  0  0  0  0  0  0  0  # atno 17342 bound_to 10162
  140.2251  143.3779  152.1611 LP  0  0  0  0  0  0  0  0  0  0  0  0  # atno 17343 bound_to 10162
  157.0218  130.9981  151.3337 LP  0  0  0  0  0  0  0  0  0  0  0  0  # atno 17370 bound_to 10713
  157.5339  130.8076  149.7948 LP  0  0  0  0  0  0  0  0  0  0  0  0  # atno 17371 bound_to 10713
  140.9727  134.1510  157.4563 LP  0  0  0  0  0  0  0  0  0  0  0  0  # atno 17394 bound_to 11000
  139.8783  134.9984  156.5897 LP  0  0  0  0  0  0  0  0  0  0  0  0  # atno 17395 bound_to 11000

$$$$
