#       Name:                AV-unprocessed.smi:912
#       Creating user name   scv26
#       Creation time:       Fri Mar 27 02:05:18 2020


#       File generated by GOLD software.
#

@<TRIPOS>MOLECULE
AV-unprocessed.smi:912
    30    30     1
SMALL
NO_CHARGES


@<TRIPOS>ATOM
      1 ****        -2.1060   2.0587  -0.1116 C.3            1 S1                 0.0000
      2 ****        -1.4587   0.7326   0.0181 N.4            1 S1                 1.0000
      3 ****         0.0335   0.6736  -0.0072 C.3            1 S1                 0.0000
      4 ****         0.5606   1.3878  -1.2799 C.3            1 S1                 0.0000
      5 ****         0.5761   1.3438   1.2886 C.2            1 S1                 0.0000
      6 ****         0.0425   0.8348   2.4221 N.pl3          1 S1                -1.0000
      7 ****         1.4063   2.2485   1.2138 O.2            1 S1                 0.0000
      8 ****         0.5107  -0.7956  -0.0395 C.ar           1 S1                 0.0000
      9 ****        -0.3888  -1.8916  -0.0900 C.ar           1 S1                 0.0000
     10 ****         0.1292  -3.2019  -0.1240 C.ar           1 S1                 0.0000
     11 ****         1.4483  -3.4816  -0.1187 N.ar           1 S1                 0.0000
     12 ****         2.3079  -2.4437  -0.0733 C.ar           1 S1                 0.0000
     13 ****         1.8945  -1.0979  -0.0354 C.ar           1 S1                 0.0000
     14 ****        -3.1790   1.9505   0.0455 H              1 S1                 0.0000
     15 ****        -1.9629   2.4790  -1.1068 H              1 S1                 0.0000
     16 ****        -1.7334   2.7681   0.6272 H              1 S1                 0.0000
     17 ****        -1.7440   0.3352   0.9022 H              1 S1                 0.0000
     18 ****         1.6453   1.3212  -1.3680 H              1 S1                 0.0000
     19 ****         0.3179   2.4506  -1.2919 H              1 S1                 0.0000
     20 ****         0.1377   0.9436  -2.1816 H              1 S1                 0.0000
     21 ****        -0.6285   0.0606   2.3549 H              1 S1                 0.0000
     22 ****        -1.4601  -1.7623  -0.0985 H              1 S1                 0.0000
     23 ****        -0.5381  -4.0504  -0.1585 H              1 S1                 0.0000
     24 ****         3.3588  -2.6925  -0.0683 H              1 S1                 0.0000
     25 ****         2.6356  -0.3128   0.0040 H              1 S1                 0.0000
     26 ****        -1.8051   0.1425  -0.7236 H              1 S1                 0.0000
     27 ****         0.2981   1.2076   3.3141 LP             1 S1                 0.0000
     28 ****         1.7334   2.5542   0.3197 LP             1 S1                 0.0000
     29 ****         1.7540   2.6781   2.0472 LP             1 S1                 0.0000
     30 ****         1.7774  -4.4255  -0.1474 LP             1 S1                 0.0000
@<TRIPOS>BOND
    1    1    2 1     
    2    1   14 1     
    3    1   15 1     
    4    1   16 1     
    5    2    3 1     
    6    2   17 1     
    7    2   26 1     
    8    3    4 1     
    9    3    5 1     
   10    3    8 1     
   11    4   18 1     
   12    4   19 1     
   13    4   20 1     
   14    5    6 1     
   15    5    7 2     
   16    6   21 1     
   17    8   13 ar    
   18    8    9 ar    
   19    9   10 ar    
   20    9   22 1     
   21   10   11 ar    
   22   10   23 1     
   23   11   12 ar    
   24   12   13 ar    
   25   12   24 1     
   26   13   25 1     
   27    6   27 1     
   28    7   28 1     
   29    7   29 1     
   30   11   30 1     
@<TRIPOS>SUBSTRUCTURE
      1 S1             1
@<TRIPOS>SET
LONE_PAIRS      STATIC     ATOMS    <user>   **** ""
4 27 28 29 30
DONOR_HYDROGENS      STATIC     ATOMS    <user>   **** ""
3 17 26 21
ATOM$BLUE        STATIC     ATOMS    COLORGROUP SYSTEM
4 27 28 29 30
ATOM$RED        STATIC     ATOMS    COLORGROUP SYSTEM
3 17 26 21
