AV-unprocessed.smi:109|AV-procd|sdf|1042|dock4
  -GOLD-   2262018 73D 1   1.00000     0.00000
 Structure written by MMmdl.
 58 61  0  0  0  0  0  0  0  0  1 V2000
  146.3560  142.7498  155.7915 O   0  0  0  0  0  0  0  0  0  0  0  0
  146.0450  142.3673  154.4691 C   0  0  0  0  0  0  0  0  0  0  0  0
  147.3271  141.9441  153.7349 C   0  0  0  0  0  0  0  0  0  0  0  0
  147.8477  140.5581  154.1769 C   0  0  1  0  0  0  0  0  0  0  0  0
  147.5915  139.5751  153.1243 N   0  0  0  0  0  0  0  0  0  0  0  0
  146.7465  138.5377  153.3156 C   0  0  0  0  0  0  0  0  0  0  0  0
  146.3908  138.1364  154.5636 N   0  0  0  0  0  0  0  0  0  0  0  0
  145.5543  137.1067  154.7207 C   0  0  0  0  0  0  0  0  0  0  0  0
  144.9705  136.3571  153.7837 N   0  0  0  0  0  0  0  0  0  0  0  0
  145.3222  136.7547  152.5267 C   0  0  0  0  0  0  0  0  0  0  0  0
  146.1977  137.8323  152.2139 C   0  0  0  0  0  0  0  0  0  0  0  0
  146.3236  137.9535  150.8366 N   0  0  0  0  0  0  0  0  0  0  0  0
  145.5666  136.9993  150.3664 C   0  0  0  0  0  0  0  0  0  0  0  0
  144.9251  136.2294  151.3113 N   0  0  0  0  0  0  0  0  0  0  0  0
  144.0013  135.0748  151.0563 C   0  0  1  0  0  0  0  0  0  0  0  0
  143.9559  134.8012  149.6870 O   0  0  0  0  0  0  0  0  0  0  0  0
  144.4203  133.4781  149.4231 C   0  0  2  0  0  0  0  0  0  0  0  0
  143.7467  132.8945  148.1687 C   0  0  0  0  0  0  0  0  0  0  0  0
  143.6779  133.8732  147.1539 O   0  0  0  0  0  0  0  0  0  0  0  0
  144.1519  132.7228  150.7325 C   0  0  2  0  0  0  0  0  0  0  0  0
  142.8078  132.2811  150.8079 O   0  0  0  0  0  0  0  0  0  0  0  0
  144.4217  133.7838  151.7875 C   0  0  1  0  0  0  0  0  0  0  0  0
  145.7830  133.7617  152.1802 O   0  0  0  0  0  0  0  0  0  0  0  0
  149.3466  140.5478  154.5887 C   0  0  0  0  0  0  0  0  0  0  0  0
  149.9836  139.1438  154.5011 C   0  0  0  0  0  0  0  0  0  0  0  0
  151.4893  139.1915  154.8087 C   0  0  0  0  0  0  0  0  0  0  0  0
  151.7565  139.8229  156.1841 C   0  0  0  0  0  0  0  0  0  0  0  0
  151.1225  141.2189  156.2866 C   0  0  0  0  0  0  0  0  0  0  0  0
  149.6173  141.1726  155.9764 C   0  0  0  0  0  0  0  0  0  0  0  0
  143.0207  135.4344  151.3708 H   0  0  0  0  0  0  0  0  0  0  0  0
  145.5012  133.5080  149.2788 H   0  0  0  0  0  0  0  0  0  0  0  0
  144.7991  131.8512  150.8402 H   0  0  0  0  0  0  0  0  0  0  0  0
  143.8100  133.6519  152.6813 H   0  0  0  0  0  0  0  0  0  0  0  0
  147.2430  143.0753  155.8100 H   0  0  0  0  0  0  0  0  0  0  0  0
  145.3285  141.5457  154.4965 H   0  0  0  0  0  0  0  0  0  0  0  0
  145.5625  143.2053  153.9656 H   0  0  0  0  0  0  0  0  0  0  0  0
  147.1479  141.9518  152.6590 H   0  0  0  0  0  0  0  0  0  0  0  0
  148.0854  142.7033  153.9220 H   0  0  0  0  0  0  0  0  0  0  0  0
  147.2650  140.2761  155.0548 H   0  0  0  0  0  0  0  0  0  0  0  0
  148.1812  139.6504  152.3079 H   0  0  0  0  0  0  0  0  0  0  0  0
  145.3197  136.8454  155.7419 H   0  0  0  0  0  0  0  0  0  0  0  0
  145.4533  136.8299  149.3053 H   0  0  0  0  0  0  0  0  0  0  0  0
  144.3356  132.0639  147.7784 H   0  0  0  0  0  0  0  0  0  0  0  0
  142.7505  132.5123  148.3931 H   0  0  0  0  0  0  0  0  0  0  0  0
  142.8733  133.7532  146.6735 H   0  0  0  0  0  0  0  0  0  0  0  0
  142.8059  131.3413  150.9072 H   0  0  0  0  0  0  0  0  0  0  0  0
  146.0652  132.8612  152.2287 H   0  0  0  0  0  0  0  0  0  0  0  0
  149.8807  141.1594  153.8600 H   0  0  0  0  0  0  0  0  0  0  0  0
  149.5042  138.4602  155.2012 H   0  0  0  0  0  0  0  0  0  0  0  0
  149.8293  138.7261  153.5058 H   0  0  0  0  0  0  0  0  0  0  0  0
  151.9073  138.1851  154.7744 H   0  0  0  0  0  0  0  0  0  0  0  0
  152.0023  139.7660  154.0363 H   0  0  0  0  0  0  0  0  0  0  0  0
  151.3516  139.1796  156.9662 H   0  0  0  0  0  0  0  0  0  0  0  0
  152.8301  139.8881  156.3615 H   0  0  0  0  0  0  0  0  0  0  0  0
  151.2837  141.6277  157.2844 H   0  0  0  0  0  0  0  0  0  0  0  0
  151.6179  141.8975  155.5910 H   0  0  0  0  0  0  0  0  0  0  0  0
  149.2092  142.1828  156.0232 H   0  0  0  0  0  0  0  0  0  0  0  0
  149.1133  140.5981  156.7540 H   0  0  0  0  0  0  0  0  0  0  0  0
  1  2  1  0  0  0  0
  1 34  1  0  0  0  0
  2  3  1  0  0  0  0
  2 35  1  0  0  0  0
  2 36  1  0  0  0  0
  3  4  1  0  0  0  0
  3 37  1  0  0  0  0
  3 38  1  0  0  0  0
  4  5  1  0  0  0  0
  4 24  1  0  0  0  0
  4 39  1  0  0  0  0
  5  6  1  0  0  0  0
  5 40  1  0  0  0  0
  6 11  1  0  0  0  0
  6  7  2  0  0  0  0
  7  8  1  0  0  0  0
  8  9  2  0  0  0  0
  8 41  1  0  0  0  0
  9 10  1  0  0  0  0
 10 14  1  0  0  0  0
 10 11  2  0  0  0  0
 11 12  1  0  0  0  0
 12 13  2  0  0  0  0
 13 14  1  0  0  0  0
 13 42  1  0  0  0  0
 14 15  1  0  0  0  0
 15 30  1  0  0  0  0
 15 22  1  0  0  0  0
 15 16  1  0  0  0  0
 16 17  1  0  0  0  0
 17 31  1  0  0  0  0
 17 18  1  0  0  0  0
 17 20  1  0  0  0  0
 18 19  1  0  0  0  0
 18 43  1  0  0  0  0
 18 44  1  0  0  0  0
 19 45  1  0  0  0  0
 20 32  1  0  0  0  0
 20 21  1  0  0  0  0
 20 22  1  0  0  0  0
 21 46  1  0  0  0  0
 22 33  1  0  0  0  0
 22 23  1  0  0  0  0
 23 47  1  0  0  0  0
 24 29  1  0  0  0  0
 24 25  1  0  0  0  0
 24 48  1  0  0  0  0
 25 26  1  0  0  0  0
 25 49  1  0  0  0  0
 25 50  1  0  0  0  0
 26 27  1  0  0  0  0
 26 51  1  0  0  0  0
 26 52  1  0  0  0  0
 27 28  1  0  0  0  0
 27 53  1  0  0  0  0
 27 54  1  0  0  0  0
 28 29  1  0  0  0  0
 28 55  1  0  0  0  0
 28 56  1  0  0  0  0
 29 57  1  0  0  0  0
 29 58  1  0  0  0  0
M  END
> <s_m_source_file>
AV-unprocessed.smi

> <i_m_source_file_index>
109

> <i_lp_mmshare_version>
43012

> <i_f3d_flags>
0

> <s_epik_input>
W0NIMl0xW0NIMl1bQ0gyXVtDSDJdW0NIMl1bQ0hdMVtDQEhdKFtDSDJdW0NIMl1bT0hdKVtOSF1jKG5bY0hdbjIpYyhjMjMpbltjSF1uM1tDQEBIXTRPW0NASF0oW0NIMl1bT0hdKVtDQEBIXShbT0hdKVtDQEhdNFtPSF0=

> <s_epik_cmdline>
J2VwaWtfcHl0aG9uJywgJy1waCcsICc3LjAnLCAnLXRuJywgJzgnLCAnLW1hJywgJzIwMCcsICctbWV0YWxfYmluZGluZycsICctaW1hZScsICc8aW5maWxlLm1hZT4nLCAnLW9tYWUnLCAnPG91dGZpbGUubWFlPic=

> <r_lp_tautomer_probability>
1

> <r_epik_Ionization_Penalty>
0.000793976

> <r_epik_Ionization_Penalty_Charging>
0

> <r_epik_Ionization_Penalty_Neutral>
0.000793976

> <r_epik_State_Penalty>
-0

> <r_epik_Charging_Adjusted_Penalty>
0

> <i_epik_Tot_Q>
0

> <i_epik_Tot_abs_Q>
0

> <r_epik_Metal_State_Penalty>
-0

> <b_epik_Metal_Only>
0

> <s_epik_Chemistry_Notes>
This compound contains an acetal/aminal-like group ( X-CH(R)-Y where X, Y are N, S, or O) that may be acid/base labile, releasing an aldehyde.

> <s_lp_Force_Field>
OPLS_2005

> <r_lp_Energy>
56.1563

> <b_lp_Chiralities_Consistent>
1

> <s_lp_Variant>
AV-unprocessed.smi:109-12

> <Gold.Version>
5.8.1

> <Gold.Id.Protein>
6NUR|6NUR_protein|mol2

> <Gold.PLP.Fitness>
63.6674

> <Gold.PLP.PLP>
-48.6931

> <Gold.PLP.part.hbond>
-8.2027

> <Gold.PLP.part.metal>
0.0000

> <Gold.PLP.part.buried>
3.4942

> <Gold.PLP.part.nonpolar>
-46.9947

> <Gold.PLP.part.repulsive>
4.3964

> <Gold.PLP.ligand.clash>
0.0000

> <Gold.PLP.ligand.torsion>
1.4678

> <Gold.PLP.Chemscore.Hbond>
4.8968

> <Gold.PLP.Chemscore.CHOScore>
1.0000

> <Gold.PLP.Chemscore.Metal>
0.0000

> <Gold.Chemscore.Hbonds>
donor molecule, donor type, donor heavy atom, donor atom, acceptor molecule, acceptor atom, score
      L1  H     1    34       P1  8028  0.22
      L1  H     5    40       P1  7957  1.00
      L1  H    19    45       P1 10195  1.00
      P1  H  7918  7932       L1    19  0.95
      P1  H  7954  7966       L1    12  0.91
      L1  C    13    42       P1  7921  0.64

> <Gold.PLP.Chemscore.Internal.Correction>
0.2194

> <Gold.Rescore>
     Score         DG    S(hbond)    S(metal)    S(lipo)     H(rot)  DE(clash)    DE(int)     intcor
      8.07     -15.18       3.37        0.00     106.33       5.47       5.44       1.67       ----

> <Gold.Chemscore.Fitness>
8.0663

> <Gold.Chemscore.DG>
-15.1764

> <Gold.Chemscore.ZeroCoef>
-5.4800

> <Gold.Chemscore.Hbond>
3.3682

> <Gold.Chemscore.Metal>
0.0000

> <Gold.Chemscore.Lipo>
106.3270

> <Gold.Chemscore.Internal_Hbond>
0.0000

> <Gold.Chemscore.DEClash>
5.4412

> <Gold.Chemscore.DEInternal>
1.6689

> <Gold.Chemscore.Rot>
5.4662

> <Gold.Chemscore.Internal.Correction>
   9.000000E+99

> <Gold.Chemscore.Hbonds>
donor molecule, donor type, donor heavy atom, donor atom, acceptor molecule, acceptor atom, score
      L1  H     1    34       P1  8028  0.02
      L1  H     5    40       P1  7957  1.00
      L1  H    19    45       P1 10195  0.98
      P1  H  7918  7932       L1    19  0.15
      P1  H  7954  7966       L1    12  0.55

> <Gold.Chemscore.Hbond.Weighted>
-11.2496

> <Gold.Chemscore.Metal.Weighted>
-0.0000

> <Gold.Chemscore.Lipo.Weighted>
-12.4403

> <Gold.Chemscore.Internal_Hbond.Weighted>
0.0000

> <Gold.Chemscore.DEClash.Weighted>
5.4412

> <Gold.Chemscore.DEInternal.Weighted>
1.6689

> <Gold.Chemscore.Rot.Weighted>
13.9935

> <Gold.Chemscore.Internal.Correction.Weighted>
   9.000000E+99

> <Gold.Protein.RotatedTorsions>
[ 6907 6896 6895 6894 ] final   21.88 input  -60.11 | X-H torsion
[ 7974 7965 7964 7962 ] final   20.64 input  175.53 | X-H torsion
[ 8008 7997 7996 7995 ] final  -64.17 input   59.86 | X-H torsion
[ 10167 10162 10161 10158 ] final  -77.77 input  -65.29 | X-H torsion
[ 10718 10713 10712 10709 ] final   55.54 input   66.30 | X-H torsion
[ 10763 10752 10751 10750 ] final -101.62 input  -60.55 | X-H torsion
[ 11005 11000 10999 10996 ] final   -2.76 input  -57.11 | X-H torsion

> <Gold.Protein.ActiveResidues>
 VAL166  LYS551  ARG553  GLY616  TRP617  ASP618  TYR619  PRO620  LYS621  CYS622 
 ASP623  PHE694  ASN695  SER759  ASP760  ASP761  ALA762  ILE779  LEU786  VAL792 
 PHE793  MET794  SER795  GLU796  ALA797  LYS798  CYS799  TRP800  GLU811  SER814 

> <Gold.Protein.RotatedAtoms>
  151.9186  135.0308  160.0519 H   0  0  0  0  0  0  0  0  0  0  0  0  # atno 6907 bound_to 6896
  152.2219  133.4985  159.5175 H   0  0  0  0  0  0  0  0  0  0  0  0  # atno 6908 bound_to 6896
  150.7002  134.1248  159.4091 H   0  0  0  0  0  0  0  0  0  0  0  0  # atno 6909 bound_to 6896
  146.2103  139.8140  142.8694 H   0  0  0  0  0  0  0  0  0  0  0  0  # atno 7974 bound_to 7965
  154.4596  140.0959  156.6855 H   0  0  0  0  0  0  0  0  0  0  0  0  # atno 8008 bound_to 7997
  155.5034  140.3474  155.4357 H   0  0  0  0  0  0  0  0  0  0  0  0  # atno 8009 bound_to 7997
  156.0844  140.1381  156.9660 H   0  0  0  0  0  0  0  0  0  0  0  0  # atno 8010 bound_to 7997
  140.4741  143.2419  151.8160 H   0  0  0  0  0  0  0  0  0  0  0  0  # atno 10167 bound_to 10162
  157.5354  130.8659  149.8745 H   0  0  0  0  0  0  0  0  0  0  0  0  # atno 10718 bound_to 10713
  154.7672  135.4891  153.9577 H   0  0  0  0  0  0  0  0  0  0  0  0  # atno 10763 bound_to 10752
  153.1322  135.6755  153.9168 H   0  0  0  0  0  0  0  0  0  0  0  0  # atno 10764 bound_to 10752
  153.8868  135.3125  155.3425 H   0  0  0  0  0  0  0  0  0  0  0  0  # atno 10765 bound_to 10752
  140.6619  133.9313  155.8441 H   0  0  0  0  0  0  0  0  0  0  0  0  # atno 11005 bound_to 11000
  145.3166  141.0233  143.3524 LP  0  0  0  0  0  0  0  0  0  0  0  0  # atno 17320 bound_to 7965
  144.8897  139.4791  143.6684 LP  0  0  0  0  0  0  0  0  0  0  0  0  # atno 17321 bound_to 7965
  139.4823  144.4855  151.9252 LP  0  0  0  0  0  0  0  0  0  0  0  0  # atno 17342 bound_to 10162
  140.3940  144.2579  150.5897 LP  0  0  0  0  0  0  0  0  0  0  0  0  # atno 17343 bound_to 10162
  156.0454  130.3729  150.1330 LP  0  0  0  0  0  0  0  0  0  0  0  0  # atno 17370 bound_to 10713
  156.9513  130.9775  151.3497 LP  0  0  0  0  0  0  0  0  0  0  0  0  # atno 17371 bound_to 10713
  141.0459  134.0555  157.3845 LP  0  0  0  0  0  0  0  0  0  0  0  0  # atno 17394 bound_to 11000
  139.9010  135.0164  156.7268 LP  0  0  0  0  0  0  0  0  0  0  0  0  # atno 17395 bound_to 11000

$$$$
