#       Name:                AV-unprocessed.smi:1097
#       Creating user name   scv26
#       Creation time:       Fri Mar 27 03:28:58 2020


#       File generated by GOLD software.
#

@<TRIPOS>MOLECULE
AV-unprocessed.smi:1097
    49    50     1
SMALL
NO_CHARGES


@<TRIPOS>ATOM
      1 ****        -6.1845   2.6503   0.9522 C.3            1 S1                 0.0000
      2 ****        -5.7079   1.3198   0.8525 O.3            1 S1                 0.0000
      3 ****        -4.3203   1.2605   0.5681 C.3            1 S1                 0.0000
      4 ****        -3.8906  -0.2060   0.4781 C.3            1 S1                 0.0000
      5 ****        -2.4912  -0.2519   0.2181 O.3            1 S1                 0.0000
      6 ****        -1.8738  -1.4822   0.0900 C.ar           1 S1                 0.0000
      7 ****        -2.6410  -2.5945   0.2228 N.ar           1 S1                 0.0000
      8 ****        -2.0556  -3.8041   0.1115 C.ar           1 S1                 0.0000
      9 ****        -0.6818  -3.9733  -0.1367 C.ar           1 S1                 0.0000
     10 ****         0.1175  -2.8241  -0.2750 C.ar           1 S1                 0.0000
     11 ****        -0.4770  -1.5466  -0.1551 C.ar           1 S1                 0.0000
     12 ****         0.3519  -0.3035  -0.3248 C.2            1 S1                 0.0000
     13 ****        -0.0912   0.6877  -0.9055 O.2            1 S1                 0.0000
     14 ****         1.5745  -0.3511   0.2286 N.am           1 S1                 0.0000
     15 ****         2.5463   0.7383   0.2054 C.3            1 S1                 0.0000
     16 ****         3.6771   0.5117   1.2214 C.3            1 S1                 0.0000
     17 ****         4.9396   0.7831   0.4209 C.2            1 S1                 0.0000
     18 ****         6.0603   0.8028   0.9276 O.2            1 S1                 0.0000
     19 ****         4.6545   0.9917  -0.8678 N.am           1 S1                 0.0000
     20 ****         5.6227   1.2693  -1.9200 C.3            1 S1                 0.0000
     21 ****         3.2397   0.8593  -1.1669 C.3            1 S1                 0.0000
     22 ****        -7.2532   2.6419   1.1656 H              1 S1                 0.0000
     23 ****        -6.0318   3.1945   0.0193 H              1 S1                 0.0000
     24 ****        -5.6846   3.1894   1.7579 H              1 S1                 0.0000
     25 ****        -4.1068   1.7695  -0.3732 H              1 S1                 0.0000
     26 ****        -3.7557   1.7664   1.3529 H              1 S1                 0.0000
     27 ****        -4.1180  -0.7133   1.4170 H              1 S1                 0.0000
     28 ****        -4.4444  -0.7031  -0.3201 H              1 S1                 0.0000
     29 ****        -2.7019  -4.6622   0.2215 H              1 S1                 0.0000
     30 ****        -0.2527  -4.9606  -0.2232 H              1 S1                 0.0000
     31 ****         1.1735  -2.9315  -0.4768 H              1 S1                 0.0000
     32 ****         1.8491  -1.1997   0.7020 H              1 S1                 0.0000
     33 ****         2.0477   1.6793   0.4461 H              1 S1                 0.0000
     34 ****         3.6010   1.1875   2.0735 H              1 S1                 0.0000
     35 ****         3.7038  -0.5133   1.5936 H              1 S1                 0.0000
     36 ****         6.2190   2.1481  -1.6720 H              1 S1                 0.0000
     37 ****         5.1253   1.4557  -2.8721 H              1 S1                 0.0000
     38 ****         6.2972   0.4223  -2.0502 H              1 S1                 0.0000
     39 ****         3.0919  -0.0296  -1.7828 H              1 S1                 0.0000
     40 ****         2.8724   1.7220  -1.7244 H              1 S1                 0.0000
     41 ****        -6.2056   0.8548   0.1203 LP             1 S1                 0.0000
     42 ****        -5.8778   0.8523   1.7200 LP             1 S1                 0.0000
     43 ****        -2.0376   0.2269   0.9697 LP             1 S1                 0.0000
     44 ****        -2.3353   0.2446  -0.6358 LP             1 S1                 0.0000
     45 ****        -3.6222  -2.5181   0.3999 LP             1 S1                 0.0000
     46 ****        -1.0201   0.6766  -1.2757 LP             1 S1                 0.0000
     47 ****         0.4778   1.5038  -1.0069 LP             1 S1                 0.0000
     48 ****         6.1690   0.6356   1.9075 LP             1 S1                 0.0000
     49 ****         6.8627   0.9860   0.3596 LP             1 S1                 0.0000
@<TRIPOS>BOND
    1    1    2 1     
    2    1   22 1     
    3    1   23 1     
    4    1   24 1     
    5    2    3 1     
    6    3    4 1     
    7    3   25 1     
    8    3   26 1     
    9    4    5 1     
   10    4   27 1     
   11    4   28 1     
   12    5    6 1     
   13    6   11 ar    
   14    6    7 ar    
   15    7    8 ar    
   16    8    9 ar    
   17    8   29 1     
   18    9   10 ar    
   19    9   30 1     
   20   10   11 ar    
   21   10   31 1     
   22   11   12 1     
   23   12   13 2     
   24   12   14 am    
   25   14   15 1     
   26   14   32 1     
   27   15   21 1     
   28   15   16 1     
   29   15   33 1     
   30   16   17 1     
   31   16   34 1     
   32   16   35 1     
   33   17   18 2     
   34   17   19 am    
   35   19   20 1     
   36   19   21 1     
   37   20   36 1     
   38   20   37 1     
   39   20   38 1     
   40   21   39 1     
   41   21   40 1     
   42    2   41 1     
   43    2   42 1     
   44    5   43 1     
   45    5   44 1     
   46    7   45 1     
   47   13   46 1     
   48   13   47 1     
   49   18   48 1     
   50   18   49 1     
@<TRIPOS>SUBSTRUCTURE
      1 S1             1
@<TRIPOS>SET
LONE_PAIRS      STATIC     ATOMS    <user>   **** ""
9 41 42 43 44 45 46 47 48 49
DONOR_HYDROGENS      STATIC     ATOMS    <user>   **** ""
1 32
ATOM$BLUE        STATIC     ATOMS    COLORGROUP SYSTEM
9 41 42 43 44 45 46 47 48 49
ATOM$RED        STATIC     ATOMS    COLORGROUP SYSTEM
1 32
