#       Name:                AV-unprocessed.smi:3209
#       Creating user name   scv26
#       Creation time:       Fri Mar 27 18:10:26 2020


#       File generated by GOLD software.
#

@<TRIPOS>MOLECULE
AV-unprocessed.smi:3209
    38    40     1
SMALL
NO_CHARGES


@<TRIPOS>ATOM
      1 ****        -3.7642   4.4163   2.5883 C.3            1 S1                 0.0000
      2 ****        -3.4733   3.5952   1.3794 C.2            1 S1                 0.0000
      3 ****        -2.9216   2.3799   1.4289 N.2            1 S1                 0.0000
      4 ****        -2.7479   1.8153   0.1615 C.2            1 S1                 0.0000
      5 ****        -2.1398   0.4523   0.0296 C.3            1 S1                 0.0000
      6 ****        -0.6176   0.4760   0.2228 C.3            1 S1                 0.0000
      7 ****        -0.0451  -0.8792   0.0927 N.4            1 S1                 1.0000
      8 ****         1.4200  -0.9499   0.2844 C.3            1 S1                 0.0000
      9 ****         2.2404  -0.3358  -0.8712 C.3            1 S1                 0.0000
     10 ****         3.2229  -1.4687  -1.2272 C.3            1 S1                 0.0000
     11 ****         2.4649  -2.5592  -2.0043 C.3            1 S1                 0.0000
     12 ****         1.5888  -3.2006  -0.9129 C.3            1 S1                 0.0000
     13 ****         1.9615  -2.3945   0.3510 C.3            1 S1                 0.0000
     14 ****         3.4492  -2.1484   0.1202 C.3            1 S1                 0.0000
     15 ****        -3.1786   2.6287  -0.8570 C.2            1 S1                 0.0000
     16 ****        -3.8182   4.1350  -0.2592 S.3            1 S1                 0.0000
     17 ****        -3.9603   3.7739   3.4473 H              1 S1                 0.0000
     18 ****        -4.6396   5.0424   2.4153 H              1 S1                 0.0000
     19 ****        -2.9130   5.0582   2.8159 H              1 S1                 0.0000
     20 ****        -2.5895  -0.2243   0.7577 H              1 S1                 0.0000
     21 ****        -2.3745   0.0354  -0.9508 H              1 S1                 0.0000
     22 ****        -0.1618   1.1388  -0.5138 H              1 S1                 0.0000
     23 ****        -0.3732   0.8734   1.2088 H              1 S1                 0.0000
     24 ****        -0.4794  -1.4654   0.7914 H              1 S1                 0.0000
     25 ****         1.6698  -0.4439   1.2188 H              1 S1                 0.0000
     26 ****         1.6316  -0.0460  -1.7289 H              1 S1                 0.0000
     27 ****         2.7740   0.5517  -0.5286 H              1 S1                 0.0000
     28 ****         4.1273  -1.1239  -1.7294 H              1 S1                 0.0000
     29 ****         1.8765  -2.1519  -2.8275 H              1 S1                 0.0000
     30 ****         3.1571  -3.2927  -2.4200 H              1 S1                 0.0000
     31 ****         0.5262  -3.1580  -1.1517 H              1 S1                 0.0000
     32 ****         1.8523  -4.2516  -0.7875 H              1 S1                 0.0000
     33 ****         1.7238  -2.9079   1.2834 H              1 S1                 0.0000
     34 ****         4.0352  -3.0666   0.0484 H              1 S1                 0.0000
     35 ****         3.9041  -1.4923   0.8647 H              1 S1                 0.0000
     36 ****        -3.1597   2.4356  -1.9194 H              1 S1                 0.0000
     37 ****        -0.2694  -1.2472  -0.8207 H              1 S1                 0.0000
     38 ****        -2.6611   1.9235   2.2797 LP             1 S1                 0.0000
@<TRIPOS>BOND
    1    1    2 1     
    2    1   17 1     
    3    1   18 1     
    4    1   19 1     
    5    2   16 1     
    6    2    3 2     
    7    3    4 1     
    8    4    5 1     
    9    4   15 2     
   10    5    6 1     
   11    5   20 1     
   12    5   21 1     
   13    6    7 1     
   14    6   22 1     
   15    6   23 1     
   16    7    8 1     
   17    7   24 1     
   18    7   37 1     
   19    8   13 1     
   20    8    9 1     
   21    8   25 1     
   22    9   10 1     
   23    9   26 1     
   24    9   27 1     
   25   10   14 1     
   26   10   11 1     
   27   10   28 1     
   28   11   12 1     
   29   11   29 1     
   30   11   30 1     
   31   12   13 1     
   32   12   31 1     
   33   12   32 1     
   34   13   14 1     
   35   13   33 1     
   36   14   34 1     
   37   14   35 1     
   38   15   16 1     
   39   15   36 1     
   40    3   38 1     
@<TRIPOS>SUBSTRUCTURE
      1 S1             1
@<TRIPOS>SET
LONE_PAIRS      STATIC     ATOMS    <user>   **** ""
1 38
DONOR_HYDROGENS      STATIC     ATOMS    <user>   **** ""
2 24 37
ATOM$BLUE        STATIC     ATOMS    COLORGROUP SYSTEM
1 38
ATOM$RED        STATIC     ATOMS    COLORGROUP SYSTEM
2 24 37
