AV-unprocessed.smi:630|AV-procd|sdf|3120|dock5
  -GOLD-   22720 0 43D 1   1.00000     0.00000
 Structure written by MMmdl.
 37 38  0  0  0  0  0  0  0  0  1 V2000
  149.6652  138.6543  153.3741 N   0  0  0  0  0  0  0  0  0  0  0  0
  150.4047  138.6493  154.4863 C   0  0  0  0  0  0  0  0  0  0  0  0
  151.0058  139.6498  154.8722 O   0  0  0  0  0  0  0  0  0  0  0  0
  150.4790  137.3298  155.2791 C   0  0  1  0  0  0  0  0  0  0  0  0
  151.4607  137.4700  156.4695 C   0  0  0  0  0  0  0  0  0  0  0  0
  150.8650  137.9809  157.7926 C   0  0  0  0  0  0  0  0  0  0  0  0
  150.2998  136.8455  158.6603 C   0  0  0  0  0  0  0  0  0  0  0  0
  148.9805  136.2483  158.1517 C   0  0  0  0  0  0  0  0  0  0  0  0
  149.0165  135.7061  156.7109 C   0  0  0  0  0  0  0  0  0  0  0  0
  149.0535  136.8195  155.6412 C   0  0  2  0  0  0  0  0  0  0  0  0
  148.3950  136.3347  154.4239 N   0  0  0  0  0  0  0  0  0  0  0  0
  147.1880  135.7522  154.3526 C   0  0  0  0  0  0  0  0  0  0  0  0
  146.4709  135.5415  155.3309 O   0  0  0  0  0  0  0  0  0  0  0  0
  146.8769  135.4404  153.0822 N   0  0  0  0  0  0  0  0  0  0  0  0
  145.6924  134.8300  152.5923 C   0  0  0  0  0  0  0  0  0  0  0  0
  144.7373  134.3041  153.3679 N   0  0  0  0  0  0  0  0  0  0  0  0
  143.6857  133.7720  152.6175 C   0  0  0  0  0  0  0  0  0  0  0  0
  143.8576  133.9030  151.2620 C   0  0  0  0  0  0  0  0  0  0  0  0
  145.3559  134.7048  150.8718 S   0  0  0  0  0  0  0  0  0  0  0  0
  149.5914  139.5002  152.8279 H   0  0  0  0  0  0  0  0  0  0  0  0
  149.1832  137.8165  153.0834 H   0  0  0  0  0  0  0  0  0  0  0  0
  150.9324  136.5879  154.6182 H   0  0  0  0  0  0  0  0  0  0  0  0
  151.9529  136.5123  156.6428 H   0  0  0  0  0  0  0  0  0  0  0  0
  152.2741  138.1390  156.1826 H   0  0  0  0  0  0  0  0  0  0  0  0
  151.6652  138.4597  158.3582 H   0  0  0  0  0  0  0  0  0  0  0  0
  150.1177  138.7565  157.6223 H   0  0  0  0  0  0  0  0  0  0  0  0
  151.0444  136.0557  158.7661 H   0  0  0  0  0  0  0  0  0  0  0  0
  150.1333  137.2281  159.6680 H   0  0  0  0  0  0  0  0  0  0  0  0
  148.6993  135.4343  158.8205 H   0  0  0  0  0  0  0  0  0  0  0  0
  148.1851  136.9889  158.2441 H   0  0  0  0  0  0  0  0  0  0  0  0
  149.8425  135.0069  156.5763 H   0  0  0  0  0  0  0  0  0  0  0  0
  148.1078  135.1172  156.5765 H   0  0  0  0  0  0  0  0  0  0  0  0
  148.4780  137.6584  156.0372 H   0  0  0  0  0  0  0  0  0  0  0  0
  148.9052  136.4586  153.5620 H   0  0  0  0  0  0  0  0  0  0  0  0
  147.5664  135.6702  152.3820 H   0  0  0  0  0  0  0  0  0  0  0  0
  142.8515  133.3176  153.1314 H   0  0  0  0  0  0  0  0  0  0  0  0
  143.1957  133.5778  150.4730 H   0  0  0  0  0  0  0  0  0  0  0  0
  1  2  1  0  0  0  0
  1 20  1  0  0  0  0
  1 21  1  0  0  0  0
  2  3  2  0  0  0  0
  2  4  1  0  0  0  0
  4 10  1  0  0  0  0
  4  5  1  0  0  0  0
  4 22  1  0  0  0  0
  5  6  1  0  0  0  0
  5 23  1  0  0  0  0
  5 24  1  0  0  0  0
  6  7  1  0  0  0  0
  6 25  1  0  0  0  0
  6 26  1  0  0  0  0
  7  8  1  0  0  0  0
  7 27  1  0  0  0  0
  7 28  1  0  0  0  0
  8  9  1  0  0  0  0
  8 29  1  0  0  0  0
  8 30  1  0  0  0  0
  9 10  1  0  0  0  0
  9 31  1  0  0  0  0
  9 32  1  0  0  0  0
 10 11  1  0  0  0  0
 10 33  1  0  0  0  0
 11 12  1  0  0  0  0
 11 34  1  0  0  0  0
 12 13  2  0  0  0  0
 12 14  1  0  0  0  0
 14 15  1  0  0  0  0
 14 35  1  0  0  0  0
 15 19  1  0  0  0  0
 15 16  2  0  0  0  0
 16 17  1  0  0  0  0
 17 18  2  0  0  0  0
 17 36  1  0  0  0  0
 18 19  1  0  0  0  0
 18 37  1  0  0  0  0
M  END
> <s_m_source_file>
AV-unprocessed.smi

> <i_m_source_file_index>
630

> <i_lp_mmshare_version>
43012

> <i_f3d_flags>
0

> <s_epik_input>
W05IMl1DKD1PKVtDQEBIXTFbQ0gyXVtDSDJdW0NIMl1bQ0gyXVtDSDJdW0NASF0xW05IXUMoPU8pW05IXWMybltjSF1bY0hdczI=

> <s_epik_cmdline>
J2VwaWtfcHl0aG9uJywgJy1waCcsICc3LjAnLCAnLXRuJywgJzgnLCAnLW1hJywgJzIwMCcsICctbWV0YWxfYmluZGluZycsICctaW1hZScsICc8aW5maWxlLm1hZT4nLCAnLW9tYWUnLCAnPG91dGZpbGUubWFlPic=

> <r_lp_tautomer_probability>
0.999

> <r_epik_Ionization_Penalty>
0.000342689

> <r_epik_Ionization_Penalty_Charging>
0

> <r_epik_Ionization_Penalty_Neutral>
0.000342689

> <r_epik_State_Penalty>
0.000177984

> <r_epik_Charging_Adjusted_Penalty>
0.000177984

> <i_epik_Tot_Q>
0

> <i_epik_Tot_abs_Q>
0

> <r_epik_Metal_State_Penalty>
0.00743087

> <b_epik_Metal_Only>
0

> <s_lp_Force_Field>
OPLS_2005

> <r_lp_Energy>
11.5905

> <b_lp_Chiralities_Consistent>
1

> <s_lp_Variant>
AV-unprocessed.smi:630-4

> <Gold.Version>
5.8.1

> <Gold.Id.Protein>
6NUR|6NUR_protein|mol2

> <Gold.PLP.Fitness>
41.9786

> <Gold.PLP.PLP>
-21.4795

> <Gold.PLP.part.hbond>
-4.8461

> <Gold.PLP.part.metal>
0.0000

> <Gold.PLP.part.buried>
-2.3081

> <Gold.PLP.part.nonpolar>
-13.9173

> <Gold.PLP.part.repulsive>
0.2850

> <Gold.PLP.ligand.clash>
0.0000

> <Gold.PLP.ligand.torsion>
0.1180

> <Gold.PLP.Chemscore.Hbond>
4.9520

> <Gold.PLP.Chemscore.CHOScore>
1.9237

> <Gold.PLP.Chemscore.Metal>
0.0000

> <Gold.Chemscore.Hbonds>
donor molecule, donor type, donor heavy atom, donor atom, acceptor molecule, acceptor atom, score
      L1  H     1    20       P1  7957  0.80
      L1  H     1    21       P1  7948  1.00
      L1  H    11    34       P1  7948  0.98
      L1  H    14    35       P1  7948  1.00
      P1  H  7989  7998       L1     3  1.00
      L1  C    17    36       P1 10957  1.00
      L1  C    18    37       P1 10186  1.00

> <Gold.PLP.Chemscore.Internal.Correction>
0.1083

> <Gold.Rescore>
     Score         DG    S(hbond)    S(metal)    S(lipo)     H(rot)  DE(clash)    DE(int)     intcor
     18.03     -22.02       4.81        0.00      37.11       1.52       0.01       3.98       ----

> <Gold.Chemscore.Fitness>
18.0286

> <Gold.Chemscore.DG>
-22.0163

> <Gold.Chemscore.ZeroCoef>
-5.4800

> <Gold.Chemscore.Hbond>
4.8148

> <Gold.Chemscore.Metal>
0.0000

> <Gold.Chemscore.Lipo>
37.1109

> <Gold.Chemscore.Internal_Hbond>
0.0000

> <Gold.Chemscore.DEClash>
0.0125

> <Gold.Chemscore.DEInternal>
3.9752

> <Gold.Chemscore.Rot>
1.5184

> <Gold.Chemscore.Internal.Correction>
   9.000000E+99

> <Gold.Chemscore.Hbonds>
donor molecule, donor type, donor heavy atom, donor atom, acceptor molecule, acceptor atom, score
      L1  H     1    20       P1  7957  0.80
      L1  H     1    21       P1  7948  0.91
      L1  H    11    34       P1  7948  0.93
      L1  H    14    35       P1  7948  0.96
      P1  H  7989  7998       L1     3  0.92

> <Gold.Chemscore.Hbond.Weighted>
-16.0815

> <Gold.Chemscore.Metal.Weighted>
-0.0000

> <Gold.Chemscore.Lipo.Weighted>
-4.3420

> <Gold.Chemscore.Internal_Hbond.Weighted>
0.0000

> <Gold.Chemscore.DEClash.Weighted>
0.0125

> <Gold.Chemscore.DEInternal.Weighted>
3.9752

> <Gold.Chemscore.Rot.Weighted>
3.8872

> <Gold.Chemscore.Internal.Correction.Weighted>
   9.000000E+99

> <Gold.Protein.RotatedTorsions>
[ 6907 6896 6895 6894 ] final   31.11 input  -60.11 | X-H torsion
[ 7974 7965 7964 7962 ] final   11.85 input  175.53 | X-H torsion
[ 8008 7997 7996 7995 ] final   27.49 input   59.86 | X-H torsion
[ 10167 10162 10161 10158 ] final  118.97 input  -65.29 | X-H torsion
[ 10718 10713 10712 10709 ] final  172.27 input   66.30 | X-H torsion
[ 10763 10752 10751 10750 ] final -149.12 input  -60.55 | X-H torsion
[ 11005 11000 10999 10996 ] final -111.60 input  -57.11 | X-H torsion

> <Gold.Protein.ActiveResidues>
 VAL166  LYS551  ARG553  GLY616  TRP617  ASP618  TYR619  PRO620  LYS621  CYS622 
 ASP623  PHE694  ASN695  SER759  ASP760  ASP761  ALA762  ILE779  LEU786  VAL792 
 PHE793  MET794  SER795  GLU796  ALA797  LYS798  CYS799  TRP800  GLU811  SER814 

> <Gold.Protein.RotatedAtoms>
  152.0557  134.9626  160.0574 H   0  0  0  0  0  0  0  0  0  0  0  0  # atno 6907 bound_to 6896
  152.1009  133.4244  159.4595 H   0  0  0  0  0  0  0  0  0  0  0  0  # atno 6908 bound_to 6896
  150.6839  134.2680  159.4620 H   0  0  0  0  0  0  0  0  0  0  0  0  # atno 6909 bound_to 6896
  146.2363  139.9424  142.8481 H   0  0  0  0  0  0  0  0  0  0  0  0  # atno 7974 bound_to 7965
  155.0437  140.3172  155.4716 H   0  0  0  0  0  0  0  0  0  0  0  0  # atno 8008 bound_to 7997
  156.2849  140.2158  156.5505 H   0  0  0  0  0  0  0  0  0  0  0  0  # atno 8009 bound_to 7997
  154.7268  140.0485  157.0678 H   0  0  0  0  0  0  0  0  0  0  0  0  # atno 8010 bound_to 7997
  139.6076  144.7074  151.2917 H   0  0  0  0  0  0  0  0  0  0  0  0  # atno 10167 bound_to 10162
  156.9814  131.0120  151.2880 H   0  0  0  0  0  0  0  0  0  0  0  0  # atno 10718 bound_to 10713
  154.8195  135.3317  154.7079 H   0  0  0  0  0  0  0  0  0  0  0  0  # atno 10763 bound_to 10752
  153.7714  135.6925  153.4910 H   0  0  0  0  0  0  0  0  0  0  0  0  # atno 10764 bound_to 10752
  153.2042  135.4505  155.0251 H   0  0  0  0  0  0  0  0  0  0  0  0  # atno 10765 bound_to 10752
  141.0724  133.9357  157.2458 H   0  0  0  0  0  0  0  0  0  0  0  0  # atno 11005 bound_to 11000
  145.1939  140.9824  143.4195 LP  0  0  0  0  0  0  0  0  0  0  0  0  # atno 17320 bound_to 7965
  144.9833  139.3762  143.6251 LP  0  0  0  0  0  0  0  0  0  0  0  0  # atno 17321 bound_to 7965
  140.7296  143.6903  150.7928 LP  0  0  0  0  0  0  0  0  0  0  0  0  # atno 17342 bound_to 10162
  140.0491  143.5268  152.2682 LP  0  0  0  0  0  0  0  0  0  0  0  0  # atno 17343 bound_to 10162
  157.5523  130.8191  149.8161 LP  0  0  0  0  0  0  0  0  0  0  0  0  # atno 17370 bound_to 10713
  156.0243  130.3785  150.1870 LP  0  0  0  0  0  0  0  0  0  0  0  0  # atno 17371 bound_to 10713
  139.9537  135.0170  156.9068 LP  0  0  0  0  0  0  0  0  0  0  0  0  # atno 17394 bound_to 11000
  140.5645  134.0503  155.7409 LP  0  0  0  0  0  0  0  0  0  0  0  0  # atno 17395 bound_to 11000

$$$$
