AV-unprocessed.smi:561|AV-procd|sdf|2937|dock10
  -GOLD-   2262023433D 1   1.00000     0.00000
 Structure written by MMmdl.
 37 38  0  0  0  0  0  0  0  0  2 V2000
  150.6422  139.1149  154.5667 C   0  0  0  0  0  0  0  0  0  0  0  0
  149.3263  138.3773  154.8479 C   0  0  1  0  0  0  0  0  0  0  0  0
  148.2076  138.8456  153.8931 C   0  0  0  0  0  0  0  0  0  0  0  0
  147.6717  140.1643  154.2463 N   0  0  0  0  0  0  0  0  0  0  0  0
  146.3579  140.5565  154.2309 C   0  0  0  0  0  0  0  0  0  0  0  0
  146.3375  141.8701  154.6222 C   0  0  0  0  0  0  0  0  0  0  0  0
  147.6380  142.2227  154.8651 N   0  3  0  0  0  0  0  0  0  0  0  0
  148.4474  141.1827  154.6404 C   0  0  0  0  0  0  0  0  0  0  0  0
  149.5563  136.9389  154.7223 N   0  0  0  0  0  0  0  0  0  0  0  0
  150.1402  136.1475  155.6416 C   0  0  0  0  0  0  0  0  0  0  0  0
  150.5469  136.5655  156.7261 O   0  0  0  0  0  0  0  0  0  0  0  0
  150.2581  134.7098  155.2807 C   0  0  0  0  0  0  0  0  0  0  0  0
  149.6244  134.2469  154.2491 N   0  0  0  0  0  0  0  0  0  0  0  0
  149.6903  132.9176  153.8851 N   0  0  0  0  0  0  0  0  0  0  0  0
  148.7156  132.5088  152.8757 C   0  0  0  0  0  0  0  0  0  0  0  0
  150.5916  132.0285  154.3716 C   0  0  0  0  0  0  0  0  0  0  0  0
  150.6271  130.8423  154.0451 O   0  0  0  0  0  0  0  0  0  0  0  0
  151.6269  132.5769  155.3579 C   0  0  0  0  0  0  0  0  0  0  0  0
  151.0954  133.7900  156.1472 C   0  0  0  0  0  0  0  0  0  0  0  0
  150.5202  140.1924  154.6809 H   0  0  0  0  0  0  0  0  0  0  0  0
  150.9957  138.9261  153.5525 H   0  0  0  0  0  0  0  0  0  0  0  0
  151.4250  138.7991  155.2572 H   0  0  0  0  0  0  0  0  0  0  0  0
  149.0381  138.6156  155.8734 H   0  0  0  0  0  0  0  0  0  0  0  0
  148.5884  138.9212  152.8738 H   0  0  0  0  0  0  0  0  0  0  0  0
  147.3868  138.1268  153.8699 H   0  0  0  0  0  0  0  0  0  0  0  0
  145.5573  139.8906  153.9429 H   0  0  0  0  0  0  0  0  0  0  0  0
  145.5168  142.5623  154.7421 H   0  0  0  0  0  0  0  0  0  0  0  0
  149.5177  141.1720  154.7454 H   0  0  0  0  0  0  0  0  0  0  0  0
  149.2560  136.5066  153.8599 H   0  0  0  0  0  0  0  0  0  0  0  0
  148.0845  131.7036  153.2546 H   0  0  0  0  0  0  0  0  0  0  0  0
  149.2203  132.1527  151.9764 H   0  0  0  0  0  0  0  0  0  0  0  0
  148.0599  133.3302  152.5823 H   0  0  0  0  0  0  0  0  0  0  0  0
  151.9481  131.7902  156.0413 H   0  0  0  0  0  0  0  0  0  0  0  0
  152.5049  132.8704  154.7813 H   0  0  0  0  0  0  0  0  0  0  0  0
  151.9462  134.3268  156.5687 H   0  0  0  0  0  0  0  0  0  0  0  0
  150.4969  133.4499  156.9931 H   0  0  0  0  0  0  0  0  0  0  0  0
  147.9453  143.1379  155.1692 H   0  0  0  0  0  0  0  0  0  0  0  0
  1  2  1  0  0  0  0
  1 20  1  0  0  0  0
  1 21  1  0  0  0  0
  1 22  1  0  0  0  0
  2  3  1  0  0  0  0
  2  9  1  0  0  0  0
  2 23  1  0  0  0  0
  3  4  1  0  0  0  0
  3 24  1  0  0  0  0
  3 25  1  0  0  0  0
  4  8  1  0  0  0  0
  4  5  1  0  0  0  0
  5  6  2  0  0  0  0
  5 26  1  0  0  0  0
  6  7  1  0  0  0  0
  6 27  1  0  0  0  0
  7  8  2  0  0  0  0
  7 37  1  0  0  0  0
  8 28  1  0  0  0  0
  9 10  1  0  0  0  0
  9 29  1  0  0  0  0
 10 11  2  0  0  0  0
 10 12  1  0  0  0  0
 12 19  1  0  0  0  0
 12 13  2  0  0  0  0
 13 14  1  0  0  0  0
 14 15  1  0  0  0  0
 14 16  1  0  0  0  0
 15 30  1  0  0  0  0
 15 31  1  0  0  0  0
 15 32  1  0  0  0  0
 16 17  2  0  0  0  0
 16 18  1  0  0  0  0
 18 19  1  0  0  0  0
 18 33  1  0  0  0  0
 18 34  1  0  0  0  0
 19 35  1  0  0  0  0
 19 36  1  0  0  0  0
M  CHG  1   7   1
M  END
> <s_m_source_file>
AV-unprocessed.smi

> <i_m_source_file_index>
561

> <i_lp_mmshare_version>
43012

> <i_f3d_flags>
0

> <s_epik_input>
W2NIXTFuW2NIXVtjSF1uMVtDSDJdW0NAQEhdKFtDSDNdKVtOSF1DKD1PKUMyPU5OKFtDSDNdKUMoPU8pW0NIMl1bQ0gyXTI=

> <s_epik_cmdline>
J2VwaWtfcHl0aG9uJywgJy1waCcsICc3LjAnLCAnLXRuJywgJzgnLCAnLW1hJywgJzIwMCcsICctbWV0YWxfYmluZGluZycsICctaW1hZScsICc8aW5maWxlLm1hZT4nLCAnLW9tYWUnLCAnPG91dGZpbGUubWFlPic=

> <r_lp_tautomer_probability>
1

> <r_epik_Ionization_Penalty>
0.358595

> <r_epik_Ionization_Penalty_Charging>
0

> <r_epik_Ionization_Penalty_Neutral>
0.358595

> <r_epik_State_Penalty>
0.355181

> <r_epik_Charging_Adjusted_Penalty>
0.355181

> <i_epik_Tot_Q>
1

> <i_epik_Tot_abs_Q>
1

> <r_epik_Metal_State_Penalty>
0.718565

> <b_epik_Metal_Only>
0

> <s_epik_Chemistry_Notes>
This compound has an imine and may undergo hydrolysis.

> <s_lp_Force_Field>
OPLS_2005

> <r_lp_Energy>
19.4288

> <b_lp_Chiralities_Consistent>
1

> <s_lp_Variant>
AV-unprocessed.smi:561-2

> <Gold.Version>
5.8.1

> <Gold.Id.Protein>
6NUR|6NUR_protein|mol2

> <Gold.PLP.Fitness>
45.1327

> <Gold.PLP.PLP>
-34.5598

> <Gold.PLP.part.hbond>
-2.0000

> <Gold.PLP.part.metal>
0.0000

> <Gold.PLP.part.buried>
-3.4617

> <Gold.PLP.part.nonpolar>
-30.4966

> <Gold.PLP.part.repulsive>
0.9142

> <Gold.PLP.ligand.clash>
0.0000

> <Gold.PLP.ligand.torsion>
0.7217

> <Gold.PLP.Chemscore.Hbond>
3.0000

> <Gold.PLP.Chemscore.CHOScore>
1.0000

> <Gold.PLP.Chemscore.Metal>
0.0000

> <Gold.Chemscore.Hbonds>
donor molecule, donor type, donor heavy atom, donor atom, acceptor molecule, acceptor atom, score
      L1  H     7    37       P1  8028  2.00
      L1  H     9    29       P1  7948  1.00
      L1  C     5    26       P1 10175  0.91

> <Gold.PLP.Chemscore.Internal.Correction>
0.0163

> <Gold.Rescore>
     Score         DG    S(hbond)    S(metal)    S(lipo)     H(rot)  DE(clash)    DE(int)     intcor
     11.83     -13.40       1.84        0.00      53.56       1.76       0.87       0.71       ----

> <Gold.Chemscore.Fitness>
11.8254

> <Gold.Chemscore.DG>
-13.4042

> <Gold.Chemscore.ZeroCoef>
-5.4800

> <Gold.Chemscore.Hbond>
1.8444

> <Gold.Chemscore.Metal>
0.0000

> <Gold.Chemscore.Lipo>
53.5616

> <Gold.Chemscore.Internal_Hbond>
0.0000

> <Gold.Chemscore.DEClash>
0.8681

> <Gold.Chemscore.DEInternal>
0.7107

> <Gold.Chemscore.Rot>
1.7589

> <Gold.Chemscore.Internal.Correction>
   9.000000E+99

> <Gold.Chemscore.Hbonds>
donor molecule, donor type, donor heavy atom, donor atom, acceptor molecule, acceptor atom, score
      L1  H     7    37       P1  8028  0.78
      L1  H     9    29       P1  7948  0.90

> <Gold.Chemscore.Hbond.Weighted>
-6.1603

> <Gold.Chemscore.Metal.Weighted>
-0.0000

> <Gold.Chemscore.Lipo.Weighted>
-6.2667

> <Gold.Chemscore.Internal_Hbond.Weighted>
0.0000

> <Gold.Chemscore.DEClash.Weighted>
0.8681

> <Gold.Chemscore.DEInternal.Weighted>
0.7107

> <Gold.Chemscore.Rot.Weighted>
4.5028

> <Gold.Chemscore.Internal.Correction.Weighted>
   9.000000E+99

> <Gold.Protein.RotatedTorsions>
[ 6907 6896 6895 6894 ] final -154.08 input  -60.11 | X-H torsion
[ 7974 7965 7964 7962 ] final  -79.83 input  175.53 | X-H torsion
[ 8008 7997 7996 7995 ] final   18.71 input   59.86 | X-H torsion
[ 10167 10162 10161 10158 ] final   75.24 input  -65.29 | X-H torsion
[ 10718 10713 10712 10709 ] final -158.51 input   66.30 | X-H torsion
[ 10763 10752 10751 10750 ] final -136.04 input  -60.55 | X-H torsion
[ 11005 11000 10999 10996 ] final  149.47 input  -57.11 | X-H torsion

> <Gold.Protein.ActiveResidues>
 VAL166  LYS551  ARG553  GLY616  TRP617  ASP618  TYR619  PRO620  LYS621  CYS622 
 ASP623  PHE694  ASN695  SER759  ASP760  ASP761  ALA762  ILE779  LEU786  VAL792 
 PHE793  MET794  SER795  GLU796  ALA797  LYS798  CYS799  TRP800  GLU811  SER814 

> <Gold.Protein.RotatedAtoms>
  151.2521  133.4345  159.2611 H   0  0  0  0  0  0  0  0  0  0  0  0  # atno 6907 bound_to 6896
  151.0608  134.9735  159.8269 H   0  0  0  0  0  0  0  0  0  0  0  0  # atno 6908 bound_to 6896
  152.5398  134.2471  159.8937 H   0  0  0  0  0  0  0  0  0  0  0  0  # atno 6909 bound_to 6896
  145.5680  140.9471  143.1411 H   0  0  0  0  0  0  0  0  0  0  0  0  # atno 7974 bound_to 7965
  154.9100  140.3012  155.5271 H   0  0  0  0  0  0  0  0  0  0  0  0  # atno 8008 bound_to 7997
  156.3015  140.2391  156.4074 H   0  0  0  0  0  0  0  0  0  0  0  0  # atno 8009 bound_to 7997
  154.8435  140.0412  157.1546 H   0  0  0  0  0  0  0  0  0  0  0  0  # atno 8010 bound_to 7997
  140.0051  144.5657  150.7705 H   0  0  0  0  0  0  0  0  0  0  0  0  # atno 10167 bound_to 10162
  156.5552  130.8623  151.2792 H   0  0  0  0  0  0  0  0  0  0  0  0  # atno 10718 bound_to 10713
  154.8691  135.3685  154.4997 H   0  0  0  0  0  0  0  0  0  0  0  0  # atno 10763 bound_to 10752
  153.5638  135.7022  153.5540 H   0  0  0  0  0  0  0  0  0  0  0  0  # atno 10764 bound_to 10752
  153.3603  135.4048  155.1677 H   0  0  0  0  0  0  0  0  0  0  0  0  # atno 10765 bound_to 10752
  140.1048  134.8961  157.1849 H   0  0  0  0  0  0  0  0  0  0  0  0  # atno 11005 bound_to 11000
  144.7451  139.7342  143.7295 LP  0  0  0  0  0  0  0  0  0  0  0  0  # atno 17320 bound_to 7965
  146.1804  139.4994  142.9870 LP  0  0  0  0  0  0  0  0  0  0  0  0  # atno 17321 bound_to 7965
  140.7404  143.2803  151.3617 LP  0  0  0  0  0  0  0  0  0  0  0  0  # atno 17342 bound_to 10162
  139.6244  144.0843  152.2421 LP  0  0  0  0  0  0  0  0  0  0  0  0  # atno 17343 bound_to 10162
  157.7379  130.9805  150.2224 LP  0  0  0  0  0  0  0  0  0  0  0  0  # atno 17370 bound_to 10713
  156.2848  130.3738  149.7899 LP  0  0  0  0  0  0  0  0  0  0  0  0  # atno 17371 bound_to 10713
  140.3171  134.2958  155.7254 LP  0  0  0  0  0  0  0  0  0  0  0  0  # atno 17394 bound_to 11000
  141.2115  133.7687  156.9859 LP  0  0  0  0  0  0  0  0  0  0  0  0  # atno 17395 bound_to 11000

$$$$
