AV-unprocessed.smi:240|AV-procd|sdf|1828|dock7
  -GOLD-   2262020433D 1   1.00000     0.00000
 Structure written by MMmdl.
 55 59  0  0  0  0  0  0  0  0  1 V2000
  149.2172  142.1660  156.8588 O   0  0  0  0  0  0  0  0  0  0  0  0
  149.6222  141.2602  155.8535 C   0  0  2  0  0  0  0  0  0  0  0  0
  148.6445  141.2802  154.6800 C   0  0  0  0  0  0  0  0  0  0  0  0
  148.9130  139.9580  153.9654 C   0  0  0  0  0  0  0  0  0  0  0  0
  149.2778  138.9606  155.0736 C   0  0  0  0  0  0  0  0  0  0  0  0
  149.6087  139.7931  156.3317 C   0  0  1  0  0  0  0  0  0  0  0  0
  150.8615  139.2961  157.1228 C   0  0  1  0  0  0  0  0  0  0  0  0
  151.8135  140.4470  157.5433 C   0  0  0  0  0  0  0  0  0  0  0  0
  152.9448  139.9253  158.2280 O   0  0  0  0  0  0  0  0  0  0  0  0
  152.5684  139.2766  159.4346 C   0  0  0  0  0  0  0  0  0  0  0  0
  151.6771  138.0756  159.0946 C   0  0  0  0  0  0  0  0  0  0  0  0
  150.5198  138.4928  158.3081 N   0  0  0  0  0  0  0  0  0  0  0  0
  149.6911  137.4361  158.1320 C   0  0  0  0  0  0  0  0  0  0  0  0
  149.5029  136.9081  156.8929 N   0  0  0  0  0  0  0  0  0  0  0  0
  148.6847  135.8644  156.7287 C   0  0  0  0  0  0  0  0  0  0  0  0
  147.9767  135.2056  157.6492 N   0  0  0  0  0  0  0  0  0  0  0  0
  148.1792  135.7226  158.8953 C   0  0  0  0  0  0  0  0  0  0  0  0
  149.0175  136.8243  159.2218 C   0  0  0  0  0  0  0  0  0  0  0  0
  148.9767  137.0675  160.5883 N   0  0  0  0  0  0  0  0  0  0  0  0
  148.1512  136.1653  161.0444 C   0  0  0  0  0  0  0  0  0  0  0  0
  147.6302  135.3111  160.0976 N   0  0  0  0  0  0  0  0  0  0  0  0
  146.6884  134.2254  160.3255 C   0  0  0  0  0  0  0  0  0  0  0  0
  145.3514  134.6852  160.9524 C   0  0  1  0  0  0  0  0  0  0  0  0
  144.9028  135.8458  160.2737 O   0  0  0  0  0  0  0  0  0  0  0  0
  144.2591  133.6271  160.8638 C   0  0  0  0  0  0  0  0  0  0  0  0
  143.3860  133.9455  162.0699 C   0  0  0  0  0  0  0  0  0  0  0  0
  144.3336  134.2857  163.0678 O   0  0  0  0  0  0  0  0  0  0  0  0
  145.4119  134.9940  162.4629 C   0  0  0  0  0  0  0  0  0  0  0  0
  149.4081  143.0444  156.5671 H   0  0  0  0  0  0  0  0  0  0  0  0
  150.6044  141.5548  155.4883 H   0  0  0  0  0  0  0  0  0  0  0  0
  147.6154  141.2943  155.0426 H   0  0  0  0  0  0  0  0  0  0  0  0
  148.7821  142.1451  154.0304 H   0  0  0  0  0  0  0  0  0  0  0  0
  148.0628  139.6273  153.3682 H   0  0  0  0  0  0  0  0  0  0  0  0
  149.7623  140.0773  153.2913 H   0  0  0  0  0  0  0  0  0  0  0  0
  148.4347  138.3006  155.2814 H   0  0  0  0  0  0  0  0  0  0  0  0
  150.0968  138.3190  154.7522 H   0  0  0  0  0  0  0  0  0  0  0  0
  148.7275  139.6819  156.9640 H   0  0  0  0  0  0  0  0  0  0  0  0
  151.4290  138.6466  156.4547 H   0  0  0  0  0  0  0  0  0  0  0  0
  152.1759  140.9975  156.6768 H   0  0  0  0  0  0  0  0  0  0  0  0
  151.3200  141.1718  158.1901 H   0  0  0  0  0  0  0  0  0  0  0  0
  153.4661  138.9427  159.9547 H   0  0  0  0  0  0  0  0  0  0  0  0
  152.0537  139.9731  160.0989 H   0  0  0  0  0  0  0  0  0  0  0  0
  152.2519  137.3381  158.5320 H   0  0  0  0  0  0  0  0  0  0  0  0
  151.3508  137.5928  160.0171 H   0  0  0  0  0  0  0  0  0  0  0  0
  148.5819  135.5069  155.7149 H   0  0  0  0  0  0  0  0  0  0  0  0
  147.8995  136.0963  162.0929 H   0  0  0  0  0  0  0  0  0  0  0  0
  146.5070  133.7249  159.3735 H   0  0  0  0  0  0  0  0  0  0  0  0
  147.1694  133.4881  160.9695 H   0  0  0  0  0  0  0  0  0  0  0  0
  144.7171  136.5142  160.9156 H   0  0  0  0  0  0  0  0  0  0  0  0
  143.7106  133.6377  159.9209 H   0  0  0  0  0  0  0  0  0  0  0  0
  144.6856  132.6308  160.9883 H   0  0  0  0  0  0  0  0  0  0  0  0
  142.7390  134.8010  161.8708 H   0  0  0  0  0  0  0  0  0  0  0  0
  142.7633  133.1048  162.3755 H   0  0  0  0  0  0  0  0  0  0  0  0
  146.3374  134.6455  162.9200 H   0  0  0  0  0  0  0  0  0  0  0  0
  145.3269  136.0616  162.6720 H   0  0  0  0  0  0  0  0  0  0  0  0
  1  2  1  0  0  0  0
  1 29  1  0  0  0  0
  2  6  1  0  0  0  0
  2  3  1  0  0  0  0
  2 30  1  0  0  0  0
  3  4  1  0  0  0  0
  3 31  1  0  0  0  0
  3 32  1  0  0  0  0
  4  5  1  0  0  0  0
  4 33  1  0  0  0  0
  4 34  1  0  0  0  0
  5  6  1  0  0  0  0
  5 35  1  0  0  0  0
  5 36  1  0  0  0  0
  6  7  1  0  0  0  0
  6 37  1  0  0  0  0
  7 12  1  0  0  0  0
  7  8  1  0  0  0  0
  7 38  1  0  0  0  0
  8  9  1  0  0  0  0
  8 39  1  0  0  0  0
  8 40  1  0  0  0  0
  9 10  1  0  0  0  0
 10 11  1  0  0  0  0
 10 41  1  0  0  0  0
 10 42  1  0  0  0  0
 11 12  1  0  0  0  0
 11 43  1  0  0  0  0
 11 44  1  0  0  0  0
 12 13  1  0  0  0  0
 13 18  1  0  0  0  0
 13 14  2  0  0  0  0
 14 15  1  0  0  0  0
 15 16  2  0  0  0  0
 15 45  1  0  0  0  0
 16 17  1  0  0  0  0
 17 21  1  0  0  0  0
 17 18  2  0  0  0  0
 18 19  1  0  0  0  0
 19 20  2  0  0  0  0
 20 21  1  0  0  0  0
 20 46  1  0  0  0  0
 21 22  1  0  0  0  0
 22 23  1  0  0  0  0
 22 47  1  0  0  0  0
 22 48  1  0  0  0  0
 23 28  1  0  0  0  0
 23 24  1  0  0  0  0
 23 25  1  0  0  0  0
 24 49  1  0  0  0  0
 25 26  1  0  0  0  0
 25 50  1  0  0  0  0
 25 51  1  0  0  0  0
 26 27  1  0  0  0  0
 26 52  1  0  0  0  0
 26 53  1  0  0  0  0
 27 28  1  0  0  0  0
 28 54  1  0  0  0  0
 28 55  1  0  0  0  0
M  END
> <s_m_source_file>
AV-unprocessed.smi

> <i_m_source_file_index>
240

> <i_lp_mmshare_version>
43012

> <i_f3d_flags>
0

> <s_epik_input>
W09IXVtDQEBIXTFbQ0gyXVtDSDJdW0NIMl1bQ0BIXTFbQ0BASF0yW0NIMl1PW0NIMl1bQ0gyXU4yYyhuW2NIXW4zKWMoYzM0KW5bY0hdbjRbQ0gyXVtDQEBdNShbT0hdKVtDSDJdW0NIMl1PW0NIMl01

> <s_epik_cmdline>
J2VwaWtfcHl0aG9uJywgJy1waCcsICc3LjAnLCAnLXRuJywgJzgnLCAnLW1hJywgJzIwMCcsICctbWV0YWxfYmluZGluZycsICctaW1hZScsICc8aW5maWxlLm1hZT4nLCAnLW9tYWUnLCAnPG91dGZpbGUubWFlPic=

> <r_lp_tautomer_probability>
1

> <r_epik_Ionization_Penalty>
0.000130618

> <r_epik_Ionization_Penalty_Charging>
0

> <r_epik_Ionization_Penalty_Neutral>
0.000130618

> <r_epik_State_Penalty>
-0

> <r_epik_Charging_Adjusted_Penalty>
0

> <i_epik_Tot_Q>
0

> <i_epik_Tot_abs_Q>
0

> <r_epik_Metal_State_Penalty>
-0

> <b_epik_Metal_Only>
0

> <s_lp_Force_Field>
OPLS_2005

> <r_lp_Energy>
59.9569

> <b_lp_Chiralities_Consistent>
1

> <s_lp_Variant>
AV-unprocessed.smi:240-5

> <Gold.Version>
5.8.1

> <Gold.Id.Protein>
6NUR|6NUR_protein|mol2

> <Gold.PLP.Fitness>
35.5292

> <Gold.PLP.PLP>
-30.6663

> <Gold.PLP.part.hbond>
-3.3980

> <Gold.PLP.part.metal>
0.0000

> <Gold.PLP.part.buried>
-3.1271

> <Gold.PLP.part.nonpolar>
-24.9334

> <Gold.PLP.part.repulsive>
0.0950

> <Gold.PLP.ligand.clash>
0.0000

> <Gold.PLP.ligand.torsion>
1.7137

> <Gold.PLP.Chemscore.Hbond>
2.6960

> <Gold.PLP.Chemscore.CHOScore>
0.0000

> <Gold.PLP.Chemscore.Metal>
0.0000

> <Gold.Chemscore.Hbonds>
donor molecule, donor type, donor heavy atom, donor atom, acceptor molecule, acceptor atom, score
      L1  H     1    29       P1  8028  1.00
      P1  H  6931  6943       L1    19  0.70
      P1  H  7997  8009       L1     9  0.99

> <Gold.PLP.Chemscore.Internal.Correction>
0.2023

> <Gold.Rescore>
     Score         DG    S(hbond)    S(metal)    S(lipo)     H(rot)  DE(clash)    DE(int)     intcor
      9.45     -13.65       2.20        0.00      72.88       3.00       0.00       4.20       ----

> <Gold.Chemscore.Fitness>
9.4498

> <Gold.Chemscore.DG>
-13.6503

> <Gold.Chemscore.ZeroCoef>
-5.4800

> <Gold.Chemscore.Hbond>
2.1957

> <Gold.Chemscore.Metal>
0.0000

> <Gold.Chemscore.Lipo>
72.8762

> <Gold.Chemscore.Internal_Hbond>
0.0000

> <Gold.Chemscore.DEClash>
0.0015

> <Gold.Chemscore.DEInternal>
4.1990

> <Gold.Chemscore.Rot>
3.0039

> <Gold.Chemscore.Internal.Correction>
   9.000000E+99

> <Gold.Chemscore.Hbonds>
donor molecule, donor type, donor heavy atom, donor atom, acceptor molecule, acceptor atom, score
      L1  H     1    29       P1  8028  0.93
      P1  H  6931  6943       L1    19  0.31
      P1  H  7997  8009       L1     9  0.59

> <Gold.Chemscore.Hbond.Weighted>
-7.3337

> <Gold.Chemscore.Metal.Weighted>
-0.0000

> <Gold.Chemscore.Lipo.Weighted>
-8.5265

> <Gold.Chemscore.Internal_Hbond.Weighted>
0.0000

> <Gold.Chemscore.DEClash.Weighted>
0.0015

> <Gold.Chemscore.DEInternal.Weighted>
4.1990

> <Gold.Chemscore.Rot.Weighted>
7.6899

> <Gold.Chemscore.Internal.Correction.Weighted>
   9.000000E+99

> <Gold.Protein.RotatedTorsions>
[ 6907 6896 6895 6894 ] final  162.46 input  -60.11 | X-H torsion
[ 7974 7965 7964 7962 ] final  -97.04 input  175.53 | X-H torsion
[ 8008 7997 7996 7995 ] final  158.86 input   59.86 | X-H torsion
[ 10167 10162 10161 10158 ] final -170.35 input  -65.29 | X-H torsion
[ 10718 10713 10712 10709 ] final  115.11 input   66.30 | X-H torsion
[ 10763 10752 10751 10750 ] final  -50.26 input  -60.55 | X-H torsion
[ 11005 11000 10999 10996 ] final  143.32 input  -57.11 | X-H torsion

> <Gold.Protein.ActiveResidues>
 VAL166  LYS551  ARG553  GLY616  TRP617  ASP618  TYR619  PRO620  LYS621  CYS622 
 ASP623  PHE694  ASN695  SER759  ASP760  ASP761  ALA762  ILE779  LEU786  VAL792 
 PHE793  MET794  SER795  GLU796  ALA797  LYS798  CYS799  TRP800  GLU811  SER814 

> <Gold.Protein.RotatedAtoms>
  151.9400  133.3635  159.3961 H   0  0  0  0  0  0  0  0  0  0  0  0  # atno 6907 bound_to 6896
  150.7000  134.4449  159.5318 H   0  0  0  0  0  0  0  0  0  0  0  0  # atno 6908 bound_to 6896
  152.2104  134.8507  160.0549 H   0  0  0  0  0  0  0  0  0  0  0  0  # atno 6909 bound_to 6896
  145.3389  140.9456  143.2619 H   0  0  0  0  0  0  0  0  0  0  0  0  # atno 7974 bound_to 7965
  156.2276  140.1847  156.7324 H   0  0  0  0  0  0  0  0  0  0  0  0  # atno 8008 bound_to 7997
  154.5967  140.0642  156.9341 H   0  0  0  0  0  0  0  0  0  0  0  0  # atno 8009 bound_to 7997
  155.2243  140.3310  155.4314 H   0  0  0  0  0  0  0  0  0  0  0  0  # atno 8010 bound_to 7997
  139.5867  144.1303  152.1584 H   0  0  0  0  0  0  0  0  0  0  0  0  # atno 10167 bound_to 10162
  157.6242  131.1008  150.7282 H   0  0  0  0  0  0  0  0  0  0  0  0  # atno 10718 bound_to 10713
  154.1075  135.6554  153.4879 H   0  0  0  0  0  0  0  0  0  0  0  0  # atno 10763 bound_to 10752
  153.0268  135.5239  154.7225 H   0  0  0  0  0  0  0  0  0  0  0  0  # atno 10764 bound_to 10752
  154.6395  135.2986  155.0090 H   0  0  0  0  0  0  0  0  0  0  0  0  # atno 10765 bound_to 10752
  140.0545  134.9238  157.1075 H   0  0  0  0  0  0  0  0  0  0  0  0  # atno 11005 bound_to 11000
  144.8806  139.4910  143.6725 LP  0  0  0  0  0  0  0  0  0  0  0  0  # atno 17320 bound_to 7965
  146.3015  139.7443  142.9087 LP  0  0  0  0  0  0  0  0  0  0  0  0  # atno 17321 bound_to 7965
  140.0868  144.5654  150.7083 LP  0  0  0  0  0  0  0  0  0  0  0  0  # atno 17342 bound_to 10162
  140.7137  143.2526  151.4501 LP  0  0  0  0  0  0  0  0  0  0  0  0  # atno 17343 bound_to 10162
  156.7633  130.4805  149.5432 LP  0  0  0  0  0  0  0  0  0  0  0  0  # atno 17370 bound_to 10713
  156.1404  130.6240  151.0459 LP  0  0  0  0  0  0  0  0  0  0  0  0  # atno 17371 bound_to 10713
  140.3866  134.2229  155.7168 LP  0  0  0  0  0  0  0  0  0  0  0  0  # atno 17394 bound_to 11000
  141.1945  133.8126  157.0753 LP  0  0  0  0  0  0  0  0  0  0  0  0  # atno 17395 bound_to 11000

$$$$
