AV-unprocessed.smi:2297|AV-procd|sdf|9223|dock3
  -GOLD-   2272012443D 1   1.00000     0.00000
 Structure written by MMmdl.
 44 45  0  0  0  0  0  0  0  0  1 V2000
  153.3502  141.3271  161.7442 C   0  0  0  0  0  0  0  0  0  0  0  0
  152.8467  142.0550  160.5145 C   0  0  0  0  0  0  0  0  0  0  0  0
  152.7718  143.4621  160.5012 C   0  0  0  0  0  0  0  0  0  0  0  0
  152.3053  144.1336  159.3545 C   0  0  0  0  0  0  0  0  0  0  0  0
  152.2248  145.6464  159.3485 C   0  0  0  0  0  0  0  0  0  0  0  0
  151.9146  143.3923  158.2204 C   0  0  0  0  0  0  0  0  0  0  0  0
  151.9819  141.9840  158.2179 C   0  0  0  0  0  0  0  0  0  0  0  0
  151.5802  141.3425  157.0661 O   0  0  0  0  0  0  0  0  0  0  0  0
  150.8031  142.0706  156.1241 C   0  0  0  0  0  0  0  0  0  0  0  0
  150.2082  141.0865  155.1050 C   0  0  1  0  0  0  0  0  0  0  0  0
  151.1011  139.9949  155.0130 O   0  0  0  0  0  0  0  0  0  0  0  0
  148.8172  140.5668  155.5351 C   0  0  0  0  0  0  0  0  0  0  0  0
  147.7725  141.5931  155.3839 N   0  0  0  0  0  0  0  0  0  0  0  0
  146.9261  141.7874  156.4886 C   0  0  0  0  0  0  0  0  0  0  0  0
  145.9752  142.6631  156.4705 N   0  0  0  0  0  0  0  0  0  0  0  0
  145.7731  143.4484  155.3320 C   0  0  0  0  0  0  0  0  0  0  0  0
  144.6301  144.4442  155.4168 C   0  0  0  0  0  0  0  0  0  0  0  0
  146.5622  143.3142  154.2311 C   0  0  0  0  0  0  0  0  0  0  0  0
  146.3882  144.1410  152.9631 C   0  0  0  0  0  0  0  0  0  0  0  0
  147.6497  142.3222  154.2375 C   0  0  0  0  0  0  0  0  0  0  0  0
  148.4035  142.1525  153.2774 O   0  0  0  0  0  0  0  0  0  0  0  0
  152.4530  141.3195  159.3781 C   0  0  0  0  0  0  0  0  0  0  0  0
  153.5540  142.0192  162.5619 H   0  0  0  0  0  0  0  0  0  0  0  0
  154.2709  140.7899  161.5144 H   0  0  0  0  0  0  0  0  0  0  0  0
  152.6082  140.6055  162.0872 H   0  0  0  0  0  0  0  0  0  0  0  0
  153.0720  144.0294  161.3705 H   0  0  0  0  0  0  0  0  0  0  0  0
  151.9118  146.0260  158.3754 H   0  0  0  0  0  0  0  0  0  0  0  0
  153.1977  146.0785  159.5847 H   0  0  0  0  0  0  0  0  0  0  0  0
  151.5066  145.9881  160.0944 H   0  0  0  0  0  0  0  0  0  0  0  0
  151.5569  143.9054  157.3396 H   0  0  0  0  0  0  0  0  0  0  0  0
  149.9970  142.5896  156.6459 H   0  0  0  0  0  0  0  0  0  0  0  0
  151.4141  142.8176  155.6142 H   0  0  0  0  0  0  0  0  0  0  0  0
  150.1586  141.5761  154.1315 H   0  0  0  0  0  0  0  0  0  0  0  0
  150.6186  139.1969  155.1663 H   0  0  0  0  0  0  0  0  0  0  0  0
  148.5668  139.6480  155.0016 H   0  0  0  0  0  0  0  0  0  0  0  0
  148.8507  140.2589  156.5822 H   0  0  0  0  0  0  0  0  0  0  0  0
  147.1326  141.1553  157.3540 H   0  0  0  0  0  0  0  0  0  0  0  0
  143.8851  144.2377  154.6480 H   0  0  0  0  0  0  0  0  0  0  0  0
  144.9993  145.4611  155.2819 H   0  0  0  0  0  0  0  0  0  0  0  0
  144.1325  144.3961  156.3863 H   0  0  0  0  0  0  0  0  0  0  0  0
  147.3005  144.6989  152.7499 H   0  0  0  0  0  0  0  0  0  0  0  0
  145.5725  144.8591  153.0270 H   0  0  0  0  0  0  0  0  0  0  0  0
  146.1842  143.4882  152.1140 H   0  0  0  0  0  0  0  0  0  0  0  0
  152.5240  140.2431  159.4189 H   0  0  0  0  0  0  0  0  0  0  0  0
  1  2  1  0  0  0  0
  1 23  1  0  0  0  0
  1 24  1  0  0  0  0
  1 25  1  0  0  0  0
  2 22  1  0  0  0  0
  2  3  2  0  0  0  0
  3  4  1  0  0  0  0
  3 26  1  0  0  0  0
  4  5  1  0  0  0  0
  4  6  2  0  0  0  0
  5 27  1  0  0  0  0
  5 28  1  0  0  0  0
  5 29  1  0  0  0  0
  6  7  1  0  0  0  0
  6 30  1  0  0  0  0
  7  8  1  0  0  0  0
  7 22  2  0  0  0  0
  8  9  1  0  0  0  0
  9 10  1  0  0  0  0
  9 31  1  0  0  0  0
  9 32  1  0  0  0  0
 10 11  1  0  0  0  0
 10 12  1  0  0  0  0
 10 33  1  0  0  0  0
 11 34  1  0  0  0  0
 12 13  1  0  0  0  0
 12 35  1  0  0  0  0
 12 36  1  0  0  0  0
 13 20  1  0  0  0  0
 13 14  1  0  0  0  0
 14 15  2  0  0  0  0
 14 37  1  0  0  0  0
 15 16  1  0  0  0  0
 16 17  1  0  0  0  0
 16 18  2  0  0  0  0
 17 38  1  0  0  0  0
 17 39  1  0  0  0  0
 17 40  1  0  0  0  0
 18 19  1  0  0  0  0
 18 20  1  0  0  0  0
 19 41  1  0  0  0  0
 19 42  1  0  0  0  0
 19 43  1  0  0  0  0
 20 21  2  0  0  0  0
 22 44  1  0  0  0  0
M  END
> <s_m_source_file>
AV-unprocessed.smi

> <i_m_source_file_index>
2297

> <i_lp_mmshare_version>
43012

> <i_f3d_flags>
0

> <s_epik_input>
W0NIM11jMVtjSF1jKFtDSDNdKVtjSF1jKFtjSF0xKU9bQ0gyXVtDQEhdKFtPSF0pW0NIMl1uMltjSF1uYyhbQ0gzXSljKFtDSDNdKWMyPU8=

> <s_epik_cmdline>
J2VwaWtfcHl0aG9uJywgJy1waCcsICc3LjAnLCAnLXRuJywgJzgnLCAnLW1hJywgJzIwMCcsICctbWV0YWxfYmluZGluZycsICctaW1hZScsICc8aW5maWxlLm1hZT4nLCAnLW9tYWUnLCAnPG91dGZpbGUubWFlPic=

> <r_lp_tautomer_probability>
1

> <r_epik_Ionization_Penalty>
3.72236e-05

> <r_epik_Ionization_Penalty_Charging>
8.38864e-08

> <r_epik_Ionization_Penalty_Neutral>
3.71397e-05

> <r_epik_State_Penalty>
-0

> <r_epik_Charging_Adjusted_Penalty>
8.38864e-08

> <i_epik_Tot_Q>
0

> <i_epik_Tot_abs_Q>
0

> <r_epik_Metal_State_Penalty>
-0

> <b_epik_Metal_Only>
0

> <s_lp_Force_Field>
OPLS_2005

> <r_lp_Energy>
22.4286

> <b_lp_Chiralities_Consistent>
1

> <s_lp_Variant>
AV-unprocessed.smi:2297-2

> <Gold.Version>
5.8.1

> <Gold.Id.Protein>
6NUR|6NUR_protein|mol2

> <Gold.PLP.Fitness>
47.2114

> <Gold.PLP.PLP>
-47.7149

> <Gold.PLP.part.hbond>
-2.0000

> <Gold.PLP.part.metal>
0.0000

> <Gold.PLP.part.buried>
-2.9846

> <Gold.PLP.part.nonpolar>
-41.3908

> <Gold.PLP.part.repulsive>
0.2592

> <Gold.PLP.ligand.clash>
1.2285

> <Gold.PLP.ligand.torsion>
0.8593

> <Gold.PLP.Chemscore.Hbond>
0.7913

> <Gold.PLP.Chemscore.CHOScore>
0.0000

> <Gold.PLP.Chemscore.Metal>
0.0000

> <Gold.Chemscore.Hbonds>
donor molecule, donor type, donor heavy atom, donor atom, acceptor molecule, acceptor atom, score
      P1  H  7989  7998       L1    11  0.15
      P1  H  8011  8017       L1    21  0.37

> <Gold.PLP.Chemscore.Internal.Correction>
0.0696

> <Gold.Rescore>
     Score         DG    S(hbond)    S(metal)    S(lipo)     H(rot)  DE(clash)    DE(int)     intcor
     13.12     -15.24       0.34        0.00     124.59       2.32       0.04       2.09       ----

> <Gold.Chemscore.Fitness>
13.1187

> <Gold.Chemscore.DG>
-15.2437

> <Gold.Chemscore.ZeroCoef>
-5.4800

> <Gold.Chemscore.Hbond>
0.3398

> <Gold.Chemscore.Metal>
0.0000

> <Gold.Chemscore.Lipo>
124.5914

> <Gold.Chemscore.Internal_Hbond>
0.0000

> <Gold.Chemscore.DEClash>
0.0365

> <Gold.Chemscore.DEInternal>
2.0885

> <Gold.Chemscore.Rot>
2.3236

> <Gold.Chemscore.Internal.Correction>
   9.000000E+99

> <Gold.Chemscore.Hbonds>
donor molecule, donor type, donor heavy atom, donor atom, acceptor molecule, acceptor atom, score
      P1  H  8011  8017       L1    21  0.36

> <Gold.Chemscore.Hbond.Weighted>
-1.1349

> <Gold.Chemscore.Metal.Weighted>
-0.0000

> <Gold.Chemscore.Lipo.Weighted>
-14.5772

> <Gold.Chemscore.Internal_Hbond.Weighted>
0.0000

> <Gold.Chemscore.DEClash.Weighted>
0.0365

> <Gold.Chemscore.DEInternal.Weighted>
2.0885

> <Gold.Chemscore.Rot.Weighted>
5.9484

> <Gold.Chemscore.Internal.Correction.Weighted>
   9.000000E+99

> <Gold.Protein.RotatedTorsions>
[ 6907 6896 6895 6894 ] final  165.14 input  -60.11 | X-H torsion
[ 7974 7965 7964 7962 ] final   66.59 input  175.53 | X-H torsion
[ 8008 7997 7996 7995 ] final  -82.31 input   59.86 | X-H torsion
[ 10167 10162 10161 10158 ] final -158.55 input  -65.29 | X-H torsion
[ 10718 10713 10712 10709 ] final  -97.17 input   66.30 | X-H torsion
[ 10763 10752 10751 10750 ] final  -55.83 input  -60.55 | X-H torsion
[ 11005 11000 10999 10996 ] final   -9.15 input  -57.11 | X-H torsion

> <Gold.Protein.ActiveResidues>
 VAL166  LYS551  ARG553  GLY616  TRP617  ASP618  TYR619  PRO620  LYS621  CYS622 
 ASP623  PHE694  ASN695  SER759  ASP760  ASP761  ALA762  ILE779  LEU786  VAL792 
 PHE793  MET794  SER795  GLU796  ALA797  LYS798  CYS799  TRP800  GLU811  SER814 

> <Gold.Protein.RotatedAtoms>
  151.8990  133.3533  159.3824 H   0  0  0  0  0  0  0  0  0  0  0  0  # atno 6907 bound_to 6896
  150.7084  134.4847  159.5496 H   0  0  0  0  0  0  0  0  0  0  0  0  # atno 6908 bound_to 6896
  152.2432  134.8208  160.0508 H   0  0  0  0  0  0  0  0  0  0  0  0  # atno 6909 bound_to 6896
  145.8247  139.3105  143.1022 H   0  0  0  0  0  0  0  0  0  0  0  0  # atno 7974 bound_to 7965
  154.6073  140.0635  156.9447 H   0  0  0  0  0  0  0  0  0  0  0  0  # atno 8008 bound_to 7997
  155.2032  140.3316  155.4321 H   0  0  0  0  0  0  0  0  0  0  0  0  # atno 8009 bound_to 7997
  156.2355  140.1861  156.7114 H   0  0  0  0  0  0  0  0  0  0  0  0  # atno 8010 bound_to 7997
  139.6683  143.9789  152.2268 H   0  0  0  0  0  0  0  0  0  0  0  0  # atno 10167 bound_to 10162
  156.0078  130.5183  150.6335 H   0  0  0  0  0  0  0  0  0  0  0  0  # atno 10718 bound_to 10713
  154.1971  135.6417  153.5076 H   0  0  0  0  0  0  0  0  0  0  0  0  # atno 10763 bound_to 10752
  153.0021  135.5442  154.6354 H   0  0  0  0  0  0  0  0  0  0  0  0  # atno 10764 bound_to 10752
  154.5758  135.2921  155.0755 H   0  0  0  0  0  0  0  0  0  0  0  0  # atno 10765 bound_to 10752
  140.7311  133.8748  155.8893 H   0  0  0  0  0  0  0  0  0  0  0  0  # atno 11005 bound_to 11000
  145.9636  140.8816  143.0198 LP  0  0  0  0  0  0  0  0  0  0  0  0  # atno 17320 bound_to 7965
  144.6744  140.1847  143.7402 LP  0  0  0  0  0  0  0  0  0  0  0  0  # atno 17321 bound_to 7965
  139.9547  144.6597  150.8137 LP  0  0  0  0  0  0  0  0  0  0  0  0  # atno 17342 bound_to 10162
  140.7608  143.3160  151.2733 LP  0  0  0  0  0  0  0  0  0  0  0  0  # atno 17343 bound_to 10162
  157.4129  131.0826  151.1204 LP  0  0  0  0  0  0  0  0  0  0  0  0  # atno 17370 bound_to 10713
  157.1830  130.6318  149.5678 LP  0  0  0  0  0  0  0  0  0  0  0  0  # atno 17371 bound_to 10713
  140.9920  134.1265  157.4399 LP  0  0  0  0  0  0  0  0  0  0  0  0  # atno 17394 bound_to 11000
  139.8826  135.0043  156.6242 LP  0  0  0  0  0  0  0  0  0  0  0  0  # atno 17395 bound_to 11000

$$$$
