AV-unprocessed.smi:3349|AV-procd|sdf|12935|dock1
  -GOLD-   2272019363D 1   1.00000     0.00000
 Structure written by MMmdl.
 41 42  0  0  0  0  0  0  0  0  2 V2000
  146.8003  139.0838  151.3165 C   0  0  0  0  0  0  0  0  0  0  0  0
  146.6749  138.6596  152.8007 C   0  0  2  0  0  0  0  0  0  0  0  0
  145.7022  137.4553  152.9471 C   0  0  0  0  0  0  0  0  0  0  0  0
  146.3050  136.1763  152.5784 N   0  0  0  0  0  0  0  0  0  0  0  0
  145.6628  134.9976  152.5213 C   0  0  0  0  0  0  0  0  0  0  0  0
  144.4588  134.8776  152.7504 O   0  0  0  0  0  0  0  0  0  0  0  0
  146.5158  133.7778  152.1353 C   0  0  2  0  0  0  0  0  0  0  0  0
  145.6792  132.4948  151.9531 C   0  0  0  0  0  0  0  0  0  0  0  0
  147.6004  133.5946  153.0920 N   0  0  0  0  0  0  0  0  0  0  0  0
  148.5868  132.6955  153.1091 C   0  0  0  0  0  0  0  0  0  0  0  0
  149.4376  132.8473  154.1141 N   0  0  0  0  0  0  0  0  0  0  0  0
  148.8841  133.9404  154.7179 C   0  0  0  0  0  0  0  0  0  0  0  0
  147.7888  134.4340  154.1408 N   0  0  0  0  0  0  0  0  0  0  0  0
  146.2827  139.8227  153.6677 N   0  3  0  0  0  0  0  0  0  0  0  0
  146.1534  139.4935  155.1160 C   0  0  0  0  0  0  0  0  0  0  0  0
  145.7558  140.7257  155.9467 C   0  0  0  0  0  0  0  0  0  0  0  0
  146.7003  141.7651  155.7495 O   0  0  0  0  0  0  0  0  0  0  0  0
  146.7279  142.1792  154.3935 C   0  0  0  0  0  0  0  0  0  0  0  0
  147.1730  141.0070  153.5038 C   0  0  0  0  0  0  0  0  0  0  0  0
  147.0656  138.2467  150.6725 H   0  0  0  0  0  0  0  0  0  0  0  0
  147.5861  139.8187  151.1528 H   0  0  0  0  0  0  0  0  0  0  0  0
  145.8637  139.4998  150.9439 H   0  0  0  0  0  0  0  0  0  0  0  0
  147.6583  138.3234  153.1336 H   0  0  0  0  0  0  0  0  0  0  0  0
  145.4036  137.3239  153.9861 H   0  0  0  0  0  0  0  0  0  0  0  0
  144.7861  137.6378  152.3825 H   0  0  0  0  0  0  0  0  0  0  0  0
  147.2933  136.1836  152.3708 H   0  0  0  0  0  0  0  0  0  0  0  0
  146.9749  134.0000  151.1706 H   0  0  0  0  0  0  0  0  0  0  0  0
  144.9058  132.6333  151.1967 H   0  0  0  0  0  0  0  0  0  0  0  0
  145.1862  132.1913  152.8778 H   0  0  0  0  0  0  0  0  0  0  0  0
  146.3075  131.6653  151.6277 H   0  0  0  0  0  0  0  0  0  0  0  0
  148.6878  131.9162  152.3679 H   0  0  0  0  0  0  0  0  0  0  0  0
  149.3051  134.3899  155.6051 H   0  0  0  0  0  0  0  0  0  0  0  0
  145.3825  138.7420  155.2789 H   0  0  0  0  0  0  0  0  0  0  0  0
  147.0953  139.0831  155.4834 H   0  0  0  0  0  0  0  0  0  0  0  0
  144.7546  141.0691  155.6810 H   0  0  0  0  0  0  0  0  0  0  0  0
  145.7311  140.4701  157.0061 H   0  0  0  0  0  0  0  0  0  0  0  0
  145.7479  142.5516  154.0900 H   0  0  0  0  0  0  0  0  0  0  0  0
  147.4268  143.0098  154.2945 H   0  0  0  0  0  0  0  0  0  0  0  0
  148.1998  140.7277  153.7448 H   0  0  0  0  0  0  0  0  0  0  0  0
  147.1694  141.3655  152.4767 H   0  0  0  0  0  0  0  0  0  0  0  0
  145.3631  140.1088  153.3624 H   0  0  0  0  0  0  0  0  0  0  0  0
  1  2  1  0  0  0  0
  1 20  1  0  0  0  0
  1 21  1  0  0  0  0
  1 22  1  0  0  0  0
  2  3  1  0  0  0  0
  2 14  1  0  0  0  0
  2 23  1  0  0  0  0
  3  4  1  0  0  0  0
  3 24  1  0  0  0  0
  3 25  1  0  0  0  0
  4  5  1  0  0  0  0
  4 26  1  0  0  0  0
  5  6  2  0  0  0  0
  5  7  1  0  0  0  0
  7  8  1  0  0  0  0
  7  9  1  0  0  0  0
  7 27  1  0  0  0  0
  8 28  1  0  0  0  0
  8 29  1  0  0  0  0
  8 30  1  0  0  0  0
  9 13  1  0  0  0  0
  9 10  1  0  0  0  0
 10 11  2  0  0  0  0
 10 31  1  0  0  0  0
 11 12  1  0  0  0  0
 12 13  2  0  0  0  0
 12 32  1  0  0  0  0
 14 19  1  0  0  0  0
 14 15  1  0  0  0  0
 14 41  1  0  0  0  0
 15 16  1  0  0  0  0
 15 33  1  0  0  0  0
 15 34  1  0  0  0  0
 16 17  1  0  0  0  0
 16 35  1  0  0  0  0
 16 36  1  0  0  0  0
 17 18  1  0  0  0  0
 18 19  1  0  0  0  0
 18 37  1  0  0  0  0
 18 38  1  0  0  0  0
 19 39  1  0  0  0  0
 19 40  1  0  0  0  0
M  CHG  1  14   1
M  END
> <s_m_source_file>
AV-unprocessed.smi

> <i_m_source_file_index>
3349

> <i_lp_mmshare_version>
43012

> <i_f3d_flags>
0

> <s_epik_input>
W0NIMl0xW0NIMl1PW0NIMl1bQ0gyXU4xW0NASF0oW0NIM10pW0NIMl1bTkhdQyg9TylbQ0BIXShbQ0gzXSluMltjSF1uW2NIXW4y

> <s_epik_cmdline>
J2VwaWtfcHl0aG9uJywgJy1waCcsICc3LjAnLCAnLXRuJywgJzgnLCAnLW1hJywgJzIwMCcsICctbWV0YWxfYmluZGluZycsICctaW1hZScsICc8aW5maWxlLm1hZT4nLCAnLW9tYWUnLCAnPG91dGZpbGUubWFlPic=

> <r_lp_tautomer_probability>
1

> <r_epik_Ionization_Penalty>
0.71326

> <r_epik_Ionization_Penalty_Charging>
0.713252

> <r_epik_Ionization_Penalty_Neutral>
8.10337e-06

> <r_epik_State_Penalty>
0.737017

> <r_epik_Charging_Adjusted_Penalty>
1.45027

> <i_epik_Tot_Q>
1

> <i_epik_Tot_abs_Q>
1

> <r_epik_Metal_State_Penalty>
0.73702

> <b_epik_Metal_Only>
0

> <s_lp_Force_Field>
OPLS_2005

> <r_lp_Energy>
28.3535

> <b_lp_Chiralities_Consistent>
1

> <s_lp_Variant>
AV-unprocessed.smi:3349-5

> <Gold.Version>
5.8.1

> <Gold.Id.Protein>
6NUR|6NUR_protein|mol2

> <Gold.PLP.Fitness>
39.7941

> <Gold.PLP.PLP>
-28.2451

> <Gold.PLP.part.hbond>
-2.0000

> <Gold.PLP.part.metal>
0.0000

> <Gold.PLP.part.buried>
-1.9273

> <Gold.PLP.part.nonpolar>
-24.9501

> <Gold.PLP.part.repulsive>
0.4266

> <Gold.PLP.ligand.clash>
0.0000

> <Gold.PLP.ligand.torsion>
0.3076

> <Gold.PLP.Chemscore.Hbond>
3.0000

> <Gold.PLP.Chemscore.CHOScore>
1.0000

> <Gold.PLP.Chemscore.Metal>
0.0000

> <Gold.Chemscore.Hbonds>
donor molecule, donor type, donor heavy atom, donor atom, acceptor molecule, acceptor atom, score
      L1  H     4    26       P1  7948  1.00
      L1  H    14    41       P1 10175  2.00
      L1  C    10    31       P1 10747  1.00

> <Gold.PLP.Chemscore.Internal.Correction>
0.1641

> <Gold.Rescore>
     Score         DG    S(hbond)    S(metal)    S(lipo)     H(rot)  DE(clash)    DE(int)     intcor
      9.55     -11.29       2.00        0.00      50.21       2.63       0.08       1.66       ----

> <Gold.Chemscore.Fitness>
9.5490

> <Gold.Chemscore.DG>
-11.2939

> <Gold.Chemscore.ZeroCoef>
-5.4800

> <Gold.Chemscore.Hbond>
2.0000

> <Gold.Chemscore.Metal>
0.0000

> <Gold.Chemscore.Lipo>
50.2066

> <Gold.Chemscore.Internal_Hbond>
0.0000

> <Gold.Chemscore.DEClash>
0.0823

> <Gold.Chemscore.DEInternal>
1.6626

> <Gold.Chemscore.Rot>
2.6329

> <Gold.Chemscore.Internal.Correction>
   9.000000E+99

> <Gold.Chemscore.Hbonds>
donor molecule, donor type, donor heavy atom, donor atom, acceptor molecule, acceptor atom, score
      L1  H     4    26       P1  7948  1.00
      L1  H    14    41       P1 10175  0.99

> <Gold.Chemscore.Hbond.Weighted>
-6.6800

> <Gold.Chemscore.Metal.Weighted>
-0.0000

> <Gold.Chemscore.Lipo.Weighted>
-5.8742

> <Gold.Chemscore.Internal_Hbond.Weighted>
0.0000

> <Gold.Chemscore.DEClash.Weighted>
0.0823

> <Gold.Chemscore.DEInternal.Weighted>
1.6626

> <Gold.Chemscore.Rot.Weighted>
6.7403

> <Gold.Chemscore.Internal.Correction.Weighted>
   9.000000E+99

> <Gold.Protein.RotatedTorsions>
[ 6907 6896 6895 6894 ] final  -29.85 input  -60.11 | X-H torsion
[ 7974 7965 7964 7962 ] final  -32.58 input  175.53 | X-H torsion
[ 8008 7997 7996 7995 ] final  -83.56 input   59.86 | X-H torsion
[ 10167 10162 10161 10158 ] final  134.42 input  -65.29 | X-H torsion
[ 10718 10713 10712 10709 ] final   98.66 input   66.30 | X-H torsion
[ 10763 10752 10751 10750 ] final  171.50 input  -60.55 | X-H torsion
[ 11005 11000 10999 10996 ] final -145.68 input  -57.11 | X-H torsion

> <Gold.Protein.ActiveResidues>
 VAL166  LYS551  ARG553  GLY616  TRP617  ASP618  TYR619  PRO620  LYS621  CYS622 
 ASP623  PHE694  ASN695  SER759  ASP760  ASP761  ALA762  ILE779  LEU786  VAL792 
 PHE793  MET794  SER795  GLU796  ALA797  LYS798  CYS799  TRP800  GLU811  SER814 

> <Gold.Protein.RotatedAtoms>
  151.1136  135.0040  159.8505 H   0  0  0  0  0  0  0  0  0  0  0  0  # atno 6907 bound_to 6896
  152.5444  134.1807  159.8644 H   0  0  0  0  0  0  0  0  0  0  0  0  # atno 6908 bound_to 6896
  151.1859  133.4652  159.2627 H   0  0  0  0  0  0  0  0  0  0  0  0  # atno 6909 bound_to 6896
  146.0979  140.5810  142.8834 H   0  0  0  0  0  0  0  0  0  0  0  0  # atno 7974 bound_to 7965
  154.6203  140.0617  156.9607 H   0  0  0  0  0  0  0  0  0  0  0  0  # atno 8008 bound_to 7997
  155.1828  140.3300  155.4354 H   0  0  0  0  0  0  0  0  0  0  0  0  # atno 8009 bound_to 7997
  156.2428  140.1894  156.6923 H   0  0  0  0  0  0  0  0  0  0  0  0  # atno 8010 bound_to 7997
  139.5257  144.6568  151.5137 H   0  0  0  0  0  0  0  0  0  0  0  0  # atno 10167 bound_to 10162
  157.6891  131.0647  150.4830 H   0  0  0  0  0  0  0  0  0  0  0  0  # atno 10718 bound_to 10713
  154.4128  135.2756  155.2026 H   0  0  0  0  0  0  0  0  0  0  0  0  # atno 10763 bound_to 10752
  154.4005  135.6045  153.5898 H   0  0  0  0  0  0  0  0  0  0  0  0  # atno 10764 bound_to 10752
  152.9831  135.5925  154.4412 H   0  0  0  0  0  0  0  0  0  0  0  0  # atno 10765 bound_to 10752
  140.7898  134.2982  157.5017 H   0  0  0  0  0  0  0  0  0  0  0  0  # atno 11005 bound_to 11000
  144.7409  140.4940  143.6869 LP  0  0  0  0  0  0  0  0  0  0  0  0  # atno 17320 bound_to 7965
  145.5912  139.1496  143.3181 LP  0  0  0  0  0  0  0  0  0  0  0  0  # atno 17321 bound_to 7965
  140.6397  143.8913  150.6680 LP  0  0  0  0  0  0  0  0  0  0  0  0  # atno 17342 bound_to 10162
  140.2243  143.3784  152.1617 LP  0  0  0  0  0  0  0  0  0  0  0  0  # atno 17343 bound_to 10162
  156.5161  130.4151  149.6275 LP  0  0  0  0  0  0  0  0  0  0  0  0  # atno 17370 bound_to 10713
  156.3196  130.7273  151.2183 LP  0  0  0  0  0  0  0  0  0  0  0  0  # atno 17371 bound_to 10713
  139.8732  134.9367  156.3669 LP  0  0  0  0  0  0  0  0  0  0  0  0  # atno 17394 bound_to 11000
  140.9401  133.7520  156.0135 LP  0  0  0  0  0  0  0  0  0  0  0  0  # atno 17395 bound_to 11000

$$$$
