#       Name:                AV-unprocessed.smi:1014
#       Creating user name   scv26
#       Creation time:       Fri Mar 27 02:39:02 2020


#       File generated by GOLD software.
#

@<TRIPOS>MOLECULE
AV-unprocessed.smi:1014
    37    37     1
SMALL
NO_CHARGES


@<TRIPOS>ATOM
      1 ****        -2.2298   3.7849  -1.3528 C.3            1 S1                 0.0000
      2 ****        -2.2870   2.4423  -2.0951 C.3            1 S1                 0.0000
      3 ****        -1.9225   1.2369  -1.2029 C.3            1 S1                 0.0000
      4 ****        -0.4780   1.2477  -0.9036 N.3            1 S1                 0.0000
      5 ****        -0.0406   0.1911   0.0015 C.3            1 S1                 0.0000
      6 ****         1.4346   0.4134   0.3635 C.3            1 S1                 0.0000
      7 ****         1.9270  -0.6229   1.2499 N.pl3          1 S1                 0.0000
      8 ****         2.6265  -1.7657   0.9260 C.2            1 S1                 0.0000
      9 ****         2.8695  -2.4419   2.0880 C.2            1 S1                 0.0000
     10 ****         3.5930  -3.7431   2.2834 C.3            1 S1                 0.0000
     11 ****         2.2679  -1.6182   3.0817 C.2            1 S1                 0.0000
     12 ****         1.7042  -0.5323   2.5781 N.2            1 S1                 0.0000
     13 ****        -2.3870  -0.0737  -1.8620 C.2            1 S1                 0.0000
     14 ****        -3.2660  -0.8191  -1.1876 N.am           1 S1                 0.0000
     15 ****        -1.9426  -0.4158  -2.9565 O.2            1 S1                 0.0000
     16 ****        -2.5097   4.6048  -2.0142 H              1 S1                 0.0000
     17 ****        -1.2268   3.9901  -0.9781 H              1 S1                 0.0000
     18 ****        -2.9137   3.7956  -0.5038 H              1 S1                 0.0000
     19 ****        -3.2982   2.3200  -2.4869 H              1 S1                 0.0000
     20 ****        -1.6302   2.4782  -2.9656 H              1 S1                 0.0000
     21 ****        -2.4625   1.3431  -0.2600 H              1 S1                 0.0000
     22 ****         0.0759   1.2298  -1.7480 H              1 S1                 0.0000
     23 ****        -0.6536   0.2013   0.9040 H              1 S1                 0.0000
     24 ****        -0.1558  -0.7880  -0.4647 H              1 S1                 0.0000
     25 ****         2.0521   0.4178  -0.5359 H              1 S1                 0.0000
     26 ****         1.5716   1.3822   0.8470 H              1 S1                 0.0000
     27 ****         2.8894  -2.0014  -0.0946 H              1 S1                 0.0000
     28 ****         4.0658  -3.7990   3.2642 H              1 S1                 0.0000
     29 ****         4.3785  -3.8849   1.5409 H              1 S1                 0.0000
     30 ****         2.9165  -4.5940   2.2032 H              1 S1                 0.0000
     31 ****         2.2239  -1.7778   4.1491 H              1 S1                 0.0000
     32 ****        -3.5982  -1.6870  -1.5828 H              1 S1                 0.0000
     33 ****        -3.5954  -0.5112  -0.2843 H              1 S1                 0.0000
     34 ****        -0.3273   2.1109  -0.4218 LP             1 S1                 0.0000
     35 ****         1.2219   0.1922   3.0705 LP             1 S1                 0.0000
     36 ****        -1.2731   0.1595  -3.4263 LP             1 S1                 0.0000
     37 ****        -2.2507  -1.2694  -3.3766 LP             1 S1                 0.0000
@<TRIPOS>BOND
    1    1    2 1     
    2    1   16 1     
    3    1   17 1     
    4    1   18 1     
    5    2    3 1     
    6    2   19 1     
    7    2   20 1     
    8    3    4 1     
    9    3   13 1     
   10    3   21 1     
   11    4    5 1     
   12    4   22 1     
   13    5    6 1     
   14    5   23 1     
   15    5   24 1     
   16    6    7 1     
   17    6   25 1     
   18    6   26 1     
   19    7   12 1     
   20    7    8 1     
   21    8    9 2     
   22    8   27 1     
   23    9   10 1     
   24    9   11 1     
   25   10   28 1     
   26   10   29 1     
   27   10   30 1     
   28   11   12 2     
   29   11   31 1     
   30   13   14 am    
   31   13   15 2     
   32   14   32 1     
   33   14   33 1     
   34    4   34 1     
   35   12   35 1     
   36   15   36 1     
   37   15   37 1     
@<TRIPOS>SUBSTRUCTURE
      1 S1             1
@<TRIPOS>SET
LONE_PAIRS      STATIC     ATOMS    <user>   **** ""
4 34 35 36 37
DONOR_HYDROGENS      STATIC     ATOMS    <user>   **** ""
3 22 32 33
ATOM$BLUE        STATIC     ATOMS    COLORGROUP SYSTEM
4 34 35 36 37
ATOM$RED        STATIC     ATOMS    COLORGROUP SYSTEM
3 22 32 33
