AV-unprocessed.smi:1647|AV-procd|sdf|6626|dock2
  -GOLD-   22720 7323D 1   1.00000     0.00000
 Structure written by MMmdl.
 40 41  0  0  0  0  0  0  0  0  2 V2000
  145.4336  135.8900  151.1277 C   0  0  0  0  0  0  0  0  0  0  0  0
  145.5963  136.8764  152.0217 C   0  0  0  0  0  0  0  0  0  0  0  0
  146.2436  138.2120  151.7147 C   0  0  0  0  0  0  0  0  0  0  0  0
  147.4913  138.3826  152.4492 N   0  0  0  0  0  0  0  0  0  0  0  0
  147.7437  139.3766  153.3131 C   0  0  0  0  0  0  0  0  0  0  0  0
  146.9351  140.2659  153.5772 O   0  0  0  0  0  0  0  0  0  0  0  0
  148.9824  139.2719  153.8259 N   0  0  0  0  0  0  0  0  0  0  0  0
  149.6373  140.1218  154.7594 C   0  0  0  0  0  0  0  0  0  0  0  0
  150.8264  139.6455  155.3533 C   0  0  0  0  0  0  0  0  0  0  0  0
  151.5131  140.4456  156.2892 C   0  0  0  0  0  0  0  0  0  0  0  0
  150.9942  141.7165  156.6253 C   0  0  0  0  0  0  0  0  0  0  0  0
  151.6095  142.5844  157.5372 N   0  0  0  0  0  0  0  0  0  0  0  0
  151.7185  143.9532  157.0391 C   0  0  0  0  0  0  0  0  0  0  0  0
  152.5653  144.8162  157.9907 C   0  0  0  0  0  0  0  0  0  0  0  0
  152.0134  144.7574  159.4242 C   0  0  0  0  0  0  0  0  0  0  0  0
  151.8901  143.2966  159.8867 C   0  0  0  0  0  0  0  0  0  0  0  0
  151.0617  142.4710  158.8867 C   0  0  0  0  0  0  0  0  0  0  0  0
  149.8472  142.1333  156.0471 N   0  3  0  0  0  0  0  0  0  0  0  0
  149.1592  141.3987  155.1461 C   0  0  0  0  0  0  0  0  0  0  0  0
  145.7629  136.0005  150.1048 H   0  0  0  0  0  0  0  0  0  0  0  0
  144.9668  134.9574  151.4085 H   0  0  0  0  0  0  0  0  0  0  0  0
  145.2554  136.7294  153.0363 H   0  0  0  0  0  0  0  0  0  0  0  0
  146.4629  138.2544  150.6478 H   0  0  0  0  0  0  0  0  0  0  0  0
  145.5557  139.0322  151.9287 H   0  0  0  0  0  0  0  0  0  0  0  0
  148.2123  137.6953  152.2853 H   0  0  0  0  0  0  0  0  0  0  0  0
  149.5425  138.5124  153.4673 H   0  0  0  0  0  0  0  0  0  0  0  0
  151.2173  138.6730  155.0912 H   0  0  0  0  0  0  0  0  0  0  0  0
  152.4267  140.0849  156.7390 H   0  0  0  0  0  0  0  0  0  0  0  0
  152.1687  143.9484  156.0455 H   0  0  0  0  0  0  0  0  0  0  0  0
  150.7222  144.3860  156.9373 H   0  0  0  0  0  0  0  0  0  0  0  0
  153.5973  144.4629  157.9824 H   0  0  0  0  0  0  0  0  0  0  0  0
  152.5879  145.8481  157.6398 H   0  0  0  0  0  0  0  0  0  0  0  0
  152.6618  145.3142  160.1013 H   0  0  0  0  0  0  0  0  0  0  0  0
  151.0353  145.2386  159.4618 H   0  0  0  0  0  0  0  0  0  0  0  0
  152.8847  142.8598  159.9856 H   0  0  0  0  0  0  0  0  0  0  0  0
  151.4335  143.2539  160.8757 H   0  0  0  0  0  0  0  0  0  0  0  0
  150.0272  142.8170  158.8915 H   0  0  0  0  0  0  0  0  0  0  0  0
  151.0501  141.4239  159.1921 H   0  0  0  0  0  0  0  0  0  0  0  0
  148.2557  141.8650  154.7840 H   0  0  0  0  0  0  0  0  0  0  0  0
  149.4807  143.0503  156.3035 H   0  0  0  0  0  0  0  0  0  0  0  0
  1  2  2  0  0  0  0
  1 20  1  0  0  0  0
  1 21  1  0  0  0  0
  2  3  1  0  0  0  0
  2 22  1  0  0  0  0
  3  4  1  0  0  0  0
  3 23  1  0  0  0  0
  3 24  1  0  0  0  0
  4  5  1  0  0  0  0
  4 25  1  0  0  0  0
  5  6  2  0  0  0  0
  5  7  1  0  0  0  0
  7  8  1  0  0  0  0
  7 26  1  0  0  0  0
  8 19  1  0  0  0  0
  8  9  2  0  0  0  0
  9 10  1  0  0  0  0
  9 27  1  0  0  0  0
 10 11  2  0  0  0  0
 10 28  1  0  0  0  0
 11 12  1  0  0  0  0
 11 18  1  0  0  0  0
 12 17  1  0  0  0  0
 12 13  1  0  0  0  0
 13 14  1  0  0  0  0
 13 29  1  0  0  0  0
 13 30  1  0  0  0  0
 14 15  1  0  0  0  0
 14 31  1  0  0  0  0
 14 32  1  0  0  0  0
 15 16  1  0  0  0  0
 15 33  1  0  0  0  0
 15 34  1  0  0  0  0
 16 17  1  0  0  0  0
 16 35  1  0  0  0  0
 16 36  1  0  0  0  0
 17 37  1  0  0  0  0
 17 38  1  0  0  0  0
 18 19  2  0  0  0  0
 18 40  1  0  0  0  0
 19 39  1  0  0  0  0
M  CHG  1  18   1
M  END
> <s_m_source_file>
AV-unprocessed.smi

> <i_m_source_file_index>
1647

> <i_lp_mmshare_version>
43012

> <i_f3d_flags>
0

> <s_epik_input>
W0NIMl09W0NIXVtDSDJdW05IXUMoPU8pW05IXWMxW2NIXVtjSF1jKG5bY0hdMSlOMltDSDJdW0NIMl1bQ0gyXVtDSDJdW0NIMl0y

> <s_epik_cmdline>
J2VwaWtfcHl0aG9uJywgJy1waCcsICc3LjAnLCAnLXRuJywgJzgnLCAnLW1hJywgJzIwMCcsICctbWV0YWxfYmluZGluZycsICctaW1hZScsICc8aW5maWxlLm1hZT4nLCAnLW9tYWUnLCAnPG91dGZpbGUubWFlPic=

> <r_lp_tautomer_probability>
0.999994

> <r_epik_Ionization_Penalty>
0.589008

> <r_epik_Ionization_Penalty_Charging>
0.588988

> <r_epik_Ionization_Penalty_Neutral>
2.00705e-05

> <r_epik_State_Penalty>
0.602394

> <r_epik_Charging_Adjusted_Penalty>
1.19138

> <i_epik_Tot_Q>
1

> <i_epik_Tot_abs_Q>
1

> <r_epik_Metal_State_Penalty>
0.79095

> <b_epik_Metal_Only>
0

> <s_lp_Force_Field>
OPLS_2005

> <r_lp_Energy>
26.0236

> <b_lp_Chiralities_Consistent>
1

> <s_lp_Variant>
AV-unprocessed.smi:1647-2

> <Gold.Version>
5.8.1

> <Gold.Id.Protein>
6NUR|6NUR_protein|mol2

> <Gold.PLP.Fitness>
50.8974

> <Gold.PLP.PLP>
-43.4348

> <Gold.PLP.part.hbond>
-4.0000

> <Gold.PLP.part.metal>
0.0000

> <Gold.PLP.part.buried>
-1.3493

> <Gold.PLP.part.nonpolar>
-39.8365

> <Gold.PLP.part.repulsive>
0.4884

> <Gold.PLP.ligand.clash>
0.0000

> <Gold.PLP.ligand.torsion>
0.5334

> <Gold.PLP.Chemscore.Hbond>
2.7920

> <Gold.PLP.Chemscore.CHOScore>
0.0000

> <Gold.PLP.Chemscore.Metal>
0.0000

> <Gold.Chemscore.Hbonds>
donor molecule, donor type, donor heavy atom, donor atom, acceptor molecule, acceptor atom, score
      L1  H     4    25       P1  7948  1.00
      L1  H    18    40       P1  8028  1.82

> <Gold.PLP.Chemscore.Internal.Correction>
0.1534

> <Gold.Rescore>
     Score         DG    S(hbond)    S(metal)    S(lipo)     H(rot)  DE(clash)    DE(int)     intcor
     18.74     -20.49       1.79        0.00     106.65       1.35       0.05       1.71       ----

> <Gold.Chemscore.Fitness>
18.7361

> <Gold.Chemscore.DG>
-20.4874

> <Gold.Chemscore.ZeroCoef>
-5.4800

> <Gold.Chemscore.Hbond>
1.7885

> <Gold.Chemscore.Metal>
0.0000

> <Gold.Chemscore.Lipo>
106.6457

> <Gold.Chemscore.Internal_Hbond>
0.0000

> <Gold.Chemscore.DEClash>
0.0458

> <Gold.Chemscore.DEInternal>
1.7055

> <Gold.Chemscore.Rot>
1.3452

> <Gold.Chemscore.Internal.Correction>
   9.000000E+99

> <Gold.Chemscore.Hbonds>
donor molecule, donor type, donor heavy atom, donor atom, acceptor molecule, acceptor atom, score
      L1  H     4    25       P1  7948  1.00
      L1  H    18    40       P1  8028  0.89

> <Gold.Chemscore.Hbond.Weighted>
-5.9737

> <Gold.Chemscore.Metal.Weighted>
-0.0000

> <Gold.Chemscore.Lipo.Weighted>
-12.4775

> <Gold.Chemscore.Internal_Hbond.Weighted>
0.0000

> <Gold.Chemscore.DEClash.Weighted>
0.0458

> <Gold.Chemscore.DEInternal.Weighted>
1.7055

> <Gold.Chemscore.Rot.Weighted>
3.4438

> <Gold.Chemscore.Internal.Correction.Weighted>
   9.000000E+99

> <Gold.Protein.RotatedTorsions>
[ 6907 6896 6895 6894 ] final   47.46 input  -60.11 | X-H torsion
[ 7974 7965 7964 7962 ] final   33.64 input  175.53 | X-H torsion
[ 8008 7997 7996 7995 ] final   27.54 input   59.86 | X-H torsion
[ 10167 10162 10161 10158 ] final   95.86 input  -65.29 | X-H torsion
[ 10718 10713 10712 10709 ] final   43.32 input   66.30 | X-H torsion
[ 10763 10752 10751 10750 ] final -127.22 input  -60.55 | X-H torsion
[ 11005 11000 10999 10996 ] final  164.49 input  -57.11 | X-H torsion

> <Gold.Protein.ActiveResidues>
 VAL166  LYS551  ARG553  GLY616  TRP617  ASP618  TYR619  PRO620  LYS621  CYS622 
 ASP623  PHE694  ASN695  SER759  ASP760  ASP761  ALA762  ILE779  LEU786  VAL792 
 PHE793  MET794  SER795  GLU796  ALA797  LYS798  CYS799  TRP800  GLU811  SER814 

> <Gold.Protein.RotatedAtoms>
  152.2683  134.7961  160.0418 H   0  0  0  0  0  0  0  0  0  0  0  0  # atno 6907 bound_to 6896
  151.8583  133.3447  159.3703 H   0  0  0  0  0  0  0  0  0  0  0  0  # atno 6908 bound_to 6896
  150.7142  134.5159  159.5674 H   0  0  0  0  0  0  0  0  0  0  0  0  # atno 6909 bound_to 6896
  146.1407  139.6371  142.9165 H   0  0  0  0  0  0  0  0  0  0  0  0  # atno 7974 bound_to 7965
  155.0446  140.3173  155.4713 H   0  0  0  0  0  0  0  0  0  0  0  0  # atno 8008 bound_to 7997
  156.2847  140.2157  156.5514 H   0  0  0  0  0  0  0  0  0  0  0  0  # atno 8009 bound_to 7997
  154.7261  140.0485  157.0672 H   0  0  0  0  0  0  0  0  0  0  0  0  # atno 8010 bound_to 7997
  139.7949  144.6837  150.9842 H   0  0  0  0  0  0  0  0  0  0  0  0  # atno 10167 bound_to 10162
  157.4146  130.7934  149.7460 H   0  0  0  0  0  0  0  0  0  0  0  0  # atno 10718 bound_to 10713
  154.8751  135.3969  154.3559 H   0  0  0  0  0  0  0  0  0  0  0  0  # atno 10763 bound_to 10752
  153.4338  135.7025  153.6219 H   0  0  0  0  0  0  0  0  0  0  0  0  # atno 10764 bound_to 10752
  153.4829  135.3765  155.2421 H   0  0  0  0  0  0  0  0  0  0  0  0  # atno 10765 bound_to 10752
  140.2465  134.8011  157.3460 H   0  0  0  0  0  0  0  0  0  0  0  0  # atno 11005 bound_to 11000
  145.5053  141.0437  143.2518 LP  0  0  0  0  0  0  0  0  0  0  0  0  # atno 17320 bound_to 7965
  144.7789  139.6568  143.7163 LP  0  0  0  0  0  0  0  0  0  0  0  0  # atno 17321 bound_to 7965
  140.7820  143.4342  151.0648 LP  0  0  0  0  0  0  0  0  0  0  0  0  # atno 17342 bound_to 10162
  139.8017  143.8075  152.3163 LP  0  0  0  0  0  0  0  0  0  0  0  0  # atno 17343 bound_to 10162
  155.9861  130.3977  150.3229 LP  0  0  0  0  0  0  0  0  0  0  0  0  # atno 17370 bound_to 10713
  157.1371  131.0287  151.2944 LP  0  0  0  0  0  0  0  0  0  0  0  0  # atno 17371 bound_to 10713
  140.1601  134.4739  155.7900 LP  0  0  0  0  0  0  0  0  0  0  0  0  # atno 17394 bound_to 11000
  141.2206  133.6898  156.7529 LP  0  0  0  0  0  0  0  0  0  0  0  0  # atno 17395 bound_to 11000

$$$$
