AV-unprocessed.smi:2961|AV-procd|sdf|11313|dock1
  -GOLD-   2272016213D 1   1.00000     0.00000
 Structure written by MMmdl.
 48 50  0  0  0  0  0  0  0  0  1 V2000
  157.4244  137.4509  154.8262 C   0  0  0  0  0  0  0  0  0  0  0  0
  156.8912  136.5968  155.9714 C   0  0  0  0  0  0  0  0  0  0  0  0
  156.1248  135.6619  155.7403 O   0  0  0  0  0  0  0  0  0  0  0  0
  157.3069  136.9282  157.2032 N   0  0  0  0  0  0  0  0  0  0  0  0
  156.9232  136.2337  158.4267 C   0  0  0  0  0  0  0  0  0  0  0  0
  155.4520  136.4937  158.7903 C   0  0  0  0  0  0  0  0  0  0  0  0
  155.1893  136.3370  160.2569 C   0  0  0  0  0  0  0  0  0  0  0  0
  155.2577  135.1512  160.8628 N   0  0  0  0  0  0  0  0  0  0  0  0
  154.9312  135.4590  162.1693 C   0  0  0  0  0  0  0  0  0  0  0  0
  154.8320  134.6311  163.3104 C   0  0  0  0  0  0  0  0  0  0  0  0
  154.4752  135.1784  164.5603 C   0  0  0  0  0  0  0  0  0  0  0  0
  154.2139  136.5581  164.6872 C   0  0  0  0  0  0  0  0  0  0  0  0
  154.3065  137.4009  163.5628 C   0  0  0  0  0  0  0  0  0  0  0  0
  154.6615  136.8494  162.3172 C   0  0  0  0  0  0  0  0  0  0  0  0
  154.8321  137.3829  161.0438 N   0  0  0  0  0  0  0  0  0  0  0  0
  154.6564  138.7767  160.6655 C   0  0  0  0  0  0  0  0  0  0  0  0
  153.2400  139.0520  160.1467 C   0  0  0  0  0  0  0  0  0  0  0  0
  153.2355  140.3254  159.5176 O   0  0  0  0  0  0  0  0  0  0  0  0
  152.9742  141.4361  160.2909 C   0  0  0  0  0  0  0  0  0  0  0  0
  153.3509  141.3716  161.6480 C   0  0  0  0  0  0  0  0  0  0  0  0
  153.1204  142.4585  162.5124 C   0  0  0  0  0  0  0  0  0  0  0  0
  152.5083  143.6275  162.0251 C   0  0  0  0  0  0  0  0  0  0  0  0
  152.1253  143.7093  160.6715 C   0  0  0  0  0  0  0  0  0  0  0  0
  151.4682  144.9673  160.1414 C   0  0  0  0  0  0  0  0  0  0  0  0
  152.3594  142.6191  159.8074 C   0  0  0  0  0  0  0  0  0  0  0  0
  157.2809  138.5110  155.0380 H   0  0  0  0  0  0  0  0  0  0  0  0
  156.9071  137.2167  153.8951 H   0  0  0  0  0  0  0  0  0  0  0  0
  158.4893  137.2675  154.6811 H   0  0  0  0  0  0  0  0  0  0  0  0
  157.9362  137.7121  157.2996 H   0  0  0  0  0  0  0  0  0  0  0  0
  157.1094  135.1644  158.3160 H   0  0  0  0  0  0  0  0  0  0  0  0
  157.5712  136.5776  159.2332 H   0  0  0  0  0  0  0  0  0  0  0  0
  155.1769  137.5074  158.4961 H   0  0  0  0  0  0  0  0  0  0  0  0
  154.7904  135.8335  158.2301 H   0  0  0  0  0  0  0  0  0  0  0  0
  155.0305  133.5729  163.2236 H   0  0  0  0  0  0  0  0  0  0  0  0
  154.4018  134.5360  165.4256 H   0  0  0  0  0  0  0  0  0  0  0  0
  153.9415  136.9696  165.6480 H   0  0  0  0  0  0  0  0  0  0  0  0
  154.1067  138.4578  163.6572 H   0  0  0  0  0  0  0  0  0  0  0  0
  154.8815  139.4149  161.5199 H   0  0  0  0  0  0  0  0  0  0  0  0
  155.3904  139.0248  159.8982 H   0  0  0  0  0  0  0  0  0  0  0  0
  152.9479  138.2775  159.4355 H   0  0  0  0  0  0  0  0  0  0  0  0
  152.5317  139.0389  160.9761 H   0  0  0  0  0  0  0  0  0  0  0  0
  153.8207  140.4775  162.0310 H   0  0  0  0  0  0  0  0  0  0  0  0
  153.4131  142.3947  163.5499 H   0  0  0  0  0  0  0  0  0  0  0  0
  152.3344  144.4587  162.6929 H   0  0  0  0  0  0  0  0  0  0  0  0
  150.6880  144.7199  159.4209 H   0  0  0  0  0  0  0  0  0  0  0  0
  152.2071  145.5975  159.6459 H   0  0  0  0  0  0  0  0  0  0  0  0
  151.0116  145.5419  160.9479 H   0  0  0  0  0  0  0  0  0  0  0  0
  152.0598  142.7131  158.7744 H   0  0  0  0  0  0  0  0  0  0  0  0
  1  2  1  0  0  0  0
  1 26  1  0  0  0  0
  1 27  1  0  0  0  0
  1 28  1  0  0  0  0
  2  3  2  0  0  0  0
  2  4  1  0  0  0  0
  4  5  1  0  0  0  0
  4 29  1  0  0  0  0
  5  6  1  0  0  0  0
  5 30  1  0  0  0  0
  5 31  1  0  0  0  0
  6  7  1  0  0  0  0
  6 32  1  0  0  0  0
  6 33  1  0  0  0  0
  7 15  1  0  0  0  0
  7  8  2  0  0  0  0
  8  9  1  0  0  0  0
  9 14  2  0  0  0  0
  9 10  1  0  0  0  0
 10 11  2  0  0  0  0
 10 34  1  0  0  0  0
 11 12  1  0  0  0  0
 11 35  1  0  0  0  0
 12 13  2  0  0  0  0
 12 36  1  0  0  0  0
 13 14  1  0  0  0  0
 13 37  1  0  0  0  0
 14 15  1  0  0  0  0
 15 16  1  0  0  0  0
 16 17  1  0  0  0  0
 16 38  1  0  0  0  0
 16 39  1  0  0  0  0
 17 18  1  0  0  0  0
 17 40  1  0  0  0  0
 17 41  1  0  0  0  0
 18 19  1  0  0  0  0
 19 25  1  0  0  0  0
 19 20  2  0  0  0  0
 20 21  1  0  0  0  0
 20 42  1  0  0  0  0
 21 22  2  0  0  0  0
 21 43  1  0  0  0  0
 22 23  1  0  0  0  0
 22 44  1  0  0  0  0
 23 24  1  0  0  0  0
 23 25  2  0  0  0  0
 24 45  1  0  0  0  0
 24 46  1  0  0  0  0
 24 47  1  0  0  0  0
 25 48  1  0  0  0  0
M  END
> <s_m_source_file>
AV-unprocessed.smi

> <i_m_source_file_index>
2961

> <i_lp_mmshare_version>
43012

> <i_f3d_flags>
0

> <s_epik_input>
W0NIM11DKD1PKVtOSF1bQ0gyXVtDSDJdYyhuMSluKGMoYzEyKVtjSF1bY0hdW2NIXVtjSF0yKVtDSDJdW0NIMl1PYzNbY0hdW2NIXVtjSF1jKFtDSDNdKVtjSF0z

> <s_epik_cmdline>
J2VwaWtfcHl0aG9uJywgJy1waCcsICc3LjAnLCAnLXRuJywgJzgnLCAnLW1hJywgJzIwMCcsICctbWV0YWxfYmluZGluZycsICctaW1hZScsICc8aW5maWxlLm1hZT4nLCAnLW9tYWUnLCAnPG91dGZpbGUubWFlPic=

> <r_lp_tautomer_probability>
1

> <r_epik_Ionization_Penalty>
0.0984942

> <r_epik_Ionization_Penalty_Charging>
0

> <r_epik_Ionization_Penalty_Neutral>
0.0984942

> <r_epik_State_Penalty>
0.0885769

> <r_epik_Charging_Adjusted_Penalty>
0.0885769

> <i_epik_Tot_Q>
0

> <i_epik_Tot_abs_Q>
0

> <r_epik_Metal_State_Penalty>
0.0758518

> <b_epik_Metal_Only>
0

> <s_lp_Force_Field>
OPLS_2005

> <r_lp_Energy>
13.474

> <b_lp_Chiralities_Consistent>
1

> <s_lp_Variant>
AV-unprocessed.smi:2961-1

> <Gold.Version>
5.8.1

> <Gold.Id.Protein>
6NUR|6NUR_protein|mol2

> <Gold.PLP.Fitness>
56.7797

> <Gold.PLP.PLP>
-55.8811

> <Gold.PLP.part.hbond>
-2.0000

> <Gold.PLP.part.metal>
0.0000

> <Gold.PLP.part.buried>
-7.1256

> <Gold.PLP.part.nonpolar>
-45.7007

> <Gold.PLP.part.repulsive>
0.0686

> <Gold.PLP.ligand.clash>
0.0000

> <Gold.PLP.ligand.torsion>
1.2032

> <Gold.PLP.Chemscore.Hbond>
1.0000

> <Gold.PLP.Chemscore.CHOScore>
0.0000

> <Gold.PLP.Chemscore.Metal>
0.0000

> <Gold.Chemscore.Hbonds>
donor molecule, donor type, donor heavy atom, donor atom, acceptor molecule, acceptor atom, score
      P1  H 10752 10763       L1     3  1.00

> <Gold.PLP.Chemscore.Internal.Correction>
0.3051

> <Gold.Rescore>
     Score         DG    S(hbond)    S(metal)    S(lipo)     H(rot)  DE(clash)    DE(int)     intcor
     20.06     -21.26       1.00        0.00     152.48       2.11       0.05       1.15       ----

> <Gold.Chemscore.Fitness>
20.0552

> <Gold.Chemscore.DG>
-21.2591

> <Gold.Chemscore.ZeroCoef>
-5.4800

> <Gold.Chemscore.Hbond>
0.9983

> <Gold.Chemscore.Metal>
0.0000

> <Gold.Chemscore.Lipo>
152.4848

> <Gold.Chemscore.Internal_Hbond>
0.0000

> <Gold.Chemscore.DEClash>
0.0529

> <Gold.Chemscore.DEInternal>
1.1510

> <Gold.Chemscore.Rot>
2.1078

> <Gold.Chemscore.Internal.Correction>
   9.000000E+99

> <Gold.Chemscore.Hbonds>
donor molecule, donor type, donor heavy atom, donor atom, acceptor molecule, acceptor atom, score
      P1  H 10752 10763       L1     3  0.99

> <Gold.Chemscore.Hbond.Weighted>
-3.3344

> <Gold.Chemscore.Metal.Weighted>
-0.0000

> <Gold.Chemscore.Lipo.Weighted>
-17.8407

> <Gold.Chemscore.Internal_Hbond.Weighted>
0.0000

> <Gold.Chemscore.DEClash.Weighted>
0.0529

> <Gold.Chemscore.DEInternal.Weighted>
1.1510

> <Gold.Chemscore.Rot.Weighted>
5.3961

> <Gold.Chemscore.Internal.Correction.Weighted>
   9.000000E+99

> <Gold.Protein.RotatedTorsions>
[ 6907 6896 6895 6894 ] final   40.99 input  -60.11 | X-H torsion
[ 7974 7965 7964 7962 ] final   19.83 input  175.53 | X-H torsion
[ 8008 7997 7996 7995 ] final -118.49 input   59.86 | X-H torsion
[ 10167 10162 10161 10158 ] final  -44.17 input  -65.29 | X-H torsion
[ 10718 10713 10712 10709 ] final  -88.35 input   66.30 | X-H torsion
[ 10763 10752 10751 10750 ] final -160.37 input  -60.55 | X-H torsion
[ 11005 11000 10999 10996 ] final  -83.99 input  -57.11 | X-H torsion

> <Gold.Protein.ActiveResidues>
 VAL166  LYS551  ARG553  GLY616  TRP617  ASP618  TYR619  PRO620  LYS621  CYS622 
 ASP623  PHE694  ASN695  SER759  ASP760  ASP761  ALA762  ILE779  LEU786  VAL792 
 PHE793  MET794  SER795  GLU796  ALA797  LYS798  CYS799  TRP800  GLU811  SER814 

> <Gold.Protein.RotatedAtoms>
  152.1896  134.8684  160.0518 H   0  0  0  0  0  0  0  0  0  0  0  0  # atno 6907 bound_to 6896
  151.9578  133.3680  159.4032 H   0  0  0  0  0  0  0  0  0  0  0  0  # atno 6908 bound_to 6896
  150.6932  134.4196  159.5243 H   0  0  0  0  0  0  0  0  0  0  0  0  # atno 6909 bound_to 6896
  146.2135  139.8257  142.8670 H   0  0  0  0  0  0  0  0  0  0  0  0  # atno 7974 bound_to 7965
  155.1005  140.0396  157.2695 H   0  0  0  0  0  0  0  0  0  0  0  0  # atno 8008 bound_to 7997
  154.6762  140.2623  155.6931 H   0  0  0  0  0  0  0  0  0  0  0  0  # atno 8009 bound_to 7997
  156.2677  140.2788  156.1289 H   0  0  0  0  0  0  0  0  0  0  0  0  # atno 8010 bound_to 7997
  140.6907  143.2944  151.3458 H   0  0  0  0  0  0  0  0  0  0  0  0  # atno 10167 bound_to 10162
  155.9984  130.4832  150.5006 H   0  0  0  0  0  0  0  0  0  0  0  0  # atno 10718 bound_to 10713
  154.7396  135.3065  154.8752 H   0  0  0  0  0  0  0  0  0  0  0  0  # atno 10763 bound_to 10752
  153.9571  135.6757  153.4749 H   0  0  0  0  0  0  0  0  0  0  0  0  # atno 10764 bound_to 10752
  153.0995  135.4919  154.8765 H   0  0  0  0  0  0  0  0  0  0  0  0  # atno 10765 bound_to 10752
  141.1654  133.7323  156.8802 H   0  0  0  0  0  0  0  0  0  0  0  0  # atno 11005 bound_to 11000
  145.3049  141.0204  143.3587 LP  0  0  0  0  0  0  0  0  0  0  0  0  # atno 17320 bound_to 7965
  144.8978  139.4689  143.6647 LP  0  0  0  0  0  0  0  0  0  0  0  0  # atno 17321 bound_to 7965
  139.6306  144.0728  152.2473 LP  0  0  0  0  0  0  0  0  0  0  0  0  # atno 17342 bound_to 10162
  140.0201  144.6159  150.7574 LP  0  0  0  0  0  0  0  0  0  0  0  0  # atno 17343 bound_to 10162
  157.2991  131.0641  151.2081 LP  0  0  0  0  0  0  0  0  0  0  0  0  # atno 17370 bound_to 10713
  157.3066  130.6869  149.6193 LP  0  0  0  0  0  0  0  0  0  0  0  0  # atno 17371 bound_to 10713
  140.1720  134.9093  157.2845 LP  0  0  0  0  0  0  0  0  0  0  0  0  # atno 17394 bound_to 11000
  140.2491  134.3705  155.7449 LP  0  0  0  0  0  0  0  0  0  0  0  0  # atno 17395 bound_to 11000

$$$$
