AV-unprocessed.smi:1870|AV-procd|sdf|7597|dock1
  -GOLD-   22720 9313D 1   1.00000     0.00000
 Structure written by MMmdl.
 47 49  0  0  0  0  0  0  0  0  1 V2000
  145.3036  143.8542  153.9099 C   0  0  0  0  0  0  0  0  0  0  0  0
  145.3765  142.5390  154.6376 C   0  0  0  0  0  0  0  0  0  0  0  0
  146.4488  141.8382  154.4651 N   0  0  0  0  0  0  0  0  0  0  0  0
  146.6162  140.6142  155.0840 N   0  0  0  0  0  0  0  0  0  0  0  0
  147.8887  139.9542  154.7664 C   0  0  0  0  0  0  0  0  0  0  0  0
  149.0753  140.9415  154.7943 C   0  0  2  0  0  0  0  0  0  0  0  0
  149.2425  141.4797  153.4980 O   0  0  0  0  0  0  0  0  0  0  0  0
  150.3925  140.2237  155.1560 C   0  0  0  0  0  0  0  0  0  0  0  0
  151.0913  140.7381  156.3360 N   0  0  0  0  0  0  0  0  0  0  0  0
  150.7417  139.9674  157.5254 C   0  0  0  0  0  0  0  0  0  0  0  0
  151.6453  140.3177  158.7175 C   0  0  0  0  0  0  0  0  0  0  0  0
  151.7890  141.8183  158.9061 C   0  0  0  0  0  0  0  0  0  0  0  0
  152.3233  142.3334  160.1049 C   0  0  0  0  0  0  0  0  0  0  0  0
  152.4802  143.7233  160.2678 C   0  0  0  0  0  0  0  0  0  0  0  0
  152.1045  144.6011  159.2327 C   0  0  0  0  0  0  0  0  0  0  0  0
  151.5718  144.0902  158.0332 C   0  0  0  0  0  0  0  0  0  0  0  0
  151.4165  142.6992  157.8626 C   0  0  0  0  0  0  0  0  0  0  0  0
  150.8054  142.1576  156.5762 C   0  0  0  0  0  0  0  0  0  0  0  0
  145.7010  140.0295  155.9084 C   0  0  0  0  0  0  0  0  0  0  0  0
  145.8856  138.9312  156.4349 O   0  0  0  0  0  0  0  0  0  0  0  0
  144.4905  140.8311  156.1030 C   0  0  0  0  0  0  0  0  0  0  0  0
  143.5072  140.2572  156.9636 C   0  0  0  0  0  0  0  0  0  0  0  0
  142.7217  139.7968  157.6786 N   0  0  0  0  0  0  0  0  0  0  0  0
  144.3165  142.0365  155.5054 C   0  0  0  0  0  0  0  0  0  0  0  0
  143.0782  142.9066  155.6742 C   0  0  0  0  0  0  0  0  0  0  0  0
  145.2338  144.6827  154.6148 H   0  0  0  0  0  0  0  0  0  0  0  0
  144.4298  143.8886  153.2591 H   0  0  0  0  0  0  0  0  0  0  0  0
  146.1836  144.0248  153.2878 H   0  0  0  0  0  0  0  0  0  0  0  0
  148.0502  139.1802  155.5189 H   0  0  0  0  0  0  0  0  0  0  0  0
  147.8503  139.4119  153.8195 H   0  0  0  0  0  0  0  0  0  0  0  0
  148.8655  141.7445  155.4999 H   0  0  0  0  0  0  0  0  0  0  0  0
  149.2633  140.7648  152.8799 H   0  0  0  0  0  0  0  0  0  0  0  0
  150.1946  139.1607  155.3021 H   0  0  0  0  0  0  0  0  0  0  0  0
  151.0540  140.2812  154.2898 H   0  0  0  0  0  0  0  0  0  0  0  0
  149.6979  140.1509  157.7854 H   0  0  0  0  0  0  0  0  0  0  0  0
  150.8273  138.8986  157.3259 H   0  0  0  0  0  0  0  0  0  0  0  0
  151.2542  139.8657  159.6295 H   0  0  0  0  0  0  0  0  0  0  0  0
  152.6405  139.9011  158.5586 H   0  0  0  0  0  0  0  0  0  0  0  0
  152.6174  141.6639  160.8999 H   0  0  0  0  0  0  0  0  0  0  0  0
  152.8901  144.1164  161.1863 H   0  0  0  0  0  0  0  0  0  0  0  0
  152.2231  145.6671  159.3597 H   0  0  0  0  0  0  0  0  0  0  0  0
  151.2791  144.7691  157.2457 H   0  0  0  0  0  0  0  0  0  0  0  0
  151.1810  142.7629  155.7523 H   0  0  0  0  0  0  0  0  0  0  0  0
  149.7276  142.3201  156.6237 H   0  0  0  0  0  0  0  0  0  0  0  0
  142.3670  142.4806  156.3813 H   0  0  0  0  0  0  0  0  0  0  0  0
  142.5628  143.0252  154.7208 H   0  0  0  0  0  0  0  0  0  0  0  0
  143.3501  143.8959  156.0439 H   0  0  0  0  0  0  0  0  0  0  0  0
  1  2  1  0  0  0  0
  1 26  1  0  0  0  0
  1 27  1  0  0  0  0
  1 28  1  0  0  0  0
  2 24  1  0  0  0  0
  2  3  2  0  0  0  0
  3  4  1  0  0  0  0
  4  5  1  0  0  0  0
  4 19  1  0  0  0  0
  5  6  1  0  0  0  0
  5 29  1  0  0  0  0
  5 30  1  0  0  0  0
  6  7  1  0  0  0  0
  6  8  1  0  0  0  0
  6 31  1  0  0  0  0
  7 32  1  0  0  0  0
  8  9  1  0  0  0  0
  8 33  1  0  0  0  0
  8 34  1  0  0  0  0
  9 18  1  0  0  0  0
  9 10  1  0  0  0  0
 10 11  1  0  0  0  0
 10 35  1  0  0  0  0
 10 36  1  0  0  0  0
 11 12  1  0  0  0  0
 11 37  1  0  0  0  0
 11 38  1  0  0  0  0
 12 17  2  0  0  0  0
 12 13  1  0  0  0  0
 13 14  2  0  0  0  0
 13 39  1  0  0  0  0
 14 15  1  0  0  0  0
 14 40  1  0  0  0  0
 15 16  2  0  0  0  0
 15 41  1  0  0  0  0
 16 17  1  0  0  0  0
 16 42  1  0  0  0  0
 17 18  1  0  0  0  0
 18 43  1  0  0  0  0
 18 44  1  0  0  0  0
 19 20  2  0  0  0  0
 19 21  1  0  0  0  0
 21 22  1  0  0  0  0
 21 24  2  0  0  0  0
 22 23  3  0  0  0  0
 24 25  1  0  0  0  0
 25 45  1  0  0  0  0
 25 46  1  0  0  0  0
 25 47  1  0  0  0  0
M  END
> <s_m_source_file>
AV-unprocessed.smi

> <i_m_source_file_index>
1870

> <i_lp_mmshare_version>
43012

> <i_f3d_flags>
0

> <s_epik_input>
TiNDYyhjMVtDSDNdKWMoPU8pbihuYzFbQ0gzXSlbQ0gyXVtDQEhdKFtPSF0pW0NIMl1OKFtDSDJdW0NIMl0yKVtDSDJdYyhjMjMpW2NIXVtjSF1bY0hdW2NIXTM=

> <s_epik_cmdline>
J2VwaWtfcHl0aG9uJywgJy1waCcsICc3LjAnLCAnLXRuJywgJzgnLCAnLW1hJywgJzIwMCcsICctbWV0YWxfYmluZGluZycsICctaW1hZScsICc8aW5maWxlLm1hZT4nLCAnLW9tYWUnLCAnPG91dGZpbGUubWFlPic=

> <r_epik_Ionization_Penalty>
2.30251

> <r_epik_Ionization_Penalty_Charging>
1.06171e-10

> <r_epik_Ionization_Penalty_Neutral>
2.30251

> <r_epik_State_Penalty>
2.45335

> <r_epik_Charging_Adjusted_Penalty>
2.45335

> <i_epik_Tot_Q>
0

> <i_epik_Tot_abs_Q>
0

> <r_epik_Metal_State_Penalty>
2.45335

> <b_epik_Metal_Only>
0

> <s_lp_Force_Field>
OPLS_2005

> <r_lp_Energy>
46.0919

> <b_lp_Chiralities_Consistent>
1

> <s_lp_Variant>
AV-unprocessed.smi:1870-5

> <Gold.Version>
5.8.1

> <Gold.Id.Protein>
6NUR|6NUR_protein|mol2

> <Gold.PLP.Fitness>
48.1255

> <Gold.PLP.PLP>
-46.1493

> <Gold.PLP.part.hbond>
-3.0000

> <Gold.PLP.part.metal>
0.0000

> <Gold.PLP.part.buried>
-6.0002

> <Gold.PLP.part.nonpolar>
-37.3417

> <Gold.PLP.part.repulsive>
0.1909

> <Gold.PLP.ligand.clash>
0.0000

> <Gold.PLP.ligand.torsion>
1.7903

> <Gold.PLP.Chemscore.Hbond>
1.8084

> <Gold.PLP.Chemscore.CHOScore>
0.0000

> <Gold.PLP.Chemscore.Metal>
0.0000

> <Gold.Chemscore.Hbonds>
donor molecule, donor type, donor heavy atom, donor atom, acceptor molecule, acceptor atom, score
      L1  H     7    32       P1  7957  1.00
      P1  H  8011  8017       L1     7  0.35

> <Gold.PLP.Chemscore.Internal.Correction>
0.1315

> <Gold.Rescore>
     Score         DG    S(hbond)    S(metal)    S(lipo)     H(rot)  DE(clash)    DE(int)     intcor
     17.20     -19.08       1.41        0.00     121.90       2.10       0.02       1.86       ----

> <Gold.Chemscore.Fitness>
17.2007

> <Gold.Chemscore.DG>
-19.0750

> <Gold.Chemscore.ZeroCoef>
-5.4800

> <Gold.Chemscore.Hbond>
1.4075

> <Gold.Chemscore.Metal>
0.0000

> <Gold.Chemscore.Lipo>
121.9013

> <Gold.Chemscore.Internal_Hbond>
0.0000

> <Gold.Chemscore.DEClash>
0.0184

> <Gold.Chemscore.DEInternal>
1.8559

> <Gold.Chemscore.Rot>
2.0971

> <Gold.Chemscore.Internal.Correction>
   9.000000E+99

> <Gold.Chemscore.Hbonds>
donor molecule, donor type, donor heavy atom, donor atom, acceptor molecule, acceptor atom, score
      L1  H     7    32       P1  7957  0.96
      P1  H  8011  8017       L1     7  0.01

> <Gold.Chemscore.Hbond.Weighted>
-4.7011

> <Gold.Chemscore.Metal.Weighted>
-0.0000

> <Gold.Chemscore.Lipo.Weighted>
-14.2624

> <Gold.Chemscore.Internal_Hbond.Weighted>
0.0000

> <Gold.Chemscore.DEClash.Weighted>
0.0184

> <Gold.Chemscore.DEInternal.Weighted>
1.8559

> <Gold.Chemscore.Rot.Weighted>
5.3685

> <Gold.Chemscore.Internal.Correction.Weighted>
   9.000000E+99

> <Gold.Protein.RotatedTorsions>
[ 6907 6896 6895 6894 ] final  -41.58 input  -60.11 | X-H torsion
[ 7974 7965 7964 7962 ] final   68.31 input  175.53 | X-H torsion
[ 8008 7997 7996 7995 ] final  179.58 input   59.86 | X-H torsion
[ 10167 10162 10161 10158 ] final  123.31 input  -65.29 | X-H torsion
[ 10718 10713 10712 10709 ] final  -27.19 input   66.30 | X-H torsion
[ 10763 10752 10751 10750 ] final -103.95 input  -60.55 | X-H torsion
[ 11005 11000 10999 10996 ] final  -29.76 input  -57.11 | X-H torsion

> <Gold.Protein.ActiveResidues>
 VAL166  LYS551  ARG553  GLY616  TRP617  ASP618  TYR619  PRO620  LYS621  CYS622 
 ASP623  PHE694  ASN695  SER759  ASP760  ASP761  ALA762  ILE779  LEU786  VAL792 
 PHE793  MET794  SER795  GLU796  ALA797  LYS798  CYS799  TRP800  GLU811  SER814 

> <Gold.Protein.RotatedAtoms>
  150.9651  134.9033  159.7754 H   0  0  0  0  0  0  0  0  0  0  0  0  # atno 6907 bound_to 6896
  152.5170  134.3618  159.9297 H   0  0  0  0  0  0  0  0  0  0  0  0  # atno 6908 bound_to 6896
  151.3629  133.3842  159.2726 H   0  0  0  0  0  0  0  0  0  0  0  0  # atno 6909 bound_to 6896
  145.8041  139.2997  143.1137 H   0  0  0  0  0  0  0  0  0  0  0  0  # atno 7974 bound_to 7965
  156.0417  140.1305  157.0148 H   0  0  0  0  0  0  0  0  0  0  0  0  # atno 8008 bound_to 7997
  154.4394  140.1029  156.6317 H   0  0  0  0  0  0  0  0  0  0  0  0  # atno 8009 bound_to 7997
  155.5656  140.3465  155.4504 H   0  0  0  0  0  0  0  0  0  0  0  0  # atno 8010 bound_to 7997
  139.5807  144.6985  151.3536 H   0  0  0  0  0  0  0  0  0  0  0  0  # atno 10167 bound_to 10162
  156.4414  130.4465  149.7050 H   0  0  0  0  0  0  0  0  0  0  0  0  # atno 10718 bound_to 10713
  154.7844  135.4804  153.9913 H   0  0  0  0  0  0  0  0  0  0  0  0  # atno 10763 bound_to 10752
  153.1539  135.6796  153.8849 H   0  0  0  0  0  0  0  0  0  0  0  0  # atno 10764 bound_to 10752
  153.8484  135.3170  155.3409 H   0  0  0  0  0  0  0  0  0  0  0  0  # atno 10765 bound_to 10752
  140.9324  133.7329  156.0956 H   0  0  0  0  0  0  0  0  0  0  0  0  # atno 11005 bound_to 11000
  145.9847  140.8653  143.0097 LP  0  0  0  0  0  0  0  0  0  0  0  0  # atno 17320 bound_to 7965
  144.6765  140.2130  143.7375 LP  0  0  0  0  0  0  0  0  0  0  0  0  # atno 17321 bound_to 7965
  140.7085  143.7451  150.7525 LP  0  0  0  0  0  0  0  0  0  0  0  0  # atno 17342 bound_to 10162
  140.0982  143.4812  152.2440 LP  0  0  0  0  0  0  0  0  0  0  0  0  # atno 17343 bound_to 10162
  156.3913  130.7629  151.2630 LP  0  0  0  0  0  0  0  0  0  0  0  0  # atno 17370 bound_to 10713
  157.7506  131.0267  150.3973 LP  0  0  0  0  0  0  0  0  0  0  0  0  # atno 17371 bound_to 10713
  140.7844  134.3688  157.5480 LP  0  0  0  0  0  0  0  0  0  0  0  0  # atno 17394 bound_to 11000
  139.8799  134.9102  156.3007 LP  0  0  0  0  0  0  0  0  0  0  0  0  # atno 17395 bound_to 11000

$$$$
