AV-unprocessed.smi:332|AV-procd|sdf|2355|dock1
  -GOLD-   2262022263D 1   1.00000     0.00000
 Structure written by MMmdl.
 42 44  0  0  0  0  0  0  0  0  1 V2000
  150.8939  141.1377  158.0743 C   0  0  0  0  0  0  0  0  0  0  0  0
  151.0103  142.2064  156.9741 C   0  0  1  0  0  0  0  0  0  0  0  0
  149.8147  142.1871  156.1381 N   0  0  0  0  0  0  0  0  0  0  0  0
  149.6116  141.4067  155.0634 C   0  0  0  0  0  0  0  0  0  0  0  0
  150.4256  140.5641  154.6873 O   0  0  0  0  0  0  0  0  0  0  0  0
  148.3093  141.5975  154.2666 C   0  0  0  0  0  0  0  0  0  0  0  0
  147.4452  140.4047  154.2047 N   0  0  0  0  0  0  0  0  0  0  0  0
  147.3070  139.7850  152.9465 C   0  0  0  0  0  0  0  0  0  0  0  0
  146.5317  138.7041  152.7683 C   0  0  0  0  0  0  0  0  0  0  0  0
  145.8285  138.1730  153.9116 C   0  0  0  0  0  0  0  0  0  0  0  0
  145.9499  138.7606  155.1187 C   0  0  0  0  0  0  0  0  0  0  0  0
  146.7900  139.9475  155.3164 C   0  0  0  0  0  0  0  0  0  0  0  0
  146.8909  140.5013  156.4111 O   0  0  0  0  0  0  0  0  0  0  0  0
  151.2002  143.6246  157.5620 C   0  0  1  0  0  0  0  0  0  0  0  0
  150.2712  143.9648  158.7488 C   0  0  0  0  0  0  0  0  0  0  0  0
  151.2479  144.5112  159.8072 C   0  0  1  0  0  0  0  0  0  0  0  0
  152.0538  143.3405  160.3999 C   0  0  0  0  0  0  0  0  0  0  0  0
  153.0097  142.9723  159.2507 C   0  0  0  0  0  0  0  0  0  0  0  0
  152.6008  143.9581  158.1371 C   0  0  2  0  0  0  0  0  0  0  0  0
  152.2954  145.2121  158.9496 C   0  0  0  0  0  0  0  0  0  0  0  0
  151.7821  141.1211  158.7061 H   0  0  0  0  0  0  0  0  0  0  0  0
  150.7821  140.1411  157.6463 H   0  0  0  0  0  0  0  0  0  0  0  0
  150.0324  141.3212  158.7170 H   0  0  0  0  0  0  0  0  0  0  0  0
  151.8772  141.9627  156.3581 H   0  0  0  0  0  0  0  0  0  0  0  0
  149.0910  142.8492  156.3770 H   0  0  0  0  0  0  0  0  0  0  0  0
  147.7586  142.4262  154.7141 H   0  0  0  0  0  0  0  0  0  0  0  0
  148.5656  141.9425  153.2634 H   0  0  0  0  0  0  0  0  0  0  0  0
  147.8602  140.2493  152.1426 H   0  0  0  0  0  0  0  0  0  0  0  0
  146.4337  138.2461  151.7949 H   0  0  0  0  0  0  0  0  0  0  0  0
  145.2020  137.3006  153.7987 H   0  0  0  0  0  0  0  0  0  0  0  0
  145.4155  138.3493  155.9625 H   0  0  0  0  0  0  0  0  0  0  0  0
  151.0048  144.3425  156.7629 H   0  0  0  0  0  0  0  0  0  0  0  0
  149.5436  144.7233  158.4582 H   0  0  0  0  0  0  0  0  0  0  0  0
  149.7174  143.1019  159.1202 H   0  0  0  0  0  0  0  0  0  0  0  0
  150.7709  145.1387  160.5604 H   0  0  0  0  0  0  0  0  0  0  0  0
  152.6161  143.6589  161.2787 H   0  0  0  0  0  0  0  0  0  0  0  0
  151.4161  142.5060  160.6944 H   0  0  0  0  0  0  0  0  0  0  0  0
  154.0440  143.1466  159.5497 H   0  0  0  0  0  0  0  0  0  0  0  0
  152.9322  141.9270  158.9538 H   0  0  0  0  0  0  0  0  0  0  0  0
  153.3673  144.0930  157.3730 H   0  0  0  0  0  0  0  0  0  0  0  0
  151.8894  146.0305  158.3522 H   0  0  0  0  0  0  0  0  0  0  0  0
  153.1498  145.5776  159.5219 H   0  0  0  0  0  0  0  0  0  0  0  0
  1  2  1  0  0  0  0
  1 21  1  0  0  0  0
  1 22  1  0  0  0  0
  1 23  1  0  0  0  0
  2  3  1  0  0  0  0
  2 14  1  0  0  0  0
  2 24  1  0  0  0  0
  3  4  1  0  0  0  0
  3 25  1  0  0  0  0
  4  5  2  0  0  0  0
  4  6  1  0  0  0  0
  6  7  1  0  0  0  0
  6 26  1  0  0  0  0
  6 27  1  0  0  0  0
  7 12  1  0  0  0  0
  7  8  1  0  0  0  0
  8  9  2  0  0  0  0
  8 28  1  0  0  0  0
  9 10  1  0  0  0  0
  9 29  1  0  0  0  0
 10 11  2  0  0  0  0
 10 30  1  0  0  0  0
 11 12  1  0  0  0  0
 11 31  1  0  0  0  0
 12 13  2  0  0  0  0
 14 19  1  0  0  0  0
 14 15  1  0  0  0  0
 14 32  1  0  0  0  0
 15 16  1  0  0  0  0
 15 33  1  0  0  0  0
 15 34  1  0  0  0  0
 16 20  1  0  0  0  0
 16 17  1  0  0  0  0
 16 35  1  0  0  0  0
 17 18  1  0  0  0  0
 17 36  1  0  0  0  0
 17 37  1  0  0  0  0
 18 19  1  0  0  0  0
 18 38  1  0  0  0  0
 18 39  1  0  0  0  0
 19 20  1  0  0  0  0
 19 40  1  0  0  0  0
 20 41  1  0  0  0  0
 20 42  1  0  0  0  0
M  END
> <s_m_source_file>
AV-unprocessed.smi

> <i_m_source_file_index>
332

> <i_lp_mmshare_version>
43012

> <i_f3d_flags>
0

> <s_epik_input>
W0NIMl0xW0NIMl1bQ0BIXShbQ0gyXTIpW0NAQEhdKFtDSDJdW0NAQEhdMTIpW0NASF0oW0NIM10pW05IXUMoPU8pW0NIMl1uM1tjSF1bY0hdW2NIXVtjSF1jMz1P

> <s_epik_cmdline>
J2VwaWtfcHl0aG9uJywgJy1waCcsICc3LjAnLCAnLXRuJywgJzgnLCAnLW1hJywgJzIwMCcsICctbWV0YWxfYmluZGluZycsICctaW1hZScsICc8aW5maWxlLm1hZT4nLCAnLW9tYWUnLCAnPG91dGZpbGUubWFlPic=

> <r_lp_tautomer_probability>
1

> <r_epik_Ionization_Penalty>
4.05802e-07

> <r_epik_Ionization_Penalty_Charging>
3.84175e-07

> <r_epik_Ionization_Penalty_Neutral>
2.16269e-08

> <r_epik_State_Penalty>
-0

> <r_epik_Charging_Adjusted_Penalty>
3.84175e-07

> <i_epik_Tot_Q>
0

> <i_epik_Tot_abs_Q>
0

> <r_epik_Metal_State_Penalty>
-0

> <b_epik_Metal_Only>
0

> <s_lp_Force_Field>
OPLS_2005

> <r_lp_Energy>
59.7758

> <b_lp_Chiralities_Consistent>
1

> <s_lp_Variant>
AV-unprocessed.smi:332-4

> <Gold.Version>
5.8.1

> <Gold.Id.Protein>
6NUR|6NUR_protein|mol2

> <Gold.PLP.Fitness>
48.8244

> <Gold.PLP.PLP>
-42.6309

> <Gold.PLP.part.hbond>
-2.0000

> <Gold.PLP.part.metal>
0.0000

> <Gold.PLP.part.buried>
-3.5550

> <Gold.PLP.part.nonpolar>
-38.0259

> <Gold.PLP.part.repulsive>
0.2089

> <Gold.PLP.ligand.clash>
0.0000

> <Gold.PLP.ligand.torsion>
0.6930

> <Gold.PLP.Chemscore.Hbond>
1.5040

> <Gold.PLP.Chemscore.CHOScore>
1.0000

> <Gold.PLP.Chemscore.Metal>
0.0000

> <Gold.Chemscore.Hbonds>
donor molecule, donor type, donor heavy atom, donor atom, acceptor molecule, acceptor atom, score
      L1  H     3    25       P1  8028  0.54
      P1  H  7989  7998       L1     5  0.96
      L1  C     8    28       P1  7957  0.91

> <Gold.PLP.Chemscore.Internal.Correction>
0.0674

> <Gold.Rescore>
     Score         DG    S(hbond)    S(metal)    S(lipo)     H(rot)  DE(clash)    DE(int)     intcor
     19.85     -21.08       1.53        0.00     123.48       1.54       0.39       0.85       ----

> <Gold.Chemscore.Fitness>
19.8452

> <Gold.Chemscore.DG>
-21.0804

> <Gold.Chemscore.ZeroCoef>
-5.4800

> <Gold.Chemscore.Hbond>
1.5256

> <Gold.Chemscore.Metal>
0.0000

> <Gold.Chemscore.Lipo>
123.4753

> <Gold.Chemscore.Internal_Hbond>
0.0000

> <Gold.Chemscore.DEClash>
0.3850

> <Gold.Chemscore.DEInternal>
0.8502

> <Gold.Chemscore.Rot>
1.5398

> <Gold.Chemscore.Internal.Correction>
   9.000000E+99

> <Gold.Chemscore.Hbonds>
donor molecule, donor type, donor heavy atom, donor atom, acceptor molecule, acceptor atom, score
      L1  H     3    25       P1  8028  0.51
      P1  H  7989  7998       L1     5  0.92

> <Gold.Chemscore.Hbond.Weighted>
-5.0956

> <Gold.Chemscore.Metal.Weighted>
-0.0000

> <Gold.Chemscore.Lipo.Weighted>
-14.4466

> <Gold.Chemscore.Internal_Hbond.Weighted>
0.0000

> <Gold.Chemscore.DEClash.Weighted>
0.3850

> <Gold.Chemscore.DEInternal.Weighted>
0.8502

> <Gold.Chemscore.Rot.Weighted>
3.9419

> <Gold.Chemscore.Internal.Correction.Weighted>
   9.000000E+99

> <Gold.Protein.RotatedTorsions>
[ 6907 6896 6895 6894 ] final -143.03 input  -60.11 | X-H torsion
[ 7974 7965 7964 7962 ] final  168.98 input  175.53 | X-H torsion
[ 8008 7997 7996 7995 ] final  -24.38 input   59.86 | X-H torsion
[ 10167 10162 10161 10158 ] final  162.16 input  -65.29 | X-H torsion
[ 10718 10713 10712 10709 ] final  110.93 input   66.30 | X-H torsion
[ 10763 10752 10751 10750 ] final    7.93 input  -60.55 | X-H torsion
[ 11005 11000 10999 10996 ] final   28.32 input  -57.11 | X-H torsion

> <Gold.Protein.ActiveResidues>
 VAL166  LYS551  ARG553  GLY616  TRP617  ASP618  TYR619  PRO620  LYS621  CYS622 
 ASP623  PHE694  ASN695  SER759  ASP760  ASP761  ALA762  ILE779  LEU786  VAL792 
 PHE793  MET794  SER795  GLU796  ALA797  LYS798  CYS799  TRP800  GLU811  SER814 

> <Gold.Protein.RotatedAtoms>
  151.0950  133.5287  159.2612 H   0  0  0  0  0  0  0  0  0  0  0  0  # atno 6907 bound_to 6896
  151.2140  135.0492  159.8932 H   0  0  0  0  0  0  0  0  0  0  0  0  # atno 6908 bound_to 6896
  152.5438  134.0761  159.8269 H   0  0  0  0  0  0  0  0  0  0  0  0  # atno 6909 bound_to 6896
  144.7370  139.8988  143.6408 H   0  0  0  0  0  0  0  0  0  0  0  0  # atno 7974 bound_to 7965
  154.4532  140.1955  156.0456 H   0  0  0  0  0  0  0  0  0  0  0  0  # atno 8008 bound_to 7997
  156.0692  140.3286  155.7527 H   0  0  0  0  0  0  0  0  0  0  0  0  # atno 8009 bound_to 7997
  155.5290  140.0576  157.2883 H   0  0  0  0  0  0  0  0  0  0  0  0  # atno 8010 bound_to 7997
  139.4857  144.4465  151.8885 H   0  0  0  0  0  0  0  0  0  0  0  0  # atno 10167 bound_to 10162
  157.6470  131.0941  150.6673 H   0  0  0  0  0  0  0  0  0  0  0  0  # atno 10718 bound_to 10713
  153.2307  135.6892  153.7893 H   0  0  0  0  0  0  0  0  0  0  0  0  # atno 10763 bound_to 10752
  153.7058  135.3290  155.3236 H   0  0  0  0  0  0  0  0  0  0  0  0  # atno 10764 bound_to 10752
  154.8313  135.4578  154.1192 H   0  0  0  0  0  0  0  0  0  0  0  0  # atno 10765 bound_to 10752
  140.3168  134.2587  155.7724 H   0  0  0  0  0  0  0  0  0  0  0  0  # atno 11005 bound_to 11000
  146.1087  139.4090  143.0301 LP  0  0  0  0  0  0  0  0  0  0  0  0  # atno 17320 bound_to 7965
  145.7474  140.9985  143.1269 LP  0  0  0  0  0  0  0  0  0  0  0  0  # atno 17321 bound_to 7965
  140.3920  144.2603  150.5899 LP  0  0  0  0  0  0  0  0  0  0  0  0  # atno 17342 bound_to 10162
  140.5137  143.2283  151.8496 LP  0  0  0  0  0  0  0  0  0  0  0  0  # atno 17343 bound_to 10162
  156.6989  130.4617  149.5578 LP  0  0  0  0  0  0  0  0  0  0  0  0  # atno 17370 bound_to 10713
  156.1809  130.6498  151.0950 LP  0  0  0  0  0  0  0  0  0  0  0  0  # atno 17371 bound_to 10713
  141.2096  133.7745  156.9988 LP  0  0  0  0  0  0  0  0  0  0  0  0  # atno 17394 bound_to 11000
  140.0976  134.9555  157.1874 LP  0  0  0  0  0  0  0  0  0  0  0  0  # atno 17395 bound_to 11000

$$$$
