AV-unprocessed.smi:2567|AV-procd|sdf|10087|dock6
  -GOLD-   2272014113D 1   1.00000     0.00000
 Structure written by MMmdl.
 32 33  0  0  0  0  0  0  0  0  2 V2000
  152.7570  144.6804  158.0452 C   0  0  0  0  0  0  0  0  0  0  0  0
  151.9040  144.1343  159.2027 C   0  0  0  0  0  0  0  0  0  0  0  0
  152.7974  143.3769  160.2058 C   0  0  0  0  0  0  0  0  0  0  0  0
  151.2424  145.2997  159.9652 C   0  0  0  0  0  0  0  0  0  0  0  0
  150.8331  143.1993  158.6500 C   0  0  0  0  0  0  0  0  0  0  0  0
  149.5040  143.3247  158.8321 N   0  5  0  0  0  0  0  0  0  0  0  0
  148.8596  142.4250  158.1183 N   0  0  0  0  0  0  0  0  0  0  0  0
  149.8105  141.7493  157.4572 C   0  0  0  0  0  0  0  0  0  0  0  0
  149.5402  140.6380  156.4624 C   0  0  1  0  0  0  0  0  0  0  0  0
  149.7690  141.1231  155.0163 C   0  0  0  0  0  0  0  0  0  0  0  0
  149.5189  140.0426  154.0620 N   0  0  0  0  0  0  0  0  0  0  0  0
  150.3187  138.8615  154.3784 C   0  0  0  0  0  0  0  0  0  0  0  0
  150.0730  138.4261  155.8328 C   0  0  0  0  0  0  0  0  0  0  0  0
  150.3742  139.5071  156.7078 O   0  0  0  0  0  0  0  0  0  0  0  0
  151.0246  142.2378  157.7490 N   0  0  0  0  0  0  0  0  0  0  0  0
  153.5372  145.3505  158.4069 H   0  0  0  0  0  0  0  0  0  0  0  0
  152.1458  145.2369  157.3340 H   0  0  0  0  0  0  0  0  0  0  0  0
  153.2431  143.8719  157.4982 H   0  0  0  0  0  0  0  0  0  0  0  0
  153.3190  142.5465  159.7290 H   0  0  0  0  0  0  0  0  0  0  0  0
  152.2105  142.9666  161.0285 H   0  0  0  0  0  0  0  0  0  0  0  0
  153.5561  144.0312  160.6358 H   0  0  0  0  0  0  0  0  0  0  0  0
  151.9889  145.9698  160.3925 H   0  0  0  0  0  0  0  0  0  0  0  0
  150.6191  144.9356  160.7826 H   0  0  0  0  0  0  0  0  0  0  0  0
  150.6084  145.8978  159.3099 H   0  0  0  0  0  0  0  0  0  0  0  0
  148.4977  140.3388  156.5886 H   0  0  0  0  0  0  0  0  0  0  0  0
  149.1173  141.9694  154.7977 H   0  0  0  0  0  0  0  0  0  0  0  0
  150.7935  141.4822  154.9090 H   0  0  0  0  0  0  0  0  0  0  0  0
  150.0718  138.0480  153.6960 H   0  0  0  0  0  0  0  0  0  0  0  0
  151.3777  139.0807  154.2364 H   0  0  0  0  0  0  0  0  0  0  0  0
  149.0421  138.0979  155.9756 H   0  0  0  0  0  0  0  0  0  0  0  0
  150.7138  137.5809  156.0835 H   0  0  0  0  0  0  0  0  0  0  0  0
  149.7402  140.3623  153.1248 H   0  0  0  0  0  0  0  0  0  0  0  0
  1  2  1  0  0  0  0
  1 16  1  0  0  0  0
  1 17  1  0  0  0  0
  1 18  1  0  0  0  0
  2  3  1  0  0  0  0
  2  4  1  0  0  0  0
  2  5  1  0  0  0  0
  3 19  1  0  0  0  0
  3 20  1  0  0  0  0
  3 21  1  0  0  0  0
  4 22  1  0  0  0  0
  4 23  1  0  0  0  0
  4 24  1  0  0  0  0
  5 15  2  0  0  0  0
  5  6  1  0  0  0  0
  6  7  1  0  0  0  0
  7  8  2  0  0  0  0
  8  9  1  0  0  0  0
  8 15  1  0  0  0  0
  9 14  1  0  0  0  0
  9 10  1  0  0  0  0
  9 25  1  0  0  0  0
 10 11  1  0  0  0  0
 10 26  1  0  0  0  0
 10 27  1  0  0  0  0
 11 12  1  0  0  0  0
 11 32  1  0  0  0  0
 12 13  1  0  0  0  0
 12 28  1  0  0  0  0
 12 29  1  0  0  0  0
 13 14  1  0  0  0  0
 13 30  1  0  0  0  0
 13 31  1  0  0  0  0
M  CHG  1   6  -1
M  END
> <s_m_source_file>
AV-unprocessed.smi

> <i_m_source_file_index>
2567

> <i_lp_mmshare_version>
43012

> <i_f3d_flags>
0

> <s_epik_input>
W0NIM11DKFtDSDNdKShbQ0gzXSljMW5bbkhdYyhuMSlbQ0BASF0yW0NIMl1bTkhdW0NIMl1bQ0gyXU8y

> <s_epik_cmdline>
J2VwaWtfcHl0aG9uJywgJy1waCcsICc3LjAnLCAnLXRuJywgJzgnLCAnLW1hJywgJzIwMCcsICctbWV0YWxfYmluZGluZycsICctaW1hZScsICc8aW5maWxlLm1hZT4nLCAnLW9tYWUnLCAnPG91dGZpbGUubWFlPic=

> <r_lp_tautomer_probability>
0.948284

> <r_epik_Ionization_Penalty>
17.5852

> <r_epik_Ionization_Penalty_Charging>
16.0119

> <r_epik_Ionization_Penalty_Neutral>
1.5733

> <r_epik_State_Penalty>
6.64574

> <r_epik_Charging_Adjusted_Penalty>
22.6576

> <i_epik_Tot_Q>
-1

> <i_epik_Tot_abs_Q>
1

> <r_epik_Metal_State_Penalty>
2.89273

> <b_epik_Metal_Only>
1

> <s_lp_Force_Field>
OPLS_2005

> <r_lp_Energy>
12.7072

> <b_lp_Chiralities_Consistent>
1

> <s_lp_Variant>
AV-unprocessed.smi:2567-12

> <Gold.Version>
5.8.1

> <Gold.Id.Protein>
6NUR|6NUR_protein|mol2

> <Gold.PLP.Fitness>
32.9016

> <Gold.PLP.PLP>
-30.8914

> <Gold.PLP.part.hbond>
-1.6583

> <Gold.PLP.part.metal>
0.0000

> <Gold.PLP.part.buried>
-4.7919

> <Gold.PLP.part.nonpolar>
-25.1650

> <Gold.PLP.part.repulsive>
0.3704

> <Gold.PLP.ligand.clash>
0.0000

> <Gold.PLP.ligand.torsion>
0.5273

> <Gold.PLP.Chemscore.Hbond>
0.9600

> <Gold.PLP.Chemscore.CHOScore>
0.0000

> <Gold.PLP.Chemscore.Metal>
0.0000

> <Gold.Chemscore.Hbonds>
donor molecule, donor type, donor heavy atom, donor atom, acceptor molecule, acceptor atom, score
      L1  H    11    32       P1  7957  0.96

> <Gold.PLP.Chemscore.Internal.Correction>
0.1847

> <Gold.Rescore>
     Score         DG    S(hbond)    S(metal)    S(lipo)     H(rot)  DE(clash)    DE(int)     intcor
     13.94     -14.48       0.93        0.00      77.24       1.23       0.05       0.49       ----

> <Gold.Chemscore.Fitness>
13.9403

> <Gold.Chemscore.DG>
-14.4842

> <Gold.Chemscore.ZeroCoef>
-5.4800

> <Gold.Chemscore.Hbond>
0.9314

> <Gold.Chemscore.Metal>
0.0000

> <Gold.Chemscore.Lipo>
77.2446

> <Gold.Chemscore.Internal_Hbond>
0.0000

> <Gold.Chemscore.DEClash>
0.0519

> <Gold.Chemscore.DEInternal>
0.4919

> <Gold.Chemscore.Rot>
1.2283

> <Gold.Chemscore.Internal.Correction>
   9.000000E+99

> <Gold.Chemscore.Hbonds>
donor molecule, donor type, donor heavy atom, donor atom, acceptor molecule, acceptor atom, score
      L1  H    11    32       P1  7957  0.89

> <Gold.Chemscore.Hbond.Weighted>
-3.1110

> <Gold.Chemscore.Metal.Weighted>
-0.0000

> <Gold.Chemscore.Lipo.Weighted>
-9.0376

> <Gold.Chemscore.Internal_Hbond.Weighted>
0.0000

> <Gold.Chemscore.DEClash.Weighted>
0.0519

> <Gold.Chemscore.DEInternal.Weighted>
0.4919

> <Gold.Chemscore.Rot.Weighted>
3.1444

> <Gold.Chemscore.Internal.Correction.Weighted>
   9.000000E+99

> <Gold.Protein.RotatedTorsions>
[ 6907 6896 6895 6894 ] final -115.59 input  -60.11 | X-H torsion
[ 7974 7965 7964 7962 ] final  -77.06 input  175.53 | X-H torsion
[ 8008 7997 7996 7995 ] final  -18.38 input   59.86 | X-H torsion
[ 10167 10162 10161 10158 ] final  -37.40 input  -65.29 | X-H torsion
[ 10718 10713 10712 10709 ] final  116.11 input   66.30 | X-H torsion
[ 10763 10752 10751 10750 ] final -154.72 input  -60.55 | X-H torsion
[ 11005 11000 10999 10996 ] final -102.13 input  -57.11 | X-H torsion

> <Gold.Protein.ActiveResidues>
 VAL166  LYS551  ARG553  GLY616  TRP617  ASP618  TYR619  PRO620  LYS621  CYS622 
 ASP623  PHE694  ASN695  SER759  ASP760  ASP761  ALA762  ILE779  LEU786  VAL792 
 PHE793  MET794  SER795  GLU796  ALA797  LYS798  CYS799  TRP800  GLU811  SER814 

> <Gold.Protein.RotatedAtoms>
  150.7989  133.8637  159.3238 H   0  0  0  0  0  0  0  0  0  0  0  0  # atno 6907 bound_to 6896
  151.6455  135.1006  160.0159 H   0  0  0  0  0  0  0  0  0  0  0  0  # atno 6908 bound_to 6896
  152.4074  133.6871  159.6403 H   0  0  0  0  0  0  0  0  0  0  0  0  # atno 6909 bound_to 6896
  145.6047  140.9401  143.1222 H   0  0  0  0  0  0  0  0  0  0  0  0  # atno 7974 bound_to 7965
  154.4910  140.2117  155.9548 H   0  0  0  0  0  0  0  0  0  0  0  0  # atno 8008 bound_to 7997
  156.1305  140.3197  155.8311 H   0  0  0  0  0  0  0  0  0  0  0  0  # atno 8009 bound_to 7997
  155.4304  140.0503  157.3009 H   0  0  0  0  0  0  0  0  0  0  0  0  # atno 8010 bound_to 7997
  140.7119  143.3345  151.2494 H   0  0  0  0  0  0  0  0  0  0  0  0  # atno 10167 bound_to 10162
  157.6181  131.1021  150.7426 H   0  0  0  0  0  0  0  0  0  0  0  0  # atno 10718 bound_to 10713
  154.7839  135.3184  154.7930 H   0  0  0  0  0  0  0  0  0  0  0  0  # atno 10763 bound_to 10752
  153.8635  135.6851  153.4785 H   0  0  0  0  0  0  0  0  0  0  0  0  # atno 10764 bound_to 10752
  153.1484  135.4710  154.9538 H   0  0  0  0  0  0  0  0  0  0  0  0  # atno 10765 bound_to 10752
  141.1202  133.8533  157.1320 H   0  0  0  0  0  0  0  0  0  0  0  0  # atno 11005 bound_to 11000
  144.7295  139.7770  143.7352 LP  0  0  0  0  0  0  0  0  0  0  0  0  # atno 17320 bound_to 7965
  146.1550  139.4645  143.0024 LP  0  0  0  0  0  0  0  0  0  0  0  0  # atno 17321 bound_to 7965
  139.6836  143.9812  152.2822 LP  0  0  0  0  0  0  0  0  0  0  0  0  # atno 17342 bound_to 10162
  139.9450  144.6657  150.8228 LP  0  0  0  0  0  0  0  0  0  0  0  0  # atno 17343 bound_to 10162
  156.7789  130.4853  149.5404 LP  0  0  0  0  0  0  0  0  0  0  0  0  # atno 17370 bound_to 10713
  156.1312  130.6179  151.0336 LP  0  0  0  0  0  0  0  0  0  0  0  0  # atno 17371 bound_to 10713
  140.0154  134.9970  157.0482 LP  0  0  0  0  0  0  0  0  0  0  0  0  # atno 17394 bound_to 11000
  140.4529  134.1564  155.7183 LP  0  0  0  0  0  0  0  0  0  0  0  0  # atno 17395 bound_to 11000

$$$$
