AV-unprocessed.smi:2779|AV-procd|sdf|10711|dock9
  -GOLD-   2272015143D 1   1.00000     0.00000
 Structure written by MMmdl.
 38 39  0  0  0  0  0  0  0  0  1 V2000
  153.7149  139.9242  155.0390 O   0  0  0  0  0  0  0  0  0  0  0  0
  152.8243  139.2222  155.5173 C   0  0  0  0  0  0  0  0  0  0  0  0
  153.0805  138.1286  156.4512 C   0  0  0  0  0  0  0  0  0  0  0  0
  152.0777  137.3865  156.9678 C   0  0  0  0  0  0  0  0  0  0  0  0
  150.7044  137.6755  156.5888 C   0  0  0  0  0  0  0  0  0  0  0  0
  149.5159  136.9086  157.1142 C   0  0  0  0  0  0  0  0  0  0  0  0
  149.4518  136.9746  158.4445 F   0  0  0  0  0  0  0  0  0  0  0  0
  148.3880  137.4109  156.6107 F   0  0  0  0  0  0  0  0  0  0  0  0
  149.6038  135.6267  156.7578 F   0  0  0  0  0  0  0  0  0  0  0  0
  150.4717  138.6402  155.7581 N   0  0  0  0  0  0  0  0  0  0  0  0
  151.5015  139.3992  155.2298 N   0  0  0  0  0  0  0  0  0  0  0  0
  151.0540  140.4586  154.3176 C   0  0  0  0  0  0  0  0  0  0  0  0
  149.5232  140.6540  154.3658 C   0  0  2  0  0  0  0  0  0  0  0  0
  149.0866  141.4054  153.2509 O   0  0  0  0  0  0  0  0  0  0  0  0
  149.0441  141.3753  155.6366 C   0  0  0  0  0  0  0  0  0  0  0  0
  150.0603  141.3527  156.6272 O   0  0  0  0  0  0  0  0  0  0  0  0
  150.9310  142.4698  156.5480 C   0  0  0  0  0  0  0  0  0  0  0  0
  151.4463  142.8916  157.9112 C   0  0  0  0  0  0  0  0  0  0  0  0
  151.0494  144.1233  158.4752 C   0  0  0  0  0  0  0  0  0  0  0  0
  151.5112  144.4999  159.7514 C   0  0  0  0  0  0  0  0  0  0  0  0
  152.3669  143.6445  160.4722 C   0  0  0  0  0  0  0  0  0  0  0  0
  152.7578  142.4106  159.9175 C   0  0  0  0  0  0  0  0  0  0  0  0
  152.2959  142.0334  158.6412 C   0  0  0  0  0  0  0  0  0  0  0  0
  149.0188  139.6881  154.3230 H   0  0  0  0  0  0  0  0  0  0  0  0
  154.0993  137.9103  156.7359 H   0  0  0  0  0  0  0  0  0  0  0  0
  152.2909  136.5837  157.6577 H   0  0  0  0  0  0  0  0  0  0  0  0
  151.5511  141.3915  154.5905 H   0  0  0  0  0  0  0  0  0  0  0  0
  151.3805  140.2551  153.2956 H   0  0  0  0  0  0  0  0  0  0  0  0
  149.1511  140.8621  152.4804 H   0  0  0  0  0  0  0  0  0  0  0  0
  148.7454  142.3999  155.4071 H   0  0  0  0  0  0  0  0  0  0  0  0
  148.1621  140.8647  156.0262 H   0  0  0  0  0  0  0  0  0  0  0  0
  151.7907  142.2290  155.9210 H   0  0  0  0  0  0  0  0  0  0  0  0
  150.4094  143.3065  156.0804 H   0  0  0  0  0  0  0  0  0  0  0  0
  150.3880  144.7828  157.9325 H   0  0  0  0  0  0  0  0  0  0  0  0
  151.2063  145.4438  160.1787 H   0  0  0  0  0  0  0  0  0  0  0  0
  152.7199  143.9331  161.4514 H   0  0  0  0  0  0  0  0  0  0  0  0
  153.4096  141.7518  160.4722 H   0  0  0  0  0  0  0  0  0  0  0  0
  152.5960  141.0827  158.2253 H   0  0  0  0  0  0  0  0  0  0  0  0
  1  2  2  0  0  0  0
  2 11  1  0  0  0  0
  2  3  1  0  0  0  0
  3  4  2  0  0  0  0
  3 25  1  0  0  0  0
  4  5  1  0  0  0  0
  4 26  1  0  0  0  0
  5  6  1  0  0  0  0
  5 10  2  0  0  0  0
  6  7  1  0  0  0  0
  6  8  1  0  0  0  0
  6  9  1  0  0  0  0
 10 11  1  0  0  0  0
 11 12  1  0  0  0  0
 12 13  1  0  0  0  0
 12 27  1  0  0  0  0
 12 28  1  0  0  0  0
 13 24  1  0  0  0  0
 13 14  1  0  0  0  0
 13 15  1  0  0  0  0
 14 29  1  0  0  0  0
 15 16  1  0  0  0  0
 15 30  1  0  0  0  0
 15 31  1  0  0  0  0
 16 17  1  0  0  0  0
 17 18  1  0  0  0  0
 17 32  1  0  0  0  0
 17 33  1  0  0  0  0
 18 23  1  0  0  0  0
 18 19  2  0  0  0  0
 19 20  1  0  0  0  0
 19 34  1  0  0  0  0
 20 21  2  0  0  0  0
 20 35  1  0  0  0  0
 21 22  1  0  0  0  0
 21 36  1  0  0  0  0
 22 23  2  0  0  0  0
 22 37  1  0  0  0  0
 23 38  1  0  0  0  0
M  END
> <s_m_source_file>
AV-unprocessed.smi

> <i_m_source_file_index>
2779

> <i_lp_mmshare_version>
43012

> <i_f3d_flags>
0

> <s_epik_input>
Tz1jMVtjSF1bY0hdYyhDKEYpKEYpRilubjFbQ0gyXVtDQEhdKFtPSF0pW0NIMl1PW0NIMl1jMltjSF1bY0hdW2NIXVtjSF1bY0hdMg==

> <s_epik_cmdline>
J2VwaWtfcHl0aG9uJywgJy1waCcsICc3LjAnLCAnLXRuJywgJzgnLCAnLW1hJywgJzIwMCcsICctbWV0YWxfYmluZGluZycsICctaW1hZScsICc8aW5maWxlLm1hZT4nLCAnLW9tYWUnLCAnPG91dGZpbGUubWFlPic=

> <r_lp_tautomer_probability>
1

> <r_epik_Ionization_Penalty>
6.7226e-08

> <r_epik_Ionization_Penalty_Charging>
6.11342e-09

> <r_epik_Ionization_Penalty_Neutral>
6.11126e-08

> <r_epik_State_Penalty>
-0

> <r_epik_Charging_Adjusted_Penalty>
6.11342e-09

> <i_epik_Tot_Q>
0

> <i_epik_Tot_abs_Q>
0

> <r_epik_Metal_State_Penalty>
-0

> <b_epik_Metal_Only>
0

> <s_lp_Force_Field>
OPLS_2005

> <r_lp_Energy>
33.7736

> <b_lp_Chiralities_Consistent>
1

> <s_lp_Variant>
AV-unprocessed.smi:2779-1

> <Gold.Version>
5.8.1

> <Gold.Id.Protein>
6NUR|6NUR_protein|mol2

> <Gold.PLP.Fitness>
46.4051

> <Gold.PLP.PLP>
-40.1786

> <Gold.PLP.part.hbond>
-3.2665

> <Gold.PLP.part.metal>
0.0000

> <Gold.PLP.part.buried>
-3.2795

> <Gold.PLP.part.nonpolar>
-33.4752

> <Gold.PLP.part.repulsive>
0.0689

> <Gold.PLP.ligand.clash>
0.0000

> <Gold.PLP.ligand.torsion>
1.2747

> <Gold.PLP.Chemscore.Hbond>
2.8620

> <Gold.PLP.Chemscore.CHOScore>
0.0000

> <Gold.PLP.Chemscore.Metal>
0.0000

> <Gold.Chemscore.Hbonds>
donor molecule, donor type, donor heavy atom, donor atom, acceptor molecule, acceptor atom, score
      L1  H    14    29       P1  7957  1.00
      P1  H  7997  8008       L1     1  0.27
      P1  H  8011  8017       L1    14  0.10

> <Gold.PLP.Chemscore.Internal.Correction>
0.1898

> <Gold.Rescore>
     Score         DG    S(hbond)    S(metal)    S(lipo)     H(rot)  DE(clash)    DE(int)     intcor
     15.46     -18.78       2.24        0.00     111.03       2.80       1.46       1.86       ----

> <Gold.Chemscore.Fitness>
15.4635

> <Gold.Chemscore.DG>
-18.7804

> <Gold.Chemscore.ZeroCoef>
-5.4800

> <Gold.Chemscore.Hbond>
2.2405

> <Gold.Chemscore.Metal>
0.0000

> <Gold.Chemscore.Lipo>
111.0334

> <Gold.Chemscore.Internal_Hbond>
0.0000

> <Gold.Chemscore.DEClash>
1.4570

> <Gold.Chemscore.DEInternal>
1.8599

> <Gold.Chemscore.Rot>
2.8022

> <Gold.Chemscore.Internal.Correction>
   9.000000E+99

> <Gold.Chemscore.Hbonds>
donor molecule, donor type, donor heavy atom, donor atom, acceptor molecule, acceptor atom, score
      L1  H    14    29       P1  7957  0.99
      P1  H  7997  8008       L1     1  0.04

> <Gold.Chemscore.Hbond.Weighted>
-7.4831

> <Gold.Chemscore.Metal.Weighted>
-0.0000

> <Gold.Chemscore.Lipo.Weighted>
-12.9909

> <Gold.Chemscore.Internal_Hbond.Weighted>
0.0000

> <Gold.Chemscore.DEClash.Weighted>
1.4570

> <Gold.Chemscore.DEInternal.Weighted>
1.8599

> <Gold.Chemscore.Rot.Weighted>
7.1736

> <Gold.Chemscore.Internal.Correction.Weighted>
   9.000000E+99

> <Gold.Protein.RotatedTorsions>
[ 6907 6896 6895 6894 ] final  169.58 input  -60.11 | X-H torsion
[ 7974 7965 7964 7962 ] final  -66.12 input  175.53 | X-H torsion
[ 8008 7997 7996 7995 ] final  -39.13 input   59.86 | X-H torsion
[ 10167 10162 10161 10158 ] final  -89.24 input  -65.29 | X-H torsion
[ 10718 10713 10712 10709 ] final  -58.55 input   66.30 | X-H torsion
[ 10763 10752 10751 10750 ] final -102.72 input  -60.55 | X-H torsion
[ 11005 11000 10999 10996 ] final  -15.56 input  -57.11 | X-H torsion

> <Gold.Protein.ActiveResidues>
 VAL166  LYS551  ARG553  GLY616  TRP617  ASP618  TYR619  PRO620  LYS621  CYS622 
 ASP623  PHE694  ASN695  SER759  ASP760  ASP761  ALA762  ILE779  LEU786  VAL792 
 PHE793  MET794  SER795  GLU796  ALA797  LYS798  CYS799  TRP800  GLU811  SER814 

> <Gold.Protein.RotatedAtoms>
  151.8296  133.3406  159.3609 H   0  0  0  0  0  0  0  0  0  0  0  0  # atno 6907 bound_to 6896
  150.7268  134.5495  159.5797 H   0  0  0  0  0  0  0  0  0  0  0  0  # atno 6908 bound_to 6896
  152.2946  134.7683  160.0422 H   0  0  0  0  0  0  0  0  0  0  0  0  # atno 6909 bound_to 6896
  145.7458  140.8932  143.0506 H   0  0  0  0  0  0  0  0  0  0  0  0  # atno 7974 bound_to 7965
  154.4027  140.1560  156.2812 H   0  0  0  0  0  0  0  0  0  0  0  0  # atno 8008 bound_to 7997
  155.8868  140.3441  155.5905 H   0  0  0  0  0  0  0  0  0  0  0  0  # atno 8009 bound_to 7997
  155.7605  140.0817  157.2148 H   0  0  0  0  0  0  0  0  0  0  0  0  # atno 8010 bound_to 7997
  140.3668  143.2814  151.9548 H   0  0  0  0  0  0  0  0  0  0  0  0  # atno 10167 bound_to 10162
  156.1127  130.4173  150.0593 H   0  0  0  0  0  0  0  0  0  0  0  0  # atno 10718 bound_to 10713
  154.7755  135.4850  153.9735 H   0  0  0  0  0  0  0  0  0  0  0  0  # atno 10763 bound_to 10752
  153.1423  135.6775  153.9016 H   0  0  0  0  0  0  0  0  0  0  0  0  # atno 10764 bound_to 10752
  153.8687  135.3146  155.3419 H   0  0  0  0  0  0  0  0  0  0  0  0  # atno 10765 bound_to 10752
  140.7979  133.8237  155.9441 H   0  0  0  0  0  0  0  0  0  0  0  0  # atno 11005 bound_to 11000
  144.6860  139.9523  143.7478 LP  0  0  0  0  0  0  0  0  0  0  0  0  # atno 17320 bound_to 7965
  146.0404  139.3416  143.0701 LP  0  0  0  0  0  0  0  0  0  0  0  0  # atno 17321 bound_to 7965
  139.4808  144.5943  151.7717 LP  0  0  0  0  0  0  0  0  0  0  0  0  # atno 17342 bound_to 10162
  140.5073  144.1079  150.5986 LP  0  0  0  0  0  0  0  0  0  0  0  0  # atno 17343 bound_to 10162
  156.8552  130.9473  151.3622 LP  0  0  0  0  0  0  0  0  0  0  0  0  # atno 17370 bound_to 10713
  157.6308  130.8728  149.9271 LP  0  0  0  0  0  0  0  0  0  0  0  0  # atno 17371 bound_to 10713
  140.9324  134.2004  157.4854 LP  0  0  0  0  0  0  0  0  0  0  0  0  # atno 17394 bound_to 11000
  139.8724  134.9838  156.5214 LP  0  0  0  0  0  0  0  0  0  0  0  0  # atno 17395 bound_to 11000

$$$$
