#       Name:                AV-unprocessed.smi:2129
#       Creating user name   scv26
#       Creation time:       Fri Mar 27 11:43:40 2020


#       File generated by GOLD software.
#

@<TRIPOS>MOLECULE
AV-unprocessed.smi:2129
    40    40     1
SMALL
NO_CHARGES


@<TRIPOS>ATOM
      1 ****        -2.3306   1.8304  -0.5168 C.3            1 S1                 0.0000
      2 ****        -2.6169   0.4314  -1.0911 C.3            1 S1                 0.0000
      3 ****        -1.7622  -0.7254  -0.5048 C.3            1 S1                 0.0000
      4 ****        -2.0959  -0.9320   0.9856 C.3            1 S1                 0.0000
      5 ****        -2.0739  -2.0403  -1.2523 C.3            1 S1                 0.0000
      6 ****        -0.3278  -0.4255  -0.5803 N.am           1 S1                 0.0000
      7 ****         0.4330  -0.1956  -1.6682 C.2            1 S1                 0.0000
      8 ****        -0.0024  -0.2299  -2.8179 O.2            1 S1                 0.0000
      9 ****         1.9188   0.1366  -1.4462 C.3            1 S1                 0.0000
     10 ****         2.3074   0.3006  -0.0353 N.am           1 S1                 0.0000
     11 ****         2.8699  -0.7590   0.6622 C.2            1 S1                 0.0000
     12 ****         3.2362  -0.6840   1.9637 C.2            1 S1                 0.0000
     13 ****         3.0489   0.5533   2.7138 C.2            1 S1                 0.0000
     14 ****         3.3478   0.7190   3.8942 O.2            1 S1                 0.0000
     15 ****         2.4795   1.5959   1.9778 N.am           1 S1                 0.0000
     16 ****         2.0990   1.5253   0.6369 C.2            1 S1                 0.0000
     17 ****         1.5955   2.5028   0.0851 O.2            1 S1                 0.0000
     18 ****         2.3293   2.4724   2.4562 H              1 S1                 0.0000
     19 ****        -2.9633   2.5756  -0.9988 H              1 S1                 0.0000
     20 ****        -1.2954   2.1309  -0.6786 H              1 S1                 0.0000
     21 ****        -2.5326   1.8784   0.5528 H              1 S1                 0.0000
     22 ****        -3.6737   0.2053  -0.9446 H              1 S1                 0.0000
     23 ****        -2.4817   0.4755  -2.1722 H              1 S1                 0.0000
     24 ****        -3.1598  -1.1216   1.1324 H              1 S1                 0.0000
     25 ****        -1.8304  -0.0624   1.5874 H              1 S1                 0.0000
     26 ****        -1.5522  -1.7832   1.3978 H              1 S1                 0.0000
     27 ****        -3.1157  -2.3315  -1.1143 H              1 S1                 0.0000
     28 ****        -1.4541  -2.8615  -0.8902 H              1 S1                 0.0000
     29 ****        -1.9087  -1.9532  -2.3261 H              1 S1                 0.0000
     30 ****         0.1448  -0.3644   0.3098 H              1 S1                 0.0000
     31 ****         2.5111  -0.6565  -1.9045 H              1 S1                 0.0000
     32 ****         2.1654   1.0364  -2.0131 H              1 S1                 0.0000
     33 ****         3.0222  -1.6970   0.1473 H              1 S1                 0.0000
     34 ****         3.6684  -1.5451   2.4528 H              1 S1                 0.0000
     35 ****        -0.9670  -0.4368  -2.9813 LP             1 S1                 0.0000
     36 ****         0.6082  -0.0510  -3.5894 LP             1 S1                 0.0000
     37 ****         3.7543  -0.0303   4.4170 LP             1 S1                 0.0000
     38 ****         3.1845   1.6031   4.3320 LP             1 S1                 0.0000
     39 ****         1.3173   2.4474  -0.8738 LP             1 S1                 0.0000
     40 ****         1.4645   3.3527   0.5955 LP             1 S1                 0.0000
@<TRIPOS>BOND
    1    1    2 1     
    2    1   19 1     
    3    1   20 1     
    4    1   21 1     
    5    2    3 1     
    6    2   22 1     
    7    2   23 1     
    8    3    4 1     
    9    3    5 1     
   10    3    6 1     
   11    4   24 1     
   12    4   25 1     
   13    4   26 1     
   14    5   27 1     
   15    5   28 1     
   16    5   29 1     
   17    6    7 am    
   18    6   30 1     
   19    7    8 2     
   20    7    9 1     
   21    9   10 1     
   22    9   31 1     
   23    9   32 1     
   24   10   16 1     
   25   10   11 1     
   26   11   12 2     
   27   11   33 1     
   28   12   13 1     
   29   12   34 1     
   30   13   14 2     
   31   13   15 1     
   32   15   18 1     
   33   15   16 1     
   34   16   17 2     
   35    8   35 1     
   36    8   36 1     
   37   14   37 1     
   38   14   38 1     
   39   17   39 1     
   40   17   40 1     
@<TRIPOS>SUBSTRUCTURE
      1 S1             1
@<TRIPOS>SET
LONE_PAIRS      STATIC     ATOMS    <user>   **** ""
6 35 36 37 38 39 40
DONOR_HYDROGENS      STATIC     ATOMS    <user>   **** ""
2 30 18
ATOM$BLUE        STATIC     ATOMS    COLORGROUP SYSTEM
6 35 36 37 38 39 40
ATOM$RED        STATIC     ATOMS    COLORGROUP SYSTEM
2 30 18
