#       Name:                AV-unprocessed.smi:753
#       Creating user name   scv26
#       Creation time:       Fri Mar 27 01:00:07 2020


#       File generated by GOLD software.
#

@<TRIPOS>MOLECULE
AV-unprocessed.smi:753
    46    48     1
SMALL
NO_CHARGES


@<TRIPOS>ATOM
      1 ****        -3.0386   6.8418   0.3702 C.3            1 S1                 0.0000
      2 ****        -2.5038   5.4299   0.4827 C.ar           1 S1                 0.0000
      3 ****        -2.2093   4.8310   1.7264 C.ar           1 S1                 0.0000
      4 ****        -1.7124   3.5115   1.7547 C.ar           1 S1                 0.0000
      5 ****        -1.5216   2.8172   0.5399 C.ar           1 S1                 0.0000
      6 ****        -0.9848   1.4000   0.5390 C.3            1 S1                 0.0000
      7 ****         0.5407   1.3602   0.3559 C.3            1 S1                 0.0000
      8 ****         1.0408  -0.0085   0.3604 N.am           1 S1                 0.0000
      9 ****         1.2759  -0.7379   1.4640 C.2            1 S1                 0.0000
     10 ****         1.1066  -0.3116   2.6049 O.2            1 S1                 0.0000
     11 ****         1.7130  -1.9877   1.2296 N.am           1 S1                 0.0000
     12 ****         2.0560  -3.0225   2.2084 C.3            1 S1                 0.0000
     13 ****         2.2376  -4.4032   1.5400 C.3            1 S1                 0.0000
     14 ****         3.6708  -4.7961   1.9442 C.3            1 S1                 0.0000
     15 ****         3.7181  -5.0936   3.4556 C.3            1 S1                 0.0000
     16 ****         3.5803  -3.6932   4.0847 C.3            1 S1                 0.0000
     17 ****         3.4442  -2.7834   2.8499 C.3            1 S1                 0.0000
     18 ****         4.3938  -3.4589   1.8653 C.3            1 S1                 0.0000
     19 ****        -1.8324   3.4670  -0.6737 C.ar           1 S1                 0.0000
     20 ****        -2.3051   4.7325  -0.6584 N.pl3          1 S1                 1.0000
     21 ****        -3.2033   7.2797   1.3551 H              1 S1                 0.0000
     22 ****        -3.9873   6.8472  -0.1675 H              1 S1                 0.0000
     23 ****        -2.3324   7.4731  -0.1697 H              1 S1                 0.0000
     24 ****        -2.3604   5.3725   2.6489 H              1 S1                 0.0000
     25 ****        -1.4797   3.0405   2.6988 H              1 S1                 0.0000
     26 ****        -1.2674   0.9154   1.4747 H              1 S1                 0.0000
     27 ****        -1.4722   0.8364  -0.2577 H              1 S1                 0.0000
     28 ****         0.8150   1.8180  -0.5947 H              1 S1                 0.0000
     29 ****         1.0360   1.9414   1.1356 H              1 S1                 0.0000
     30 ****         1.2119  -0.4380  -0.5374 H              1 S1                 0.0000
     31 ****         1.8363  -2.2451   0.2611 H              1 S1                 0.0000
     32 ****         1.2734  -3.0764   2.9675 H              1 S1                 0.0000
     33 ****         1.4996  -5.1292   1.8834 H              1 S1                 0.0000
     34 ****         2.1544  -4.3387   0.4538 H              1 S1                 0.0000
     35 ****         4.0972  -5.5882   1.3278 H              1 S1                 0.0000
     36 ****         2.9233  -5.7718   3.7684 H              1 S1                 0.0000
     37 ****         4.6717  -5.5446   3.7331 H              1 S1                 0.0000
     38 ****         2.7242  -3.6182   4.7561 H              1 S1                 0.0000
     39 ****         4.4755  -3.4407   4.6545 H              1 S1                 0.0000
     40 ****         3.6709  -1.7379   3.0616 H              1 S1                 0.0000
     41 ****         5.4260  -3.5029   2.2181 H              1 S1                 0.0000
     42 ****         4.3753  -3.0145   0.8688 H              1 S1                 0.0000
     43 ****        -1.7156   3.0183  -1.6494 H              1 S1                 0.0000
     44 ****        -2.5213   5.1822  -1.5484 H              1 S1                 0.0000
     45 ****         0.7779   0.6222   2.7461 LP             1 S1                 0.0000
     46 ****         1.2977  -0.8987   3.3915 LP             1 S1                 0.0000
@<TRIPOS>BOND
    1    1    2 1     
    2    1   21 1     
    3    1   22 1     
    4    1   23 1     
    5    2   20 ar    
    6    2    3 ar    
    7    3    4 ar    
    8    3   24 1     
    9    4    5 ar    
   10    4   25 1     
   11    5    6 1     
   12    5   19 ar    
   13    6    7 1     
   14    6   26 1     
   15    6   27 1     
   16    7    8 1     
   17    7   28 1     
   18    7   29 1     
   19    8    9 am    
   20    8   30 1     
   21    9   10 2     
   22    9   11 am    
   23   11   12 1     
   24   11   31 1     
   25   12   17 1     
   26   12   13 1     
   27   12   32 1     
   28   13   14 1     
   29   13   33 1     
   30   13   34 1     
   31   14   18 1     
   32   14   15 1     
   33   14   35 1     
   34   15   16 1     
   35   15   36 1     
   36   15   37 1     
   37   16   17 1     
   38   16   38 1     
   39   16   39 1     
   40   17   18 1     
   41   17   40 1     
   42   18   41 1     
   43   18   42 1     
   44   19   20 ar    
   45   19   43 1     
   46   20   44 1     
   47   10   45 1     
   48   10   46 1     
@<TRIPOS>SUBSTRUCTURE
      1 S1             1
@<TRIPOS>SET
LONE_PAIRS      STATIC     ATOMS    <user>   **** ""
2 45 46
DONOR_HYDROGENS      STATIC     ATOMS    <user>   **** ""
3 30 31 44
ATOM$BLUE        STATIC     ATOMS    COLORGROUP SYSTEM
2 45 46
ATOM$RED        STATIC     ATOMS    COLORGROUP SYSTEM
3 30 31 44
