AV-unprocessed.smi:645|AV-procd|sdf|3163|dock1
  -GOLD-   22720 0 83D 1   1.00000     0.00000
 Structure written by MMmdl.
 22 23  0  0  0  0  0  0  0  0  2 V2000
  152.0981  139.6152  159.3103 C   0  0  0  0  0  0  0  0  0  0  0  0
  151.6603  140.4952  158.1189 C   0  0  1  0  0  0  0  0  0  0  0  0
  151.7260  141.9965  158.4631 C   0  0  0  0  0  0  0  0  0  0  0  0
  152.2431  142.4722  159.6943 C   0  0  0  0  0  0  0  0  0  0  0  0
  152.2685  143.8596  159.9373 C   0  0  0  0  0  0  0  0  0  0  0  0
  151.8235  144.7781  159.0550 N   0  0  0  0  0  0  0  0  0  0  0  0
  151.3314  144.3296  157.8820 C   0  0  0  0  0  0  0  0  0  0  0  0
  151.2611  142.9649  157.5414 C   0  0  0  0  0  0  0  0  0  0  0  0
  152.4445  140.1181  156.9482 N   0  5  0  0  0  0  0  0  0  0  0  0
  151.6088  139.6690  155.9827 C   0  0  0  0  0  0  0  0  0  0  0  0
  151.9022  139.2813  154.8542 O   0  0  0  0  0  0  0  0  0  0  0  0
  150.3436  139.6863  156.4105 N   0  0  0  0  0  0  0  0  0  0  0  0
  150.2522  140.1315  157.6597 C   0  0  0  0  0  0  0  0  0  0  0  0
  149.2287  140.2290  158.3367 O   0  0  0  0  0  0  0  0  0  0  0  0
  151.4612  139.7566  160.1833 H   0  0  0  0  0  0  0  0  0  0  0  0
  153.1211  139.8448  159.6104 H   0  0  0  0  0  0  0  0  0  0  0  0
  152.0623  138.5534  159.0606 H   0  0  0  0  0  0  0  0  0  0  0  0
  152.6190  141.8004  160.4513 H   0  0  0  0  0  0  0  0  0  0  0  0
  152.6587  144.2426  160.8687 H   0  0  0  0  0  0  0  0  0  0  0  0
  150.9834  145.0825  157.1905 H   0  0  0  0  0  0  0  0  0  0  0  0
  150.8620  142.6741  156.5812 H   0  0  0  0  0  0  0  0  0  0  0  0
  149.5560  139.3822  155.8581 H   0  0  0  0  0  0  0  0  0  0  0  0
  1  2  1  0  0  0  0
  1 15  1  0  0  0  0
  1 16  1  0  0  0  0
  1 17  1  0  0  0  0
  2 13  1  0  0  0  0
  2  3  1  0  0  0  0
  2  9  1  0  0  0  0
  3  8  1  0  0  0  0
  3  4  2  0  0  0  0
  4  5  1  0  0  0  0
  4 18  1  0  0  0  0
  5  6  2  0  0  0  0
  5 19  1  0  0  0  0
  6  7  1  0  0  0  0
  7  8  2  0  0  0  0
  7 20  1  0  0  0  0
  8 21  1  0  0  0  0
  9 10  1  0  0  0  0
 10 11  2  0  0  0  0
 10 12  1  0  0  0  0
 12 13  1  0  0  0  0
 12 22  1  0  0  0  0
 13 14  2  0  0  0  0
M  CHG  1   9  -1
M  END
> <s_m_source_file>
AV-unprocessed.smi

> <i_m_source_file_index>
645

> <i_lp_mmshare_version>
43012

> <i_f3d_flags>
0

> <s_epik_input>
Tz1DMVtOSF1DKD1PKVtOSF1bQ0BAXTEoW0NIM10pYzJbY0hdW2NIXW5bY0hdW2NIXTI=

> <s_epik_cmdline>
J2VwaWtfcHl0aG9uJywgJy1waCcsICc3LjAnLCAnLXRuJywgJzgnLCAnLW1hJywgJzIwMCcsICctbWV0YWxfYmluZGluZycsICctaW1hZScsICc8aW5maWxlLm1hZT4nLCAnLW9tYWUnLCAnPG91dGZpbGUubWFlPic=

> <r_lp_tautomer_probability>
1

> <r_epik_Ionization_Penalty>
4.86801

> <r_epik_Ionization_Penalty_Charging>
4.8337

> <r_epik_Ionization_Penalty_Neutral>
0.0343087

> <r_epik_State_Penalty>
4.85653

> <r_epik_Charging_Adjusted_Penalty>
9.69023

> <i_epik_Tot_Q>
-1

> <i_epik_Tot_abs_Q>
1

> <r_epik_Metal_State_Penalty>
1.32058

> <b_epik_Metal_Only>
1

> <s_lp_Force_Field>
OPLS_2005

> <r_lp_Energy>
14.3198

> <b_lp_Chiralities_Consistent>
1

> <s_lp_Variant>
AV-unprocessed.smi:645-5

> <Gold.Version>
5.8.1

> <Gold.Id.Protein>
6NUR|6NUR_protein|mol2

> <Gold.PLP.Fitness>
38.1289

> <Gold.PLP.PLP>
-26.6541

> <Gold.PLP.part.hbond>
-2.2573

> <Gold.PLP.part.metal>
0.0000

> <Gold.PLP.part.buried>
-2.5475

> <Gold.PLP.part.nonpolar>
-21.4352

> <Gold.PLP.part.repulsive>
0.1560

> <Gold.PLP.ligand.clash>
0.0000

> <Gold.PLP.ligand.torsion>
0.0993

> <Gold.PLP.Chemscore.Hbond>
2.9920

> <Gold.PLP.Chemscore.CHOScore>
0.8811

> <Gold.PLP.Chemscore.Metal>
0.0000

> <Gold.Chemscore.Hbonds>
donor molecule, donor type, donor heavy atom, donor atom, acceptor molecule, acceptor atom, score
      P1  H  7989  7998       L1    11  0.84
      P1  H  7997  8009       L1     9  2.00
      L1  C     7    20       P1  8028  0.78

> <Gold.PLP.Chemscore.Internal.Correction>
0.0543

> <Gold.Rescore>
     Score         DG    S(hbond)    S(metal)    S(lipo)     H(rot)  DE(clash)    DE(int)     intcor
     16.56     -16.62       1.93        0.00      61.87       1.00       0.03       0.03       ----

> <Gold.Chemscore.Fitness>
16.5581

> <Gold.Chemscore.DG>
-16.6161

> <Gold.Chemscore.ZeroCoef>
-5.4800

> <Gold.Chemscore.Hbond>
1.9332

> <Gold.Chemscore.Metal>
0.0000

> <Gold.Chemscore.Lipo>
61.8730

> <Gold.Chemscore.Internal_Hbond>
0.0000

> <Gold.Chemscore.DEClash>
0.0308

> <Gold.Chemscore.DEInternal>
0.0272

> <Gold.Chemscore.Rot>
1.0000

> <Gold.Chemscore.Internal.Correction>
   9.000000E+99

> <Gold.Chemscore.Hbonds>
donor molecule, donor type, donor heavy atom, donor atom, acceptor molecule, acceptor atom, score
      P1  H  7989  7998       L1    11  0.57
      P1  H  7997  8009       L1     9  0.84

> <Gold.Chemscore.Hbond.Weighted>
-6.4569

> <Gold.Chemscore.Metal.Weighted>
-0.0000

> <Gold.Chemscore.Lipo.Weighted>
-7.2391

> <Gold.Chemscore.Internal_Hbond.Weighted>
0.0000

> <Gold.Chemscore.DEClash.Weighted>
0.0308

> <Gold.Chemscore.DEInternal.Weighted>
0.0272

> <Gold.Chemscore.Rot.Weighted>
2.5600

> <Gold.Chemscore.Internal.Correction.Weighted>
   9.000000E+99

> <Gold.Protein.RotatedTorsions>
[ 6907 6896 6895 6894 ] final  159.53 input  -60.11 | X-H torsion
[ 7974 7965 7964 7962 ] final  -25.57 input  175.53 | X-H torsion
[ 8008 7997 7996 7995 ] final -167.38 input   59.86 | X-H torsion
[ 10167 10162 10161 10158 ] final   44.99 input  -65.29 | X-H torsion
[ 10718 10713 10712 10709 ] final  100.48 input   66.30 | X-H torsion
[ 10763 10752 10751 10750 ] final -141.41 input  -60.55 | X-H torsion
[ 11005 11000 10999 10996 ] final  -13.71 input  -57.11 | X-H torsion

> <Gold.Protein.ActiveResidues>
 VAL166  LYS551  ARG553  GLY616  TRP617  ASP618  TYR619  PRO620  LYS621  CYS622 
 ASP623  PHE694  ASN695  SER759  ASP760  ASP761  ALA762  ILE779  LEU786  VAL792 
 PHE793  MET794  SER795  GLU796  ALA797  LYS798  CYS799  TRP800  GLU811  SER814 

> <Gold.Protein.RotatedAtoms>
  151.9842  133.3768  159.4118 H   0  0  0  0  0  0  0  0  0  0  0  0  # atno 6907 bound_to 6896
  150.6930  134.4006  159.5126 H   0  0  0  0  0  0  0  0  0  0  0  0  # atno 6908 bound_to 6896
  152.1729  134.8818  160.0583 H   0  0  0  0  0  0  0  0  0  0  0  0  # atno 6909 bound_to 6896
  146.1482  140.4904  142.8622 H   0  0  0  0  0  0  0  0  0  0  0  0  # atno 7974 bound_to 7965
  155.8769  140.1002  157.1512 H   0  0  0  0  0  0  0  0  0  0  0  0  # atno 8008 bound_to 7997
  154.4001  140.1336  156.4210 H   0  0  0  0  0  0  0  0  0  0  0  0  # atno 8009 bound_to 7997
  155.7688  140.3461  155.5238 H   0  0  0  0  0  0  0  0  0  0  0  0  # atno 8010 bound_to 7997
  140.3287  144.2616  150.6171 H   0  0  0  0  0  0  0  0  0  0  0  0  # atno 10167 bound_to 10162
  157.6853  131.0699  150.5107 H   0  0  0  0  0  0  0  0  0  0  0  0  # atno 10718 bound_to 10713
  154.8546  135.3525  154.5863 H   0  0  0  0  0  0  0  0  0  0  0  0  # atno 10763 bound_to 10752
  153.6473  135.6995  153.5225 H   0  0  0  0  0  0  0  0  0  0  0  0  # atno 10764 bound_to 10752
  153.2922  135.4231  155.1135 H   0  0  0  0  0  0  0  0  0  0  0  0  # atno 10765 bound_to 10752
  140.7789  133.8378  155.9274 H   0  0  0  0  0  0  0  0  0  0  0  0  # atno 11005 bound_to 11000
  144.7872  140.5960  143.6566 LP  0  0  0  0  0  0  0  0  0  0  0  0  # atno 17320 bound_to 7965
  145.4886  139.1490  143.3722 LP  0  0  0  0  0  0  0  0  0  0  0  0  # atno 17321 bound_to 7965
  140.5417  143.2222  151.8073 LP  0  0  0  0  0  0  0  0  0  0  0  0  # atno 17342 bound_to 10162
  139.4860  144.4591  151.9562 LP  0  0  0  0  0  0  0  0  0  0  0  0  # atno 17343 bound_to 10162
  156.5425  130.4211  149.6147 LP  0  0  0  0  0  0  0  0  0  0  0  0  # atno 17370 bound_to 10713
  156.2973  130.7157  151.2021 LP  0  0  0  0  0  0  0  0  0  0  0  0  # atno 17371 bound_to 10713
  140.9501  134.1789  157.4734 LP  0  0  0  0  0  0  0  0  0  0  0  0  # atno 17394 bound_to 11000
  139.8745  134.9906  156.5509 LP  0  0  0  0  0  0  0  0  0  0  0  0  # atno 17395 bound_to 11000

$$$$
