AV-unprocessed.smi:2640|AV-procd|sdf|10270|dock2
  -GOLD-   2272014283D 1   1.00000     0.00000
 Structure written by MMmdl.
 41 42  0  0  0  0  0  0  0  0  1 V2000
  146.3279  139.2480  154.1127 O   0  0  0  0  0  0  0  0  0  0  0  0
  147.1309  139.0910  153.1935 C   0  0  0  0  0  0  0  0  0  0  0  0
  146.6620  138.5173  151.8586 C   0  0  0  0  0  0  0  0  0  0  0  0
  145.4594  137.6964  152.0217 N   0  0  0  0  0  0  0  0  0  0  0  0
  145.8004  136.2813  152.0389 C   0  0  0  0  0  0  0  0  0  0  0  0
  144.6322  135.4414  151.4953 C   0  0  0  0  0  0  0  0  0  0  0  0
  145.0318  134.0820  151.1763 N   0  0  0  0  0  0  0  0  0  0  0  0
  144.2461  133.0437  150.7220 C   0  0  0  0  0  0  0  0  0  0  0  0
  145.0576  131.9560  150.5710 C   0  0  0  0  0  0  0  0  0  0  0  0
  146.3399  132.4345  150.9606 C   0  0  0  0  0  0  0  0  0  0  0  0
  146.3212  133.7071  151.3221 N   0  0  0  0  0  0  0  0  0  0  0  0
  148.4346  139.4008  153.2863 N   0  0  0  0  0  0  0  0  0  0  0  0
  149.0990  139.9340  154.4775 C   0  0  2  0  0  0  0  0  0  0  0  0
  148.6210  139.1024  155.6897 C   0  0  0  0  0  0  0  0  0  0  0  0
  149.5795  139.1530  156.8921 C   0  0  0  0  0  0  0  0  0  0  0  0
  149.7228  140.5343  157.5489 C   0  0  0  0  0  0  0  0  0  0  0  0
  150.3154  141.6044  156.6165 C   0  0  0  0  0  0  0  0  0  0  0  0
  149.3327  142.1100  155.6669 N   0  0  0  0  0  0  0  0  0  0  0  0
  148.7182  141.4174  154.6958 C   0  0  0  0  0  0  0  0  0  0  0  0
  147.8626  141.9577  153.9947 O   0  0  0  0  0  0  0  0  0  0  0  0
  146.4599  139.3357  151.1656 H   0  0  0  0  0  0  0  0  0  0  0  0
  147.4666  137.9187  151.4285 H   0  0  0  0  0  0  0  0  0  0  0  0
  144.7949  137.8669  151.2796 H   0  0  0  0  0  0  0  0  0  0  0  0
  146.6980  136.1007  151.4451 H   0  0  0  0  0  0  0  0  0  0  0  0
  146.0235  135.9775  153.0623 H   0  0  0  0  0  0  0  0  0  0  0  0
  143.8389  135.3900  152.2418 H   0  0  0  0  0  0  0  0  0  0  0  0
  144.1960  135.9098  150.6114 H   0  0  0  0  0  0  0  0  0  0  0  0
  143.1867  133.1639  150.5495 H   0  0  0  0  0  0  0  0  0  0  0  0
  144.7781  130.9688  150.2342 H   0  0  0  0  0  0  0  0  0  0  0  0
  147.2772  131.8989  150.9915 H   0  0  0  0  0  0  0  0  0  0  0  0
  149.0181  139.2223  152.4821 H   0  0  0  0  0  0  0  0  0  0  0  0
  150.1797  139.8378  154.3585 H   0  0  0  0  0  0  0  0  0  0  0  0
  147.6152  139.3967  155.9953 H   0  0  0  0  0  0  0  0  0  0  0  0
  148.5397  138.0555  155.3921 H   0  0  0  0  0  0  0  0  0  0  0  0
  149.2284  138.4473  157.6455 H   0  0  0  0  0  0  0  0  0  0  0  0
  150.5629  138.7933  156.5860 H   0  0  0  0  0  0  0  0  0  0  0  0
  148.7604  140.8669  157.9406 H   0  0  0  0  0  0  0  0  0  0  0  0
  150.3771  140.4303  158.4150 H   0  0  0  0  0  0  0  0  0  0  0  0
  150.6496  142.4533  157.2133 H   0  0  0  0  0  0  0  0  0  0  0  0
  151.1974  141.2311  156.0939 H   0  0  0  0  0  0  0  0  0  0  0  0
  149.0685  143.0787  155.7742 H   0  0  0  0  0  0  0  0  0  0  0  0
  1  2  2  0  0  0  0
  2  3  1  0  0  0  0
  2 12  1  0  0  0  0
  3  4  1  0  0  0  0
  3 21  1  0  0  0  0
  3 22  1  0  0  0  0
  4  5  1  0  0  0  0
  4 23  1  0  0  0  0
  5  6  1  0  0  0  0
  5 24  1  0  0  0  0
  5 25  1  0  0  0  0
  6  7  1  0  0  0  0
  6 26  1  0  0  0  0
  6 27  1  0  0  0  0
  7 11  1  0  0  0  0
  7  8  1  0  0  0  0
  8  9  2  0  0  0  0
  8 28  1  0  0  0  0
  9 10  1  0  0  0  0
  9 29  1  0  0  0  0
 10 11  2  0  0  0  0
 10 30  1  0  0  0  0
 12 13  1  0  0  0  0
 12 31  1  0  0  0  0
 13 19  1  0  0  0  0
 13 14  1  0  0  0  0
 13 32  1  0  0  0  0
 14 15  1  0  0  0  0
 14 33  1  0  0  0  0
 14 34  1  0  0  0  0
 15 16  1  0  0  0  0
 15 35  1  0  0  0  0
 15 36  1  0  0  0  0
 16 17  1  0  0  0  0
 16 37  1  0  0  0  0
 16 38  1  0  0  0  0
 17 18  1  0  0  0  0
 17 39  1  0  0  0  0
 17 40  1  0  0  0  0
 18 19  1  0  0  0  0
 18 41  1  0  0  0  0
 19 20  2  0  0  0  0
M  END
> <s_m_source_file>
AV-unprocessed.smi

> <i_m_source_file_index>
2640

> <i_lp_mmshare_version>
43012

> <i_f3d_flags>
0

> <s_epik_input>
Tz1DMVtOSF1bQ0gyXVtDSDJdW0NIMl1bQ0gyXVtDQEhdMVtOSF1DKD1PKVtDSDJdW05IXVtDSDJdW0NIMl1uMltjSF1bY0hdW2NIXW4y

> <s_epik_cmdline>
J2VwaWtfcHl0aG9uJywgJy1waCcsICc3LjAnLCAnLXRuJywgJzgnLCAnLW1hJywgJzIwMCcsICctbWV0YWxfYmluZGluZycsICctaW1hZScsICc8aW5maWxlLm1hZT4nLCAnLW9tYWUnLCAnPG91dGZpbGUubWFlPic=

> <r_lp_tautomer_probability>
1

> <r_epik_Ionization_Penalty>
0.641667

> <r_epik_Ionization_Penalty_Charging>
0

> <r_epik_Ionization_Penalty_Neutral>
0.641667

> <r_epik_State_Penalty>
0.657743

> <r_epik_Charging_Adjusted_Penalty>
0.657743

> <i_epik_Tot_Q>
0

> <i_epik_Tot_abs_Q>
0

> <r_epik_Metal_State_Penalty>
0.656014

> <b_epik_Metal_Only>
0

> <s_lp_Force_Field>
OPLS_2005

> <r_lp_Energy>
11.9791

> <b_lp_Chiralities_Consistent>
1

> <s_lp_Variant>
AV-unprocessed.smi:2640-3

> <Gold.Version>
5.8.1

> <Gold.Id.Protein>
6NUR|6NUR_protein|mol2

> <Gold.PLP.Fitness>
49.9114

> <Gold.PLP.PLP>
-36.9599

> <Gold.PLP.part.hbond>
-3.5086

> <Gold.PLP.part.metal>
0.0000

> <Gold.PLP.part.buried>
-7.6295

> <Gold.PLP.part.nonpolar>
-28.5173

> <Gold.PLP.part.repulsive>
0.7252

> <Gold.PLP.ligand.clash>
0.0000

> <Gold.PLP.ligand.torsion>
1.0444

> <Gold.PLP.Chemscore.Hbond>
2.9920

> <Gold.PLP.Chemscore.CHOScore>
2.0000

> <Gold.PLP.Chemscore.Metal>
0.0000

> <Gold.Chemscore.Hbonds>
donor molecule, donor type, donor heavy atom, donor atom, acceptor molecule, acceptor atom, score
      L1  H     4    23       P1 10171  1.00
      L1  H    12    31       P1  7957  0.80
      L1  H    18    41       P1  8028  1.00
      L1  C     8    28       P1 10186  0.56
      L1  C    10    30       P1 10747  1.00

> <Gold.PLP.Chemscore.Internal.Correction>
0.0643

> <Gold.Rescore>
     Score         DG    S(hbond)    S(metal)    S(lipo)     H(rot)  DE(clash)    DE(int)     intcor
     14.18     -16.78       2.88        0.00      66.17       2.37       0.05       2.55       ----

> <Gold.Chemscore.Fitness>
14.1838

> <Gold.Chemscore.DG>
-16.7807

> <Gold.Chemscore.ZeroCoef>
-5.4800

> <Gold.Chemscore.Hbond>
2.8845

> <Gold.Chemscore.Metal>
0.0000

> <Gold.Chemscore.Lipo>
66.1680

> <Gold.Chemscore.Internal_Hbond>
0.0000

> <Gold.Chemscore.DEClash>
0.0480

> <Gold.Chemscore.DEInternal>
2.5489

> <Gold.Chemscore.Rot>
2.3732

> <Gold.Chemscore.Internal.Correction>
   9.000000E+99

> <Gold.Chemscore.Hbonds>
donor molecule, donor type, donor heavy atom, donor atom, acceptor molecule, acceptor atom, score
      L1  H     4    23       P1 10171  1.00
      L1  H    12    31       P1  7957  0.79
      L1  H    18    41       P1  8028  1.00

> <Gold.Chemscore.Hbond.Weighted>
-9.6344

> <Gold.Chemscore.Metal.Weighted>
-0.0000

> <Gold.Chemscore.Lipo.Weighted>
-7.7417

> <Gold.Chemscore.Internal_Hbond.Weighted>
0.0000

> <Gold.Chemscore.DEClash.Weighted>
0.0480

> <Gold.Chemscore.DEInternal.Weighted>
2.5489

> <Gold.Chemscore.Rot.Weighted>
6.0753

> <Gold.Chemscore.Internal.Correction.Weighted>
   9.000000E+99

> <Gold.Protein.RotatedTorsions>
[ 6907 6896 6895 6894 ] final  -52.62 input  -60.11 | X-H torsion
[ 7974 7965 7964 7962 ] final   71.53 input  175.53 | X-H torsion
[ 8008 7997 7996 7995 ] final   96.31 input   59.86 | X-H torsion
[ 10167 10162 10161 10158 ] final  117.36 input  -65.29 | X-H torsion
[ 10718 10713 10712 10709 ] final  -34.34 input   66.30 | X-H torsion
[ 10763 10752 10751 10750 ] final -161.54 input  -60.55 | X-H torsion
[ 11005 11000 10999 10996 ] final -130.70 input  -57.11 | X-H torsion

> <Gold.Protein.ActiveResidues>
 VAL166  LYS551  ARG553  GLY616  TRP617  ASP618  TYR619  PRO620  LYS621  CYS622 
 ASP623  PHE694  ASN695  SER759  ASP760  ASP761  ALA762  ILE779  LEU786  VAL792 
 PHE793  MET794  SER795  GLU796  ALA797  LYS798  CYS799  TRP800  GLU811  SER814 

> <Gold.Protein.RotatedAtoms>
  150.8501  134.7822  159.7001 H   0  0  0  0  0  0  0  0  0  0  0  0  # atno 6907 bound_to 6896
  152.4568  134.5271  159.9810 H   0  0  0  0  0  0  0  0  0  0  0  0  # atno 6908 bound_to 6896
  151.5394  133.3397  159.2968 H   0  0  0  0  0  0  0  0  0  0  0  0  # atno 6909 bound_to 6896
  145.7646  139.2816  143.1356 H   0  0  0  0  0  0  0  0  0  0  0  0  # atno 7974 bound_to 7965
  156.0782  140.3274  155.7661 H   0  0  0  0  0  0  0  0  0  0  0  0  # atno 8008 bound_to 7997
  155.5195  140.0584  157.2926 H   0  0  0  0  0  0  0  0  0  0  0  0  # atno 8009 bound_to 7997
  154.4567  140.1946  156.0376 H   0  0  0  0  0  0  0  0  0  0  0  0  # atno 8010 bound_to 7997
  139.6184  144.7096  151.2689 H   0  0  0  0  0  0  0  0  0  0  0  0  # atno 10167 bound_to 10162
  156.3518  130.4309  149.7698 H   0  0  0  0  0  0  0  0  0  0  0  0  # atno 10718 bound_to 10713
  154.7294  135.3043  154.8917 H   0  0  0  0  0  0  0  0  0  0  0  0  # atno 10763 bound_to 10752
  153.9764  135.6735  153.4752 H   0  0  0  0  0  0  0  0  0  0  0  0  # atno 10764 bound_to 10752
  153.0904  135.4962  154.8600 H   0  0  0  0  0  0  0  0  0  0  0  0  # atno 10765 bound_to 10752
  140.9323  134.1303  157.4224 H   0  0  0  0  0  0  0  0  0  0  0  0  # atno 11005 bound_to 11000
  146.0230  140.8330  142.9914 LP  0  0  0  0  0  0  0  0  0  0  0  0  # atno 17320 bound_to 7965
  144.6824  140.2656  143.7313 LP  0  0  0  0  0  0  0  0  0  0  0  0  # atno 17321 bound_to 7965
  140.7366  143.6703  150.8087 LP  0  0  0  0  0  0  0  0  0  0  0  0  # atno 17342 bound_to 10162
  140.0310  143.5444  152.2760 LP  0  0  0  0  0  0  0  0  0  0  0  0  # atno 17343 bound_to 10162
  156.4895  130.8078  151.3089 LP  0  0  0  0  0  0  0  0  0  0  0  0  # atno 17370 bound_to 10713
  157.7462  130.9980  150.2835 LP  0  0  0  0  0  0  0  0  0  0  0  0  # atno 17371 bound_to 10713
  139.8799  135.0009  156.6037 LP  0  0  0  0  0  0  0  0  0  0  0  0  # atno 17394 bound_to 11000
  140.7846  133.8632  155.8595 LP  0  0  0  0  0  0  0  0  0  0  0  0  # atno 17395 bound_to 11000

$$$$
