AV-unprocessed.smi:77|AV-procd|sdf|773|dock5
  -GOLD-   2262017123D 1   1.00000     0.00000
 Structure written by MMmdl.
 57 61  0  0  0  0  0  0  0  0  1 V2000
  152.5043  140.2190  157.1504 O   0  0  0  0  0  0  0  0  0  0  0  0
  151.4960  140.7204  157.6507 C   0  0  0  0  0  0  0  0  0  0  0  0
  150.0997  140.1619  157.3459 C   0  0  0  0  0  0  0  0  0  0  0  0
  150.1239  139.0125  156.4319 N   0  0  0  0  0  0  0  0  0  0  0  0
  149.9278  137.7725  156.9652 C   0  0  0  0  0  0  0  0  0  0  0  0
  150.6162  136.7165  156.4513 N   0  0  0  0  0  0  0  0  0  0  0  0
  150.4509  135.4860  156.9428 C   0  0  0  0  0  0  0  0  0  0  0  0
  149.6582  135.0860  157.9367 N   0  0  0  0  0  0  0  0  0  0  0  0
  148.9652  136.1341  158.4651 C   0  0  0  0  0  0  0  0  0  0  0  0
  149.0375  137.4948  158.0467 C   0  0  0  0  0  0  0  0  0  0  0  0
  148.1912  138.2659  158.8370 N   0  0  0  0  0  0  0  0  0  0  0  0
  147.6515  137.4159  159.6661 C   0  0  0  0  0  0  0  0  0  0  0  0
  148.0638  136.1130  159.5150 N   0  0  0  0  0  0  0  0  0  0  0  0
  147.6269  134.9701  160.2984 C   0  0  0  0  0  0  0  0  0  0  0  0
  146.8040  135.3586  161.5531 C   0  0  2  0  0  0  0  0  0  0  0  0
  147.7199  135.5407  162.7915 C   0  0  0  0  0  0  0  0  0  0  0  0
  148.3416  136.8085  162.8045 O   0  0  0  0  0  0  0  0  0  0  0  0
  145.6806  134.3127  161.7965 C   0  0  1  0  0  0  0  0  0  0  0  0
  144.6887  134.6457  162.8983 C   0  0  0  0  0  0  0  0  0  0  0  0
  143.5229  133.7196  162.5748 C   0  0  0  0  0  0  0  0  0  0  0  0
  143.4954  133.6305  161.1562 O   0  0  0  0  0  0  0  0  0  0  0  0
  144.7193  134.1192  160.6159 C   0  0  0  0  0  0  0  0  0  0  0  0
  149.6843  139.2520  155.0573 C   0  0  0  0  0  0  0  0  0  0  0  0
  149.4018  140.6693  154.6085 C   0  0  0  0  0  0  0  0  0  0  0  0
  148.2620  139.6995  154.8067 C   0  0  0  0  0  0  0  0  0  0  0  0
  151.5324  141.7670  158.4879 N   0  0  0  0  0  0  0  0  0  0  0  0
  152.7129  142.4427  158.9193 C   0  0  0  0  0  0  0  0  0  0  0  0
  153.1748  142.2084  160.3412 C   0  0  0  0  0  0  0  0  0  0  0  0
  152.5615  143.5281  159.9626 C   0  0  0  0  0  0  0  0  0  0  0  0
  149.5959  139.9172  158.2823 H   0  0  0  0  0  0  0  0  0  0  0  0
  149.5062  140.9594  156.8959 H   0  0  0  0  0  0  0  0  0  0  0  0
  151.0395  134.7123  156.4724 H   0  0  0  0  0  0  0  0  0  0  0  0
  146.9367  137.7182  160.4176 H   0  0  0  0  0  0  0  0  0  0  0  0
  147.0427  134.3338  159.6338 H   0  0  0  0  0  0  0  0  0  0  0  0
  148.5022  134.3877  160.5888 H   0  0  0  0  0  0  0  0  0  0  0  0
  146.3348  136.3210  161.3416 H   0  0  0  0  0  0  0  0  0  0  0  0
  147.1580  135.3966  163.7146 H   0  0  0  0  0  0  0  0  0  0  0  0
  148.5304  134.8138  162.8027 H   0  0  0  0  0  0  0  0  0  0  0  0
  148.6703  136.9723  163.6754 H   0  0  0  0  0  0  0  0  0  0  0  0
  146.1348  133.3480  162.0298 H   0  0  0  0  0  0  0  0  0  0  0  0
  145.0818  134.4744  163.9006 H   0  0  0  0  0  0  0  0  0  0  0  0
  144.3710  135.6869  162.8256 H   0  0  0  0  0  0  0  0  0  0  0  0
  143.7046  132.7242  162.9825 H   0  0  0  0  0  0  0  0  0  0  0  0
  142.5753  134.0825  162.9734 H   0  0  0  0  0  0  0  0  0  0  0  0
  144.5155  135.0702  160.1221 H   0  0  0  0  0  0  0  0  0  0  0  0
  145.1128  133.4299  159.8682 H   0  0  0  0  0  0  0  0  0  0  0  0
  150.1115  138.5898  154.3063 H   0  0  0  0  0  0  0  0  0  0  0  0
  149.5137  141.4665  155.3410 H   0  0  0  0  0  0  0  0  0  0  0  0
  149.6682  140.9335  153.5874 H   0  0  0  0  0  0  0  0  0  0  0  0
  147.7667  139.3163  153.9172 H   0  0  0  0  0  0  0  0  0  0  0  0
  147.6138  139.8642  155.6646 H   0  0  0  0  0  0  0  0  0  0  0  0
  150.6549  142.1106  158.8506 H   0  0  0  0  0  0  0  0  0  0  0  0
  153.5014  142.5922  158.1828 H   0  0  0  0  0  0  0  0  0  0  0  0
  152.5838  141.5410  160.9656 H   0  0  0  0  0  0  0  0  0  0  0  0
  154.2475  142.1869  160.5226 H   0  0  0  0  0  0  0  0  0  0  0  0
  153.2242  144.3883  159.8901 H   0  0  0  0  0  0  0  0  0  0  0  0
  151.5607  143.7423  160.3335 H   0  0  0  0  0  0  0  0  0  0  0  0
  1  2  2  0  0  0  0
  2  3  1  0  0  0  0
  2 26  1  0  0  0  0
  3  4  1  0  0  0  0
  3 30  1  0  0  0  0
  3 31  1  0  0  0  0
  4  5  1  0  0  0  0
  4 23  1  0  0  0  0
  5 10  1  0  0  0  0
  5  6  2  0  0  0  0
  6  7  1  0  0  0  0
  7  8  2  0  0  0  0
  7 32  1  0  0  0  0
  8  9  1  0  0  0  0
  9 13  1  0  0  0  0
  9 10  2  0  0  0  0
 10 11  1  0  0  0  0
 11 12  2  0  0  0  0
 12 13  1  0  0  0  0
 12 33  1  0  0  0  0
 13 14  1  0  0  0  0
 14 15  1  0  0  0  0
 14 34  1  0  0  0  0
 14 35  1  0  0  0  0
 15 16  1  0  0  0  0
 15 18  1  0  0  0  0
 15 36  1  0  0  0  0
 16 17  1  0  0  0  0
 16 37  1  0  0  0  0
 16 38  1  0  0  0  0
 17 39  1  0  0  0  0
 18 22  1  0  0  0  0
 18 19  1  0  0  0  0
 18 40  1  0  0  0  0
 19 20  1  0  0  0  0
 19 41  1  0  0  0  0
 19 42  1  0  0  0  0
 20 21  1  0  0  0  0
 20 43  1  0  0  0  0
 20 44  1  0  0  0  0
 21 22  1  0  0  0  0
 22 45  1  0  0  0  0
 22 46  1  0  0  0  0
 23 25  1  0  0  0  0
 23 24  1  0  0  0  0
 23 47  1  0  0  0  0
 24 25  1  0  0  0  0
 24 48  1  0  0  0  0
 24 49  1  0  0  0  0
 25 50  1  0  0  0  0
 25 51  1  0  0  0  0
 26 27  1  0  0  0  0
 26 52  1  0  0  0  0
 27 29  1  0  0  0  0
 27 28  1  0  0  0  0
 27 53  1  0  0  0  0
 28 29  1  0  0  0  0
 28 54  1  0  0  0  0
 28 55  1  0  0  0  0
 29 56  1  0  0  0  0
 29 57  1  0  0  0  0
M  END
> <s_m_source_file>
AV-unprocessed.smi

> <i_m_source_file_index>
77

> <i_lp_mmshare_version>
43012

> <i_f3d_flags>
0

> <s_epik_input>
W0NIMl0xW0NIMl1bQ0hdMVtOSF1DKD1PKVtDSDJdTihbQ0hdMltDSDJdW0NIMl0yKWMobltjSF1uMyljKGMzNCluW2NIXW40W0NIMl1bQ0BIXShbQ0gyXVtPSF0pW0NAQEhdNVtDSDJdW0NIMl1PW0NIMl01

> <s_epik_cmdline>
J2VwaWtfcHl0aG9uJywgJy1waCcsICc3LjAnLCAnLXRuJywgJzgnLCAnLW1hJywgJzIwMCcsICctbWV0YWxfYmluZGluZycsICctaW1hZScsICc8aW5maWxlLm1hZT4nLCAnLW9tYWUnLCAnPG91dGZpbGUubWFlPic=

> <r_lp_tautomer_probability>
1

> <r_epik_Ionization_Penalty>
0.000703847

> <r_epik_Ionization_Penalty_Charging>
0

> <r_epik_Ionization_Penalty_Neutral>
0.000703847

> <r_epik_State_Penalty>
0.00034025

> <r_epik_Charging_Adjusted_Penalty>
0.00034025

> <i_epik_Tot_Q>
0

> <i_epik_Tot_abs_Q>
0

> <r_epik_Metal_State_Penalty>
-0

> <b_epik_Metal_Only>
0

> <s_lp_Force_Field>
OPLS_2005

> <r_lp_Energy>
53.8068

> <b_lp_Chiralities_Consistent>
1

> <s_lp_Variant>
AV-unprocessed.smi:77-3

> <Gold.Version>
5.8.1

> <Gold.Id.Protein>
6NUR|6NUR_protein|mol2

> <Gold.PLP.Fitness>
47.5200

> <Gold.PLP.PLP>
-41.8963

> <Gold.PLP.part.hbond>
-4.0000

> <Gold.PLP.part.metal>
0.0000

> <Gold.PLP.part.buried>
-3.7559

> <Gold.PLP.part.nonpolar>
-34.8683

> <Gold.PLP.part.repulsive>
0.1330

> <Gold.PLP.ligand.clash>
0.0000

> <Gold.PLP.ligand.torsion>
2.3539

> <Gold.PLP.Chemscore.Hbond>
2.8360

> <Gold.PLP.Chemscore.CHOScore>
0.0000

> <Gold.PLP.Chemscore.Metal>
0.0000

> <Gold.Chemscore.Hbonds>
donor molecule, donor type, donor heavy atom, donor atom, acceptor molecule, acceptor atom, score
      P1  H  6896  6909       L1     8  0.98
      P1  H  6931  6943       L1    17  0.88
      P1  H  7997  8010       L1     1  1.00

> <Gold.PLP.Chemscore.Internal.Correction>
1.8235

> <Gold.Rescore>
     Score         DG    S(hbond)    S(metal)    S(lipo)     H(rot)  DE(clash)    DE(int)     intcor
      9.85     -13.92       1.63        0.00     101.35       3.47       1.65       2.41       ----

> <Gold.Chemscore.Fitness>
9.8537

> <Gold.Chemscore.DG>
-13.9158

> <Gold.Chemscore.ZeroCoef>
-5.4800

> <Gold.Chemscore.Hbond>
1.6348

> <Gold.Chemscore.Metal>
0.0000

> <Gold.Chemscore.Lipo>
101.3470

> <Gold.Chemscore.Internal_Hbond>
0.0000

> <Gold.Chemscore.DEClash>
1.6489

> <Gold.Chemscore.DEInternal>
2.4132

> <Gold.Chemscore.Rot>
3.4695

> <Gold.Chemscore.Internal.Correction>
   9.000000E+99

> <Gold.Chemscore.Hbonds>
donor molecule, donor type, donor heavy atom, donor atom, acceptor molecule, acceptor atom, score
      P1  H  6896  6909       L1     8  0.53
      P1  H  6931  6943       L1    17  0.20
      P1  H  7997  8010       L1     1  0.95

> <Gold.Chemscore.Hbond.Weighted>
-5.4602

> <Gold.Chemscore.Metal.Weighted>
-0.0000

> <Gold.Chemscore.Lipo.Weighted>
-11.8576

> <Gold.Chemscore.Internal_Hbond.Weighted>
0.0000

> <Gold.Chemscore.DEClash.Weighted>
1.6489

> <Gold.Chemscore.DEInternal.Weighted>
2.4132

> <Gold.Chemscore.Rot.Weighted>
8.8820

> <Gold.Chemscore.Internal.Correction.Weighted>
   9.000000E+99

> <Gold.Protein.RotatedTorsions>
[ 6907 6896 6895 6894 ] final   24.83 input  -60.11 | X-H torsion
[ 7974 7965 7964 7962 ] final  109.36 input  175.53 | X-H torsion
[ 8008 7997 7996 7995 ] final   62.08 input   59.86 | X-H torsion
[ 10167 10162 10161 10158 ] final  -66.10 input  -65.29 | X-H torsion
[ 10718 10713 10712 10709 ] final  150.85 input   66.30 | X-H torsion
[ 10763 10752 10751 10750 ] final   87.01 input  -60.55 | X-H torsion
[ 11005 11000 10999 10996 ] final  164.71 input  -57.11 | X-H torsion

> <Gold.Protein.ActiveResidues>
 VAL166  LYS551  ARG553  GLY616  TRP617  ASP618  TYR619  PRO620  LYS621  CYS622 
 ASP623  PHE694  ASN695  SER759  ASP760  ASP761  ALA762  ILE779  LEU786  VAL792 
 PHE793  MET794  SER795  GLU796  ALA797  LYS798  CYS799  TRP800  GLU811  SER814 

> <Gold.Protein.RotatedAtoms>
  151.9633  135.0113  160.0548 H   0  0  0  0  0  0  0  0  0  0  0  0  # atno 6907 bound_to 6896
  152.1849  133.4728  159.4985 H   0  0  0  0  0  0  0  0  0  0  0  0  # atno 6908 bound_to 6896
  150.6924  134.1704  159.4253 H   0  0  0  0  0  0  0  0  0  0  0  0  # atno 6909 bound_to 6896
  145.2688  139.2674  143.3977 H   0  0  0  0  0  0  0  0  0  0  0  0  # atno 7974 bound_to 7965
  155.6086  140.3494  155.4615 H   0  0  0  0  0  0  0  0  0  0  0  0  # atno 8008 bound_to 7997
  156.0172  140.1246  157.0419 H   0  0  0  0  0  0  0  0  0  0  0  0  # atno 8009 bound_to 7997
  154.4302  140.1070  156.5898 H   0  0  0  0  0  0  0  0  0  0  0  0  # atno 8010 bound_to 7997
  140.5682  143.2316  151.6592 H   0  0  0  0  0  0  0  0  0  0  0  0  # atno 10167 bound_to 10162
  157.2782  131.0830  151.1551 H   0  0  0  0  0  0  0  0  0  0  0  0  # atno 10718 bound_to 10713
  153.1626  135.4559  154.9793 H   0  0  0  0  0  0  0  0  0  0  0  0  # atno 10763 bound_to 10752
  154.7908  135.3220  154.7783 H   0  0  0  0  0  0  0  0  0  0  0  0  # atno 10764 bound_to 10752
  153.8270  135.6942  153.4874 H   0  0  0  0  0  0  0  0  0  0  0  0  # atno 10765 bound_to 10752
  140.2487  134.7994  157.3481 H   0  0  0  0  0  0  0  0  0  0  0  0  # atno 11005 bound_to 11000
  146.3253  140.3126  142.8628 LP  0  0  0  0  0  0  0  0  0  0  0  0  # atno 17320 bound_to 7965
  144.9353  140.8019  143.5664 LP  0  0  0  0  0  0  0  0  0  0  0  0  # atno 17321 bound_to 7965
  139.5103  144.3545  152.0620 LP  0  0  0  0  0  0  0  0  0  0  0  0  # atno 17342 bound_to 10162
  140.2680  144.3995  150.6161 LP  0  0  0  0  0  0  0  0  0  0  0  0  # atno 17343 bound_to 10162
  157.2996  130.6836  149.6157 LP  0  0  0  0  0  0  0  0  0  0  0  0  # atno 17370 bound_to 10713
  155.9664  130.4396  150.5266 LP  0  0  0  0  0  0  0  0  0  0  0  0  # atno 17371 bound_to 10713
  140.1580  134.4765  155.7914 LP  0  0  0  0  0  0  0  0  0  0  0  0  # atno 17394 bound_to 11000
  141.2203  133.6889  156.7494 LP  0  0  0  0  0  0  0  0  0  0  0  0  # atno 17395 bound_to 11000

$$$$
