AV-unprocessed.smi:1538|AV-procd|sdf|6194|dock3
  -GOLD-   22720 6363D 1   1.00000     0.00000
 Structure written by MMmdl.
 36 37  0  0  0  0  0  0  0  0  1 V2000
  148.6398  136.2892  155.9081 C   0  0  0  0  0  0  0  0  0  0  0  0
  149.5884  137.3451  155.5494 N   0  0  0  0  0  0  0  0  0  0  0  0
  149.1600  138.7056  155.8974 C   0  0  0  0  0  0  0  0  0  0  0  0
  149.9005  139.7910  155.1051 C   0  0  0  0  0  0  0  0  0  0  0  0
  151.4197  139.5683  155.1198 C   0  0  1  0  0  0  0  0  0  0  0  0
  152.0428  139.8860  156.4895 C   0  0  0  0  0  0  0  0  0  0  0  0
  153.1613  139.4603  156.7797 O   0  0  0  0  0  0  0  0  0  0  0  0
  151.2977  140.6220  157.3293 N   0  0  0  0  0  0  0  0  0  0  0  0
  151.6542  140.9416  158.7089 C   0  0  0  0  0  0  0  0  0  0  0  0
  152.6484  142.1161  158.7859 C   0  0  0  0  0  0  0  0  0  0  0  0
  151.9925  143.3912  159.0126 N   0  0  0  0  0  0  0  0  0  0  0  0
  151.0491  144.0059  158.2001 C   0  0  0  0  0  0  0  0  0  0  0  0
  150.7268  145.1994  158.8062 C   0  0  0  0  0  0  0  0  0  0  0  0
  151.4490  145.3352  159.9895 N   0  0  0  0  0  0  0  0  0  0  0  0
  152.1728  144.2250  160.0466 C   0  0  0  0  0  0  0  0  0  0  0  0
  151.7793  138.1496  154.6217 C   0  0  0  0  0  0  0  0  0  0  0  0
  150.7831  137.0329  154.9905 C   0  0  0  0  0  0  0  0  0  0  0  0
  151.1094  135.8711  154.7447 O   0  0  0  0  0  0  0  0  0  0  0  0
  149.1179  135.5306  156.5301 H   0  0  0  0  0  0  0  0  0  0  0  0
  148.2545  135.8031  155.0110 H   0  0  0  0  0  0  0  0  0  0  0  0
  147.7881  136.6738  156.4700 H   0  0  0  0  0  0  0  0  0  0  0  0
  148.0886  138.8166  155.7245 H   0  0  0  0  0  0  0  0  0  0  0  0
  149.3134  138.8490  156.9676 H   0  0  0  0  0  0  0  0  0  0  0  0
  149.5501  139.7826  154.0720 H   0  0  0  0  0  0  0  0  0  0  0  0
  149.6499  140.7764  155.5006 H   0  0  0  0  0  0  0  0  0  0  0  0
  151.8563  140.2736  154.4105 H   0  0  0  0  0  0  0  0  0  0  0  0
  150.3955  140.9402  157.0064 H   0  0  0  0  0  0  0  0  0  0  0  0
  150.7672  141.1487  159.3099 H   0  0  0  0  0  0  0  0  0  0  0  0
  152.1129  140.0540  159.1448 H   0  0  0  0  0  0  0  0  0  0  0  0
  153.3549  141.9508  159.5997 H   0  0  0  0  0  0  0  0  0  0  0  0
  153.2363  142.1783  157.8691 H   0  0  0  0  0  0  0  0  0  0  0  0
  150.7022  143.5603  157.2796 H   0  0  0  0  0  0  0  0  0  0  0  0
  150.0359  145.9645  158.4842 H   0  0  0  0  0  0  0  0  0  0  0  0
  152.8594  144.0189  160.8546 H   0  0  0  0  0  0  0  0  0  0  0  0
  151.8366  138.1691  153.5328 H   0  0  0  0  0  0  0  0  0  0  0  0
  152.7753  137.8593  154.9602 H   0  0  0  0  0  0  0  0  0  0  0  0
  1  2  1  0  0  0  0
  1 19  1  0  0  0  0
  1 20  1  0  0  0  0
  1 21  1  0  0  0  0
  2 17  1  0  0  0  0
  2  3  1  0  0  0  0
  3  4  1  0  0  0  0
  3 22  1  0  0  0  0
  3 23  1  0  0  0  0
  4  5  1  0  0  0  0
  4 24  1  0  0  0  0
  4 25  1  0  0  0  0
  5  6  1  0  0  0  0
  5 16  1  0  0  0  0
  5 26  1  0  0  0  0
  6  7  2  0  0  0  0
  6  8  1  0  0  0  0
  8  9  1  0  0  0  0
  8 27  1  0  0  0  0
  9 10  1  0  0  0  0
  9 28  1  0  0  0  0
  9 29  1  0  0  0  0
 10 11  1  0  0  0  0
 10 30  1  0  0  0  0
 10 31  1  0  0  0  0
 11 15  1  0  0  0  0
 11 12  1  0  0  0  0
 12 13  2  0  0  0  0
 12 32  1  0  0  0  0
 13 14  1  0  0  0  0
 13 33  1  0  0  0  0
 14 15  2  0  0  0  0
 15 34  1  0  0  0  0
 16 17  1  0  0  0  0
 16 35  1  0  0  0  0
 16 36  1  0  0  0  0
 17 18  2  0  0  0  0
M  END
> <s_m_source_file>
AV-unprocessed.smi

> <i_m_source_file_index>
1538

> <i_lp_mmshare_version>
43012

> <i_f3d_flags>
0

> <s_epik_input>
W0NIM11OMVtDSDJdW0NIMl1bQ0BIXShbQ0gyXUMxPU8pQyg9TylbTkhdW0NIMl1bQ0gyXW4yW2NIXVtjSF1uW2NIXTI=

> <s_epik_cmdline>
J2VwaWtfcHl0aG9uJywgJy1waCcsICc3LjAnLCAnLXRuJywgJzgnLCAnLW1hJywgJzIwMCcsICctbWV0YWxfYmluZGluZycsICctaW1hZScsICc8aW5maWxlLm1hZT4nLCAnLW9tYWUnLCAnPG91dGZpbGUubWFlPic=

> <r_lp_tautomer_probability>
1

> <r_epik_Ionization_Penalty>
0.590576

> <r_epik_Ionization_Penalty_Charging>
0.590576

> <r_epik_Ionization_Penalty_Neutral>
2.97775e-08

> <r_epik_State_Penalty>
0.604111

> <r_epik_Charging_Adjusted_Penalty>
1.19469

> <i_epik_Tot_Q>
0

> <i_epik_Tot_abs_Q>
0

> <r_epik_Metal_State_Penalty>
0.298544

> <b_epik_Metal_Only>
0

> <s_lp_Force_Field>
OPLS_2005

> <r_lp_Energy>
13.4422

> <b_lp_Chiralities_Consistent>
1

> <s_lp_Variant>
AV-unprocessed.smi:1538-3

> <Gold.Version>
5.8.1

> <Gold.Id.Protein>
6NUR|6NUR_protein|mol2

> <Gold.PLP.Fitness>
41.6004

> <Gold.PLP.PLP>
-33.1266

> <Gold.PLP.part.hbond>
-1.7360

> <Gold.PLP.part.metal>
0.0000

> <Gold.PLP.part.buried>
-4.6277

> <Gold.PLP.part.nonpolar>
-28.5048

> <Gold.PLP.part.repulsive>
0.4059

> <Gold.PLP.ligand.clash>
0.0000

> <Gold.PLP.ligand.torsion>
0.9588

> <Gold.PLP.Chemscore.Hbond>
1.9913

> <Gold.PLP.Chemscore.CHOScore>
1.4538

> <Gold.PLP.Chemscore.Metal>
0.0000

> <Gold.Chemscore.Hbonds>
donor molecule, donor type, donor heavy atom, donor atom, acceptor molecule, acceptor atom, score
      P1  H  7997  8009       L1     7  0.78
      P1  H 10752 10763       L1    18  1.00
      L1  C    12    32       P1  8028  0.53
      L1  C    13    33       P1  8029  1.00

> <Gold.PLP.Chemscore.Internal.Correction>
0.0563

> <Gold.Rescore>
     Score         DG    S(hbond)    S(metal)    S(lipo)     H(rot)  DE(clash)    DE(int)     intcor
     13.26     -14.47       1.94        0.00      64.74       1.98       0.16       1.05       ----

> <Gold.Chemscore.Fitness>
13.2557

> <Gold.Chemscore.DG>
-14.4663

> <Gold.Chemscore.ZeroCoef>
-5.4800

> <Gold.Chemscore.Hbond>
1.9389

> <Gold.Chemscore.Metal>
0.0000

> <Gold.Chemscore.Lipo>
64.7411

> <Gold.Chemscore.Internal_Hbond>
0.0000

> <Gold.Chemscore.DEClash>
0.1603

> <Gold.Chemscore.DEInternal>
1.0502

> <Gold.Chemscore.Rot>
1.9782

> <Gold.Chemscore.Internal.Correction>
   9.000000E+99

> <Gold.Chemscore.Hbonds>
donor molecule, donor type, donor heavy atom, donor atom, acceptor molecule, acceptor atom, score
      P1  H  7997  8009       L1     7  0.72
      P1  H 10752 10763       L1    18  0.93

> <Gold.Chemscore.Hbond.Weighted>
-6.4758

> <Gold.Chemscore.Metal.Weighted>
-0.0000

> <Gold.Chemscore.Lipo.Weighted>
-7.5747

> <Gold.Chemscore.Internal_Hbond.Weighted>
0.0000

> <Gold.Chemscore.DEClash.Weighted>
0.1603

> <Gold.Chemscore.DEInternal.Weighted>
1.0502

> <Gold.Chemscore.Rot.Weighted>
5.0643

> <Gold.Chemscore.Internal.Correction.Weighted>
   9.000000E+99

> <Gold.Protein.RotatedTorsions>
[ 6907 6896 6895 6894 ] final  -93.73 input  -60.11 | X-H torsion
[ 7974 7965 7964 7962 ] final -163.24 input  175.53 | X-H torsion
[ 8008 7997 7996 7995 ] final -157.94 input   59.86 | X-H torsion
[ 10167 10162 10161 10158 ] final  162.72 input  -65.29 | X-H torsion
[ 10718 10713 10712 10709 ] final -176.75 input   66.30 | X-H torsion
[ 10763 10752 10751 10750 ] final   53.65 input  -60.55 | X-H torsion
[ 11005 11000 10999 10996 ] final  129.83 input  -57.11 | X-H torsion

> <Gold.Protein.ActiveResidues>
 VAL166  LYS551  ARG553  GLY616  TRP617  ASP618  TYR619  PRO620  LYS621  CYS622 
 ASP623  PHE694  ASN695  SER759  ASP760  ASP761  ALA762  ILE779  LEU786  VAL792 
 PHE793  MET794  SER795  GLU796  ALA797  LYS798  CYS799  TRP800  GLU811  SER814 

> <Gold.Protein.RotatedAtoms>
  150.6928  134.1922  159.4289 H   0  0  0  0  0  0  0  0  0  0  0  0  # atno 6907 bound_to 6896
  151.9892  134.9986  160.0570 H   0  0  0  0  0  0  0  0  0  0  0  0  # atno 6908 bound_to 6896
  152.1683  133.4592  159.4933 H   0  0  0  0  0  0  0  0  0  0  0  0  # atno 6909 bound_to 6896
  144.7332  140.3136  143.6183 H   0  0  0  0  0  0  0  0  0  0  0  0  # atno 7974 bound_to 7965
  155.7400  140.0813  157.2250 H   0  0  0  0  0  0  0  0  0  0  0  0  # atno 8008 bound_to 7997
  154.4023  140.1579  156.2661 H   0  0  0  0  0  0  0  0  0  0  0  0  # atno 8009 bound_to 7997
  155.9029  140.3408  155.6042 H   0  0  0  0  0  0  0  0  0  0  0  0  # atno 8010 bound_to 7997
  139.4864  144.4409  151.8953 H   0  0  0  0  0  0  0  0  0  0  0  0  # atno 10167 bound_to 10162
  156.8192  130.9614  151.3112 H   0  0  0  0  0  0  0  0  0  0  0  0  # atno 10718 bound_to 10713
  152.9797  135.5772  154.4776 H   0  0  0  0  0  0  0  0  0  0  0  0  # atno 10763 bound_to 10752
  154.4329  135.2774  155.1902 H   0  0  0  0  0  0  0  0  0  0  0  0  # atno 10764 bound_to 10752
  154.3603  135.6190  153.5741 H   0  0  0  0  0  0  0  0  0  0  0  0  # atno 10765 bound_to 10752
  139.9637  134.9596  156.9205 H   0  0  0  0  0  0  0  0  0  0  0  0  # atno 11005 bound_to 11000
  145.7640  139.1834  143.2251 LP  0  0  0  0  0  0  0  0  0  0  0  0  # atno 17320 bound_to 7965
  146.0964  140.7596  142.9570 LP  0  0  0  0  0  0  0  0  0  0  0  0  # atno 17321 bound_to 7965
  140.3861  144.2675  150.5904 LP  0  0  0  0  0  0  0  0  0  0  0  0  # atno 17342 bound_to 10162
  140.5189  143.2271  151.8419 LP  0  0  0  0  0  0  0  0  0  0  0  0  # atno 17343 bound_to 10162
  157.6465  130.8849  149.9549 LP  0  0  0  0  0  0  0  0  0  0  0  0  # atno 17370 bound_to 10713
  156.0998  130.3656  150.0238 LP  0  0  0  0  0  0  0  0  0  0  0  0  # atno 17371 bound_to 10713
  140.5443  134.0689  155.7350 LP  0  0  0  0  0  0  0  0  0  0  0  0  # atno 17394 bound_to 11000
  141.1316  133.9292  157.2523 LP  0  0  0  0  0  0  0  0  0  0  0  0  # atno 17395 bound_to 11000

$$$$
