AV-unprocessed.smi:44|AV-procd|sdf|400|dock6
  -GOLD-   2262016253D 1   1.00000     0.00000
 Structure written by MMmdl.
 29 31  0  0  0  0  0  0  0  0  3 V2000
  149.5992  141.4393  154.0285 O   0  0  0  0  0  0  0  0  0  0  0  0
  150.2486  140.7654  154.8255 C   0  0  0  0  0  0  0  0  0  0  0  0
  150.7139  139.4847  154.6654 N   0  5  0  0  0  0  0  0  0  0  0  0
  151.4405  138.8399  155.6606 C   0  0  0  0  0  0  0  0  0  0  0  0
  151.7719  139.3055  156.8127 N   0  0  0  0  0  0  0  0  0  0  0  0
  151.3406  140.6152  157.0710 C   0  0  0  0  0  0  0  0  0  0  0  0
  150.6154  141.3466  156.1594 C   0  0  0  0  0  0  0  0  0  0  0  0
  150.3335  142.5809  156.6806 N   0  3  0  0  0  0  0  0  0  0  0  0
  150.9009  142.5419  157.8862 C   0  0  0  0  0  0  0  0  0  0  0  0
  151.5354  141.3723  158.1983 N   0  0  0  0  0  0  0  0  0  0  0  0
  152.2542  141.0413  159.4637 C   0  0  2  0  0  0  0  0  0  0  0  0
  152.3499  142.2800  160.3619 C   0  0  0  0  0  0  0  0  0  0  0  0
  153.7751  142.1851  160.8606 C   0  0  0  0  0  0  0  0  0  0  0  0
  154.4844  141.6140  159.6341 C   0  0  1  0  0  0  0  0  0  0  0  0
  155.8353  140.9483  159.9308 C   0  0  0  0  0  0  0  0  0  0  0  0
  156.2844  140.2361  158.7981 O   0  0  0  0  0  0  0  0  0  0  0  0
  153.5583  140.6496  159.1444 O   0  0  0  0  0  0  0  0  0  0  0  0
  149.8192  143.3405  156.2534 H   0  0  0  0  0  0  0  0  0  0  0  0
  151.7015  140.2117  159.9064 H   0  0  0  0  0  0  0  0  0  0  0  0
  154.6034  142.3908  158.8767 H   0  0  0  0  0  0  0  0  0  0  0  0
  151.7298  137.8287  155.3637 H   0  0  0  0  0  0  0  0  0  0  0  0
  150.8638  143.3715  158.5683 H   0  0  0  0  0  0  0  0  0  0  0  0
  152.2116  143.1895  159.7749 H   0  0  0  0  0  0  0  0  0  0  0  0
  151.6031  142.2504  161.1557 H   0  0  0  0  0  0  0  0  0  0  0  0
  154.1803  143.1459  161.1788 H   0  0  0  0  0  0  0  0  0  0  0  0
  153.8349  141.4912  161.7006 H   0  0  0  0  0  0  0  0  0  0  0  0
  156.5825  141.6878  160.2198 H   0  0  0  0  0  0  0  0  0  0  0  0
  155.7348  140.2479  160.7603 H   0  0  0  0  0  0  0  0  0  0  0  0
  156.9652  139.6391  159.0690 H   0  0  0  0  0  0  0  0  0  0  0  0
  1  2  2  0  0  0  0
  2  7  1  0  0  0  0
  2  3  1  0  0  0  0
  3  4  1  0  0  0  0
  4 21  1  0  0  0  0
  4  5  2  0  0  0  0
  5  6  1  0  0  0  0
  6 10  1  0  0  0  0
  6  7  2  0  0  0  0
  7  8  1  0  0  0  0
  8  9  2  0  0  0  0
  8 18  1  0  0  0  0
  9 10  1  0  0  0  0
  9 22  1  0  0  0  0
 10 11  1  0  0  0  0
 11 19  1  0  0  0  0
 11 17  1  0  0  0  0
 11 12  1  0  0  0  0
 12 13  1  0  0  0  0
 12 23  1  0  0  0  0
 12 24  1  0  0  0  0
 13 14  1  0  0  0  0
 13 25  1  0  0  0  0
 13 26  1  0  0  0  0
 14 20  1  0  0  0  0
 14 15  1  0  0  0  0
 14 17  1  0  0  0  0
 15 16  1  0  0  0  0
 15 27  1  0  0  0  0
 15 28  1  0  0  0  0
 16 29  1  0  0  0  0
M  CHG  1   3  -1
M  CHG  1   8   1
M  END
> <s_m_source_file>
AV-unprocessed.smi

> <i_m_source_file_index>
44

> <i_lp_mmshare_version>
43012

> <i_f3d_flags>
0

> <s_epik_input>
bjFbY0hdW25IXWMoPU8pYyhjMTIpbltjSF1uMltDQEhdM1tDSDJdW0NIMl1bQ0BIXShPMylbQ0gyXVtPSF0=

> <s_epik_cmdline>
J2VwaWtfcHl0aG9uJywgJy1waCcsICc3LjAnLCAnLXRuJywgJzgnLCAnLW1hJywgJzIwMCcsICctbWV0YWxfYmluZGluZycsICctaW1hZScsICc8aW5maWxlLm1hZT4nLCAnLW9tYWUnLCAnPG91dGZpbGUubWFlPic=

> <r_lp_tautomer_probability>
0.144281

> <r_epik_Ionization_Penalty>
5.63685

> <r_epik_Ionization_Penalty_Charging>
5.58669

> <r_epik_Ionization_Penalty_Neutral>
0.0501585

> <r_epik_State_Penalty>
1.20809

> <r_epik_Charging_Adjusted_Penalty>
6.79478

> <i_epik_Tot_Q>
0

> <i_epik_Tot_abs_Q>
2

> <r_epik_Metal_State_Penalty>
1.52487

> <b_epik_Metal_Only>
0

> <s_epik_Chemistry_Notes>
This compound contains an acetal/aminal-like group ( X-CH(R)-Y where X, Y are N, S, or O) that may be acid/base labile, releasing an aldehyde.

> <s_lp_Force_Field>
OPLS_2005

> <r_lp_Energy>
45.8443

> <b_lp_Chiralities_Consistent>
1

> <s_lp_Variant>
AV-unprocessed.smi:44-6

> <Gold.Version>
5.8.1

> <Gold.Id.Protein>
6NUR|6NUR_protein|mol2

> <Gold.PLP.Fitness>
41.3622

> <Gold.PLP.PLP>
-30.4836

> <Gold.PLP.part.hbond>
-4.0000

> <Gold.PLP.part.metal>
0.0000

> <Gold.PLP.part.buried>
-2.7720

> <Gold.PLP.part.nonpolar>
-23.1345

> <Gold.PLP.part.repulsive>
0.3426

> <Gold.PLP.ligand.clash>
0.0000

> <Gold.PLP.ligand.torsion>
0.1128

> <Gold.PLP.Chemscore.Hbond>
3.6978

> <Gold.PLP.Chemscore.CHOScore>
0.0000

> <Gold.PLP.Chemscore.Metal>
0.0000

> <Gold.Chemscore.Hbonds>
donor molecule, donor type, donor heavy atom, donor atom, acceptor molecule, acceptor atom, score
      L1  H     8    18       P1  8028  2.00
      P1  H  7997  8010       L1    16  0.94
      P1  H  8011  8017       L1     1  0.69

> <Gold.PLP.Chemscore.Internal.Correction>
0.0106

> <Gold.Rescore>
     Score         DG    S(hbond)    S(metal)    S(lipo)     H(rot)  DE(clash)    DE(int)     intcor
     13.46     -13.70       2.58        0.00      46.48       2.27       0.17       0.08       ----

> <Gold.Chemscore.Fitness>
13.4619

> <Gold.Chemscore.DG>
-13.7043

> <Gold.Chemscore.ZeroCoef>
-5.4800

> <Gold.Chemscore.Hbond>
2.5757

> <Gold.Chemscore.Metal>
0.0000

> <Gold.Chemscore.Lipo>
46.4789

> <Gold.Chemscore.Internal_Hbond>
0.0000

> <Gold.Chemscore.DEClash>
0.1654

> <Gold.Chemscore.DEInternal>
0.0770

> <Gold.Chemscore.Rot>
2.2720

> <Gold.Chemscore.Internal.Correction>
   9.000000E+99

> <Gold.Chemscore.Hbonds>
donor molecule, donor type, donor heavy atom, donor atom, acceptor molecule, acceptor atom, score
      L1  H     8    18       P1  8028  1.00
      P1  H  7997  8010       L1    16  0.83
      P1  H  8011  8017       L1     1  0.67

> <Gold.Chemscore.Hbond.Weighted>
-8.6027

> <Gold.Chemscore.Metal.Weighted>
-0.0000

> <Gold.Chemscore.Lipo.Weighted>
-5.4380

> <Gold.Chemscore.Internal_Hbond.Weighted>
0.0000

> <Gold.Chemscore.DEClash.Weighted>
0.1654

> <Gold.Chemscore.DEInternal.Weighted>
0.0770

> <Gold.Chemscore.Rot.Weighted>
5.8164

> <Gold.Chemscore.Internal.Correction.Weighted>
   9.000000E+99

> <Gold.Protein.RotatedTorsions>
[ 6907 6896 6895 6894 ] final  -97.30 input  -60.11 | X-H torsion
[ 7974 7965 7964 7962 ] final   93.52 input  175.53 | X-H torsion
[ 8008 7997 7996 7995 ] final  -38.21 input   59.86 | X-H torsion
[ 10167 10162 10161 10158 ] final  -24.86 input  -65.29 | X-H torsion
[ 10718 10713 10712 10709 ] final  -30.90 input   66.30 | X-H torsion
[ 10763 10752 10751 10750 ] final   98.83 input  -60.55 | X-H torsion
[ 11005 11000 10999 10996 ] final -139.95 input  -57.11 | X-H torsion

> <Gold.Protein.ActiveResidues>
 VAL166  LYS551  ARG553  GLY616  TRP617  ASP618  TYR619  PRO620  LYS621  CYS622 
 ASP623  PHE694  ASN695  SER759  ASP760  ASP761  ALA762  ILE779  LEU786  VAL792 
 PHE793  MET794  SER795  GLU796  ALA797  LYS798  CYS799  TRP800  GLU811  SER814 

> <Gold.Protein.RotatedAtoms>
  150.7012  134.1370  159.4090 H   0  0  0  0  0  0  0  0  0  0  0  0  # atno 6907 bound_to 6896
  151.9355  135.0235  160.0541 H   0  0  0  0  0  0  0  0  0  0  0  0  # atno 6908 bound_to 6896
  152.2139  133.4897  159.5162 H   0  0  0  0  0  0  0  0  0  0  0  0  # atno 6909 bound_to 6896
  145.4778  139.2279  143.2899 H   0  0  0  0  0  0  0  0  0  0  0  0  # atno 7974 bound_to 7965
  154.4040  140.1584  156.2662 H   0  0  0  0  0  0  0  0  0  0  0  0  # atno 8008 bound_to 7997
  155.8993  140.3434  155.5992 H   0  0  0  0  0  0  0  0  0  0  0  0  # atno 8009 bound_to 7997
  155.7467  140.0799  157.2211 H   0  0  0  0  0  0  0  0  0  0  0  0  # atno 8010 bound_to 7997
  140.7287  143.4316  151.0794 H   0  0  0  0  0  0  0  0  0  0  0  0  # atno 10167 bound_to 10162
  156.3939  130.4378  149.7373 H   0  0  0  0  0  0  0  0  0  0  0  0  # atno 10718 bound_to 10713
  153.2938  135.4135  155.1191 H   0  0  0  0  0  0  0  0  0  0  0  0  # atno 10763 bound_to 10752
  154.8529  135.3525  154.5944 H   0  0  0  0  0  0  0  0  0  0  0  0  # atno 10764 bound_to 10752
  153.6368  135.7058  153.5314 H   0  0  0  0  0  0  0  0  0  0  0  0  # atno 10765 bound_to 10752
  140.8470  134.2332  157.4780 H   0  0  0  0  0  0  0  0  0  0  0  0  # atno 11005 bound_to 11000
  146.2359  140.5562  142.8955 LP  0  0  0  0  0  0  0  0  0  0  0  0  # atno 17320 bound_to 7965
  144.7907  140.6025  143.6543 LP  0  0  0  0  0  0  0  0  0  0  0  0  # atno 17321 bound_to 7965
  139.7973  143.8133  152.3159 LP  0  0  0  0  0  0  0  0  0  0  0  0  # atno 17342 bound_to 10162
  139.8138  144.7325  150.9662 LP  0  0  0  0  0  0  0  0  0  0  0  0  # atno 17343 bound_to 10162
  156.4416  130.7863  151.2885 LP  0  0  0  0  0  0  0  0  0  0  0  0  # atno 17370 bound_to 10713
  157.7500  131.0123  150.3380 LP  0  0  0  0  0  0  0  0  0  0  0  0  # atno 17371 bound_to 10713
  139.8703  134.9664  156.4561 LP  0  0  0  0  0  0  0  0  0  0  0  0  # atno 17394 bound_to 11000
  140.8832  133.7902  155.9490 LP  0  0  0  0  0  0  0  0  0  0  0  0  # atno 17395 bound_to 11000

$$$$
