AV-unprocessed.smi:149|AV-procd|sdf|1234|dock1
  -GOLD-   2262018443D 1   1.00000     0.00000
 Structure written by MMmdl.
 60 64  0  0  0  0  0  0  0  0  2 V2000
  146.4156  142.6133  153.8790 C   0  0  0  0  0  0  0  0  0  0  0  0
  147.4073  141.4611  154.1325 C   0  0  2  0  0  0  0  0  0  0  0  0
  146.7560  140.1151  153.7612 C   0  0  0  0  0  0  0  0  0  0  0  0
  147.0612  139.1863  154.8354 N   0  0  0  0  0  0  0  0  0  0  0  0
  147.0165  137.8425  154.6325 C   0  0  0  0  0  0  0  0  0  0  0  0
  147.6386  137.0299  155.5277 N   0  0  0  0  0  0  0  0  0  0  0  0
  147.6198  135.7040  155.3704 C   0  0  0  0  0  0  0  0  0  0  0  0
  147.0421  134.9892  154.4054 N   0  0  0  0  0  0  0  0  0  0  0  0
  146.4037  135.7904  153.5056 C   0  0  0  0  0  0  0  0  0  0  0  0
  146.3397  137.2142  153.5441 C   0  0  0  0  0  0  0  0  0  0  0  0
  145.5916  137.6749  152.4662 N   0  0  0  0  0  0  0  0  0  0  0  0
  145.2430  136.5929  151.8266 C   0  0  0  0  0  0  0  0  0  0  0  0
  145.6885  135.4140  152.3793 N   0  0  0  0  0  0  0  0  0  0  0  0
  145.4454  134.0908  151.8745 C   0  0  0  0  0  0  0  0  0  0  0  0
  145.9036  133.6736  150.4745 C   0  0  0  0  0  0  0  0  0  0  0  0
  144.6635  132.7560  150.3544 C   0  0  0  0  0  0  0  0  0  0  0  0
  143.9303  132.7355  148.9982 C   0  0  0  0  0  0  0  0  0  0  0  0
  142.7102  132.0229  149.0516 O   0  0  0  0  0  0  0  0  0  0  0  0
  144.8838  131.2910  150.7759 C   0  0  0  0  0  0  0  0  0  0  0  0
  146.0072  131.1540  151.6228 O   0  0  0  0  0  0  0  0  0  0  0  0
  144.0415  133.6403  151.4608 C   0  0  0  0  0  0  0  0  0  0  0  0
  148.0499  139.7747  155.7182 C   0  0  0  0  0  0  0  0  0  0  0  0
  147.8561  141.2924  155.6055 C   0  0  1  0  0  0  0  0  0  0  0  0
  149.1089  142.0133  155.9967 N   0  3  0  0  0  0  0  0  0  0  0  0
  149.5035  141.9271  157.4253 C   0  0  0  0  0  0  0  0  0  0  0  0
  150.0979  140.5448  157.7530 C   0  0  0  0  0  0  0  0  0  0  0  0
  151.2274  140.3133  156.9195 O   0  0  0  0  0  0  0  0  0  0  0  0
  150.8901  140.3161  155.5370 C   0  0  0  0  0  0  0  0  0  0  0  0
  150.2842  141.6801  155.1480 C   0  0  0  0  0  0  0  0  0  0  0  0
  145.5240  142.5074  154.4979 H   0  0  0  0  0  0  0  0  0  0  0  0
  146.0918  142.6188  152.8378 H   0  0  0  0  0  0  0  0  0  0  0  0
  146.8373  143.5941  154.0846 H   0  0  0  0  0  0  0  0  0  0  0  0
  148.2884  141.5876  153.5016 H   0  0  0  0  0  0  0  0  0  0  0  0
  145.6722  140.2085  153.6818 H   0  0  0  0  0  0  0  0  0  0  0  0
  147.1334  139.7546  152.8033 H   0  0  0  0  0  0  0  0  0  0  0  0
  148.1407  135.1338  156.1254 H   0  0  0  0  0  0  0  0  0  0  0  0
  144.6454  136.6284  150.9270 H   0  0  0  0  0  0  0  0  0  0  0  0
  145.8516  133.3988  152.6147 H   0  0  0  0  0  0  0  0  0  0  0  0
  145.9029  134.5011  149.7642 H   0  0  0  0  0  0  0  0  0  0  0  0
  146.8632  133.1561  150.4563 H   0  0  0  0  0  0  0  0  0  0  0  0
  143.7032  133.7464  148.6589 H   0  0  0  0  0  0  0  0  0  0  0  0
  144.5518  132.2775  148.2281 H   0  0  0  0  0  0  0  0  0  0  0  0
  142.0514  132.5819  149.4338 H   0  0  0  0  0  0  0  0  0  0  0  0
  144.0172  130.8986  151.3085 H   0  0  0  0  0  0  0  0  0  0  0  0
  145.0217  130.6492  149.9051 H   0  0  0  0  0  0  0  0  0  0  0  0
  145.8458  131.6396  152.4174 H   0  0  0  0  0  0  0  0  0  0  0  0
  143.5035  133.0914  152.2342 H   0  0  0  0  0  0  0  0  0  0  0  0
  143.4307  134.4591  151.0797 H   0  0  0  0  0  0  0  0  0  0  0  0
  147.9118  139.4264  156.7423 H   0  0  0  0  0  0  0  0  0  0  0  0
  149.0468  139.4819  155.3841 H   0  0  0  0  0  0  0  0  0  0  0  0
  147.0304  141.5876  156.2538 H   0  0  0  0  0  0  0  0  0  0  0  0
  150.2654  142.6857  157.6100 H   0  0  0  0  0  0  0  0  0  0  0  0
  148.6834  142.1890  158.0898 H   0  0  0  0  0  0  0  0  0  0  0  0
  150.4182  140.5122  158.7944 H   0  0  0  0  0  0  0  0  0  0  0  0
  149.3629  139.7497  157.6219 H   0  0  0  0  0  0  0  0  0  0  0  0
  151.7946  140.1319  154.9570 H   0  0  0  0  0  0  0  0  0  0  0  0
  150.2055  139.4965  155.3162 H   0  0  0  0  0  0  0  0  0  0  0  0
  150.0345  141.7006  154.0880 H   0  0  0  0  0  0  0  0  0  0  0  0
  151.0372  142.4567  155.2890 H   0  0  0  0  0  0  0  0  0  0  0  0
  148.9068  142.9887  155.8291 H   0  0  0  0  0  0  0  0  0  0  0  0
  1  2  1  0  0  0  0
  1 30  1  0  0  0  0
  1 31  1  0  0  0  0
  1 32  1  0  0  0  0
  2 23  1  0  0  0  0
  2  3  1  0  0  0  0
  2 33  1  0  0  0  0
  3  4  1  0  0  0  0
  3 34  1  0  0  0  0
  3 35  1  0  0  0  0
  4  5  1  0  0  0  0
  4 22  1  0  0  0  0
  5 10  1  0  0  0  0
  5  6  2  0  0  0  0
  6  7  1  0  0  0  0
  7  8  2  0  0  0  0
  7 36  1  0  0  0  0
  8  9  1  0  0  0  0
  9 13  1  0  0  0  0
  9 10  2  0  0  0  0
 10 11  1  0  0  0  0
 11 12  2  0  0  0  0
 12 13  1  0  0  0  0
 12 37  1  0  0  0  0
 13 14  1  0  0  0  0
 14 21  1  0  0  0  0
 14 15  1  0  0  0  0
 14 38  1  0  0  0  0
 15 16  1  0  0  0  0
 15 39  1  0  0  0  0
 15 40  1  0  0  0  0
 16 17  1  0  0  0  0
 16 19  1  0  0  0  0
 16 21  1  0  0  0  0
 17 18  1  0  0  0  0
 17 41  1  0  0  0  0
 17 42  1  0  0  0  0
 18 43  1  0  0  0  0
 19 20  1  0  0  0  0
 19 44  1  0  0  0  0
 19 45  1  0  0  0  0
 20 46  1  0  0  0  0
 21 47  1  0  0  0  0
 21 48  1  0  0  0  0
 22 23  1  0  0  0  0
 22 49  1  0  0  0  0
 22 50  1  0  0  0  0
 23 24  1  0  0  0  0
 23 51  1  0  0  0  0
 24 29  1  0  0  0  0
 24 25  1  0  0  0  0
 24 60  1  0  0  0  0
 25 26  1  0  0  0  0
 25 52  1  0  0  0  0
 25 53  1  0  0  0  0
 26 27  1  0  0  0  0
 26 54  1  0  0  0  0
 26 55  1  0  0  0  0
 27 28  1  0  0  0  0
 28 29  1  0  0  0  0
 28 56  1  0  0  0  0
 28 57  1  0  0  0  0
 29 58  1  0  0  0  0
 29 59  1  0  0  0  0
M  CHG  1  24   1
M  END
> <s_m_source_file>
AV-unprocessed.smi

> <i_m_source_file_index>
149

> <i_lp_mmshare_version>
43012

> <i_f3d_flags>
0

> <s_epik_input>
W0NIMl0xW0NIMl1PW0NIMl1bQ0gyXU4xW0NAQEhdMltDSDJdTihbQ0gyXVtDQEhdMltDSDNdKWMobltjSF1uMyljKGMzNCluW2NIXW40W0NIXShbQ0gyXTUpW0NIMl1DNShbQ0gyXVtPSF0pW0NIMl1bT0hd

> <s_epik_cmdline>
J2VwaWtfcHl0aG9uJywgJy1waCcsICc3LjAnLCAnLXRuJywgJzgnLCAnLW1hJywgJzIwMCcsICctbWV0YWxfYmluZGluZycsICctaW1hZScsICc8aW5maWxlLm1hZT4nLCAnLW9tYWUnLCAnPG91dGZpbGUubWFlPic=

> <r_lp_tautomer_probability>
1

> <r_epik_Ionization_Penalty>
0.404847

> <r_epik_Ionization_Penalty_Charging>
0.404623

> <r_epik_Ionization_Penalty_Neutral>
0.000224096

> <r_epik_State_Penalty>
0.238803

> <r_epik_Charging_Adjusted_Penalty>
0.643425

> <i_epik_Tot_Q>
1

> <i_epik_Tot_abs_Q>
1

> <r_epik_Metal_State_Penalty>
0.239083

> <b_epik_Metal_Only>
0

> <s_lp_Force_Field>
OPLS_2005

> <r_lp_Energy>
72.409

> <b_lp_Chiralities_Consistent>
1

> <s_lp_Variant>
AV-unprocessed.smi:149-1

> <Gold.Version>
5.8.1

> <Gold.Id.Protein>
6NUR|6NUR_protein|mol2

> <Gold.PLP.Fitness>
52.0020

> <Gold.PLP.PLP>
-41.7708

> <Gold.PLP.part.hbond>
-4.0000

> <Gold.PLP.part.metal>
0.0000

> <Gold.PLP.part.buried>
-6.9540

> <Gold.PLP.part.nonpolar>
-30.3782

> <Gold.PLP.part.repulsive>
0.4278

> <Gold.PLP.ligand.clash>
3.7762

> <Gold.PLP.ligand.torsion>
0.8421

> <Gold.PLP.Chemscore.Hbond>
4.0000

> <Gold.PLP.Chemscore.CHOScore>
0.9535

> <Gold.PLP.Chemscore.Metal>
0.0000

> <Gold.Chemscore.Hbonds>
donor molecule, donor type, donor heavy atom, donor atom, acceptor molecule, acceptor atom, score
      L1  H    18    43       P1 10186  0.81
      L1  H    24    60       P1  8028  2.00
      P1  H 10785 10796       L1    18  1.00
      L1  C    12    37       P1 10171  0.95

> <Gold.PLP.Chemscore.Internal.Correction>
0.8311

> <Gold.Rescore>
     Score         DG    S(hbond)    S(metal)    S(lipo)     H(rot)  DE(clash)    DE(int)     intcor
     11.93     -17.17       2.57        0.00      94.16       3.09       0.09       5.16       ----

> <Gold.Chemscore.Fitness>
11.9255

> <Gold.Chemscore.DG>
-17.1726

> <Gold.Chemscore.ZeroCoef>
-5.4800

> <Gold.Chemscore.Hbond>
2.5717

> <Gold.Chemscore.Metal>
0.0000

> <Gold.Chemscore.Lipo>
94.1583

> <Gold.Chemscore.Internal_Hbond>
0.0000

> <Gold.Chemscore.DEClash>
0.0885

> <Gold.Chemscore.DEInternal>
5.1586

> <Gold.Chemscore.Rot>
3.0912

> <Gold.Chemscore.Internal.Correction>
   9.000000E+99

> <Gold.Chemscore.Hbonds>
donor molecule, donor type, donor heavy atom, donor atom, acceptor molecule, acceptor atom, score
      L1  H    18    43       P1 10186  0.77
      L1  H    24    60       P1  8028  1.00
      P1  H 10785 10796       L1    18  0.54

> <Gold.Chemscore.Hbond.Weighted>
-8.5895

> <Gold.Chemscore.Metal.Weighted>
-0.0000

> <Gold.Chemscore.Lipo.Weighted>
-11.0165

> <Gold.Chemscore.Internal_Hbond.Weighted>
0.0000

> <Gold.Chemscore.DEClash.Weighted>
0.0885

> <Gold.Chemscore.DEInternal.Weighted>
5.1586

> <Gold.Chemscore.Rot.Weighted>
7.9135

> <Gold.Chemscore.Internal.Correction.Weighted>
   9.000000E+99

> <Gold.Protein.RotatedTorsions>
[ 6907 6896 6895 6894 ] final  -27.19 input  -60.11 | X-H torsion
[ 7974 7965 7964 7962 ] final   -7.67 input  175.53 | X-H torsion
[ 8008 7997 7996 7995 ] final    8.46 input   59.86 | X-H torsion
[ 10167 10162 10161 10158 ] final   24.10 input  -65.29 | X-H torsion
[ 10718 10713 10712 10709 ] final  106.05 input   66.30 | X-H torsion
[ 10763 10752 10751 10750 ] final   53.38 input  -60.55 | X-H torsion
[ 11005 11000 10999 10996 ] final   24.68 input  -57.11 | X-H torsion

> <Gold.Protein.ActiveResidues>
 VAL166  LYS551  ARG553  GLY616  TRP617  ASP618  TYR619  PRO620  LYS621  CYS622 
 ASP623  PHE694  ASN695  SER759  ASP760  ASP761  ALA762  ILE779  LEU786  VAL792 
 PHE793  MET794  SER795  GLU796  ALA797  LYS798  CYS799  TRP800  GLU811  SER814 

> <Gold.Protein.RotatedAtoms>
  151.1503  135.0224  159.8665 H   0  0  0  0  0  0  0  0  0  0  0  0  # atno 6907 bound_to 6896
  152.5453  134.1396  159.8483 H   0  0  0  0  0  0  0  0  0  0  0  0  # atno 6908 bound_to 6896
  151.1481  133.4880  159.2628 H   0  0  0  0  0  0  0  0  0  0  0  0  # atno 6909 bound_to 6896
  146.2301  140.2354  142.8341 H   0  0  0  0  0  0  0  0  0  0  0  0  # atno 7974 bound_to 7965
  154.7672  140.2795  155.6167 H   0  0  0  0  0  0  0  0  0  0  0  0  # atno 8008 bound_to 7997
  156.2927  140.2648  156.2392 H   0  0  0  0  0  0  0  0  0  0  0  0  # atno 8009 bound_to 7997
  154.9945  140.0373  157.2323 H   0  0  0  0  0  0  0  0  0  0  0  0  # atno 8010 bound_to 7997
  140.5216  143.9993  150.6419 H   0  0  0  0  0  0  0  0  0  0  0  0  # atno 10167 bound_to 10162
  157.6683  131.0842  150.5949 H   0  0  0  0  0  0  0  0  0  0  0  0  # atno 10718 bound_to 10713
  152.9795  135.5780  154.4733 H   0  0  0  0  0  0  0  0  0  0  0  0  # atno 10763 bound_to 10752
  154.4292  135.2773  155.1926 H   0  0  0  0  0  0  0  0  0  0  0  0  # atno 10764 bound_to 10752
  154.3641  135.6182  153.5759 H   0  0  0  0  0  0  0  0  0  0  0  0  # atno 10765 bound_to 10752
  140.3560  134.2177  155.7676 H   0  0  0  0  0  0  0  0  0  0  0  0  # atno 11005 bound_to 11000
  144.9525  140.8193  143.5563 LP  0  0  0  0  0  0  0  0  0  0  0  0  # atno 17320 bound_to 7965
  145.2316  139.2112  143.5040 LP  0  0  0  0  0  0  0  0  0  0  0  0  # atno 17321 bound_to 7965
  140.3344  143.3058  152.0654 LP  0  0  0  0  0  0  0  0  0  0  0  0  # atno 17342 bound_to 10162
  139.4925  144.6487  151.6723 LP  0  0  0  0  0  0  0  0  0  0  0  0  # atno 17343 bound_to 10162
  156.6249  130.4416  149.5808 LP  0  0  0  0  0  0  0  0  0  0  0  0  # atno 17370 bound_to 10713
  156.2327  130.6804  151.1479 LP  0  0  0  0  0  0  0  0  0  0  0  0  # atno 17371 bound_to 10713
  141.1998  133.8002  157.0519 LP  0  0  0  0  0  0  0  0  0  0  0  0  # atno 17394 bound_to 11000
  140.0664  134.9726  157.1394 LP  0  0  0  0  0  0  0  0  0  0  0  0  # atno 17395 bound_to 11000

$$$$
