AV-unprocessed.smi:1102|AV-procd|sdf|4767|dock3
  -GOLD-   22720 3303D 1   1.00000     0.00000
 Structure written by MMmdl.
 40 41  0  0  0  0  0  0  0  0  2 V2000
  146.5242  138.0785  151.0933 C   0  0  0  0  0  0  0  0  0  0  0  0
  146.0759  138.2730  152.4639 N   0  0  0  0  0  0  0  0  0  0  0  0
  145.8055  137.0626  153.2254 C   0  0  0  0  0  0  0  0  0  0  0  0
  146.8614  139.1981  153.1649 C   0  0  0  0  0  0  0  0  0  0  0  0
  148.1093  138.8337  153.7113 C   0  0  0  0  0  0  0  0  0  0  0  0
  148.8661  139.7969  154.4093 C   0  0  0  0  0  0  0  0  0  0  0  0
  148.3639  141.1072  154.5630 C   0  0  0  0  0  0  0  0  0  0  0  0
  149.1688  142.0457  155.2637 N   0  0  0  0  0  0  0  0  0  0  0  0
  150.2558  141.8160  156.0202 C   0  0  0  0  0  0  0  0  0  0  0  0
  150.7673  140.7134  156.2128 O   0  0  0  0  0  0  0  0  0  0  0  0
  150.7360  142.9560  156.5360 N   0  0  0  0  0  0  0  0  0  0  0  0
  151.8966  143.0550  157.4140 C   0  0  0  0  0  0  0  0  0  0  0  0
  151.5194  143.6554  158.7783 C   0  0  2  0  0  0  0  0  0  0  0  0
  151.3543  145.1782  158.7585 C   0  0  0  0  0  0  0  0  0  0  0  0
  151.8412  145.6295  160.1296 C   0  0  0  0  0  0  0  0  0  0  0  0
  152.2897  144.3376  160.8108 C   0  0  0  0  0  0  0  0  0  0  0  0
  152.5533  143.4575  159.7309 O   0  0  0  0  0  0  0  0  0  0  0  0
  147.1087  141.4191  153.9844 C   0  0  0  0  0  0  0  0  0  0  0  0
  146.4167  140.4674  153.3210 N   0  3  0  0  0  0  0  0  0  0  0  0
  146.6928  139.0362  150.5990 H   0  0  0  0  0  0  0  0  0  0  0  0
  145.7701  137.5345  150.5237 H   0  0  0  0  0  0  0  0  0  0  0  0
  147.4525  137.5069  151.0635 H   0  0  0  0  0  0  0  0  0  0  0  0
  145.4402  137.3068  154.2239 H   0  0  0  0  0  0  0  0  0  0  0  0
  146.7046  136.4532  153.3259 H   0  0  0  0  0  0  0  0  0  0  0  0
  145.0428  136.4650  152.7251 H   0  0  0  0  0  0  0  0  0  0  0  0
  148.4857  137.8274  153.5970 H   0  0  0  0  0  0  0  0  0  0  0  0
  149.8246  139.5258  154.8277 H   0  0  0  0  0  0  0  0  0  0  0  0
  148.9131  143.0145  155.1408 H   0  0  0  0  0  0  0  0  0  0  0  0
  150.2570  143.8178  156.3195 H   0  0  0  0  0  0  0  0  0  0  0  0
  152.3776  142.0834  157.5384 H   0  0  0  0  0  0  0  0  0  0  0  0
  152.6261  143.6989  156.9222 H   0  0  0  0  0  0  0  0  0  0  0  0
  150.6041  143.1948  159.1556 H   0  0  0  0  0  0  0  0  0  0  0  0
  151.9769  145.6277  157.9840 H   0  0  0  0  0  0  0  0  0  0  0  0
  150.3217  145.4697  158.5649 H   0  0  0  0  0  0  0  0  0  0  0  0
  152.6824  146.3147  160.0185 H   0  0  0  0  0  0  0  0  0  0  0  0
  151.0662  146.1394  160.7027 H   0  0  0  0  0  0  0  0  0  0  0  0
  153.1678  144.4760  161.4416 H   0  0  0  0  0  0  0  0  0  0  0  0
  151.4878  143.9248  161.4248 H   0  0  0  0  0  0  0  0  0  0  0  0
  146.6326  142.3876  154.0113 H   0  0  0  0  0  0  0  0  0  0  0  0
  145.5148  140.7201  152.9166 H   0  0  0  0  0  0  0  0  0  0  0  0
  1  2  1  0  0  0  0
  1 20  1  0  0  0  0
  1 21  1  0  0  0  0
  1 22  1  0  0  0  0
  2  3  1  0  0  0  0
  2  4  1  0  0  0  0
  3 23  1  0  0  0  0
  3 24  1  0  0  0  0
  3 25  1  0  0  0  0
  4 19  1  0  0  0  0
  4  5  2  0  0  0  0
  5  6  1  0  0  0  0
  5 26  1  0  0  0  0
  6  7  2  0  0  0  0
  6 27  1  0  0  0  0
  7  8  1  0  0  0  0
  7 18  1  0  0  0  0
  8  9  1  0  0  0  0
  8 28  1  0  0  0  0
  9 10  2  0  0  0  0
  9 11  1  0  0  0  0
 11 12  1  0  0  0  0
 11 29  1  0  0  0  0
 12 13  1  0  0  0  0
 12 30  1  0  0  0  0
 12 31  1  0  0  0  0
 13 17  1  0  0  0  0
 13 14  1  0  0  0  0
 13 32  1  0  0  0  0
 14 15  1  0  0  0  0
 14 33  1  0  0  0  0
 14 34  1  0  0  0  0
 15 16  1  0  0  0  0
 15 35  1  0  0  0  0
 15 36  1  0  0  0  0
 16 17  1  0  0  0  0
 16 37  1  0  0  0  0
 16 38  1  0  0  0  0
 18 19  2  0  0  0  0
 18 39  1  0  0  0  0
 19 40  1  0  0  0  0
M  CHG  1  19   1
M  END
> <s_m_source_file>
AV-unprocessed.smi

> <i_m_source_file_index>
1102

> <i_lp_mmshare_version>
43012

> <i_f3d_flags>
0

> <s_epik_input>
W0NIM11OKFtDSDNdKWMxW2NIXVtjSF1jKFtjSF1uMSlbTkhdQyg9TylbTkhdW0NIMl1bQ0BASF0yW0NIMl1bQ0gyXVtDSDJdTzI=

> <s_epik_cmdline>
J2VwaWtfcHl0aG9uJywgJy1waCcsICc3LjAnLCAnLXRuJywgJzgnLCAnLW1hJywgJzIwMCcsICctbWV0YWxfYmluZGluZycsICctaW1hZScsICc8aW5maWxlLm1hZT4nLCAnLW9tYWUnLCAnPG91dGZpbGUubWFlPic=

> <r_lp_tautomer_probability>
0.999994

> <r_epik_Ionization_Penalty>
0.265123

> <r_epik_Ionization_Penalty_Charging>
0.265104

> <r_epik_Ionization_Penalty_Neutral>
1.89079e-05

> <r_epik_State_Penalty>
0.257001

> <r_epik_Charging_Adjusted_Penalty>
0.522106

> <i_epik_Tot_Q>
1

> <i_epik_Tot_abs_Q>
1

> <r_epik_Metal_State_Penalty>
0.543599

> <b_epik_Metal_Only>
0

> <s_lp_Force_Field>
OPLS_2005

> <r_lp_Energy>
30.1742

> <b_lp_Chiralities_Consistent>
1

> <s_lp_Variant>
AV-unprocessed.smi:1102-1

> <Gold.Version>
5.8.1

> <Gold.Id.Protein>
6NUR|6NUR_protein|mol2

> <Gold.PLP.Fitness>
47.4458

> <Gold.PLP.PLP>
-36.1729

> <Gold.PLP.part.hbond>
-3.0000

> <Gold.PLP.part.metal>
0.0000

> <Gold.PLP.part.buried>
-3.1657

> <Gold.PLP.part.nonpolar>
-31.6918

> <Gold.PLP.part.repulsive>
0.6351

> <Gold.PLP.ligand.clash>
0.0000

> <Gold.PLP.ligand.torsion>
0.4641

> <Gold.PLP.Chemscore.Hbond>
4.0000

> <Gold.PLP.Chemscore.CHOScore>
0.0000

> <Gold.PLP.Chemscore.Metal>
0.0000

> <Gold.Chemscore.Hbonds>
donor molecule, donor type, donor heavy atom, donor atom, acceptor molecule, acceptor atom, score
      L1  H     8    28       P1  8028  1.00
      L1  H    11    29       P1  8028  1.00
      L1  H    19    40       P1 10175  2.00

> <Gold.PLP.Chemscore.Internal.Correction>
0.2011

> <Gold.Rescore>
     Score         DG    S(hbond)    S(metal)    S(lipo)     H(rot)  DE(clash)    DE(int)     intcor
     18.50     -22.37       2.81        0.00      95.69       1.45       2.19       1.68       ----

> <Gold.Chemscore.Fitness>
18.5020

> <Gold.Chemscore.DG>
-22.3723

> <Gold.Chemscore.ZeroCoef>
-5.4800

> <Gold.Chemscore.Hbond>
2.8147

> <Gold.Chemscore.Metal>
0.0000

> <Gold.Chemscore.Lipo>
95.6876

> <Gold.Chemscore.Internal_Hbond>
0.0000

> <Gold.Chemscore.DEClash>
2.1854

> <Gold.Chemscore.DEInternal>
1.6849

> <Gold.Chemscore.Rot>
1.4469

> <Gold.Chemscore.Internal.Correction>
   9.000000E+99

> <Gold.Chemscore.Hbonds>
donor molecule, donor type, donor heavy atom, donor atom, acceptor molecule, acceptor atom, score
      L1  H     8    28       P1  8028  0.98
      L1  H    11    29       P1  8028  0.97
      L1  H    19    40       P1 10175  0.60

> <Gold.Chemscore.Hbond.Weighted>
-9.4010

> <Gold.Chemscore.Metal.Weighted>
-0.0000

> <Gold.Chemscore.Lipo.Weighted>
-11.1955

> <Gold.Chemscore.Internal_Hbond.Weighted>
0.0000

> <Gold.Chemscore.DEClash.Weighted>
2.1854

> <Gold.Chemscore.DEInternal.Weighted>
1.6849

> <Gold.Chemscore.Rot.Weighted>
3.7042

> <Gold.Chemscore.Internal.Correction.Weighted>
   9.000000E+99

> <Gold.Protein.RotatedTorsions>
[ 6907 6896 6895 6894 ] final  -24.61 input  -60.11 | X-H torsion
[ 7974 7965 7964 7962 ] final  108.39 input  175.53 | X-H torsion
[ 8008 7997 7996 7995 ] final -142.58 input   59.86 | X-H torsion
[ 10167 10162 10161 10158 ] final -138.49 input  -65.29 | X-H torsion
[ 10718 10713 10712 10709 ] final -139.49 input   66.30 | X-H torsion
[ 10763 10752 10751 10750 ] final  -40.61 input  -60.55 | X-H torsion
[ 11005 11000 10999 10996 ] final   27.94 input  -57.11 | X-H torsion

> <Gold.Protein.ActiveResidues>
 VAL166  LYS551  ARG553  GLY616  TRP617  ASP618  TYR619  PRO620  LYS621  CYS622 
 ASP623  PHE694  ASN695  SER759  ASP760  ASP761  ALA762  ILE779  LEU786  VAL792 
 PHE793  MET794  SER795  GLU796  ALA797  LYS798  CYS799  TRP800  GLU811  SER814 

> <Gold.Protein.RotatedAtoms>
  151.1871  135.0386  159.8816 H   0  0  0  0  0  0  0  0  0  0  0  0  # atno 6907 bound_to 6896
  152.5441  134.0998  159.8323 H   0  0  0  0  0  0  0  0  0  0  0  0  # atno 6908 bound_to 6896
  151.1122  133.5118  159.2637 H   0  0  0  0  0  0  0  0  0  0  0  0  # atno 6909 bound_to 6896
  145.2813  139.2632  143.3914 H   0  0  0  0  0  0  0  0  0  0  0  0  # atno 7974 bound_to 7965
  155.4966  140.0572  157.2945 H   0  0  0  0  0  0  0  0  0  0  0  0  # atno 8008 bound_to 7997
  154.4603  140.1993  156.0214 H   0  0  0  0  0  0  0  0  0  0  0  0  # atno 8009 bound_to 7997
  156.0877  140.3238  155.7779 H   0  0  0  0  0  0  0  0  0  0  0  0  # atno 8010 bound_to 7997
  139.8473  143.7245  152.2660 H   0  0  0  0  0  0  0  0  0  0  0  0  # atno 10167 bound_to 10162
  156.3114  130.7484  151.1560 H   0  0  0  0  0  0  0  0  0  0  0  0  # atno 10718 bound_to 10713
  153.9489  135.6753  153.4744 H   0  0  0  0  0  0  0  0  0  0  0  0  # atno 10763 bound_to 10752
  153.0894  135.4882  154.8658 H   0  0  0  0  0  0  0  0  0  0  0  0  # atno 10764 bound_to 10752
  154.7336  135.3144  154.8808 H   0  0  0  0  0  0  0  0  0  0  0  0  # atno 10765 bound_to 10752
  140.3209  134.2545  155.7717 H   0  0  0  0  0  0  0  0  0  0  0  0  # atno 11005 bound_to 11000
  146.3215  140.3280  142.8638 LP  0  0  0  0  0  0  0  0  0  0  0  0  # atno 17320 bound_to 7965
  144.9251  140.7912  143.5724 LP  0  0  0  0  0  0  0  0  0  0  0  0  # atno 17321 bound_to 7965
  139.7500  144.7537  151.0521 LP  0  0  0  0  0  0  0  0  0  0  0  0  # atno 17342 bound_to 10162
  140.7791  143.4871  150.9942 LP  0  0  0  0  0  0  0  0  0  0  0  0  # atno 17343 bound_to 10162
  157.7392  131.0532  150.5249 LP  0  0  0  0  0  0  0  0  0  0  0  0  # atno 17370 bound_to 10713
  156.5389  130.4203  149.6164 LP  0  0  0  0  0  0  0  0  0  0  0  0  # atno 17371 bound_to 10713
  141.2087  133.7771  157.0044 LP  0  0  0  0  0  0  0  0  0  0  0  0  # atno 17394 bound_to 11000
  140.0943  134.9574  157.1825 LP  0  0  0  0  0  0  0  0  0  0  0  0  # atno 17395 bound_to 11000

$$$$
