AV-unprocessed.smi:2439|AV-procd|sdf|9612|dock5
  -GOLD-   2272013243D 1   1.00000     0.00000
 Structure written by MMmdl.
 40 42  0  0  0  0  0  0  0  0  1 V2000
  151.2928  135.9725  155.3742 N   0  0  0  0  0  0  0  0  0  0  0  0
  150.6665  136.0587  156.3432 C   0  0  0  0  0  0  0  0  0  0  0  0
  149.8773  136.1677  157.5643 C   0  0  0  0  0  0  0  0  0  0  0  0
  148.8850  135.1994  157.8243 C   0  0  0  0  0  0  0  0  0  0  0  0
  148.1194  135.3000  159.0002 C   0  0  0  0  0  0  0  0  0  0  0  0
  148.3787  136.3716  159.8739 C   0  0  0  0  0  0  0  0  0  0  0  0
  149.3244  137.3045  159.6379 N   0  0  0  0  0  0  0  0  0  0  0  0
  150.0678  137.2131  158.5077 C   0  0  0  0  0  0  0  0  0  0  0  0
  151.0460  138.1997  158.2911 N   0  0  0  0  0  0  0  0  0  0  0  0
  150.6923  139.6113  158.2371 C   0  0  0  0  0  0  0  0  0  0  0  0
  151.7913  140.4416  157.5473 C   0  0  1  0  0  0  0  0  0  0  0  0
  151.3802  141.9087  157.3185 C   0  0  0  0  0  0  0  0  0  0  0  0
  151.3363  142.6822  158.5540 N   0  0  0  0  0  0  0  0  0  0  0  0
  150.9656  144.0720  158.2912 C   0  0  0  0  0  0  0  0  0  0  0  0
  150.8728  144.9087  159.5767 C   0  0  0  0  0  0  0  0  0  0  0  0
  152.2002  144.8510  160.3457 C   0  0  0  0  0  0  0  0  0  0  0  0
  152.6148  143.3890  160.5721 C   0  0  0  0  0  0  0  0  0  0  0  0
  152.6269  142.6028  159.2440 C   0  0  1  0  0  0  0  0  0  0  0  0
  153.0323  141.1364  159.4918 C   0  0  0  0  0  0  0  0  0  0  0  0
  153.0243  140.4036  158.2688 O   0  0  0  0  0  0  0  0  0  0  0  0
  148.7083  134.3870  157.1338 H   0  0  0  0  0  0  0  0  0  0  0  0
  147.3524  134.5742  159.2262 H   0  0  0  0  0  0  0  0  0  0  0  0
  147.8117  136.4836  160.7862 H   0  0  0  0  0  0  0  0  0  0  0  0
  152.0240  137.9501  158.3296 H   0  0  0  0  0  0  0  0  0  0  0  0
  149.7613  139.7090  157.6777 H   0  0  0  0  0  0  0  0  0  0  0  0
  150.4936  139.9846  159.2416 H   0  0  0  0  0  0  0  0  0  0  0  0
  151.9807  139.9949  156.5705 H   0  0  0  0  0  0  0  0  0  0  0  0
  152.0913  142.3678  156.6300 H   0  0  0  0  0  0  0  0  0  0  0  0
  150.4089  141.9435  156.8232 H   0  0  0  0  0  0  0  0  0  0  0  0
  151.6916  144.5274  157.6158 H   0  0  0  0  0  0  0  0  0  0  0  0
  150.0044  144.1035  157.7769 H   0  0  0  0  0  0  0  0  0  0  0  0
  150.6222  145.9421  159.3359 H   0  0  0  0  0  0  0  0  0  0  0  0
  150.0653  144.5289  160.2038 H   0  0  0  0  0  0  0  0  0  0  0  0
  152.9750  145.3674  159.7778 H   0  0  0  0  0  0  0  0  0  0  0  0
  152.1094  145.3719  161.2990 H   0  0  0  0  0  0  0  0  0  0  0  0
  153.5990  143.3542  161.0403 H   0  0  0  0  0  0  0  0  0  0  0  0
  151.9216  142.9198  161.2719 H   0  0  0  0  0  0  0  0  0  0  0  0
  153.3885  143.0484  158.6015 H   0  0  0  0  0  0  0  0  0  0  0  0
  154.0367  141.0891  159.9132 H   0  0  0  0  0  0  0  0  0  0  0  0
  152.3700  140.6640  160.2178 H   0  0  0  0  0  0  0  0  0  0  0  0
  1  2  3  0  0  0  0
  2  3  1  0  0  0  0
  3  8  1  0  0  0  0
  3  4  2  0  0  0  0
  4  5  1  0  0  0  0
  4 21  1  0  0  0  0
  5  6  2  0  0  0  0
  5 22  1  0  0  0  0
  6  7  1  0  0  0  0
  6 23  1  0  0  0  0
  7  8  2  0  0  0  0
  8  9  1  0  0  0  0
  9 10  1  0  0  0  0
  9 24  1  0  0  0  0
 10 11  1  0  0  0  0
 10 25  1  0  0  0  0
 10 26  1  0  0  0  0
 11 20  1  0  0  0  0
 11 12  1  0  0  0  0
 11 27  1  0  0  0  0
 12 13  1  0  0  0  0
 12 28  1  0  0  0  0
 12 29  1  0  0  0  0
 13 18  1  0  0  0  0
 13 14  1  0  0  0  0
 14 15  1  0  0  0  0
 14 30  1  0  0  0  0
 14 31  1  0  0  0  0
 15 16  1  0  0  0  0
 15 32  1  0  0  0  0
 15 33  1  0  0  0  0
 16 17  1  0  0  0  0
 16 34  1  0  0  0  0
 16 35  1  0  0  0  0
 17 18  1  0  0  0  0
 17 36  1  0  0  0  0
 17 37  1  0  0  0  0
 18 19  1  0  0  0  0
 18 38  1  0  0  0  0
 19 20  1  0  0  0  0
 19 39  1  0  0  0  0
 19 40  1  0  0  0  0
M  END
> <s_m_source_file>
AV-unprocessed.smi

> <i_m_source_file_index>
2439

> <i_lp_mmshare_version>
43012

> <i_f3d_flags>
0

> <s_epik_input>
TiNDYzFbY0hdW2NIXVtjSF1uYzFbTkhdW0NIMl1bQ0BIXShbQ0gyXTIpT1tDSDJdW0NAQEhdKE4yMylbQ0gyXVtDSDJdW0NIMl1bQ0gyXTM=

> <s_epik_cmdline>
J2VwaWtfcHl0aG9uJywgJy1waCcsICc3LjAnLCAnLXRuJywgJzgnLCAnLW1hJywgJzIwMCcsICctbWV0YWxfYmluZGluZycsICctaW1hZScsICc8aW5maWxlLm1hZT4nLCAnLW9tYWUnLCAnPG91dGZpbGUubWFlPic=

> <r_epik_Ionization_Penalty>
1.22355

> <r_epik_Ionization_Penalty_Charging>
0

> <r_epik_Ionization_Penalty_Neutral>
1.22355

> <r_epik_State_Penalty>
1.29103

> <r_epik_Charging_Adjusted_Penalty>
1.29103

> <i_epik_Tot_Q>
0

> <i_epik_Tot_abs_Q>
0

> <r_epik_Metal_State_Penalty>
1.29103

> <b_epik_Metal_Only>
0

> <s_lp_Force_Field>
OPLS_2005

> <r_lp_Energy>
40.6054

> <b_lp_Chiralities_Consistent>
1

> <s_lp_Variant>
AV-unprocessed.smi:2439-10

> <Gold.Version>
5.8.1

> <Gold.Id.Protein>
6NUR|6NUR_protein|mol2

> <Gold.PLP.Fitness>
39.7824

> <Gold.PLP.PLP>
-35.5070

> <Gold.PLP.part.hbond>
-3.0000

> <Gold.PLP.part.metal>
0.0000

> <Gold.PLP.part.buried>
-5.2567

> <Gold.PLP.part.nonpolar>
-26.9636

> <Gold.PLP.part.repulsive>
0.2159

> <Gold.PLP.ligand.clash>
0.0000

> <Gold.PLP.ligand.torsion>
0.6797

> <Gold.PLP.Chemscore.Hbond>
1.8761

> <Gold.PLP.Chemscore.CHOScore>
0.0000

> <Gold.PLP.Chemscore.Metal>
0.0000

> <Gold.Chemscore.Hbonds>
donor molecule, donor type, donor heavy atom, donor atom, acceptor molecule, acceptor atom, score
      P1  H  7997  8008       L1    20  0.86
      P1  H 10752 10763       L1     1  1.00

> <Gold.PLP.Chemscore.Internal.Correction>
0.0065

> <Gold.Rescore>
     Score         DG    S(hbond)    S(metal)    S(lipo)     H(rot)  DE(clash)    DE(int)     intcor
     18.40     -19.29       1.70        0.00      96.89       1.25       0.25       0.64       ----

> <Gold.Chemscore.Fitness>
18.3951

> <Gold.Chemscore.DG>
-19.2867

> <Gold.Chemscore.ZeroCoef>
-5.4800

> <Gold.Chemscore.Hbond>
1.6967

> <Gold.Chemscore.Metal>
0.0000

> <Gold.Chemscore.Lipo>
96.8883

> <Gold.Chemscore.Internal_Hbond>
0.0000

> <Gold.Chemscore.DEClash>
0.2540

> <Gold.Chemscore.DEInternal>
0.6375

> <Gold.Chemscore.Rot>
1.2485

> <Gold.Chemscore.Internal.Correction>
   9.000000E+99

> <Gold.Chemscore.Hbonds>
donor molecule, donor type, donor heavy atom, donor atom, acceptor molecule, acceptor atom, score
      P1  H  7997  8008       L1    20  0.62
      P1  H 10752 10763       L1     1  0.99

> <Gold.Chemscore.Hbond.Weighted>
-5.6669

> <Gold.Chemscore.Metal.Weighted>
-0.0000

> <Gold.Chemscore.Lipo.Weighted>
-11.3359

> <Gold.Chemscore.Internal_Hbond.Weighted>
0.0000

> <Gold.Chemscore.DEClash.Weighted>
0.2540

> <Gold.Chemscore.DEInternal.Weighted>
0.6375

> <Gold.Chemscore.Rot.Weighted>
3.1961

> <Gold.Chemscore.Internal.Correction.Weighted>
   9.000000E+99

> <Gold.Protein.RotatedTorsions>
[ 6907 6896 6895 6894 ] final   35.72 input  -60.11 | X-H torsion
[ 7974 7965 7964 7962 ] final -135.90 input  175.53 | X-H torsion
[ 8008 7997 7996 7995 ] final  -85.41 input   59.86 | X-H torsion
[ 10167 10162 10161 10158 ] final  -29.41 input  -65.29 | X-H torsion
[ 10718 10713 10712 10709 ] final  -28.61 input   66.30 | X-H torsion
[ 10763 10752 10751 10750 ] final   81.47 input  -60.55 | X-H torsion
[ 11005 11000 10999 10996 ] final  168.83 input  -57.11 | X-H torsion

> <Gold.Protein.ActiveResidues>
 VAL166  LYS551  ARG553  GLY616  TRP617  ASP618  TYR619  PRO620  LYS621  CYS622 
 ASP623  PHE694  ASN695  SER759  ASP760  ASP761  ALA762  ILE779  LEU786  VAL792 
 PHE793  MET794  SER795  GLU796  ALA797  LYS798  CYS799  TRP800  GLU811  SER814 

> <Gold.Protein.RotatedAtoms>
  152.1200  134.9212  160.0563 H   0  0  0  0  0  0  0  0  0  0  0  0  # atno 6907 bound_to 6896
  152.0356  133.3951  159.4324 H   0  0  0  0  0  0  0  0  0  0  0  0  # atno 6908 bound_to 6896
  150.6848  134.3393  159.4904 H   0  0  0  0  0  0  0  0  0  0  0  0  # atno 6909 bound_to 6896
  144.8974  140.6725  143.5107 H   0  0  0  0  0  0  0  0  0  0  0  0  # atno 7974 bound_to 7965
  154.6404  140.0592  156.9839 H   0  0  0  0  0  0  0  0  0  0  0  0  # atno 8008 bound_to 7997
  155.1526  140.3275  155.4409 H   0  0  0  0  0  0  0  0  0  0  0  0  # atno 8009 bound_to 7997
  156.2528  140.1945  156.6637 H   0  0  0  0  0  0  0  0  0  0  0  0  # atno 8010 bound_to 7997
  140.7261  143.3931  151.1395 H   0  0  0  0  0  0  0  0  0  0  0  0  # atno 10167 bound_to 10162
  156.4230  130.4430  149.7170 H   0  0  0  0  0  0  0  0  0  0  0  0  # atno 10718 bound_to 10713
  153.1120  135.4764  154.9051 H   0  0  0  0  0  0  0  0  0  0  0  0  # atno 10763 bound_to 10752
  154.7490  135.3101  154.8595 H   0  0  0  0  0  0  0  0  0  0  0  0  # atno 10764 bound_to 10752
  153.9181  135.6858  153.4802 H   0  0  0  0  0  0  0  0  0  0  0  0  # atno 10765 bound_to 10752
  140.2914  134.7670  157.3841 H   0  0  0  0  0  0  0  0  0  0  0  0  # atno 11005 bound_to 11000
  145.3677  139.1666  143.4349 LP  0  0  0  0  0  0  0  0  0  0  0  0  # atno 17320 bound_to 7965
  146.3089  140.3745  142.8677 LP  0  0  0  0  0  0  0  0  0  0  0  0  # atno 17321 bound_to 7965
  139.7539  143.8737  152.3084 LP  0  0  0  0  0  0  0  0  0  0  0  0  # atno 17342 bound_to 10162
  139.8600  144.7122  150.9111 LP  0  0  0  0  0  0  0  0  0  0  0  0  # atno 17343 bound_to 10162
  156.4103  130.7719  151.2731 LP  0  0  0  0  0  0  0  0  0  0  0  0  # atno 17370 bound_to 10713
  157.7508  131.0213  150.3745 LP  0  0  0  0  0  0  0  0  0  0  0  0  # atno 17371 bound_to 10713
  140.1192  134.5242  155.8198 LP  0  0  0  0  0  0  0  0  0  0  0  0  # atno 17394 bound_to 11000
  141.2145  133.6750  156.6834 LP  0  0  0  0  0  0  0  0  0  0  0  0  # atno 17395 bound_to 11000

$$$$
