#       Name:                AV-unprocessed.smi:2695
#       Creating user name   scv26
#       Creation time:       Fri Mar 27 14:44:40 2020


#       File generated by GOLD software.
#

@<TRIPOS>MOLECULE
AV-unprocessed.smi:2695
    48    49     1
SMALL
NO_CHARGES


@<TRIPOS>ATOM
      1 ****        -2.3607   1.6219  -2.9890 C.3            1 S1                 0.0000
      2 ****        -2.6437   2.3430  -1.6766 C.2            1 S1                 0.0000
      3 ****        -3.1333   3.5963  -1.6643 C.2            1 S1                 0.0000
      4 ****        -3.3580   4.2659  -0.4070 C.2            1 S1                 0.0000
      5 ****        -3.8539   5.5093  -0.3889 O.3            1 S1                 0.0000
      6 ****        -3.0586   3.6372   0.7445 C.2            1 S1                 0.0000
      7 ****        -2.5154   2.2770   0.7656 C.2            1 S1                 0.0000
      8 ****        -2.2301   1.7185   1.8260 O.2            1 S1                 0.0000
      9 ****        -2.3502   1.6699  -0.4541 N.am           1 S1                 0.0000
     10 ****        -1.8485   0.2761  -0.4837 C.3            1 S1                 0.0000
     11 ****        -0.3155   0.1715  -0.5012 C.2            1 S1                 0.0000
     12 ****         0.3898   1.1812  -0.4935 O.2            1 S1                 0.0000
     13 ****         0.1799  -1.0749  -0.5291 N.am           1 S1                 0.0000
     14 ****         1.5978  -1.4394  -0.5618 C.3            1 S1                 0.0000
     15 ****         1.9620  -2.2047   0.7362 C.3            1 S1                 0.0000
     16 ****         1.6274  -1.4484   2.0287 C.3            1 S1                 0.0000
     17 ****         2.4390  -2.1539   3.1157 C.3            1 S1                 0.0000
     18 ****         3.6806  -2.7164   2.4120 C.3            1 S1                 0.0000
     19 ****         3.4547  -2.5199   0.9068 C.3            1 S1                 0.0000
     20 ****         1.8769  -2.2340  -1.8582 C.3            1 S1                 0.0000
     21 ****         1.4949  -1.5191  -2.9174 F              1 S1                 0.0000
     22 ****         3.1770  -2.4929  -1.9914 F              1 S1                 0.0000
     23 ****         1.2043  -3.3856  -1.8561 F              1 S1                 0.0000
     24 ****        -2.3846   2.3221  -3.8247 H              1 S1                 0.0000
     25 ****        -3.1154   0.8581  -3.1777 H              1 S1                 0.0000
     26 ****        -1.3745   1.1586  -2.9966 H              1 S1                 0.0000
     27 ****        -3.3460   4.1087  -2.5916 H              1 S1                 0.0000
     28 ****        -3.9187   5.7770   0.5149 H              1 S1                 0.0000
     29 ****        -3.2235   4.1430   1.6850 H              1 S1                 0.0000
     30 ****        -2.2134  -0.2831   0.3798 H              1 S1                 0.0000
     31 ****        -2.2544  -0.2804  -1.3274 H              1 S1                 0.0000
     32 ****        -0.4781  -1.8407  -0.5375 H              1 S1                 0.0000
     33 ****         2.2079  -0.5351  -0.5980 H              1 S1                 0.0000
     34 ****         1.4146  -3.1486   0.7553 H              1 S1                 0.0000
     35 ****         1.9525  -0.4101   1.9470 H              1 S1                 0.0000
     36 ****         0.5599  -1.4437   2.2519 H              1 S1                 0.0000
     37 ****         2.6953  -1.4819   3.9354 H              1 S1                 0.0000
     38 ****         1.8549  -2.9739   3.5355 H              1 S1                 0.0000
     39 ****         4.5866  -2.2020   2.7343 H              1 S1                 0.0000
     40 ****         3.8035  -3.7729   2.6529 H              1 S1                 0.0000
     41 ****         3.7613  -3.3964   0.3353 H              1 S1                 0.0000
     42 ****         4.0549  -1.6767   0.5616 H              1 S1                 0.0000
     43 ****        -4.7588   5.5219  -0.8142 LP             1 S1                 0.0000
     44 ****        -3.2438   6.1272  -0.8848 LP             1 S1                 0.0000
     45 ****        -2.3682   2.1943   2.6947 LP             1 S1                 0.0000
     46 ****        -1.8604   0.7894   1.8181 LP             1 S1                 0.0000
     47 ****        -0.0338   2.0869  -0.4756 LP             1 S1                 0.0000
     48 ****         1.3861   1.0953  -0.5051 LP             1 S1                 0.0000
@<TRIPOS>BOND
    1    1    2 1     
    2    1   24 1     
    3    1   25 1     
    4    1   26 1     
    5    2    9 1     
    6    2    3 2     
    7    3    4 1     
    8    3   27 1     
    9    4    5 1     
   10    4    6 2     
   11    5   28 1     
   12    6    7 1     
   13    6   29 1     
   14    7    8 2     
   15    7    9 am    
   16    9   10 1     
   17   10   11 1     
   18   10   30 1     
   19   10   31 1     
   20   11   12 2     
   21   11   13 am    
   22   13   14 1     
   23   13   32 1     
   24   14   15 1     
   25   14   20 1     
   26   14   33 1     
   27   15   19 1     
   28   15   16 1     
   29   15   34 1     
   30   16   17 1     
   31   16   35 1     
   32   16   36 1     
   33   17   18 1     
   34   17   37 1     
   35   17   38 1     
   36   18   19 1     
   37   18   39 1     
   38   18   40 1     
   39   19   41 1     
   40   19   42 1     
   41   20   21 1     
   42   20   22 1     
   43   20   23 1     
   44    5   43 1     
   45    5   44 1     
   46    8   45 1     
   47    8   46 1     
   48   12   47 1     
   49   12   48 1     
@<TRIPOS>SUBSTRUCTURE
      1 S1             1
@<TRIPOS>SET
LONE_PAIRS      STATIC     ATOMS    <user>   **** ""
6 43 44 45 46 47 48
DONOR_HYDROGENS      STATIC     ATOMS    <user>   **** ""
2 28 32
ATOM$BLUE        STATIC     ATOMS    COLORGROUP SYSTEM
6 43 44 45 46 47 48
ATOM$RED        STATIC     ATOMS    COLORGROUP SYSTEM
2 28 32
