AV-unprocessed.smi:2427|AV-procd|sdf|9578|dock5
  -GOLD-   2272013213D 1   1.00000     0.00000
 Structure written by MMmdl.
 35 36  0  0  0  0  0  0  0  0  3 V2000
  154.4080  140.5362  159.6478 O   0  0  0  0  0  0  0  0  0  0  0  0
  153.3399  140.1872  160.1526 C   0  0  0  0  0  0  0  0  0  0  0  0
  152.8898  138.7209  160.0938 C   0  0  0  0  0  0  0  0  0  0  0  0
  152.5891  138.2684  158.7252 N   0  0  0  0  0  0  0  0  0  0  0  0
  152.0764  139.2276  157.8297 C   0  0  0  0  0  0  0  0  0  0  0  0
  151.7602  138.9213  156.5561 C   0  0  0  0  0  0  0  0  0  0  0  0
  151.2278  139.9173  155.6523 N   0  3  0  0  0  0  0  0  0  0  0  0
  150.9705  141.0330  156.0921 O   0  0  0  0  0  0  0  0  0  0  0  0
  151.0484  139.6189  154.4753 O   0  5  0  0  0  0  0  0  0  0  0  0
  151.9677  137.5538  156.1205 C   0  0  0  0  0  0  0  0  0  0  0  0
  152.4533  136.6305  156.9734 C   0  0  0  0  0  0  0  0  0  0  0  0
  152.7902  136.9647  158.3609 C   0  0  0  0  0  0  0  0  0  0  0  0
  153.2264  136.1241  159.1479 O   0  0  0  0  0  0  0  0  0  0  0  0
  152.5129  141.0324  160.7862 N   0  0  0  0  0  0  0  0  0  0  0  0
  152.7227  142.4685  160.9370 C   0  0  0  0  0  0  0  0  0  0  0  0
  151.6405  143.2821  160.2060 C   0  0  2  0  0  0  0  0  0  0  0  0
  152.1316  144.0873  159.0023 C   0  0  0  0  0  0  0  0  0  0  0  0
  151.0682  145.1563  158.9012 C   0  0  0  0  0  0  0  0  0  0  0  0
  150.7754  145.4498  160.3706 C   0  0  0  0  0  0  0  0  0  0  0  0
  151.0772  144.2521  161.0839 O   0  0  0  0  0  0  0  0  0  0  0  0
  153.6734  138.1074  160.5405 H   0  0  0  0  0  0  0  0  0  0  0  0
  152.0167  138.5785  160.7338 H   0  0  0  0  0  0  0  0  0  0  0  0
  151.9516  140.2142  158.2524 H   0  0  0  0  0  0  0  0  0  0  0  0
  151.7344  137.2600  155.1075 H   0  0  0  0  0  0  0  0  0  0  0  0
  152.5992  135.6175  156.6279 H   0  0  0  0  0  0  0  0  0  0  0  0
  151.6614  140.6560  161.1771 H   0  0  0  0  0  0  0  0  0  0  0  0
  152.6881  142.6964  162.0025 H   0  0  0  0  0  0  0  0  0  0  0  0
  153.7176  142.7594  160.5962 H   0  0  0  0  0  0  0  0  0  0  0  0
  150.8308  142.6225  159.8888 H   0  0  0  0  0  0  0  0  0  0  0  0
  153.0995  144.5444  159.2129 H   0  0  0  0  0  0  0  0  0  0  0  0
  152.2245  143.4881  158.0960 H   0  0  0  0  0  0  0  0  0  0  0  0
  151.3938  146.0368  158.3468 H   0  0  0  0  0  0  0  0  0  0  0  0
  150.1795  144.7534  158.4135 H   0  0  0  0  0  0  0  0  0  0  0  0
  151.4261  146.2437  160.7391 H   0  0  0  0  0  0  0  0  0  0  0  0
  149.7420  145.7578  160.5314 H   0  0  0  0  0  0  0  0  0  0  0  0
  1  2  2  0  0  0  0
  2  3  1  0  0  0  0
  2 14  1  0  0  0  0
  3  4  1  0  0  0  0
  3 21  1  0  0  0  0
  3 22  1  0  0  0  0
  4 12  1  0  0  0  0
  4  5  1  0  0  0  0
  5  6  2  0  0  0  0
  5 23  1  0  0  0  0
  6  7  1  0  0  0  0
  6 10  1  0  0  0  0
  7  8  2  0  0  0  0
  7  9  1  0  0  0  0
 10 11  2  0  0  0  0
 10 24  1  0  0  0  0
 11 12  1  0  0  0  0
 11 25  1  0  0  0  0
 12 13  2  0  0  0  0
 14 15  1  0  0  0  0
 14 26  1  0  0  0  0
 15 16  1  0  0  0  0
 15 27  1  0  0  0  0
 15 28  1  0  0  0  0
 16 20  1  0  0  0  0
 16 17  1  0  0  0  0
 16 29  1  0  0  0  0
 17 18  1  0  0  0  0
 17 30  1  0  0  0  0
 17 31  1  0  0  0  0
 18 19  1  0  0  0  0
 18 32  1  0  0  0  0
 18 33  1  0  0  0  0
 19 20  1  0  0  0  0
 19 34  1  0  0  0  0
 19 35  1  0  0  0  0
M  CHG  1   7   1
M  CHG  1   9  -1
M  END
> <s_m_source_file>
AV-unprocessed.smi

> <i_m_source_file_index>
2427

> <i_lp_mmshare_version>
43012

> <i_f3d_flags>
0

> <s_epik_input>
TzFbQ0gyXVtDSDJdW0NIMl1bQ0BIXTFbQ0gyXVtOSF1DKD1PKVtDSDJdbjJbY0hdYyhbTitdKD1PKVtPLV0pW2NIXVtjSF1jMj1P

> <s_epik_cmdline>
J2VwaWtfcHl0aG9uJywgJy1waCcsICc3LjAnLCAnLXRuJywgJzgnLCAnLW1hJywgJzIwMCcsICctbWV0YWxfYmluZGluZycsICctaW1hZScsICc8aW5maWxlLm1hZT4nLCAnLW9tYWUnLCAnPG91dGZpbGUubWFlPic=

> <r_lp_tautomer_probability>
1

> <r_epik_Ionization_Penalty>
2.69366e-08

> <r_epik_Ionization_Penalty_Charging>
7.76344e-11

> <r_epik_Ionization_Penalty_Neutral>
2.6859e-08

> <r_epik_State_Penalty>
-0

> <r_epik_Charging_Adjusted_Penalty>
7.76344e-11

> <i_epik_Tot_Q>
0

> <i_epik_Tot_abs_Q>
2

> <r_epik_Metal_State_Penalty>
-0

> <b_epik_Metal_Only>
0

> <s_lp_Force_Field>
OPLS_2005

> <r_lp_Energy>
28.4558

> <b_lp_Chiralities_Consistent>
1

> <s_lp_Variant>
AV-unprocessed.smi:2427-1

> <Gold.Version>
5.8.1

> <Gold.Id.Protein>
6NUR|6NUR_protein|mol2

> <Gold.PLP.Fitness>
43.2244

> <Gold.PLP.PLP>
-37.4418

> <Gold.PLP.part.hbond>
-3.1197

> <Gold.PLP.part.metal>
0.0000

> <Gold.PLP.part.buried>
-4.4907

> <Gold.PLP.part.nonpolar>
-29.5182

> <Gold.PLP.part.repulsive>
0.3849

> <Gold.PLP.ligand.clash>
0.0000

> <Gold.PLP.ligand.torsion>
1.1522

> <Gold.PLP.Chemscore.Hbond>
2.6800

> <Gold.PLP.Chemscore.CHOScore>
0.0000

> <Gold.PLP.Chemscore.Metal>
0.0000

> <Gold.Chemscore.Hbonds>
donor molecule, donor type, donor heavy atom, donor atom, acceptor molecule, acceptor atom, score
      P1  H  6896  6907       L1    13  0.93
      P1  H  7989  7998       L1     9  1.00

> <Gold.PLP.Chemscore.Internal.Correction>
0.0471

> <Gold.Rescore>
     Score         DG    S(hbond)    S(metal)    S(lipo)     H(rot)  DE(clash)    DE(int)     intcor
     17.57     -19.22       2.60        0.00      84.98       1.90       0.51       1.14       ----

> <Gold.Chemscore.Fitness>
17.5672

> <Gold.Chemscore.DG>
-19.2154

> <Gold.Chemscore.ZeroCoef>
-5.4800

> <Gold.Chemscore.Hbond>
2.5951

> <Gold.Chemscore.Metal>
0.0000

> <Gold.Chemscore.Lipo>
84.9832

> <Gold.Chemscore.Internal_Hbond>
0.0000

> <Gold.Chemscore.DEClash>
0.5088

> <Gold.Chemscore.DEInternal>
1.1394

> <Gold.Chemscore.Rot>
1.9044

> <Gold.Chemscore.Internal.Correction>
   9.000000E+99

> <Gold.Chemscore.Hbonds>
donor molecule, donor type, donor heavy atom, donor atom, acceptor molecule, acceptor atom, score
      P1  H  6896  6907       L1    13  0.89
      P1  H  7989  7998       L1     9  0.70
      P1  H  7997  8008       L1     1  0.02

> <Gold.Chemscore.Hbond.Weighted>
-8.6677

> <Gold.Chemscore.Metal.Weighted>
-0.0000

> <Gold.Chemscore.Lipo.Weighted>
-9.9430

> <Gold.Chemscore.Internal_Hbond.Weighted>
0.0000

> <Gold.Chemscore.DEClash.Weighted>
0.5088

> <Gold.Chemscore.DEInternal.Weighted>
1.1394

> <Gold.Chemscore.Rot.Weighted>
4.8753

> <Gold.Chemscore.Internal.Correction.Weighted>
   9.000000E+99

> <Gold.Protein.RotatedTorsions>
[ 6907 6896 6895 6894 ] final   41.59 input  -60.11 | X-H torsion
[ 7974 7965 7964 7962 ] final   23.07 input  175.53 | X-H torsion
[ 8008 7997 7996 7995 ] final -128.10 input   59.86 | X-H torsion
[ 10167 10162 10161 10158 ] final -144.95 input  -65.29 | X-H torsion
[ 10718 10713 10712 10709 ] final  159.92 input   66.30 | X-H torsion
[ 10763 10752 10751 10750 ] final -177.03 input  -60.55 | X-H torsion
[ 11005 11000 10999 10996 ] final -113.73 input  -57.11 | X-H torsion

> <Gold.Protein.ActiveResidues>
 VAL166  LYS551  ARG553  GLY616  TRP617  ASP618  TYR619  PRO620  LYS621  CYS622 
 ASP623  PHE694  ASN695  SER759  ASP760  ASP761  ALA762  ILE779  LEU786  VAL792 
 PHE793  MET794  SER795  GLU796  ALA797  LYS798  CYS799  TRP800  GLU811  SER814 

> <Gold.Protein.RotatedAtoms>
  152.1972  134.8620  160.0511 H   0  0  0  0  0  0  0  0  0  0  0  0  # atno 6907 bound_to 6896
  151.9487  133.3654  159.4000 H   0  0  0  0  0  0  0  0  0  0  0  0  # atno 6908 bound_to 6896
  150.6947  134.4287  159.5282 H   0  0  0  0  0  0  0  0  0  0  0  0  # atno 6909 bound_to 6896
  146.2001  139.7795  142.8768 H   0  0  0  0  0  0  0  0  0  0  0  0  # atno 7974 bound_to 7965
  155.2570  140.0434  157.2993 H   0  0  0  0  0  0  0  0  0  0  0  0  # atno 8008 bound_to 7997
  154.5734  140.2380  155.8128 H   0  0  0  0  0  0  0  0  0  0  0  0  # atno 8009 bound_to 7997
  156.2139  140.2990  155.9803 H   0  0  0  0  0  0  0  0  0  0  0  0  # atno 8010 bound_to 7997
  139.7851  143.8046  152.2643 H   0  0  0  0  0  0  0  0  0  0  0  0  # atno 10167 bound_to 10162
  157.1575  131.0579  151.2249 H   0  0  0  0  0  0  0  0  0  0  0  0  # atno 10718 bound_to 10713
  154.5652  135.2823  155.0881 H   0  0  0  0  0  0  0  0  0  0  0  0  # atno 10763 bound_to 10752
  154.2275  135.6380  153.5168 H   0  0  0  0  0  0  0  0  0  0  0  0  # atno 10764 bound_to 10752
  153.0041  135.5529  154.6258 H   0  0  0  0  0  0  0  0  0  0  0  0  # atno 10765 bound_to 10752
  141.0596  133.9557  157.2691 H   0  0  0  0  0  0  0  0  0  0  0  0  # atno 11005 bound_to 11000
  145.3514  141.0308  143.3336 LP  0  0  0  0  0  0  0  0  0  0  0  0  # atno 17320 bound_to 7965
  144.8664  139.5102  143.6788 LP  0  0  0  0  0  0  0  0  0  0  0  0  # atno 17321 bound_to 7965
  139.8120  144.7332  150.9685 LP  0  0  0  0  0  0  0  0  0  0  0  0  # atno 17342 bound_to 10162
  140.7819  143.4241  151.0795 LP  0  0  0  0  0  0  0  0  0  0  0  0  # atno 17343 bound_to 10162
  157.4163  130.7413  149.6878 LP  0  0  0  0  0  0  0  0  0  0  0  0  # atno 17370 bound_to 10713
  155.9759  130.4082  150.3813 LP  0  0  0  0  0  0  0  0  0  0  0  0  # atno 17371 bound_to 10713
  139.9421  135.0189  156.8739 LP  0  0  0  0  0  0  0  0  0  0  0  0  # atno 17394 bound_to 11000
  140.5895  134.0275  155.7494 LP  0  0  0  0  0  0  0  0  0  0  0  0  # atno 17395 bound_to 11000

$$$$
