AV-unprocessed.smi:157|AV-procd|sdf|1315|dock4
  -GOLD-   2262019 03D 1   1.00000     0.00000
 Structure written by MMmdl.
 36 38  0  0  0  0  0  0  0  0  2 V2000
  148.3078  132.3850  152.5061 O   0  0  0  0  0  0  0  0  0  0  0  0
  147.6232  131.6986  153.5329 C   0  0  0  0  0  0  0  0  0  0  0  0
  146.1467  131.4713  153.1506 C   0  0  1  0  0  0  0  0  0  0  0  0
  145.5138  132.7537  153.1618 O   0  0  0  0  0  0  0  0  0  0  0  0
  144.9935  133.0489  151.9024 C   0  0  1  0  0  0  0  0  0  0  0  0
  145.2409  134.4926  151.6126 N   0  0  0  0  0  0  0  0  0  0  0  0
  144.9467  135.1340  150.4622 C   0  0  0  0  0  0  0  0  0  0  0  0
  145.2619  136.4181  150.4580 N   0  3  0  0  0  0  0  0  0  0  0  0
  145.8110  136.6894  151.6934 C   0  0  0  0  0  0  0  0  0  0  0  0
  145.7976  135.4796  152.3930 C   0  0  0  0  0  0  0  0  0  0  0  0
  146.2392  135.1890  153.6930 N   0  0  0  0  0  0  0  0  0  0  0  0
  147.0213  135.9726  154.3621 C   0  0  0  0  0  0  0  0  0  0  0  0
  147.4936  137.2305  154.0254 N   0  0  0  0  0  0  0  0  0  0  0  0
  146.6409  138.2804  153.4971 C   0  0  0  0  0  0  0  0  0  0  0  0
  146.2560  138.0795  152.0252 C   0  0  1  0  0  0  0  0  0  0  0  0
  147.3290  138.5130  151.2150 O   0  0  0  0  0  0  0  0  0  0  0  0
  145.7347  132.1665  150.9083 C   0  0  0  0  0  0  0  0  0  0  0  0
  145.8926  130.9110  151.7359 C   0  0  1  0  0  0  0  0  0  0  0  0
  146.9198  130.0861  151.2245 O   0  0  0  0  0  0  0  0  0  0  0  0
  145.6667  130.8419  153.9013 H   0  0  0  0  0  0  0  0  0  0  0  0
  143.9119  132.9096  151.8942 H   0  0  0  0  0  0  0  0  0  0  0  0
  145.4256  138.7521  151.8078 H   0  0  0  0  0  0  0  0  0  0  0  0
  144.9544  130.3541  151.7295 H   0  0  0  0  0  0  0  0  0  0  0  0
  148.2967  131.8503  151.7267 H   0  0  0  0  0  0  0  0  0  0  0  0
  148.1218  130.7384  153.6689 H   0  0  0  0  0  0  0  0  0  0  0  0
  147.7139  132.2408  154.4744 H   0  0  0  0  0  0  0  0  0  0  0  0
  144.4914  134.6371  149.6242 H   0  0  0  0  0  0  0  0  0  0  0  0
  147.3834  135.6482  155.3388 H   0  0  0  0  0  0  0  0  0  0  0  0
  148.2679  137.6126  154.5498 H   0  0  0  0  0  0  0  0  0  0  0  0
  145.7322  138.2967  154.1008 H   0  0  0  0  0  0  0  0  0  0  0  0
  147.1183  139.2499  153.6438 H   0  0  0  0  0  0  0  0  0  0  0  0
  147.8994  139.0610  151.7316 H   0  0  0  0  0  0  0  0  0  0  0  0
  145.1612  132.0287  149.9913 H   0  0  0  0  0  0  0  0  0  0  0  0
  146.7047  132.6065  150.6696 H   0  0  0  0  0  0  0  0  0  0  0  0
  147.3957  130.5716  150.5674 H   0  0  0  0  0  0  0  0  0  0  0  0
  145.1182  137.0700  149.6974 H   0  0  0  0  0  0  0  0  0  0  0  0
  1  2  1  0  0  0  0
  1 24  1  0  0  0  0
  2  3  1  0  0  0  0
  2 25  1  0  0  0  0
  2 26  1  0  0  0  0
  3 20  1  0  0  0  0
  3 18  1  0  0  0  0
  3  4  1  0  0  0  0
  4  5  1  0  0  0  0
  5 21  1  0  0  0  0
  5  6  1  0  0  0  0
  5 17  1  0  0  0  0
  6 10  1  0  0  0  0
  6  7  1  0  0  0  0
  7  8  2  0  0  0  0
  7 27  1  0  0  0  0
  8  9  1  0  0  0  0
  8 36  1  0  0  0  0
  9 15  1  0  0  0  0
  9 10  2  0  0  0  0
 10 11  1  0  0  0  0
 11 12  2  0  0  0  0
 12 13  1  0  0  0  0
 12 28  1  0  0  0  0
 13 14  1  0  0  0  0
 13 29  1  0  0  0  0
 14 15  1  0  0  0  0
 14 30  1  0  0  0  0
 14 31  1  0  0  0  0
 15 22  1  0  0  0  0
 15 16  1  0  0  0  0
 16 32  1  0  0  0  0
 17 18  1  0  0  0  0
 17 33  1  0  0  0  0
 17 34  1  0  0  0  0
 18 23  1  0  0  0  0
 18 19  1  0  0  0  0
 19 35  1  0  0  0  0
M  CHG  1   8   1
M  END
> <s_m_source_file>
AV-unprocessed.smi

> <i_m_source_file_index>
157

> <i_lp_mmshare_version>
43012

> <i_f3d_flags>
0

> <s_epik_input>
W09IXVtDSDJdW0NASF0xT1tDQEhdKFtDSDJdW0NAQEhdMVtPSF0pbihbY0hdbjIpYyhjMjMpTj1bQ0hdW05IXVtDSDJdW0NASF0zW09IXQ==

> <s_epik_cmdline>
J2VwaWtfcHl0aG9uJywgJy1waCcsICc3LjAnLCAnLXRuJywgJzgnLCAnLW1hJywgJzIwMCcsICctbWV0YWxfYmluZGluZycsICctaW1hZScsICc8aW5maWxlLm1hZT4nLCAnLW9tYWUnLCAnPG91dGZpbGUubWFlPic=

> <r_epik_Ionization_Penalty>
1.68594

> <r_epik_Ionization_Penalty_Charging>
0

> <r_epik_Ionization_Penalty_Neutral>
1.68594

> <r_epik_State_Penalty>
1.79006

> <r_epik_Charging_Adjusted_Penalty>
1.79006

> <i_epik_Tot_Q>
1

> <i_epik_Tot_abs_Q>
1

> <r_epik_Metal_State_Penalty>
5.85324

> <b_epik_Metal_Only>
0

> <s_epik_Chemistry_Notes>
This compound has an imine and may undergo hydrolysis. This compound contains an acetal/aminal-like group ( X-CH(R)-Y where X, Y are N, S, or O) that may be acid/base labile, releasing an aldehyde.

> <s_lp_Force_Field>
OPLS_2005

> <r_lp_Energy>
55.0394

> <b_lp_Chiralities_Consistent>
1

> <s_lp_Variant>
AV-unprocessed.smi:157-25

> <Gold.Version>
5.8.1

> <Gold.Id.Protein>
6NUR|6NUR_protein|mol2

> <Gold.PLP.Fitness>
43.0107

> <Gold.PLP.PLP>
-30.3996

> <Gold.PLP.part.hbond>
-6.4623

> <Gold.PLP.part.metal>
0.0000

> <Gold.PLP.part.buried>
-2.7383

> <Gold.PLP.part.nonpolar>
-20.8595

> <Gold.PLP.part.repulsive>
0.3209

> <Gold.PLP.ligand.clash>
0.0000

> <Gold.PLP.ligand.torsion>
0.0736

> <Gold.PLP.Chemscore.Hbond>
3.6755

> <Gold.PLP.Chemscore.CHOScore>
0.5725

> <Gold.PLP.Chemscore.Metal>
0.0000

> <Gold.Chemscore.Hbonds>
donor molecule, donor type, donor heavy atom, donor atom, acceptor molecule, acceptor atom, score
      L1  H     1    24       P1 10747  1.00
      L1  H     8    36       P1 10171  0.48
      L1  H    16    32       P1  7957  0.54
      L1  H    19    35       P1 10747  0.69
      P1  H  7954  7966       L1    16  1.00
      L1  C     7    27       P1  7921  0.48

> <Gold.PLP.Chemscore.Internal.Correction>
0.0142

> <Gold.Rescore>
     Score         DG    S(hbond)    S(metal)    S(lipo)     H(rot)  DE(clash)    DE(int)     intcor
     11.01     -13.77       3.72        0.00      44.84       3.67       0.04       2.72       ----

> <Gold.Chemscore.Fitness>
11.0089

> <Gold.Chemscore.DG>
-13.7697

> <Gold.Chemscore.ZeroCoef>
-5.4800

> <Gold.Chemscore.Hbond>
3.7209

> <Gold.Chemscore.Metal>
0.0000

> <Gold.Chemscore.Lipo>
44.8445

> <Gold.Chemscore.Internal_Hbond>
0.0000

> <Gold.Chemscore.DEClash>
0.0380

> <Gold.Chemscore.DEInternal>
2.7229

> <Gold.Chemscore.Rot>
3.6659

> <Gold.Chemscore.Internal.Correction>
   9.000000E+99

> <Gold.Chemscore.Hbonds>
donor molecule, donor type, donor heavy atom, donor atom, acceptor molecule, acceptor atom, score
      L1  H     1    24       P1 10747  0.99
      L1  H     8    36       P1 10171  0.48
      L1  H    16    32       P1  7957  0.49
      L1  H    19    35       P1 10747  0.69
      P1  H  7954  7966       L1    16  0.72

> <Gold.Chemscore.Hbond.Weighted>
-12.4277

> <Gold.Chemscore.Metal.Weighted>
-0.0000

> <Gold.Chemscore.Lipo.Weighted>
-5.2468

> <Gold.Chemscore.Internal_Hbond.Weighted>
0.0000

> <Gold.Chemscore.DEClash.Weighted>
0.0380

> <Gold.Chemscore.DEInternal.Weighted>
2.7229

> <Gold.Chemscore.Rot.Weighted>
9.3848

> <Gold.Chemscore.Internal.Correction.Weighted>
   9.000000E+99

> <Gold.Protein.RotatedTorsions>
[ 6907 6896 6895 6894 ] final   61.07 input  -60.11 | X-H torsion
[ 7974 7965 7964 7962 ] final -104.82 input  175.53 | X-H torsion
[ 8008 7997 7996 7995 ] final  -73.99 input   59.86 | X-H torsion
[ 10167 10162 10161 10158 ] final  174.98 input  -65.29 | X-H torsion
[ 10718 10713 10712 10709 ] final  122.81 input   66.30 | X-H torsion
[ 10763 10752 10751 10750 ] final  -84.77 input  -60.55 | X-H torsion
[ 11005 11000 10999 10996 ] final  -95.32 input  -57.11 | X-H torsion

> <Gold.Protein.ActiveResidues>
 VAL166  LYS551  ARG553  GLY616  TRP617  ASP618  TYR619  PRO620  LYS621  CYS622 
 ASP623  PHE694  ASN695  SER759  ASP760  ASP761  ALA762  ILE779  LEU786  VAL792 
 PHE793  MET794  SER795  GLU796  ALA797  LYS798  CYS799  TRP800  GLU811  SER814 

> <Gold.Protein.RotatedAtoms>
  152.4057  134.6211  160.0050 H   0  0  0  0  0  0  0  0  0  0  0  0  # atno 6907 bound_to 6896
  151.6403  133.3321  159.3136 H   0  0  0  0  0  0  0  0  0  0  0  0  # atno 6908 bound_to 6896
  150.7952  134.7048  159.6615 H   0  0  0  0  0  0  0  0  0  0  0  0  # atno 6909 bound_to 6896
  145.2383  140.9196  143.3164 H   0  0  0  0  0  0  0  0  0  0  0  0  # atno 7974 bound_to 7965
  154.5293  140.0769  156.8315 H   0  0  0  0  0  0  0  0  0  0  0  0  # atno 8008 bound_to 7997
  155.3409  140.3407  155.4221 H   0  0  0  0  0  0  0  0  0  0  0  0  # atno 8009 bound_to 7997
  156.1764  140.1637  156.8341 H   0  0  0  0  0  0  0  0  0  0  0  0  # atno 8010 bound_to 7997
  139.5161  144.3084  152.0315 H   0  0  0  0  0  0  0  0  0  0  0  0  # atno 10167 bound_to 10162
  157.5714  131.1083  150.8360 H   0  0  0  0  0  0  0  0  0  0  0  0  # atno 10718 bound_to 10713
  154.6034  135.5509  153.7398 H   0  0  0  0  0  0  0  0  0  0  0  0  # atno 10763 bound_to 10752
  153.0164  135.6372  154.1682 H   0  0  0  0  0  0  0  0  0  0  0  0  # atno 10764 bound_to 10752
  154.1621  135.2896  155.3085 H   0  0  0  0  0  0  0  0  0  0  0  0  # atno 10765 bound_to 10752
  141.1445  133.8017  157.0418 H   0  0  0  0  0  0  0  0  0  0  0  0  # atno 11005 bound_to 11000
  144.9612  139.3978  143.6355 LP  0  0  0  0  0  0  0  0  0  0  0  0  # atno 17320 bound_to 7965
  146.3335  139.8666  142.8847 LP  0  0  0  0  0  0  0  0  0  0  0  0  # atno 17321 bound_to 7965
  140.2529  144.4150  150.6215 LP  0  0  0  0  0  0  0  0  0  0  0  0  # atno 17342 bound_to 10162
  140.6212  143.2176  151.6690 LP  0  0  0  0  0  0  0  0  0  0  0  0  # atno 17343 bound_to 10162
  156.8831  130.5186  149.5290 LP  0  0  0  0  0  0  0  0  0  0  0  0  # atno 17370 bound_to 10713
  156.0759  130.5781  150.9472 LP  0  0  0  0  0  0  0  0  0  0  0  0  # atno 17371 bound_to 10713
  140.0687  134.9714  157.1431 LP  0  0  0  0  0  0  0  0  0  0  0  0  # atno 17394 bound_to 11000
  140.3741  134.2358  155.7175 LP  0  0  0  0  0  0  0  0  0  0  0  0  # atno 17395 bound_to 11000

$$$$
