AV-unprocessed.smi:473|AV-procd|sdf|2662|dock9
  -GOLD-   2262023 73D 1   1.00000     0.00000
 Structure written by MMmdl.
 42 44  0  0  0  0  0  0  0  0  1 V2000
  152.7705  143.3062  160.9775 C   0  0  0  0  0  0  0  0  0  0  0  0
  152.2609  142.6616  159.7003 C   0  0  0  0  0  0  0  0  0  0  0  0
  152.7750  141.4035  159.3125 C   0  0  0  0  0  0  0  0  0  0  0  0
  152.3231  140.7682  158.1350 C   0  0  0  0  0  0  0  0  0  0  0  0
  152.6777  139.5524  157.5756 N   0  0  0  0  0  0  0  0  0  0  0  0
  151.9100  139.5223  156.4899 C   0  0  0  0  0  0  0  0  0  0  0  0
  151.0983  140.5763  156.2798 N   0  0  0  0  0  0  0  0  0  0  0  0
  150.1762  140.7654  155.1747 C   0  0  0  0  0  0  0  0  0  0  0  0
  149.0132  141.7119  155.5342 C   0  0  1  0  0  0  0  0  0  0  0  0
  148.5803  142.4547  154.4117 O   0  0  0  0  0  0  0  0  0  0  0  0
  147.8051  140.9936  156.1576 C   0  0  0  0  0  0  0  0  0  0  0  0
  146.9792  141.9303  156.8303 O   0  0  0  0  0  0  0  0  0  0  0  0
  147.6744  142.6750  157.8168 C   0  0  0  0  0  0  0  0  0  0  0  0
  146.6943  143.0503  158.8830 C   0  0  0  0  0  0  0  0  0  0  0  0
  145.3284  143.0167  158.9421 C   0  0  0  0  0  0  0  0  0  0  0  0
  144.9675  143.4966  160.2315 C   0  0  0  0  0  0  0  0  0  0  0  0
  146.1409  143.7833  160.8684 C   0  0  0  0  0  0  0  0  0  0  0  0
  147.2032  143.5157  160.0615 O   0  0  0  0  0  0  0  0  0  0  0  0
  151.3376  141.4331  157.3485 C   0  0  0  0  0  0  0  0  0  0  0  0
  150.8200  142.6854  157.7226 C   0  0  0  0  0  0  0  0  0  0  0  0
  151.2803  143.3048  158.9031 C   0  0  0  0  0  0  0  0  0  0  0  0
  150.7107  144.6550  159.3005 C   0  0  0  0  0  0  0  0  0  0  0  0
  153.5220  142.6849  161.4653 H   0  0  0  0  0  0  0  0  0  0  0  0
  151.9517  143.4553  161.6819 H   0  0  0  0  0  0  0  0  0  0  0  0
  153.2241  144.2741  160.7637 H   0  0  0  0  0  0  0  0  0  0  0  0
  153.5215  140.9128  159.9195 H   0  0  0  0  0  0  0  0  0  0  0  0
  151.9365  138.6845  155.8086 H   0  0  0  0  0  0  0  0  0  0  0  0
  150.7381  141.1479  154.3216 H   0  0  0  0  0  0  0  0  0  0  0  0
  149.7890  139.7897  154.8785 H   0  0  0  0  0  0  0  0  0  0  0  0
  149.3745  142.4436  156.2578 H   0  0  0  0  0  0  0  0  0  0  0  0
  148.4866  143.3591  154.6692 H   0  0  0  0  0  0  0  0  0  0  0  0
  147.2236  140.5170  155.3670 H   0  0  0  0  0  0  0  0  0  0  0  0
  148.1327  140.2043  156.8365 H   0  0  0  0  0  0  0  0  0  0  0  0
  148.4828  142.0801  158.2444 H   0  0  0  0  0  0  0  0  0  0  0  0
  148.1121  143.5729  157.3788 H   0  0  0  0  0  0  0  0  0  0  0  0
  144.6693  142.6881  158.1522 H   0  0  0  0  0  0  0  0  0  0  0  0
  143.9754  143.6157  160.6415 H   0  0  0  0  0  0  0  0  0  0  0  0
  146.3898  144.1654  161.8475 H   0  0  0  0  0  0  0  0  0  0  0  0
  150.0712  143.1622  157.1070 H   0  0  0  0  0  0  0  0  0  0  0  0
  149.9795  145.0077  158.5724 H   0  0  0  0  0  0  0  0  0  0  0  0
  151.5031  145.4010  159.3659 H   0  0  0  0  0  0  0  0  0  0  0  0
  150.2137  144.5892  160.2686 H   0  0  0  0  0  0  0  0  0  0  0  0
  1  2  1  0  0  0  0
  1 23  1  0  0  0  0
  1 24  1  0  0  0  0
  1 25  1  0  0  0  0
  2 21  1  0  0  0  0
  2  3  2  0  0  0  0
  3  4  1  0  0  0  0
  3 26  1  0  0  0  0
  4 19  2  0  0  0  0
  4  5  1  0  0  0  0
  5  6  2  0  0  0  0
  6  7  1  0  0  0  0
  6 27  1  0  0  0  0
  7  8  1  0  0  0  0
  7 19  1  0  0  0  0
  8  9  1  0  0  0  0
  8 28  1  0  0  0  0
  8 29  1  0  0  0  0
  9 10  1  0  0  0  0
  9 11  1  0  0  0  0
  9 30  1  0  0  0  0
 10 31  1  0  0  0  0
 11 12  1  0  0  0  0
 11 32  1  0  0  0  0
 11 33  1  0  0  0  0
 12 13  1  0  0  0  0
 13 14  1  0  0  0  0
 13 34  1  0  0  0  0
 13 35  1  0  0  0  0
 14 18  1  0  0  0  0
 14 15  2  0  0  0  0
 15 16  1  0  0  0  0
 15 36  1  0  0  0  0
 16 17  2  0  0  0  0
 16 37  1  0  0  0  0
 17 18  1  0  0  0  0
 17 38  1  0  0  0  0
 19 20  1  0  0  0  0
 20 21  2  0  0  0  0
 20 39  1  0  0  0  0
 21 22  1  0  0  0  0
 22 40  1  0  0  0  0
 22 41  1  0  0  0  0
 22 42  1  0  0  0  0
M  END
> <s_m_source_file>
AV-unprocessed.smi

> <i_m_source_file_index>
473

> <i_lp_mmshare_version>
43012

> <i_f3d_flags>
0

> <s_epik_input>
W0NIM11jKFtjSF0xKWMoW0NIM10pW2NIXWMoYzEyKW4oW2NIXW4yKVtDSDJdW0NASF0oW09IXSlbQ0gyXU9bQ0gyXWMzW2NIXVtjSF1bY0hdbzM=

> <s_epik_cmdline>
J2VwaWtfcHl0aG9uJywgJy1waCcsICc3LjAnLCAnLXRuJywgJzgnLCAnLW1hJywgJzIwMCcsICctbWV0YWxfYmluZGluZycsICctaW1hZScsICc8aW5maWxlLm1hZT4nLCAnLW9tYWUnLCAnPG91dGZpbGUubWFlPic=

> <r_epik_Ionization_Penalty>
0.112477

> <r_epik_Ionization_Penalty_Charging>
0

> <r_epik_Ionization_Penalty_Neutral>
0.112477

> <r_epik_State_Penalty>
0.102177

> <r_epik_Charging_Adjusted_Penalty>
0.102177

> <i_epik_Tot_Q>
0

> <i_epik_Tot_abs_Q>
0

> <r_epik_Metal_State_Penalty>
0.000111506

> <b_epik_Metal_Only>
0

> <s_lp_Force_Field>
OPLS_2005

> <r_lp_Energy>
9.30743

> <b_lp_Chiralities_Consistent>
1

> <s_lp_Variant>
AV-unprocessed.smi:473-2

> <Gold.Version>
5.8.1

> <Gold.Id.Protein>
6NUR|6NUR_protein|mol2

> <Gold.PLP.Fitness>
46.5273

> <Gold.PLP.PLP>
-39.8445

> <Gold.PLP.part.hbond>
-3.8748

> <Gold.PLP.part.metal>
0.0000

> <Gold.PLP.part.buried>
-4.7251

> <Gold.PLP.part.nonpolar>
-31.6699

> <Gold.PLP.part.repulsive>
0.1593

> <Gold.PLP.ligand.clash>
0.0000

> <Gold.PLP.ligand.torsion>
1.1904

> <Gold.PLP.Chemscore.Hbond>
3.0000

> <Gold.PLP.Chemscore.CHOScore>
0.0000

> <Gold.PLP.Chemscore.Metal>
0.0000

> <Gold.Chemscore.Hbonds>
donor molecule, donor type, donor heavy atom, donor atom, acceptor molecule, acceptor atom, score
      L1  H    10    31       P1  8028  1.00
      P1  H  6933  6944       L1    18  0.54
      P1  H  7997  8008       L1     5  0.51
      P1  H  8011  8017       L1    10  0.02

> <Gold.PLP.Chemscore.Internal.Correction>
0.0636

> <Gold.Rescore>
     Score         DG    S(hbond)    S(metal)    S(lipo)     H(rot)  DE(clash)    DE(int)     intcor
     16.29     -18.93       2.34        0.00     100.86       2.41       0.37       2.26       ----

> <Gold.Chemscore.Fitness>
16.2949

> <Gold.Chemscore.DG>
-18.9268

> <Gold.Chemscore.ZeroCoef>
-5.4800

> <Gold.Chemscore.Hbond>
2.3386

> <Gold.Chemscore.Metal>
0.0000

> <Gold.Chemscore.Lipo>
100.8636

> <Gold.Chemscore.Internal_Hbond>
0.0000

> <Gold.Chemscore.DEClash>
0.3673

> <Gold.Chemscore.DEInternal>
2.2646

> <Gold.Chemscore.Rot>
2.4083

> <Gold.Chemscore.Internal.Correction>
   9.000000E+99

> <Gold.Chemscore.Hbonds>
donor molecule, donor type, donor heavy atom, donor atom, acceptor molecule, acceptor atom, score
      L1  H    10    31       P1  8028  0.97
      P1  H  6933  6944       L1    18  0.16
      P1  H  7997  8008       L1     5  0.01
      P1  H  8011  8017       L1    10  0.01

> <Gold.Chemscore.Hbond.Weighted>
-7.8110

> <Gold.Chemscore.Metal.Weighted>
-0.0000

> <Gold.Chemscore.Lipo.Weighted>
-11.8010

> <Gold.Chemscore.Internal_Hbond.Weighted>
0.0000

> <Gold.Chemscore.DEClash.Weighted>
0.3673

> <Gold.Chemscore.DEInternal.Weighted>
2.2646

> <Gold.Chemscore.Rot.Weighted>
6.1653

> <Gold.Chemscore.Internal.Correction.Weighted>
   9.000000E+99

> <Gold.Protein.RotatedTorsions>
[ 6907 6896 6895 6894 ] final  139.15 input  -60.11 | X-H torsion
[ 7974 7965 7964 7962 ] final -114.60 input  175.53 | X-H torsion
[ 8008 7997 7996 7995 ] final  -48.60 input   59.86 | X-H torsion
[ 10167 10162 10161 10158 ] final   19.37 input  -65.29 | X-H torsion
[ 10718 10713 10712 10709 ] final -128.59 input   66.30 | X-H torsion
[ 10763 10752 10751 10750 ] final -172.10 input  -60.55 | X-H torsion
[ 11005 11000 10999 10996 ] final   18.91 input  -57.11 | X-H torsion

> <Gold.Protein.ActiveResidues>
 VAL166  LYS551  ARG553  GLY616  TRP617  ASP618  TYR619  PRO620  LYS621  CYS622 
 ASP623  PHE694  ASN695  SER759  ASP760  ASP761  ALA762  ILE779  LEU786  VAL792 
 PHE793  MET794  SER795  GLU796  ALA797  LYS798  CYS799  TRP800  GLU811  SER814 

> <Gold.Protein.RotatedAtoms>
  152.2582  133.5274  159.5365 H   0  0  0  0  0  0  0  0  0  0  0  0  # atno 6907 bound_to 6896
  150.7116  134.0866  159.3926 H   0  0  0  0  0  0  0  0  0  0  0  0  # atno 6908 bound_to 6896
  151.8784  135.0463  160.0537 H   0  0  0  0  0  0  0  0  0  0  0  0  # atno 6909 bound_to 6896
  145.1183  140.8654  143.3829 H   0  0  0  0  0  0  0  0  0  0  0  0  # atno 7974 bound_to 7965
  154.4031  140.1317  156.4366 H   0  0  0  0  0  0  0  0  0  0  0  0  # atno 8008 bound_to 7997
  155.7499  140.3488  155.5125 H   0  0  0  0  0  0  0  0  0  0  0  0  # atno 8009 bound_to 7997
  155.8959  140.1011  157.1375 H   0  0  0  0  0  0  0  0  0  0  0  0  # atno 8010 bound_to 7997
  140.5584  143.9382  150.6625 H   0  0  0  0  0  0  0  0  0  0  0  0  # atno 10167 bound_to 10162
  156.1965  130.6829  151.0488 H   0  0  0  0  0  0  0  0  0  0  0  0  # atno 10718 bound_to 10713
  154.6231  135.2877  155.0304 H   0  0  0  0  0  0  0  0  0  0  0  0  # atno 10763 bound_to 10752
  154.1491  135.6506  153.4963 H   0  0  0  0  0  0  0  0  0  0  0  0  # atno 10764 bound_to 10752
  153.0245  135.5351  154.7028 H   0  0  0  0  0  0  0  0  0  0  0  0  # atno 10765 bound_to 10752
  140.4196  134.1533  155.7672 H   0  0  0  0  0  0  0  0  0  0  0  0  # atno 11005 bound_to 11000
  145.0769  139.2989  143.5803 LP  0  0  0  0  0  0  0  0  0  0  0  0  # atno 17320 bound_to 7965
  146.3522  140.0262  142.8654 LP  0  0  0  0  0  0  0  0  0  0  0  0  # atno 17321 bound_to 7965
  140.2827  143.3378  152.1136 LP  0  0  0  0  0  0  0  0  0  0  0  0  # atno 17342 bound_to 10162
  139.5058  144.6802  151.6026 LP  0  0  0  0  0  0  0  0  0  0  0  0  # atno 17343 bound_to 10162
  157.6961  131.0793  150.6965 LP  0  0  0  0  0  0  0  0  0  0  0  0  # atno 17370 bound_to 10713
  156.7022  130.4627  149.5570 LP  0  0  0  0  0  0  0  0  0  0  0  0  # atno 17371 bound_to 10713
  141.1789  133.8455  157.1326 LP  0  0  0  0  0  0  0  0  0  0  0  0  # atno 17394 bound_to 11000
  140.0209  134.9946  157.0590 LP  0  0  0  0  0  0  0  0  0  0  0  0  # atno 17395 bound_to 11000

$$$$
