AV-unprocessed.smi:2172|AV-procd|sdf|8836|dock3
  -GOLD-   2272012 33D 1   1.00000     0.00000
 Structure written by MMmdl.
 37 39  0  0  0  0  0  0  0  0  2 V2000
  149.5146  142.1455  155.0673 O   0  0  0  0  0  0  0  0  0  0  0  0
  150.2513  141.2772  155.8997 C   0  0  0  0  0  0  0  0  0  0  0  0
  150.7457  141.9598  157.1325 C   0  0  0  0  0  0  0  0  0  0  0  0
  150.6883  143.2996  157.3735 N   0  3  0  0  0  0  0  0  0  0  0  0
  151.2670  143.5833  158.6106 C   0  0  0  0  0  0  0  0  0  0  0  0
  151.4469  144.7933  159.2739 C   0  0  0  0  0  0  0  0  0  0  0  0
  152.0882  144.7381  160.5285 C   0  0  0  0  0  0  0  0  0  0  0  0
  152.5204  143.5140  161.0780 C   0  0  0  0  0  0  0  0  0  0  0  0
  152.3281  142.2936  160.3980 C   0  0  0  0  0  0  0  0  0  0  0  0
  151.6955  142.3553  159.1557 C   0  0  0  0  0  0  0  0  0  0  0  0
  151.3543  141.3806  158.2082 N   0  0  0  0  0  0  0  0  0  0  0  0
  151.6875  139.9682  158.4611 C   0  0  0  0  0  0  0  0  0  0  0  0
  153.2045  139.7386  158.6157 C   0  0  2  0  0  0  0  0  0  0  0  0
  153.6516  138.9844  157.5082 O   0  0  0  0  0  0  0  0  0  0  0  0
  153.5592  139.0844  159.9437 C   0  0  0  0  0  0  0  0  0  0  0  0
  154.3270  139.7938  160.8923 C   0  0  0  0  0  0  0  0  0  0  0  0
  154.6313  139.2122  162.1382 C   0  0  0  0  0  0  0  0  0  0  0  0
  154.1714  137.9162  162.4421 C   0  0  0  0  0  0  0  0  0  0  0  0
  154.5397  137.2055  163.9703 Cl  0  0  0  0  0  0  0  0  0  0  0  0
  153.4077  137.2022  161.4986 C   0  0  0  0  0  0  0  0  0  0  0  0
  153.1021  137.7842  160.2532 C   0  0  0  0  0  0  0  0  0  0  0  0
  149.5489  143.0159  155.4345 H   0  0  0  0  0  0  0  0  0  0  0  0
  149.6183  140.4358  156.1822 H   0  0  0  0  0  0  0  0  0  0  0  0
  151.0916  140.8692  155.3383 H   0  0  0  0  0  0  0  0  0  0  0  0
  151.1184  145.7325  158.8537 H   0  0  0  0  0  0  0  0  0  0  0  0
  152.2534  145.6526  161.0795 H   0  0  0  0  0  0  0  0  0  0  0  0
  153.0104  143.5099  162.0408 H   0  0  0  0  0  0  0  0  0  0  0  0
  152.6695  141.3653  160.8307 H   0  0  0  0  0  0  0  0  0  0  0  0
  151.1394  139.6085  159.3317 H   0  0  0  0  0  0  0  0  0  0  0  0
  151.3080  139.3954  157.6146 H   0  0  0  0  0  0  0  0  0  0  0  0
  153.7169  140.6993  158.5560 H   0  0  0  0  0  0  0  0  0  0  0  0
  152.9130  138.5210  157.1432 H   0  0  0  0  0  0  0  0  0  0  0  0
  154.6757  140.7921  160.6711 H   0  0  0  0  0  0  0  0  0  0  0  0
  155.2157  139.7630  162.8605 H   0  0  0  0  0  0  0  0  0  0  0  0
  153.0522  136.2088  161.7299 H   0  0  0  0  0  0  0  0  0  0  0  0
  152.5064  137.2324  159.5408 H   0  0  0  0  0  0  0  0  0  0  0  0
  150.2891  143.9709  156.7303 H   0  0  0  0  0  0  0  0  0  0  0  0
  1  2  1  0  0  0  0
  1 22  1  0  0  0  0
  2  3  1  0  0  0  0
  2 23  1  0  0  0  0
  2 24  1  0  0  0  0
  3 11  1  0  0  0  0
  3  4  2  0  0  0  0
  4  5  1  0  0  0  0
  4 37  1  0  0  0  0
  5 10  2  0  0  0  0
  5  6  1  0  0  0  0
  6  7  2  0  0  0  0
  6 25  1  0  0  0  0
  7  8  1  0  0  0  0
  7 26  1  0  0  0  0
  8  9  2  0  0  0  0
  8 27  1  0  0  0  0
  9 10  1  0  0  0  0
  9 28  1  0  0  0  0
 10 11  1  0  0  0  0
 11 12  1  0  0  0  0
 12 13  1  0  0  0  0
 12 29  1  0  0  0  0
 12 30  1  0  0  0  0
 13 14  1  0  0  0  0
 13 15  1  0  0  0  0
 13 31  1  0  0  0  0
 14 32  1  0  0  0  0
 15 21  1  0  0  0  0
 15 16  2  0  0  0  0
 16 17  1  0  0  0  0
 16 33  1  0  0  0  0
 17 18  2  0  0  0  0
 17 34  1  0  0  0  0
 18 19  1  0  0  0  0
 18 20  1  0  0  0  0
 20 21  2  0  0  0  0
 20 35  1  0  0  0  0
 21 36  1  0  0  0  0
M  CHG  1   4   1
M  END
> <s_m_source_file>
AV-unprocessed.smi

> <i_m_source_file_index>
2172

> <i_lp_mmshare_version>
43012

> <i_f3d_flags>
0

> <s_epik_input>
W2NIXTFbY0hdW2NIXVtjSF1jKGMxMiluKGMobjIpW0NIMl1bT0hdKVtDSDJdW0NASF0oW09IXSljM1tjSF1bY0hdYyhDbClbY0hdW2NIXTM=

> <s_epik_cmdline>
J2VwaWtfcHl0aG9uJywgJy1waCcsICc3LjAnLCAnLXRuJywgJzgnLCAnLW1hJywgJzIwMCcsICctbWV0YWxfYmluZGluZycsICctaW1hZScsICc8aW5maWxlLm1hZT4nLCAnLW9tYWUnLCAnPG91dGZpbGUubWFlPic=

> <r_epik_Ionization_Penalty>
1.35643

> <r_epik_Ionization_Penalty_Charging>
1.35557

> <r_epik_Ionization_Penalty_Neutral>
0.000858184

> <r_epik_State_Penalty>
1.43401

> <r_epik_Charging_Adjusted_Penalty>
2.78958

> <i_epik_Tot_Q>
1

> <i_epik_Tot_abs_Q>
1

> <r_epik_Metal_State_Penalty>
5.47166

> <b_epik_Metal_Only>
0

> <s_lp_Force_Field>
OPLS_2005

> <r_lp_Energy>
15.2583

> <b_lp_Chiralities_Consistent>
1

> <s_lp_Variant>
AV-unprocessed.smi:2172-3

> <Gold.Version>
5.8.1

> <Gold.Id.Protein>
6NUR|6NUR_protein|mol2

> <Gold.PLP.Fitness>
58.3982

> <Gold.PLP.PLP>
-48.0615

> <Gold.PLP.part.hbond>
-3.0462

> <Gold.PLP.part.metal>
0.0000

> <Gold.PLP.part.buried>
-5.3849

> <Gold.PLP.part.nonpolar>
-40.1293

> <Gold.PLP.part.repulsive>
0.0000

> <Gold.PLP.ligand.clash>
0.0000

> <Gold.PLP.ligand.torsion>
0.8270

> <Gold.PLP.Chemscore.Hbond>
3.9913

> <Gold.PLP.Chemscore.CHOScore>
0.0000

> <Gold.PLP.Chemscore.Metal>
0.0000

> <Gold.Chemscore.Hbonds>
donor molecule, donor type, donor heavy atom, donor atom, acceptor molecule, acceptor atom, score
      L1  H     1    22       P1  8028  1.00
      L1  H     4    37       P1  8028  2.00
      P1  H  7997  8009       L1    14  0.99

> <Gold.PLP.Chemscore.Internal.Correction>
0.0170

> <Gold.Rescore>
     Score         DG    S(hbond)    S(metal)    S(lipo)     H(rot)  DE(clash)    DE(int)     intcor
     22.41     -23.29       2.76        0.00     132.56       2.70       0.02       0.87       ----

> <Gold.Chemscore.Fitness>
22.4084

> <Gold.Chemscore.DG>
-23.2924

> <Gold.Chemscore.ZeroCoef>
-5.4800

> <Gold.Chemscore.Hbond>
2.7559

> <Gold.Chemscore.Metal>
0.0000

> <Gold.Chemscore.Lipo>
132.5644

> <Gold.Chemscore.Internal_Hbond>
0.0000

> <Gold.Chemscore.DEClash>
0.0174

> <Gold.Chemscore.DEInternal>
0.8667

> <Gold.Chemscore.Rot>
2.6963

> <Gold.Chemscore.Internal.Correction>
   9.000000E+99

> <Gold.Chemscore.Hbonds>
donor molecule, donor type, donor heavy atom, donor atom, acceptor molecule, acceptor atom, score
      L1  H     1    22       P1  8028  0.96
      L1  H     4    37       P1  8028  0.98
      P1  H  7997  8009       L1    14  0.26

> <Gold.Chemscore.Hbond.Weighted>
-9.2048

> <Gold.Chemscore.Metal.Weighted>
-0.0000

> <Gold.Chemscore.Lipo.Weighted>
-15.5100

> <Gold.Chemscore.Internal_Hbond.Weighted>
0.0000

> <Gold.Chemscore.DEClash.Weighted>
0.0174

> <Gold.Chemscore.DEInternal.Weighted>
0.8667

> <Gold.Chemscore.Rot.Weighted>
6.9024

> <Gold.Chemscore.Internal.Correction.Weighted>
   9.000000E+99

> <Gold.Protein.RotatedTorsions>
[ 6907 6896 6895 6894 ] final -130.38 input  -60.11 | X-H torsion
[ 7974 7965 7964 7962 ] final    0.48 input  175.53 | X-H torsion
[ 8008 7997 7996 7995 ] final  175.27 input   59.86 | X-H torsion
[ 10167 10162 10161 10158 ] final -152.56 input  -65.29 | X-H torsion
[ 10718 10713 10712 10709 ] final  -17.03 input   66.30 | X-H torsion
[ 10763 10752 10751 10750 ] final  108.20 input  -60.55 | X-H torsion
[ 11005 11000 10999 10996 ] final  119.47 input  -57.11 | X-H torsion

> <Gold.Protein.ActiveResidues>
 VAL166  LYS551  ARG553  GLY616  TRP617  ASP618  TYR619  PRO620  LYS621  CYS622 
 ASP623  PHE694  ASN695  SER759  ASP760  ASP761  ALA762  ILE779  LEU786  VAL792 
 PHE793  MET794  SER795  GLU796  ALA797  LYS798  CYS799  TRP800  GLU811  SER814 

> <Gold.Protein.RotatedAtoms>
  150.9391  133.6677  159.2794 H   0  0  0  0  0  0  0  0  0  0  0  0  # atno 6907 bound_to 6896
  151.4073  135.0978  159.9584 H   0  0  0  0  0  0  0  0  0  0  0  0  # atno 6908 bound_to 6896
  152.5061  133.8872  159.7430 H   0  0  0  0  0  0  0  0  0  0  0  0  # atno 6909 bound_to 6896
  146.2434  140.1132  142.8343 H   0  0  0  0  0  0  0  0  0  0  0  0  # atno 7974 bound_to 7965
  156.0887  140.1413  156.9619 H   0  0  0  0  0  0  0  0  0  0  0  0  # atno 8008 bound_to 7997
  154.4629  140.0937  156.6989 H   0  0  0  0  0  0  0  0  0  0  0  0  # atno 8009 bound_to 7997
  155.4955  140.3449  155.4364 H   0  0  0  0  0  0  0  0  0  0  0  0  # atno 8010 bound_to 7997
  139.7171  143.9016  152.2490 H   0  0  0  0  0  0  0  0  0  0  0  0  # atno 10167 bound_to 10162
  156.5793  130.4770  149.6327 H   0  0  0  0  0  0  0  0  0  0  0  0  # atno 10718 bound_to 10713
  153.4173  135.3820  155.2089 H   0  0  0  0  0  0  0  0  0  0  0  0  # atno 10763 bound_to 10752
  154.8742  135.3808  154.4427 H   0  0  0  0  0  0  0  0  0  0  0  0  # atno 10764 bound_to 10752
  153.4943  135.7088  153.5929 H   0  0  0  0  0  0  0  0  0  0  0  0  # atno 10765 bound_to 10752
  139.9148  134.9628  156.7660 H   0  0  0  0  0  0  0  0  0  0  0  0  # atno 11005 bound_to 11000
  145.0469  140.8988  143.5018 LP  0  0  0  0  0  0  0  0  0  0  0  0  # atno 17320 bound_to 7965
  145.1223  139.2686  143.5582 LP  0  0  0  0  0  0  0  0  0  0  0  0  # atno 17321 bound_to 7965
  139.8902  144.6970  150.8779 LP  0  0  0  0  0  0  0  0  0  0  0  0  # atno 17342 bound_to 10162
  140.7746  143.3592  151.1861 LP  0  0  0  0  0  0  0  0  0  0  0  0  # atno 17343 bound_to 10162
  156.2645  130.6981  151.1760 LP  0  0  0  0  0  0  0  0  0  0  0  0  # atno 17370 bound_to 10713
  157.7330  131.0595  150.5599 LP  0  0  0  0  0  0  0  0  0  0  0  0  # atno 17371 bound_to 10713
  140.6659  133.9603  155.7830 LP  0  0  0  0  0  0  0  0  0  0  0  0  # atno 17394 bound_to 11000
  141.0611  134.0344  157.3657 LP  0  0  0  0  0  0  0  0  0  0  0  0  # atno 17395 bound_to 11000

$$$$
