#       Name:                AV-unprocessed.smi:1417
#       Creating user name   scv26
#       Creation time:       Fri Mar 27 05:41:12 2020


#       File generated by GOLD software.
#

@<TRIPOS>MOLECULE
AV-unprocessed.smi:1417
    47    48     1
SMALL
NO_CHARGES


@<TRIPOS>ATOM
      1 ****        -6.9008   3.3887   1.3937 C.3            1 S1                 0.0000
      2 ****        -5.8545   2.5930   0.6910 C.2            1 S1                 0.0000
      3 ****        -5.0463   1.5667   1.0906 C.2            1 S1                 0.0000
      4 ****        -4.2809   1.2836  -0.0733 C.2            1 S1                 0.0000
      5 ****        -3.3409   0.3324  -0.1848 N.pl3          1 S1                -1.0000
      6 ****        -2.0617   0.5960   0.1664 C.2            1 S1                 0.0000
      7 ****        -1.6248   1.6685   0.5904 O.2            1 S1                 0.0000
      8 ****        -1.2367  -0.4502   0.0167 N.am           1 S1                 0.0000
      9 ****         0.1927  -0.4614   0.3113 C.3            1 S1                 0.0000
     10 ****         0.9959   0.1143  -0.8686 C.3            1 S1                 0.0000
     11 ****         2.5073   0.0134  -0.6110 C.3            1 S1                 0.0000
     12 ****         2.9115  -1.3910  -0.3340 N.4            1 S1                 1.0000
     13 ****         4.3817  -1.5582  -0.2067 C.3            1 S1                 0.0000
     14 ****         5.1009  -1.5551  -1.5593 C.2            1 S1                 0.0000
     15 ****         6.3919  -1.2161  -1.5551 N.am           1 S1                 0.0000
     16 ****         4.5085  -1.8683  -2.5904 O.2            1 S1                 0.0000
     17 ****         2.1746  -1.9535   0.8262 C.3            1 S1                 0.0000
     18 ****         0.6556  -1.8983   0.5970 C.3            1 S1                 0.0000
     19 ****        -4.6083   2.0575  -1.0947 N.2            1 S1                 0.0000
     20 ****        -5.6124   2.9048  -0.6107 O.3            1 S1                 0.0000
     21 ****        -7.6678   2.7353   1.8092 H              1 S1                 0.0000
     22 ****        -7.3858   4.0893   0.7137 H              1 S1                 0.0000
     23 ****        -6.4635   3.9604   2.2123 H              1 S1                 0.0000
     24 ****        -5.0053   1.0960   2.0615 H              1 S1                 0.0000
     25 ****        -1.6396  -1.3072  -0.3333 H              1 S1                 0.0000
     26 ****         0.3814   0.1406   1.2025 H              1 S1                 0.0000
     27 ****         0.7473  -0.4234  -1.7849 H              1 S1                 0.0000
     28 ****         0.7225   1.1564  -1.0386 H              1 S1                 0.0000
     29 ****         3.0424   0.3943  -1.4812 H              1 S1                 0.0000
     30 ****         2.7858   0.6475   0.2322 H              1 S1                 0.0000
     31 ****         4.7906  -0.7879   0.4495 H              1 S1                 0.0000
     32 ****         4.6035  -2.5182   0.2614 H              1 S1                 0.0000
     33 ****         6.9151  -1.1956  -2.4186 H              1 S1                 0.0000
     34 ****         6.8442  -0.9780  -0.6835 H              1 S1                 0.0000
     35 ****         2.4731  -2.9904   0.9852 H              1 S1                 0.0000
     36 ****         2.4402  -1.4031   1.7303 H              1 S1                 0.0000
     37 ****         0.1360  -2.2922   1.4714 H              1 S1                 0.0000
     38 ****         0.3913  -2.5483  -0.2388 H              1 S1                 0.0000
     39 ****         2.6357  -1.9390  -1.1368 H              1 S1                 0.0000
     40 ****        -3.5870  -0.5738  -0.5285 LP             1 S1                 0.0000
     41 ****        -2.2393   2.4495   0.7026 LP             1 S1                 0.0000
     42 ****        -0.6561   1.7573   0.8221 LP             1 S1                 0.0000
     43 ****         3.5440  -2.1297  -2.5531 LP             1 S1                 0.0000
     44 ****         4.9912  -1.8615  -3.4661 LP             1 S1                 0.0000
     45 ****        -4.2211   2.0410  -2.0165 LP             1 S1                 0.0000
     46 ****        -5.3120   3.8562  -0.6788 LP             1 S1                 0.0000
     47 ****        -6.4466   2.7795  -1.1477 LP             1 S1                 0.0000
@<TRIPOS>BOND
    1    1    2 1     
    2    1   21 1     
    3    1   22 1     
    4    1   23 1     
    5    2   20 1     
    6    2    3 2     
    7    3    4 1     
    8    3   24 1     
    9    4    5 1     
   10    4   19 2     
   11    5    6 1     
   12    6    7 2     
   13    6    8 am    
   14    8    9 1     
   15    8   25 1     
   16    9   18 1     
   17    9   10 1     
   18    9   26 1     
   19   10   11 1     
   20   10   27 1     
   21   10   28 1     
   22   11   12 1     
   23   11   29 1     
   24   11   30 1     
   25   12   13 1     
   26   12   17 1     
   27   12   39 1     
   28   13   14 1     
   29   13   31 1     
   30   13   32 1     
   31   14   15 am    
   32   14   16 2     
   33   15   33 1     
   34   15   34 1     
   35   17   18 1     
   36   17   35 1     
   37   17   36 1     
   38   18   37 1     
   39   18   38 1     
   40   19   20 1     
   41    5   40 1     
   42    7   41 1     
   43    7   42 1     
   44   16   43 1     
   45   16   44 1     
   46   19   45 1     
   47   20   46 1     
   48   20   47 1     
@<TRIPOS>SUBSTRUCTURE
      1 S1             1
@<TRIPOS>SET
LONE_PAIRS      STATIC     ATOMS    <user>   **** ""
8 40 41 42 43 44 45 46 47
DONOR_HYDROGENS      STATIC     ATOMS    <user>   **** ""
4 25 39 33 34
ATOM$BLUE        STATIC     ATOMS    COLORGROUP SYSTEM
8 40 41 42 43 44 45 46 47
ATOM$RED        STATIC     ATOMS    COLORGROUP SYSTEM
4 25 39 33 34
