AV-unprocessed.smi:2930|AV-procd|sdf|11240|dock4
  -GOLD-   2272016133D 1   1.00000     0.00000
 Structure written by MMmdl.
 40 41  0  0  0  0  0  0  0  0  1 V2000
  152.5615  145.0093  158.8541 C   0  0  0  0  0  0  0  0  0  0  0  0
  152.3829  143.5230  158.5152 C   0  0  2  0  0  0  0  0  0  0  0  0
  151.1732  143.3559  157.7136 N   0  0  0  0  0  0  0  0  0  0  0  0
  150.8069  142.2362  157.0733 C   0  0  0  0  0  0  0  0  0  0  0  0
  151.4693  141.1990  157.0800 O   0  0  0  0  0  0  0  0  0  0  0  0
  149.6436  142.4097  156.4236 N   0  0  0  0  0  0  0  0  0  0  0  0
  148.9097  141.4643  155.6584 C   0  0  0  0  0  0  0  0  0  0  0  0
  148.1037  141.7694  154.5356 C   0  0  0  0  0  0  0  0  0  0  0  0
  147.4517  140.8069  153.8492 N   0  0  0  0  0  0  0  0  0  0  0  0
  147.5925  139.5403  154.2618 C   0  0  0  0  0  0  0  0  0  0  0  0
  146.9125  138.5506  153.5462 N   0  0  0  0  0  0  0  0  0  0  0  0
  146.5756  137.2697  154.1605 C   0  0  0  0  0  0  0  0  0  0  0  0
  146.5251  138.7564  152.1535 C   0  0  0  0  0  0  0  0  0  0  0  0
  148.3375  139.1468  155.3033 N   0  0  0  0  0  0  0  0  0  0  0  0
  148.9957  140.0992  155.9968 C   0  0  0  0  0  0  0  0  0  0  0  0
  152.3057  142.6529  159.7714 C   0  0  0  0  0  0  0  0  0  0  0  0
  152.3286  143.3081  161.1612 C   0  0  0  0  0  0  0  0  0  0  0  0
  153.1035  142.0906  161.6726 C   0  0  0  0  0  0  0  0  0  0  0  0
  153.5246  141.8328  160.2237 C   0  0  0  0  0  0  0  0  0  0  0  0
  153.4766  145.1758  159.4230 H   0  0  0  0  0  0  0  0  0  0  0  0
  151.7279  145.3846  159.4487 H   0  0  0  0  0  0  0  0  0  0  0  0
  152.6247  145.6134  157.9485 H   0  0  0  0  0  0  0  0  0  0  0  0
  153.2500  143.2231  157.9240 H   0  0  0  0  0  0  0  0  0  0  0  0
  150.5645  144.1582  157.6458 H   0  0  0  0  0  0  0  0  0  0  0  0
  149.2542  143.3406  156.4509 H   0  0  0  0  0  0  0  0  0  0  0  0
  147.9818  142.7718  154.1563 H   0  0  0  0  0  0  0  0  0  0  0  0
  145.9297  137.4213  155.0258 H   0  0  0  0  0  0  0  0  0  0  0  0
  147.4796  136.7573  154.4909 H   0  0  0  0  0  0  0  0  0  0  0  0
  146.0539  136.6092  153.4680 H   0  0  0  0  0  0  0  0  0  0  0  0
  147.4082  138.9209  151.5353 H   0  0  0  0  0  0  0  0  0  0  0  0
  145.8750  139.6271  152.0635 H   0  0  0  0  0  0  0  0  0  0  0  0
  145.9890  137.8986  151.7475 H   0  0  0  0  0  0  0  0  0  0  0  0
  149.5949  139.7657  156.8315 H   0  0  0  0  0  0  0  0  0  0  0  0
  151.4415  141.9864  159.7237 H   0  0  0  0  0  0  0  0  0  0  0  0
  152.9203  144.2248  161.1882 H   0  0  0  0  0  0  0  0  0  0  0  0
  151.3474  143.4499  161.6152 H   0  0  0  0  0  0  0  0  0  0  0  0
  153.9241  142.3223  162.3520 H   0  0  0  0  0  0  0  0  0  0  0  0
  152.4530  141.3099  162.0699 H   0  0  0  0  0  0  0  0  0  0  0  0
  153.5070  140.7858  159.9198 H   0  0  0  0  0  0  0  0  0  0  0  0
  154.4741  142.3084  159.9720 H   0  0  0  0  0  0  0  0  0  0  0  0
  1  2  1  0  0  0  0
  1 20  1  0  0  0  0
  1 21  1  0  0  0  0
  1 22  1  0  0  0  0
  2  3  1  0  0  0  0
  2 16  1  0  0  0  0
  2 23  1  0  0  0  0
  3  4  1  0  0  0  0
  3 24  1  0  0  0  0
  4  5  2  0  0  0  0
  4  6  1  0  0  0  0
  6  7  1  0  0  0  0
  6 25  1  0  0  0  0
  7 15  1  0  0  0  0
  7  8  2  0  0  0  0
  8  9  1  0  0  0  0
  8 26  1  0  0  0  0
  9 10  2  0  0  0  0
 10 11  1  0  0  0  0
 10 14  1  0  0  0  0
 11 12  1  0  0  0  0
 11 13  1  0  0  0  0
 12 27  1  0  0  0  0
 12 28  1  0  0  0  0
 12 29  1  0  0  0  0
 13 30  1  0  0  0  0
 13 31  1  0  0  0  0
 13 32  1  0  0  0  0
 14 15  2  0  0  0  0
 15 33  1  0  0  0  0
 16 19  1  0  0  0  0
 16 17  1  0  0  0  0
 16 34  1  0  0  0  0
 17 18  1  0  0  0  0
 17 35  1  0  0  0  0
 17 36  1  0  0  0  0
 18 19  1  0  0  0  0
 18 37  1  0  0  0  0
 18 38  1  0  0  0  0
 19 39  1  0  0  0  0
 19 40  1  0  0  0  0
M  END
> <s_m_source_file>
AV-unprocessed.smi

> <i_m_source_file_index>
2930

> <i_lp_mmshare_version>
43012

> <i_f3d_flags>
0

> <s_epik_input>
W0NIMl0xW0NIMl1bQ0gyXVtDSF0xW0NASF0oW0NIM10pW05IXUMoPU8pW05IXWMyW2NIXW5jKE4oW0NIM10pW0NIM10pbltjSF0y

> <s_epik_cmdline>
J2VwaWtfcHl0aG9uJywgJy1waCcsICc3LjAnLCAnLXRuJywgJzgnLCAnLW1hJywgJzIwMCcsICctbWV0YWxfYmluZGluZycsICctaW1hZScsICc8aW5maWxlLm1hZT4nLCAnLW9tYWUnLCAnPG91dGZpbGUubWFlPic=

> <r_lp_tautomer_probability>
1

> <r_epik_Ionization_Penalty>
0.000323856

> <r_epik_Ionization_Penalty_Charging>
0

> <r_epik_Ionization_Penalty_Neutral>
0.000323856

> <r_epik_State_Penalty>
-0

> <r_epik_Charging_Adjusted_Penalty>
0

> <i_epik_Tot_Q>
0

> <i_epik_Tot_abs_Q>
0

> <r_epik_Metal_State_Penalty>
-0

> <b_epik_Metal_Only>
0

> <s_lp_Force_Field>
OPLS_2005

> <r_lp_Energy>
8.18879

> <b_lp_Chiralities_Consistent>
1

> <s_lp_Variant>
AV-unprocessed.smi:2930-1

> <Gold.Version>
5.8.1

> <Gold.Id.Protein>
6NUR|6NUR_protein|mol2

> <Gold.PLP.Fitness>
41.1114

> <Gold.PLP.PLP>
-39.8507

> <Gold.PLP.part.hbond>
-1.0000

> <Gold.PLP.part.metal>
0.0000

> <Gold.PLP.part.buried>
-4.0716

> <Gold.PLP.part.nonpolar>
-35.0173

> <Gold.PLP.part.repulsive>
0.3062

> <Gold.PLP.ligand.clash>
0.0000

> <Gold.PLP.ligand.torsion>
1.8731

> <Gold.PLP.Chemscore.Hbond>
1.0000

> <Gold.PLP.Chemscore.CHOScore>
0.6307

> <Gold.PLP.Chemscore.Metal>
0.0000

> <Gold.Chemscore.Hbonds>
donor molecule, donor type, donor heavy atom, donor atom, acceptor molecule, acceptor atom, score
      L1  H     6    25       P1  8028  0.99
      L1  C     8    26       P1  8028  0.66

> <Gold.PLP.Chemscore.Internal.Correction>
0.1148

> <Gold.Rescore>
     Score         DG    S(hbond)    S(metal)    S(lipo)     H(rot)  DE(clash)    DE(int)     intcor
     16.15     -19.27       1.58        0.00      98.90       1.19       0.04       3.08       ----

> <Gold.Chemscore.Fitness>
16.1451

> <Gold.Chemscore.DG>
-19.2710

> <Gold.Chemscore.ZeroCoef>
-5.4800

> <Gold.Chemscore.Hbond>
1.5805

> <Gold.Chemscore.Metal>
0.0000

> <Gold.Chemscore.Lipo>
98.8984

> <Gold.Chemscore.Internal_Hbond>
0.0000

> <Gold.Chemscore.DEClash>
0.0437

> <Gold.Chemscore.DEInternal>
3.0821

> <Gold.Chemscore.Rot>
1.1949

> <Gold.Chemscore.Internal.Correction>
   9.000000E+99

> <Gold.Chemscore.Hbonds>
donor molecule, donor type, donor heavy atom, donor atom, acceptor molecule, acceptor atom, score
      L1  H     6    25       P1  8028  0.93

> <Gold.Chemscore.Hbond.Weighted>
-5.2788

> <Gold.Chemscore.Metal.Weighted>
-0.0000

> <Gold.Chemscore.Lipo.Weighted>
-11.5711

> <Gold.Chemscore.Internal_Hbond.Weighted>
0.0000

> <Gold.Chemscore.DEClash.Weighted>
0.0437

> <Gold.Chemscore.DEInternal.Weighted>
3.0821

> <Gold.Chemscore.Rot.Weighted>
3.0590

> <Gold.Chemscore.Internal.Correction.Weighted>
   9.000000E+99

> <Gold.Protein.RotatedTorsions>
[ 6907 6896 6895 6894 ] final  103.42 input  -60.11 | X-H torsion
[ 7974 7965 7964 7962 ] final -117.79 input  175.53 | X-H torsion
[ 8008 7997 7996 7995 ] final  -62.64 input   59.86 | X-H torsion
[ 10167 10162 10161 10158 ] final   49.57 input  -65.29 | X-H torsion
[ 10718 10713 10712 10709 ] final  177.22 input   66.30 | X-H torsion
[ 10763 10752 10751 10750 ] final   34.57 input  -60.55 | X-H torsion
[ 11005 11000 10999 10996 ] final   46.38 input  -57.11 | X-H torsion

> <Gold.Protein.ActiveResidues>
 VAL166  LYS551  ARG553  GLY616  TRP617  ASP618  TYR619  PRO620  LYS621  CYS622 
 ASP623  PHE694  ASN695  SER759  ASP760  ASP761  ALA762  ILE779  LEU786  VAL792 
 PHE793  MET794  SER795  GLU796  ALA797  LYS798  CYS799  TRP800  GLU811  SER814 

> <Gold.Protein.RotatedAtoms>
  152.5296  133.9829  159.7814 H   0  0  0  0  0  0  0  0  0  0  0  0  # atno 6907 bound_to 6896
  151.0079  133.5985  159.2693 H   0  0  0  0  0  0  0  0  0  0  0  0  # atno 6908 bound_to 6896
  151.3070  135.0790  159.9312 H   0  0  0  0  0  0  0  0  0  0  0  0  # atno 6909 bound_to 6896
  145.0811  140.8426  143.4038 H   0  0  0  0  0  0  0  0  0  0  0  0  # atno 7974 bound_to 7965
  154.4511  140.0992  156.6619 H   0  0  0  0  0  0  0  0  0  0  0  0  # atno 8008 bound_to 7997
  155.5284  140.3480  155.4402 H   0  0  0  0  0  0  0  0  0  0  0  0  # atno 8009 bound_to 7997
  156.0681  140.1343  156.9850 H   0  0  0  0  0  0  0  0  0  0  0  0  # atno 8010 bound_to 7997
  140.2815  144.3151  150.6263 H   0  0  0  0  0  0  0  0  0  0  0  0  # atno 10167 bound_to 10162
  156.9085  130.9902  151.3024 H   0  0  0  0  0  0  0  0  0  0  0  0  # atno 10718 bound_to 10713
  153.0158  135.6356  154.1690 H   0  0  0  0  0  0  0  0  0  0  0  0  # atno 10763 bound_to 10752
  154.1429  135.2833  155.3157 H   0  0  0  0  0  0  0  0  0  0  0  0  # atno 10764 bound_to 10752
  154.6111  135.5556  153.7535 H   0  0  0  0  0  0  0  0  0  0  0  0  # atno 10765 bound_to 10752
  140.1374  134.4627  155.8475 H   0  0  0  0  0  0  0  0  0  0  0  0  # atno 11005 bound_to 11000
  145.1177  139.2715  143.5605 LP  0  0  0  0  0  0  0  0  0  0  0  0  # atno 17320 bound_to 7965
  146.3531  140.0791  142.8618 LP  0  0  0  0  0  0  0  0  0  0  0  0  # atno 17321 bound_to 7965
  140.5808  143.2173  151.7432 LP  0  0  0  0  0  0  0  0  0  0  0  0  # atno 17342 bound_to 10162
  139.4961  144.4083  152.0108 LP  0  0  0  0  0  0  0  0  0  0  0  0  # atno 17343 bound_to 10162
  157.5982  130.8493  149.8761 LP  0  0  0  0  0  0  0  0  0  0  0  0  # atno 17370 bound_to 10713
  156.0547  130.3710  150.1119 LP  0  0  0  0  0  0  0  0  0  0  0  0  # atno 17371 bound_to 10713
  141.2180  133.6819  156.7183 LP  0  0  0  0  0  0  0  0  0  0  0  0  # atno 17394 bound_to 11000
  140.2765  134.8351  157.3895 LP  0  0  0  0  0  0  0  0  0  0  0  0  # atno 17395 bound_to 11000

$$$$
