AV-unprocessed.smi:1244|AV-procd|sdf|5233|dock1
  -GOLD-   22720 4333D 1   1.00000     0.00000
 Structure written by MMmdl.
 56 58  0  0  0  0  0  0  0  0  3 V2000
  143.3444  135.2501  162.4944 C   0  0  0  0  0  0  0  0  0  0  0  0
  144.7271  135.5136  161.8881 C   0  0  2  0  0  0  0  0  0  0  0  0
  145.3975  134.2170  161.3897 C   0  0  0  0  0  0  0  0  0  0  0  0
  146.7683  134.4770  160.8857 N   0  3  1  0  0  0  0  0  0  0  0  0
  146.7992  135.0824  159.5278 C   0  0  0  0  0  0  0  0  0  0  0  0
  148.2214  135.4997  159.1059 C   0  0  0  0  0  0  0  0  0  0  0  0
  148.2172  136.7659  158.3815 N   0  0  0  0  0  0  0  0  0  0  0  0
  149.1041  137.7544  158.5648 C   0  0  0  0  0  0  0  0  0  0  0  0
  150.0210  137.6997  159.3842 O   0  0  0  0  0  0  0  0  0  0  0  0
  148.8689  138.7846  157.7346 N   0  0  0  0  0  0  0  0  0  0  0  0
  149.6099  139.9945  157.6085 C   0  0  0  0  0  0  0  0  0  0  0  0
  150.7612  140.2382  158.4012 C   0  0  0  0  0  0  0  0  0  0  0  0
  151.4318  141.4722  158.3075 C   0  0  0  0  0  0  0  0  0  0  0  0
  150.9324  142.4528  157.4340 C   0  0  0  0  0  0  0  0  0  0  0  0
  149.8283  142.1965  156.7027 N   0  3  0  0  0  0  0  0  0  0  0  0
  149.1474  141.0235  156.7374 C   0  0  0  0  0  0  0  0  0  0  0  0
  148.0134  140.8924  155.9040 N   0  0  0  0  0  0  0  0  0  0  0  0
  147.4222  142.0671  155.2734 C   0  0  0  0  0  0  0  0  0  0  0  0
  146.4927  141.5122  154.1978 C   0  0  0  0  0  0  0  0  0  0  0  0
  147.2486  140.2767  153.7177 C   0  0  0  0  0  0  0  0  0  0  0  0
  147.9485  139.7633  154.9809 C   0  0  0  0  0  0  0  0  0  0  0  0
  147.5664  135.2007  161.9086 C   0  0  0  0  0  0  0  0  0  0  0  0
  146.8363  136.4634  162.4157 C   0  0  2  0  0  0  0  0  0  0  0  0
  147.5938  137.1432  163.5615 C   0  0  0  0  0  0  0  0  0  0  0  0
  145.5464  136.0984  162.8947 O   0  0  0  0  0  0  0  0  0  0  0  0
  142.6710  134.8077  161.7599 H   0  0  0  0  0  0  0  0  0  0  0  0
  142.8897  136.1769  162.8452 H   0  0  0  0  0  0  0  0  0  0  0  0
  143.4080  134.5688  163.3433 H   0  0  0  0  0  0  0  0  0  0  0  0
  144.6111  136.2180  161.0628 H   0  0  0  0  0  0  0  0  0  0  0  0
  145.4677  133.5046  162.2129 H   0  0  0  0  0  0  0  0  0  0  0  0
  144.7919  133.7346  160.6213 H   0  0  0  0  0  0  0  0  0  0  0  0
  146.4380  134.3511  158.8035 H   0  0  0  0  0  0  0  0  0  0  0  0
  146.1125  135.9270  159.4725 H   0  0  0  0  0  0  0  0  0  0  0  0
  148.8871  135.5838  159.9653 H   0  0  0  0  0  0  0  0  0  0  0  0
  148.6526  134.7388  158.4545 H   0  0  0  0  0  0  0  0  0  0  0  0
  147.4967  136.8908  157.6850 H   0  0  0  0  0  0  0  0  0  0  0  0
  148.1400  138.6480  157.0497 H   0  0  0  0  0  0  0  0  0  0  0  0
  151.1301  139.5039  159.1011 H   0  0  0  0  0  0  0  0  0  0  0  0
  152.3088  141.6673  158.9073 H   0  0  0  0  0  0  0  0  0  0  0  0
  151.3753  143.4294  157.3014 H   0  0  0  0  0  0  0  0  0  0  0  0
  146.8839  142.6801  155.9969 H   0  0  0  0  0  0  0  0  0  0  0  0
  148.1938  142.6807  154.8067 H   0  0  0  0  0  0  0  0  0  0  0  0
  145.5403  141.2172  154.6409 H   0  0  0  0  0  0  0  0  0  0  0  0
  146.2899  142.2280  153.4004 H   0  0  0  0  0  0  0  0  0  0  0  0
  146.5986  139.5304  153.2601 H   0  0  0  0  0  0  0  0  0  0  0  0
  147.9949  140.5697  152.9780 H   0  0  0  0  0  0  0  0  0  0  0  0
  148.9364  139.3619  154.7509 H   0  0  0  0  0  0  0  0  0  0  0  0
  147.3574  138.9689  155.4373 H   0  0  0  0  0  0  0  0  0  0  0  0
  147.7310  134.5202  162.7453 H   0  0  0  0  0  0  0  0  0  0  0  0
  148.5551  135.4552  161.5292 H   0  0  0  0  0  0  0  0  0  0  0  0
  146.7260  137.1878  161.6077 H   0  0  0  0  0  0  0  0  0  0  0  0
  148.5901  137.4524  163.2444 H   0  0  0  0  0  0  0  0  0  0  0  0
  147.7069  136.4729  164.4140 H   0  0  0  0  0  0  0  0  0  0  0  0
  147.0646  138.0324  163.9051 H   0  0  0  0  0  0  0  0  0  0  0  0
  147.1960  133.5684  160.7775 H   0  0  0  0  0  0  0  0  0  0  0  0
  149.4897  142.9291  156.0788 H   0  0  0  0  0  0  0  0  0  0  0  0
  1  2  1  0  0  0  0
  1 26  1  0  0  0  0
  1 27  1  0  0  0  0
  1 28  1  0  0  0  0
  2 25  1  0  0  0  0
  2  3  1  0  0  0  0
  2 29  1  0  0  0  0
  3  4  1  0  0  0  0
  3 30  1  0  0  0  0
  3 31  1  0  0  0  0
  4  5  1  0  0  0  0
  4 22  1  0  0  0  0
  4 55  1  0  0  0  0
  5  6  1  0  0  0  0
  5 32  1  0  0  0  0
  5 33  1  0  0  0  0
  6  7  1  0  0  0  0
  6 34  1  0  0  0  0
  6 35  1  0  0  0  0
  7  8  1  0  0  0  0
  7 36  1  0  0  0  0
  8  9  2  0  0  0  0
  8 10  1  0  0  0  0
 10 11  1  0  0  0  0
 10 37  1  0  0  0  0
 11 16  1  0  0  0  0
 11 12  2  0  0  0  0
 12 13  1  0  0  0  0
 12 38  1  0  0  0  0
 13 14  2  0  0  0  0
 13 39  1  0  0  0  0
 14 15  1  0  0  0  0
 14 40  1  0  0  0  0
 15 16  2  0  0  0  0
 15 56  1  0  0  0  0
 16 17  1  0  0  0  0
 17 21  1  0  0  0  0
 17 18  1  0  0  0  0
 18 19  1  0  0  0  0
 18 41  1  0  0  0  0
 18 42  1  0  0  0  0
 19 20  1  0  0  0  0
 19 43  1  0  0  0  0
 19 44  1  0  0  0  0
 20 21  1  0  0  0  0
 20 45  1  0  0  0  0
 20 46  1  0  0  0  0
 21 47  1  0  0  0  0
 21 48  1  0  0  0  0
 22 23  1  0  0  0  0
 22 49  1  0  0  0  0
 22 50  1  0  0  0  0
 23 24  1  0  0  0  0
 23 25  1  0  0  0  0
 23 51  1  0  0  0  0
 24 52  1  0  0  0  0
 24 53  1  0  0  0  0
 24 54  1  0  0  0  0
M  CHG  1   4   1
M  CHG  1  15   1
M  END
> <s_m_source_file>
AV-unprocessed.smi

> <i_m_source_file_index>
1244

> <i_lp_mmshare_version>
43012

> <i_f3d_flags>
0

> <s_epik_input>
W0NIM11bQ0BASF0xW0NIMl1OKFtDSDJdW0NASF0oTzEpW0NIM10pW0NIMl1bQ0gyXVtOSF1DKD1PKVtOSF1jMltjSF1bY0hdW2NIXW5jMk4zW0NIMl1bQ0gyXVtDSDJdW0NIMl0z

> <s_epik_cmdline>
J2VwaWtfcHl0aG9uJywgJy1waCcsICc3LjAnLCAnLXRuJywgJzgnLCAnLW1hJywgJzIwMCcsICctbWV0YWxfYmluZGluZycsICctaW1hZScsICc8aW5maWxlLm1hZT4nLCAnLW9tYWUnLCAnPG91dGZpbGUubWFlPic=

> <r_lp_tautomer_probability>
0.999994

> <r_epik_Ionization_Penalty>
1.81601

> <r_epik_Ionization_Penalty_Charging>
1.81599

> <r_epik_Ionization_Penalty_Neutral>
2.01972e-05

> <r_epik_State_Penalty>
1.85672

> <r_epik_Charging_Adjusted_Penalty>
3.6727

> <i_epik_Tot_Q>
2

> <i_epik_Tot_abs_Q>
2

> <r_epik_Metal_State_Penalty>
1.93796

> <b_epik_Metal_Only>
0

> <s_lp_Force_Field>
OPLS_2005

> <r_lp_Energy>
53.9706

> <b_lp_Chiralities_Consistent>
1

> <s_lp_Variant>
AV-unprocessed.smi:1244-13

> <Gold.Version>
5.8.1

> <Gold.Id.Protein>
6NUR|6NUR_protein|mol2

> <Gold.PLP.Fitness>
36.5378

> <Gold.PLP.PLP>
-31.4945

> <Gold.PLP.part.hbond>
-2.0000

> <Gold.PLP.part.metal>
0.0000

> <Gold.PLP.part.buried>
-1.9695

> <Gold.PLP.part.nonpolar>
-28.8439

> <Gold.PLP.part.repulsive>
0.3343

> <Gold.PLP.ligand.clash>
0.0000

> <Gold.PLP.ligand.torsion>
0.6601

> <Gold.PLP.Chemscore.Hbond>
1.9840

> <Gold.PLP.Chemscore.CHOScore>
0.0000

> <Gold.PLP.Chemscore.Metal>
0.0000

> <Gold.Chemscore.Hbonds>
donor molecule, donor type, donor heavy atom, donor atom, acceptor molecule, acceptor atom, score
      L1  H    15    56       P1  8028  2.00

> <Gold.PLP.Chemscore.Internal.Correction>
0.4115

> <Gold.Rescore>
     Score         DG    S(hbond)    S(metal)    S(lipo)     H(rot)  DE(clash)    DE(int)     intcor
     12.67     -15.78       0.98        0.00      95.58       1.63       0.19       2.93       ----

> <Gold.Chemscore.Fitness>
12.6657

> <Gold.Chemscore.DG>
-15.7811

> <Gold.Chemscore.ZeroCoef>
-5.4800

> <Gold.Chemscore.Hbond>
0.9848

> <Gold.Chemscore.Metal>
0.0000

> <Gold.Chemscore.Lipo>
95.5798

> <Gold.Chemscore.Internal_Hbond>
0.0000

> <Gold.Chemscore.DEClash>
0.1887

> <Gold.Chemscore.DEInternal>
2.9267

> <Gold.Chemscore.Rot>
1.6293

> <Gold.Chemscore.Internal.Correction>
   9.000000E+99

> <Gold.Chemscore.Hbonds>
donor molecule, donor type, donor heavy atom, donor atom, acceptor molecule, acceptor atom, score
      L1  H    15    56       P1  8028  0.97

> <Gold.Chemscore.Hbond.Weighted>
-3.2891

> <Gold.Chemscore.Metal.Weighted>
-0.0000

> <Gold.Chemscore.Lipo.Weighted>
-11.1828

> <Gold.Chemscore.Internal_Hbond.Weighted>
0.0000

> <Gold.Chemscore.DEClash.Weighted>
0.1887

> <Gold.Chemscore.DEInternal.Weighted>
2.9267

> <Gold.Chemscore.Rot.Weighted>
4.1709

> <Gold.Chemscore.Internal.Correction.Weighted>
   9.000000E+99

> <Gold.Protein.RotatedTorsions>
[ 6907 6896 6895 6894 ] final -163.11 input  -60.11 | X-H torsion
[ 7974 7965 7964 7962 ] final   -7.63 input  175.53 | X-H torsion
[ 8008 7997 7996 7995 ] final   78.86 input   59.86 | X-H torsion
[ 10167 10162 10161 10158 ] final   13.84 input  -65.29 | X-H torsion
[ 10718 10713 10712 10709 ] final  -89.37 input   66.30 | X-H torsion
[ 10763 10752 10751 10750 ] final   37.33 input  -60.55 | X-H torsion
[ 11005 11000 10999 10996 ] final   99.83 input  -57.11 | X-H torsion

> <Gold.Protein.ActiveResidues>
 VAL166  LYS551  ARG553  GLY616  TRP617  ASP618  TYR619  PRO620  LYS621  CYS622 
 ASP623  PHE694  ASN695  SER759  ASP760  ASP761  ALA762  ILE779  LEU786  VAL792 
 PHE793  MET794  SER795  GLU796  ALA797  LYS798  CYS799  TRP800  GLU811  SER814 

> <Gold.Protein.RotatedAtoms>
  151.3908  133.3789  159.2720 H   0  0  0  0  0  0  0  0  0  0  0  0  # atno 6907 bound_to 6896
  150.9506  134.8908  159.7680 H   0  0  0  0  0  0  0  0  0  0  0  0  # atno 6908 bound_to 6896
  152.5110  134.3863  159.9421 H   0  0  0  0  0  0  0  0  0  0  0  0  # atno 6909 bound_to 6896
  146.2302  140.2347  142.8341 H   0  0  0  0  0  0  0  0  0  0  0  0  # atno 7974 bound_to 7965
  155.8616  140.3453  155.5760 H   0  0  0  0  0  0  0  0  0  0  0  0  # atno 8008 bound_to 7997
  155.7927  140.0874  157.2019 H   0  0  0  0  0  0  0  0  0  0  0  0  # atno 8009 bound_to 7997
  154.4012  140.1480  156.3169 H   0  0  0  0  0  0  0  0  0  0  0  0  # atno 8010 bound_to 7997
  140.5975  143.8671  150.6933 H   0  0  0  0  0  0  0  0  0  0  0  0  # atno 10167 bound_to 10162
  155.9984  130.4870  150.5161 H   0  0  0  0  0  0  0  0  0  0  0  0  # atno 10718 bound_to 10713
  153.0042  135.6281  154.2127 H   0  0  0  0  0  0  0  0  0  0  0  0  # atno 10763 bound_to 10752
  154.1871  135.2810  155.3035 H   0  0  0  0  0  0  0  0  0  0  0  0  # atno 10764 bound_to 10752
  154.5789  135.5653  153.7226 H   0  0  0  0  0  0  0  0  0  0  0  0  # atno 10765 bound_to 10752
  139.8770  134.9113  156.4664 H   0  0  0  0  0  0  0  0  0  0  0  0  # atno 11005 bound_to 11000
  144.9530  140.8198  143.5560 LP  0  0  0  0  0  0  0  0  0  0  0  0  # atno 17320 bound_to 7965
  145.2310  139.2115  143.5043 LP  0  0  0  0  0  0  0  0  0  0  0  0  # atno 17321 bound_to 7965
  140.2209  143.3810  152.1643 LP  0  0  0  0  0  0  0  0  0  0  0  0  # atno 17342 bound_to 10162
  139.5268  144.7112  151.5199 LP  0  0  0  0  0  0  0  0  0  0  0  0  # atno 17343 bound_to 10162
  157.3128  131.0667  151.1988 LP  0  0  0  0  0  0  0  0  0  0  0  0  # atno 17370 bound_to 10713
  157.2928  130.6805  149.6123 LP  0  0  0  0  0  0  0  0  0  0  0  0  # atno 17371 bound_to 10713
  140.8827  133.7906  155.9484 LP  0  0  0  0  0  0  0  0  0  0  0  0  # atno 17394 bound_to 11000
  140.8837  134.2580  157.5131 LP  0  0  0  0  0  0  0  0  0  0  0  0  # atno 17395 bound_to 11000

$$$$
