AV-unprocessed.smi:1570|AV-procd|sdf|6324|dock1
  -GOLD-   22720 6533D 1   1.00000     0.00000
 Structure written by MMmdl.
 52 54  0  0  0  0  0  0  0  0  2 V2000
  151.0488  141.8432  158.2017 C   0  0  0  0  0  0  0  0  0  0  0  0
  150.7885  142.4074  156.7991 C   0  0  0  0  0  0  0  0  0  0  0  0
  150.4365  141.3455  155.8600 N   0  0  0  0  0  0  0  0  0  0  0  0
  151.1808  140.2560  155.5575 C   0  0  0  0  0  0  0  0  0  0  0  0
  152.2967  139.9919  156.0055 O   0  0  0  0  0  0  0  0  0  0  0  0
  150.4859  139.5044  154.6716 N   0  0  0  0  0  0  0  0  0  0  0  0
  150.9185  138.2392  154.0814 C   0  0  0  0  0  0  0  0  0  0  0  0
  150.6090  137.0442  155.0060 C   0  0  2  0  0  0  0  0  0  0  0  0
  151.3306  135.9240  154.5314 O   0  0  0  0  0  0  0  0  0  0  0  0
  149.1095  136.6828  154.9822 C   0  0  0  0  0  0  0  0  0  0  0  0
  148.7766  135.5351  155.8698 N   0  3  1  0  0  0  0  0  0  0  0  0
  147.4446  135.6084  156.5240 C   0  0  0  0  0  0  0  0  0  0  0  0
  146.3071  135.2195  155.5549 C   0  0  2  0  0  0  0  0  0  0  0  0
  144.9484  135.1570  156.2615 C   0  0  0  0  0  0  0  0  0  0  0  0
  146.5758  133.9346  155.0028 O   0  0  0  0  0  0  0  0  0  0  0  0
  147.7938  133.8920  154.2670 C   0  0  2  0  0  0  0  0  0  0  0  0
  147.9257  132.4990  153.6417 C   0  0  0  0  0  0  0  0  0  0  0  0
  148.9614  134.2138  155.2218 C   0  0  0  0  0  0  0  0  0  0  0  0
  149.2651  140.1346  154.3922 C   0  0  0  0  0  0  0  0  0  0  0  0
  148.2071  139.7686  153.5419 C   0  0  0  0  0  0  0  0  0  0  0  0
  147.0925  140.6376  153.4858 C   0  0  0  0  0  0  0  0  0  0  0  0
  147.0571  141.8256  154.2610 C   0  0  0  0  0  0  0  0  0  0  0  0
  148.1364  142.1711  155.1074 C   0  0  0  0  0  0  0  0  0  0  0  0
  149.2326  141.2917  155.1427 C   0  0  0  0  0  0  0  0  0  0  0  0
  151.3088  142.6407  158.8980 H   0  0  0  0  0  0  0  0  0  0  0  0
  151.8721  141.1284  158.1931 H   0  0  0  0  0  0  0  0  0  0  0  0
  150.1670  141.3347  158.5931 H   0  0  0  0  0  0  0  0  0  0  0  0
  149.9865  143.1449  156.8354 H   0  0  0  0  0  0  0  0  0  0  0  0
  151.6722  142.9401  156.4447 H   0  0  0  0  0  0  0  0  0  0  0  0
  150.3833  138.1215  153.1376 H   0  0  0  0  0  0  0  0  0  0  0  0
  151.9746  138.2729  153.8102 H   0  0  0  0  0  0  0  0  0  0  0  0
  150.9269  137.2710  156.0231 H   0  0  0  0  0  0  0  0  0  0  0  0
  151.2318  135.8746  153.5925 H   0  0  0  0  0  0  0  0  0  0  0  0
  148.5094  137.5492  155.2595 H   0  0  0  0  0  0  0  0  0  0  0  0
  148.8307  136.4422  153.9550 H   0  0  0  0  0  0  0  0  0  0  0  0
  147.4506  134.9161  157.3671 H   0  0  0  0  0  0  0  0  0  0  0  0
  147.2651  136.5948  156.9491 H   0  0  0  0  0  0  0  0  0  0  0  0
  146.2350  135.9480  154.7464 H   0  0  0  0  0  0  0  0  0  0  0  0
  144.6884  136.1213  156.6990 H   0  0  0  0  0  0  0  0  0  0  0  0
  144.9525  134.4164  157.0618 H   0  0  0  0  0  0  0  0  0  0  0  0
  144.1574  134.8862  155.5616 H   0  0  0  0  0  0  0  0  0  0  0  0
  147.7546  134.6259  153.4603 H   0  0  0  0  0  0  0  0  0  0  0  0
  148.8423  132.4163  153.0571 H   0  0  0  0  0  0  0  0  0  0  0  0
  147.0882  132.2907  152.9754 H   0  0  0  0  0  0  0  0  0  0  0  0
  147.9443  131.7217  154.4063 H   0  0  0  0  0  0  0  0  0  0  0  0
  149.9173  134.1751  154.6978 H   0  0  0  0  0  0  0  0  0  0  0  0
  149.0122  133.4545  156.0036 H   0  0  0  0  0  0  0  0  0  0  0  0
  148.2387  138.8640  152.9533 H   0  0  0  0  0  0  0  0  0  0  0  0
  146.2580  140.3935  152.8453 H   0  0  0  0  0  0  0  0  0  0  0  0
  146.1956  142.4744  154.2040 H   0  0  0  0  0  0  0  0  0  0  0  0
  148.1144  143.0740  155.6996 H   0  0  0  0  0  0  0  0  0  0  0  0
  149.4629  135.5778  156.6104 H   0  0  0  0  0  0  0  0  0  0  0  0
  1  2  1  0  0  0  0
  1 25  1  0  0  0  0
  1 26  1  0  0  0  0
  1 27  1  0  0  0  0
  2  3  1  0  0  0  0
  2 28  1  0  0  0  0
  2 29  1  0  0  0  0
  3 24  1  0  0  0  0
  3  4  1  0  0  0  0
  4  5  2  0  0  0  0
  4  6  1  0  0  0  0
  6  7  1  0  0  0  0
  6 19  1  0  0  0  0
  7  8  1  0  0  0  0
  7 30  1  0  0  0  0
  7 31  1  0  0  0  0
  8  9  1  0  0  0  0
  8 10  1  0  0  0  0
  8 32  1  0  0  0  0
  9 33  1  0  0  0  0
 10 11  1  0  0  0  0
 10 34  1  0  0  0  0
 10 35  1  0  0  0  0
 11 18  1  0  0  0  0
 11 12  1  0  0  0  0
 11 52  1  0  0  0  0
 12 13  1  0  0  0  0
 12 36  1  0  0  0  0
 12 37  1  0  0  0  0
 13 14  1  0  0  0  0
 13 15  1  0  0  0  0
 13 38  1  0  0  0  0
 14 39  1  0  0  0  0
 14 40  1  0  0  0  0
 14 41  1  0  0  0  0
 15 16  1  0  0  0  0
 16 17  1  0  0  0  0
 16 18  1  0  0  0  0
 16 42  1  0  0  0  0
 17 43  1  0  0  0  0
 17 44  1  0  0  0  0
 17 45  1  0  0  0  0
 18 46  1  0  0  0  0
 18 47  1  0  0  0  0
 19 24  2  0  0  0  0
 19 20  1  0  0  0  0
 20 21  2  0  0  0  0
 20 48  1  0  0  0  0
 21 22  1  0  0  0  0
 21 49  1  0  0  0  0
 22 23  2  0  0  0  0
 22 50  1  0  0  0  0
 23 24  1  0  0  0  0
 23 51  1  0  0  0  0
M  CHG  1  11   1
M  END
> <s_m_source_file>
AV-unprocessed.smi

> <i_m_source_file_index>
1570

> <i_lp_mmshare_version>
43012

> <i_f3d_flags>
0

> <s_epik_input>
W2NIXTFbY0hdW2NIXVtjSF1jKGMxMiluKFtDSDJdW0NIM10pYyg9TyluMltDSDJdW0NASF0oW09IXSlbQ0gyXU4zW0NIMl1bQ0BASF0oW0NIM10pT1tDQEBIXShbQ0gzXSlbQ0gyXTM=

> <s_epik_cmdline>
J2VwaWtfcHl0aG9uJywgJy1waCcsICc3LjAnLCAnLXRuJywgJzgnLCAnLW1hJywgJzIwMCcsICctbWV0YWxfYmluZGluZycsICctaW1hZScsICc8aW5maWxlLm1hZT4nLCAnLW9tYWUnLCAnPG91dGZpbGUubWFlPic=

> <r_epik_Ionization_Penalty>
0.706332

> <r_epik_Ionization_Penalty_Charging>
0.706318

> <r_epik_Ionization_Penalty_Neutral>
1.42224e-05

> <r_epik_State_Penalty>
0.729493

> <r_epik_Charging_Adjusted_Penalty>
1.43581

> <i_epik_Tot_Q>
1

> <i_epik_Tot_abs_Q>
1

> <r_epik_Metal_State_Penalty>
0.729493

> <b_epik_Metal_Only>
0

> <s_lp_Force_Field>
OPLS_2005

> <r_lp_Energy>
54.3222

> <b_lp_Chiralities_Consistent>
1

> <s_lp_Variant>
AV-unprocessed.smi:1570-13

> <Gold.Version>
5.8.1

> <Gold.Id.Protein>
6NUR|6NUR_protein|mol2

> <Gold.PLP.Fitness>
43.0410

> <Gold.PLP.PLP>
-35.5809

> <Gold.PLP.part.hbond>
-3.0000

> <Gold.PLP.part.metal>
0.0000

> <Gold.PLP.part.buried>
7.8840

> <Gold.PLP.part.nonpolar>
-38.8959

> <Gold.PLP.part.repulsive>
0.0578

> <Gold.PLP.ligand.clash>
0.0000

> <Gold.PLP.ligand.torsion>
0.8290

> <Gold.PLP.Chemscore.Hbond>
2.9913

> <Gold.PLP.Chemscore.CHOScore>
0.0000

> <Gold.PLP.Chemscore.Metal>
0.0000

> <Gold.Chemscore.Hbonds>
donor molecule, donor type, donor heavy atom, donor atom, acceptor molecule, acceptor atom, score
      L1  H     9    33       P1  7949  0.84
      P1  H  7997  8010       L1     5  0.91
      P1  H 10752 10765       L1     9  0.95

> <Gold.PLP.Chemscore.Internal.Correction>
0.1444

> <Gold.Rescore>
     Score         DG    S(hbond)    S(metal)    S(lipo)     H(rot)  DE(clash)    DE(int)     intcor
     14.95     -16.63       2.31        0.00      75.83       2.13       0.15       1.53       ----

> <Gold.Chemscore.Fitness>
14.9492

> <Gold.Chemscore.DG>
-16.6290

> <Gold.Chemscore.ZeroCoef>
-5.4800

> <Gold.Chemscore.Hbond>
2.3146

> <Gold.Chemscore.Metal>
0.0000

> <Gold.Chemscore.Lipo>
75.8276

> <Gold.Chemscore.Internal_Hbond>
0.0000

> <Gold.Chemscore.DEClash>
0.1511

> <Gold.Chemscore.DEInternal>
1.5287

> <Gold.Chemscore.Rot>
2.1303

> <Gold.Chemscore.Internal.Correction>
   9.000000E+99

> <Gold.Chemscore.Hbonds>
donor molecule, donor type, donor heavy atom, donor atom, acceptor molecule, acceptor atom, score
      L1  H     9    33       P1  7949  0.37
      P1  H  7997  8010       L1     5  0.88
      P1  H 10752 10765       L1     9  0.21

> <Gold.Chemscore.Hbond.Weighted>
-7.7307

> <Gold.Chemscore.Metal.Weighted>
-0.0000

> <Gold.Chemscore.Lipo.Weighted>
-8.8718

> <Gold.Chemscore.Internal_Hbond.Weighted>
0.0000

> <Gold.Chemscore.DEClash.Weighted>
0.1511

> <Gold.Chemscore.DEInternal.Weighted>
1.5287

> <Gold.Chemscore.Rot.Weighted>
5.4535

> <Gold.Chemscore.Internal.Correction.Weighted>
   9.000000E+99

> <Gold.Protein.RotatedTorsions>
[ 6907 6896 6895 6894 ] final  -54.80 input  -60.11 | X-H torsion
[ 7974 7965 7964 7962 ] final    6.37 input  175.53 | X-H torsion
[ 8008 7997 7996 7995 ] final   78.49 input   59.86 | X-H torsion
[ 10167 10162 10161 10158 ] final -138.51 input  -65.29 | X-H torsion
[ 10718 10713 10712 10709 ] final  164.46 input   66.30 | X-H torsion
[ 10763 10752 10751 10750 ] final -175.94 input  -60.55 | X-H torsion
[ 11005 11000 10999 10996 ] final  149.67 input  -57.11 | X-H torsion

> <Gold.Protein.ActiveResidues>
 VAL166  LYS551  ARG553  GLY616  TRP617  ASP618  TYR619  PRO620  LYS621  CYS622 
 ASP623  PHE694  ASN695  SER759  ASP760  ASP761  ALA762  ILE779  LEU786  VAL792 
 PHE793  MET794  SER795  GLU796  ALA797  LYS798  CYS799  TRP800  GLU811  SER814 

> <Gold.Protein.RotatedAtoms>
  150.8307  134.7558  159.6850 H   0  0  0  0  0  0  0  0  0  0  0  0  # atno 6907 bound_to 6896
  152.4412  134.5584  159.9897 H   0  0  0  0  0  0  0  0  0  0  0  0  # atno 6908 bound_to 6896
  151.5746  133.3348  159.3032 H   0  0  0  0  0  0  0  0  0  0  0  0  # atno 6909 bound_to 6896
  146.2435  140.0244  142.8395 H   0  0  0  0  0  0  0  0  0  0  0  0  # atno 7974 bound_to 7965
  155.8565  140.3456  155.5728 H   0  0  0  0  0  0  0  0  0  0  0  0  # atno 8008 bound_to 7997
  155.7981  140.0881  157.1992 H   0  0  0  0  0  0  0  0  0  0  0  0  # atno 8009 bound_to 7997
  154.4010  140.1470  156.3229 H   0  0  0  0  0  0  0  0  0  0  0  0  # atno 8010 bound_to 7997
  139.8471  143.7246  152.2660 H   0  0  0  0  0  0  0  0  0  0  0  0  # atno 10167 bound_to 10162
  157.0941  131.0425  151.2525 H   0  0  0  0  0  0  0  0  0  0  0  0  # atno 10718 bound_to 10713
  154.5783  135.2834  155.0758 H   0  0  0  0  0  0  0  0  0  0  0  0  # atno 10763 bound_to 10752
  154.2104  135.6409  153.5117 H   0  0  0  0  0  0  0  0  0  0  0  0  # atno 10764 bound_to 10752
  153.0080  135.5490  154.6429 H   0  0  0  0  0  0  0  0  0  0  0  0  # atno 10765 bound_to 10752
  140.1065  134.8951  157.1873 H   0  0  0  0  0  0  0  0  0  0  0  0  # atno 11005 bound_to 11000
  145.1211  140.9463  143.4599 LP  0  0  0  0  0  0  0  0  0  0  0  0  # atno 17320 bound_to 7965
  145.0480  139.3205  143.5943 LP  0  0  0  0  0  0  0  0  0  0  0  0  # atno 17321 bound_to 7965
  139.7502  144.7536  151.0519 LP  0  0  0  0  0  0  0  0  0  0  0  0  # atno 17342 bound_to 10162
  140.7792  143.4869  150.9944 LP  0  0  0  0  0  0  0  0  0  0  0  0  # atno 17343 bound_to 10162
  157.4697  130.7701  149.7311 LP  0  0  0  0  0  0  0  0  0  0  0  0  # atno 17370 bound_to 10713
  155.9890  130.3955  150.3091 LP  0  0  0  0  0  0  0  0  0  0  0  0  # atno 17371 bound_to 10713
  140.3149  134.2982  155.7258 LP  0  0  0  0  0  0  0  0  0  0  0  0  # atno 17394 bound_to 11000
  141.2119  133.7673  156.9829 LP  0  0  0  0  0  0  0  0  0  0  0  0  # atno 17395 bound_to 11000

$$$$
