#       Name:                AV-unprocessed.smi:794
#       Creating user name   scv26
#       Creation time:       Fri Mar 27 01:19:34 2020


#       File generated by GOLD software.
#

@<TRIPOS>MOLECULE
AV-unprocessed.smi:794
    46    48     1
SMALL
NO_CHARGES


@<TRIPOS>ATOM
      1 ****        -5.9316  -0.8886  -0.0072 C.3            1 S1                 0.0000
      2 ****        -4.8948   0.1248   0.3695 C.2            1 S1                 0.0000
      3 ****        -3.5403  -0.1845   0.2161 N.2            1 S1                 0.0000
      4 ****        -2.7447   0.8197   0.5973 C.2            1 S1                 0.0000
      5 ****        -1.3264   0.7793   0.5541 N.am           1 S1                 0.0000
      6 ****        -0.5358  -0.2375   0.1681 C.2            1 S1                 0.0000
      7 ****        -0.9292  -1.3305  -0.2407 O.2            1 S1                 0.0000
      8 ****         0.7602   0.0842   0.2836 N.am           1 S1                 0.0000
      9 ****         1.8714  -0.8062  -0.0450 C.3            1 S1                 0.0000
     10 ****         2.1744  -0.8784  -1.5626 C.3            1 S1                 0.0000
     11 ****         2.3515   0.5288  -2.1732 C.3            1 S1                 0.0000
     12 ****         3.6885   0.9934  -1.5661 C.3            1 S1                 0.0000
     13 ****         4.1119  -0.2151  -0.7089 C.3            1 S1                 0.0000
     14 ****         3.6130  -1.3786  -1.5589 C.3            1 S1                 0.0000
     15 ****         3.2097  -0.2928   0.5467 C.3            1 S1                 0.0000
     16 ****         3.7618  -1.2151   1.6512 C.3            1 S1                 0.0000
     17 ****         4.9213  -0.6533   2.2293 O.3            1 S1                 0.0000
     18 ****        -3.6177   2.2289   1.1741 S.3            1 S1                 0.0000
     19 ****        -5.1171   1.3841   0.8775 C.2            1 S1                 0.0000
     20 ****        -6.4313   2.0289   1.1690 C.3            1 S1                 0.0000
     21 ****        -6.7189  -0.4406  -0.6135 H              1 S1                 0.0000
     22 ****        -6.3992  -1.3169   0.8796 H              1 S1                 0.0000
     23 ****        -5.5029  -1.7094  -0.5833 H              1 S1                 0.0000
     24 ****        -0.8596   1.6180   0.8658 H              1 S1                 0.0000
     25 ****         0.9975   1.0050   0.6222 H              1 S1                 0.0000
     26 ****         1.6582  -1.8098   0.3294 H              1 S1                 0.0000
     27 ****         1.4760  -1.5069  -2.1161 H              1 S1                 0.0000
     28 ****         2.4329   0.4650  -3.2590 H              1 S1                 0.0000
     29 ****         1.5290   1.2084  -1.9495 H              1 S1                 0.0000
     30 ****         4.4191   1.1859  -2.3528 H              1 S1                 0.0000
     31 ****         3.5854   1.9057  -0.9775 H              1 S1                 0.0000
     32 ****         5.1802  -0.2314  -0.4910 H              1 S1                 0.0000
     33 ****         3.7310  -2.3532  -1.0831 H              1 S1                 0.0000
     34 ****         4.0632  -1.4136  -2.5527 H              1 S1                 0.0000
     35 ****         3.0867   0.7052   0.9721 H              1 S1                 0.0000
     36 ****         3.0176  -1.3453   2.4375 H              1 S1                 0.0000
     37 ****         3.9970  -2.2066   1.2643 H              1 S1                 0.0000
     38 ****         5.2360  -1.2385   2.9015 H              1 S1                 0.0000
     39 ****        -7.0582   1.3738   1.7743 H              1 S1                 0.0000
     40 ****        -6.9662   2.2487   0.2450 H              1 S1                 0.0000
     41 ****        -6.3016   2.9640   1.7142 H              1 S1                 0.0000
     42 ****        -3.2048  -1.0573  -0.1384 LP             1 S1                 0.0000
     43 ****        -1.9095  -1.5166  -0.3058 LP             1 S1                 0.0000
     44 ****        -0.2682  -2.0319  -0.5076 LP             1 S1                 0.0000
     45 ****         4.7007   0.2351   2.6319 LP             1 S1                 0.0000
     46 ****         5.6247  -0.5360   1.5281 LP             1 S1                 0.0000
@<TRIPOS>BOND
    1    1    2 1     
    2    1   21 1     
    3    1   22 1     
    4    1   23 1     
    5    2   19 2     
    6    2    3 1     
    7    3    4 2     
    8    4    5 1     
    9    4   18 1     
   10    5    6 am    
   11    5   24 1     
   12    6    7 2     
   13    6    8 am    
   14    8    9 1     
   15    8   25 1     
   16    9   15 1     
   17    9   10 1     
   18    9   26 1     
   19   10   14 1     
   20   10   11 1     
   21   10   27 1     
   22   11   12 1     
   23   11   28 1     
   24   11   29 1     
   25   12   13 1     
   26   12   30 1     
   27   12   31 1     
   28   13   14 1     
   29   13   15 1     
   30   13   32 1     
   31   14   33 1     
   32   14   34 1     
   33   15   16 1     
   34   15   35 1     
   35   16   17 1     
   36   16   36 1     
   37   16   37 1     
   38   17   38 1     
   39   18   19 1     
   40   19   20 1     
   41   20   39 1     
   42   20   40 1     
   43   20   41 1     
   44    3   42 1     
   45    7   43 1     
   46    7   44 1     
   47   17   45 1     
   48   17   46 1     
@<TRIPOS>SUBSTRUCTURE
      1 S1             1
@<TRIPOS>SET
LONE_PAIRS      STATIC     ATOMS    <user>   **** ""
5 42 43 44 45 46
DONOR_HYDROGENS      STATIC     ATOMS    <user>   **** ""
3 24 25 38
ATOM$BLUE        STATIC     ATOMS    COLORGROUP SYSTEM
5 42 43 44 45 46
ATOM$RED        STATIC     ATOMS    COLORGROUP SYSTEM
3 24 25 38
