#       Name:                AV-unprocessed.smi:1190
#       Creating user name   scv26
#       Creation time:       Fri Mar 27 03:58:02 2020


#       File generated by GOLD software.
#

@<TRIPOS>MOLECULE
AV-unprocessed.smi:1190
    51    52     1
SMALL
NO_CHARGES


@<TRIPOS>ATOM
      1 ****        -5.2982   5.4333   0.2916 C.3            1 S1                 0.0000
      2 ****        -5.4685   4.0472   0.5663 O.3            1 S1                 0.0000
      3 ****        -4.3410   3.2670   0.7207 C.ar           1 S1                 0.0000
      4 ****        -4.5028   1.8935   0.9882 C.ar           1 S1                 0.0000
      5 ****        -3.3554   1.0938   1.1447 C.ar           1 S1                 0.0000
      6 ****        -2.0814   1.6841   1.0219 C.ar           1 S1                 0.0000
      7 ****        -0.9439   0.8507   1.2008 N.am           1 S1                 0.0000
      8 ****         0.3276   1.0725   0.8259 C.2            1 S1                 0.0000
      9 ****         0.7320   2.0673   0.2261 O.2            1 S1                 0.0000
     10 ****         1.1190   0.0476   1.1726 N.am           1 S1                 0.0000
     11 ****         2.5584  -0.0346   0.9265 C.3            1 S1                 0.0000
     12 ****         2.9197  -0.7391  -0.4091 C.3            1 S1                 0.0000
     13 ****         2.7476   0.2460  -1.5861 C.3            1 S1                 0.0000
     14 ****         2.1635  -2.0178  -0.6121 N.4            1 S1                 1.0000
     15 ****         2.3800  -2.6514  -1.9422 C.3            1 S1                 0.0000
     16 ****         1.5583  -3.9440  -2.0839 C.3            1 S1                 0.0000
     17 ****         1.8892  -4.8426  -1.0360 O.3            1 S1                 0.0000
     18 ****         1.5786  -4.2933   0.2354 C.3            1 S1                 0.0000
     19 ****         2.4073  -3.0184   0.4630 C.3            1 S1                 0.0000
     20 ****        -2.0238   3.0759   0.7645 C.ar           1 S1                 0.0000
     21 ****        -3.1207   3.8484   0.6141 N.ar           1 S1                 0.0000
     22 ****        -6.2761   5.9047   0.1955 H              1 S1                 0.0000
     23 ****        -4.7619   5.5915  -0.6451 H              1 S1                 0.0000
     24 ****        -4.7657   5.9379   1.0990 H              1 S1                 0.0000
     25 ****        -5.4892   1.4618   1.0725 H              1 S1                 0.0000
     26 ****        -3.4563   0.0385   1.3525 H              1 S1                 0.0000
     27 ****        -1.1313  -0.0448   1.6269 H              1 S1                 0.0000
     28 ****         0.6993  -0.7243   1.6700 H              1 S1                 0.0000
     29 ****         3.0124   0.9569   0.9730 H              1 S1                 0.0000
     30 ****         2.9997  -0.5762   1.7627 H              1 S1                 0.0000
     31 ****         3.9811  -0.9889  -0.3654 H              1 S1                 0.0000
     32 ****         3.1906   1.2154  -1.3558 H              1 S1                 0.0000
     33 ****         1.6962   0.4126  -1.8215 H              1 S1                 0.0000
     34 ****         3.2448  -0.1062  -2.4896 H              1 S1                 0.0000
     35 ****         2.0790  -1.9823  -2.7470 H              1 S1                 0.0000
     36 ****         3.4413  -2.8654  -2.0771 H              1 S1                 0.0000
     37 ****         0.4886  -3.7287  -2.0724 H              1 S1                 0.0000
     38 ****         1.7749  -4.4229  -3.0391 H              1 S1                 0.0000
     39 ****         0.5100  -4.0834   0.3070 H              1 S1                 0.0000
     40 ****         1.8093  -5.0320   1.0031 H              1 S1                 0.0000
     41 ****         3.4692  -3.2669   0.4959 H              1 S1                 0.0000
     42 ****         2.1432  -2.6153   1.4394 H              1 S1                 0.0000
     43 ****        -1.0889   3.6086   0.6924 H              1 S1                 0.0000
     44 ****         1.1833  -1.7778  -0.5694 H              1 S1                 0.0000
     45 ****        -5.9962   3.6585  -0.1890 LP             1 S1                 0.0000
     46 ****        -5.9959   3.9759   1.4129 LP             1 S1                 0.0000
     47 ****         0.0932   2.7956  -0.0221 LP             1 S1                 0.0000
     48 ****         1.6996   2.1479  -0.0133 LP             1 S1                 0.0000
     49 ****         2.8687  -5.0404  -1.0744 LP             1 S1                 0.0000
     50 ****         1.3729  -5.6901  -1.1591 LP             1 S1                 0.0000
     51 ****        -3.0351   4.8273   0.4283 LP             1 S1                 0.0000
@<TRIPOS>BOND
    1    1    2 1     
    2    1   22 1     
    3    1   23 1     
    4    1   24 1     
    5    2    3 1     
    6    3   21 ar    
    7    3    4 ar    
    8    4    5 ar    
    9    4   25 1     
   10    5    6 ar    
   11    5   26 1     
   12    6    7 1     
   13    6   20 ar    
   14    7    8 am    
   15    7   27 1     
   16    8    9 2     
   17    8   10 am    
   18   10   11 1     
   19   10   28 1     
   20   11   12 1     
   21   11   29 1     
   22   11   30 1     
   23   12   13 1     
   24   12   14 1     
   25   12   31 1     
   26   13   32 1     
   27   13   33 1     
   28   13   34 1     
   29   14   19 1     
   30   14   15 1     
   31   14   44 1     
   32   15   16 1     
   33   15   35 1     
   34   15   36 1     
   35   16   17 1     
   36   16   37 1     
   37   16   38 1     
   38   17   18 1     
   39   18   19 1     
   40   18   39 1     
   41   18   40 1     
   42   19   41 1     
   43   19   42 1     
   44   20   21 ar    
   45   20   43 1     
   46    2   45 1     
   47    2   46 1     
   48    9   47 1     
   49    9   48 1     
   50   17   49 1     
   51   17   50 1     
   52   21   51 1     
@<TRIPOS>SUBSTRUCTURE
      1 S1             1
@<TRIPOS>SET
LONE_PAIRS      STATIC     ATOMS    <user>   **** ""
7 45 46 47 48 49 50 51
DONOR_HYDROGENS      STATIC     ATOMS    <user>   **** ""
3 27 28 44
ATOM$BLUE        STATIC     ATOMS    COLORGROUP SYSTEM
7 45 46 47 48 49 50 51
ATOM$RED        STATIC     ATOMS    COLORGROUP SYSTEM
3 27 28 44
