AV-unprocessed.smi:101|AV-procd|sdf|938|dock8
  -GOLD-   2262017453D 1   1.00000     0.00000
 Structure written by MMmdl.
 43 45  0  0  0  0  0  0  0  0  2 V2000
  149.7786  132.4835  154.2838 C   0  0  0  0  0  0  0  0  0  0  0  0
  149.6019  133.5381  155.3623 C   0  0  0  0  0  0  0  0  0  0  0  0
  149.4350  134.8472  155.0704 C   0  0  0  0  0  0  0  0  0  0  0  0
  149.2755  135.8037  156.0580 N   0  0  0  0  0  0  0  0  0  0  0  0
  149.0716  137.2592  155.7067 C   0  0  1  0  0  0  0  0  0  0  0  0
  150.0153  138.0291  156.3910 O   0  0  0  0  0  0  0  0  0  0  0  0
  150.5674  139.0010  155.5136 C   0  0  1  0  0  0  0  0  0  0  0  0
  151.9440  139.4717  156.0038 C   0  0  0  0  0  0  0  0  0  0  0  0
  151.7766  140.5651  156.8910 O   0  0  0  0  0  0  0  0  0  0  0  0
  152.4931  140.6239  158.0302 C   0  0  0  0  0  0  0  0  0  0  0  0
  153.2210  139.7109  158.4257 O   0  0  0  0  0  0  0  0  0  0  0  0
  152.3170  141.9119  158.7614 C   0  0  0  0  0  0  0  0  0  0  0  0
  151.7974  143.0336  158.0737 C   0  0  0  0  0  0  0  0  0  0  0  0
  151.6178  144.2625  158.7380 C   0  0  0  0  0  0  0  0  0  0  0  0
  151.9558  144.3848  160.0983 C   0  0  0  0  0  0  0  0  0  0  0  0
  152.4758  143.2772  160.7931 C   0  0  0  0  0  0  0  0  0  0  0  0
  152.6567  142.0476  160.1304 C   0  0  0  0  0  0  0  0  0  0  0  0
  150.5522  138.3108  154.1451 C   0  0  1  0  0  0  0  0  0  0  0  0
  151.6827  137.4734  153.9809 O   0  0  0  0  0  0  0  0  0  0  0  0
  149.2771  137.4794  154.1969 C   0  0  2  0  0  0  0  0  0  0  0  0
  148.1974  138.1996  153.6378 O   0  0  0  0  0  0  0  0  0  0  0  0
  149.2484  135.4095  157.4204 C   0  0  0  0  0  0  0  0  0  0  0  0
  149.0574  136.2793  158.2711 O   0  0  0  0  0  0  0  0  0  0  0  0
  149.4242  134.0923  157.7249 N   0  5  0  0  0  0  0  0  0  0  0  0
  149.6057  133.1320  156.7730 C   0  0  0  0  0  0  0  0  0  0  0  0
  149.7686  131.9469  157.0627 O   0  0  0  0  0  0  0  0  0  0  0  0
  149.7609  132.9281  153.2884 H   0  0  0  0  0  0  0  0  0  0  0  0
  148.9790  131.7442  154.3388 H   0  0  0  0  0  0  0  0  0  0  0  0
  150.7325  131.9699  154.4072 H   0  0  0  0  0  0  0  0  0  0  0  0
  149.4204  135.1473  154.0332 H   0  0  0  0  0  0  0  0  0  0  0  0
  148.0759  137.5247  156.0665 H   0  0  0  0  0  0  0  0  0  0  0  0
  149.8807  139.8488  155.4753 H   0  0  0  0  0  0  0  0  0  0  0  0
  152.4775  138.6573  156.4966 H   0  0  0  0  0  0  0  0  0  0  0  0
  152.5465  139.7967  155.1544 H   0  0  0  0  0  0  0  0  0  0  0  0
  151.5295  142.9637  157.0293 H   0  0  0  0  0  0  0  0  0  0  0  0
  151.2197  145.1117  158.2026 H   0  0  0  0  0  0  0  0  0  0  0  0
  151.8169  145.3268  160.6080 H   0  0  0  0  0  0  0  0  0  0  0  0
  152.7370  143.3698  161.8370 H   0  0  0  0  0  0  0  0  0  0  0  0
  153.0598  141.2181  160.6931 H   0  0  0  0  0  0  0  0  0  0  0  0
  150.5496  139.0324  153.3269 H   0  0  0  0  0  0  0  0  0  0  0  0
  151.7863  137.2843  153.0612 H   0  0  0  0  0  0  0  0  0  0  0  0
  149.3739  136.5324  153.6626 H   0  0  0  0  0  0  0  0  0  0  0  0
  148.3727  138.3231  152.7168 H   0  0  0  0  0  0  0  0  0  0  0  0
  1  2  1  0  0  0  0
  1 27  1  0  0  0  0
  1 28  1  0  0  0  0
  1 29  1  0  0  0  0
  2 25  1  0  0  0  0
  2  3  2  0  0  0  0
  3  4  1  0  0  0  0
  3 30  1  0  0  0  0
  4  5  1  0  0  0  0
  4 22  1  0  0  0  0
  5 20  1  0  0  0  0
  5  6  1  0  0  0  0
  5 31  1  0  0  0  0
  6  7  1  0  0  0  0
  7  8  1  0  0  0  0
  7 18  1  0  0  0  0
  7 32  1  0  0  0  0
  8  9  1  0  0  0  0
  8 33  1  0  0  0  0
  8 34  1  0  0  0  0
  9 10  1  0  0  0  0
 10 11  2  0  0  0  0
 10 12  1  0  0  0  0
 12 17  1  0  0  0  0
 12 13  2  0  0  0  0
 13 14  1  0  0  0  0
 13 35  1  0  0  0  0
 14 15  2  0  0  0  0
 14 36  1  0  0  0  0
 15 16  1  0  0  0  0
 15 37  1  0  0  0  0
 16 17  2  0  0  0  0
 16 38  1  0  0  0  0
 17 39  1  0  0  0  0
 18 19  1  0  0  0  0
 18 20  1  0  0  0  0
 18 40  1  0  0  0  0
 19 41  1  0  0  0  0
 20 21  1  0  0  0  0
 20 42  1  0  0  0  0
 21 43  1  0  0  0  0
 22 23  2  0  0  0  0
 22 24  1  0  0  0  0
 24 25  1  0  0  0  0
 25 26  2  0  0  0  0
M  CHG  1  24  -1
M  END
> <s_m_source_file>
AV-unprocessed.smi

> <i_m_source_file_index>
101

> <i_lp_mmshare_version>
43012

> <i_f3d_flags>
0

> <s_epik_input>
Tz1jMVtuSF1jKD1PKW4oW2NIXWMxW0NIM10pW0NAQEhdMk9bQ0BIXShbQ0BASF0oW09IXSlbQ0BIXTJbT0hdKVtDSDJdT0MoPU8pYzNbY0hdW2NIXVtjSF1bY0hdW2NIXTM=

> <s_epik_cmdline>
J2VwaWtfcHl0aG9uJywgJy1waCcsICc3LjAnLCAnLXRuJywgJzgnLCAnLW1hJywgJzIwMCcsICctbWV0YWxfYmluZGluZycsICctaW1hZScsICc8aW5maWxlLm1hZT4nLCAnLW9tYWUnLCAnPG91dGZpbGUubWFlPic=

> <r_lp_tautomer_probability>
0.999537

> <r_epik_Ionization_Penalty>
3.21006

> <r_epik_Ionization_Penalty_Charging>
5.75142e-08

> <r_epik_Ionization_Penalty_Neutral>
3.21006

> <r_epik_State_Penalty>
3.20925

> <r_epik_Charging_Adjusted_Penalty>
3.20925

> <i_epik_Tot_Q>
-1

> <i_epik_Tot_abs_Q>
1

> <r_epik_Metal_State_Penalty>
0.119957

> <b_epik_Metal_Only>
1

> <s_epik_Chemistry_Notes>
This compound has an ester and may undergo hydrolysis at high or low pH. This compound contains an acetal/aminal-like group ( X-CH(R)-Y where X, Y are N, S, or O) that may be acid/base labile, releasing an aldehyde.

> <s_lp_Force_Field>
OPLS_2005

> <r_lp_Energy>
38.3605

> <b_lp_Chiralities_Consistent>
1

> <s_lp_Variant>
AV-unprocessed.smi:101-26

> <Gold.Version>
5.8.1

> <Gold.Id.Protein>
6NUR|6NUR_protein|mol2

> <Gold.PLP.Fitness>
53.2697

> <Gold.PLP.PLP>
-39.3897

> <Gold.PLP.part.hbond>
-4.7203

> <Gold.PLP.part.metal>
0.0000

> <Gold.PLP.part.buried>
-2.3443

> <Gold.PLP.part.nonpolar>
-33.0399

> <Gold.PLP.part.repulsive>
0.0000

> <Gold.PLP.ligand.clash>
0.0000

> <Gold.PLP.ligand.torsion>
0.9051

> <Gold.PLP.Chemscore.Hbond>
4.2076

> <Gold.PLP.Chemscore.CHOScore>
0.9838

> <Gold.PLP.Chemscore.Metal>
0.0000

> <Gold.Chemscore.Hbonds>
donor molecule, donor type, donor heavy atom, donor atom, acceptor molecule, acceptor atom, score
      L1  H    19    41       P1  7949  0.68
      L1  H    21    43       P1  7948  0.05
      P1  H  6896  6907       L1    24  1.45
      P1  H  7997  8010       L1    11  0.95
      P1  H 10752 10765       L1    19  0.15
      L1  C     3    30       P1  7948  1.00

> <Gold.PLP.Chemscore.Internal.Correction>
0.1161

> <Gold.Rescore>
     Score         DG    S(hbond)    S(metal)    S(lipo)     H(rot)  DE(clash)    DE(int)     intcor
     13.71     -17.87       2.53        0.00     105.02       3.27       1.68       2.48       ----

> <Gold.Chemscore.Fitness>
13.7112

> <Gold.Chemscore.DG>
-17.8706

> <Gold.Chemscore.ZeroCoef>
-5.4800

> <Gold.Chemscore.Hbond>
2.5338

> <Gold.Chemscore.Metal>
0.0000

> <Gold.Chemscore.Lipo>
105.0201

> <Gold.Chemscore.Internal_Hbond>
0.0000

> <Gold.Chemscore.DEClash>
1.6771

> <Gold.Chemscore.DEInternal>
2.4822

> <Gold.Chemscore.Rot>
3.2656

> <Gold.Chemscore.Internal.Correction>
   9.000000E+99

> <Gold.Chemscore.Hbonds>
donor molecule, donor type, donor heavy atom, donor atom, acceptor molecule, acceptor atom, score
      L1  H    19    41       P1  7949  0.67
      L1  H    21    43       P1  7948  0.05
      P1  H  6896  6907       L1    24  0.35
      P1  H  7997  8010       L1    11  0.19

> <Gold.Chemscore.Hbond.Weighted>
-8.4631

> <Gold.Chemscore.Metal.Weighted>
-0.0000

> <Gold.Chemscore.Lipo.Weighted>
-12.2873

> <Gold.Chemscore.Internal_Hbond.Weighted>
0.0000

> <Gold.Chemscore.DEClash.Weighted>
1.6771

> <Gold.Chemscore.DEInternal.Weighted>
2.4822

> <Gold.Chemscore.Rot.Weighted>
8.3598

> <Gold.Chemscore.Internal.Correction.Weighted>
   9.000000E+99

> <Gold.Protein.RotatedTorsions>
[ 6907 6896 6895 6894 ] final -127.74 input  -60.11 | X-H torsion
[ 7974 7965 7964 7962 ] final  -99.23 input  175.53 | X-H torsion
[ 8008 7997 7996 7995 ] final   17.32 input   59.86 | X-H torsion
[ 10167 10162 10161 10158 ] final   68.10 input  -65.29 | X-H torsion
[ 10718 10713 10712 10709 ] final -111.13 input   66.30 | X-H torsion
[ 10763 10752 10751 10750 ] final  171.10 input  -60.55 | X-H torsion
[ 11005 11000 10999 10996 ] final   78.86 input  -57.11 | X-H torsion

> <Gold.Protein.ActiveResidues>
 VAL166  LYS551  ARG553  GLY616  TRP617  ASP618  TYR619  PRO620  LYS621  CYS622 
 ASP623  PHE694  ASN695  SER759  ASP760  ASP761  ALA762  ILE779  LEU786  VAL792 
 PHE793  MET794  SER795  GLU796  ALA797  LYS798  CYS799  TRP800  GLU811  SER814 

> <Gold.Protein.RotatedAtoms>
  150.9105  133.7004  159.2855 H   0  0  0  0  0  0  0  0  0  0  0  0  # atno 6907 bound_to 6896
  151.4492  135.1027  159.9702 H   0  0  0  0  0  0  0  0  0  0  0  0  # atno 6908 bound_to 6896
  152.4927  133.8495  159.7249 H   0  0  0  0  0  0  0  0  0  0  0  0  # atno 6909 bound_to 6896
  145.3102  140.9398  143.2773 H   0  0  0  0  0  0  0  0  0  0  0  0  # atno 7974 bound_to 7965
  154.8896  140.2985  155.5378 H   0  0  0  0  0  0  0  0  0  0  0  0  # atno 8008 bound_to 7997
  156.3021  140.2427  156.3845 H   0  0  0  0  0  0  0  0  0  0  0  0  # atno 8009 bound_to 7997
  154.8632  140.0404  157.1667 H   0  0  0  0  0  0  0  0  0  0  0  0  # atno 8010 bound_to 7997
  140.0823  144.5060  150.7154 H   0  0  0  0  0  0  0  0  0  0  0  0  # atno 10167 bound_to 10162
  156.0630  130.5851  150.8332 H   0  0  0  0  0  0  0  0  0  0  0  0  # atno 10718 bound_to 10713
  154.4071  135.2755  155.2060 H   0  0  0  0  0  0  0  0  0  0  0  0  # atno 10763 bound_to 10752
  154.4061  135.6033  153.5929 H   0  0  0  0  0  0  0  0  0  0  0  0  # atno 10764 bound_to 10752
  152.9831  135.5938  154.4347 H   0  0  0  0  0  0  0  0  0  0  0  0  # atno 10765 bound_to 10752
  139.9196  134.7797  156.1704 H   0  0  0  0  0  0  0  0  0  0  0  0  # atno 11005 bound_to 11000
  144.9022  139.4635  143.6627 LP  0  0  0  0  0  0  0  0  0  0  0  0  # atno 17320 bound_to 7965
  146.3120  139.7782  142.9012 LP  0  0  0  0  0  0  0  0  0  0  0  0  # atno 17321 bound_to 7965
  140.7071  143.2476  151.4692 LP  0  0  0  0  0  0  0  0  0  0  0  0  # atno 17342 bound_to 10162
  139.5772  144.1791  152.1920 LP  0  0  0  0  0  0  0  0  0  0  0  0  # atno 17343 bound_to 10162
  157.5652  131.0946  150.9501 LP  0  0  0  0  0  0  0  0  0  0  0  0  # atno 17370 bound_to 10713
  156.9729  130.5498  149.5291 LP  0  0  0  0  0  0  0  0  0  0  0  0  # atno 17371 bound_to 10713
  141.0704  133.6799  156.2129 LP  0  0  0  0  0  0  0  0  0  0  0  0  # atno 17394 bound_to 11000
  140.6516  134.5061  157.5578 LP  0  0  0  0  0  0  0  0  0  0  0  0  # atno 17395 bound_to 11000

$$$$
