AV-unprocessed.smi:1661|AV-procd|sdf|6654|dock1
  -GOLD-   22720 7363D 1   1.00000     0.00000
 Structure written by MMmdl.
 38 39  0  0  0  0  0  0  0  0  2 V2000
  150.2197  138.4840  156.9534 C   0  0  0  0  0  0  0  0  0  0  0  0
  150.4829  137.7156  155.6465 C   0  0  2  0  0  0  0  0  0  0  0  0
  150.6624  138.6459  154.4333 C   0  0  0  0  0  0  0  0  0  0  0  0
  149.3300  139.2595  153.9666 C   0  0  0  0  0  0  0  0  0  0  0  0
  148.3236  138.2069  153.6706 N   0  3  2  0  0  0  0  0  0  0  0  0
  147.0766  138.7729  153.0963 C   0  0  0  0  0  0  0  0  0  0  0  0
  146.1781  137.6957  152.4570 C   0  0  0  0  0  0  0  0  0  0  0  0
  144.7644  138.0326  152.5797 N   0  0  0  0  0  0  0  0  0  0  0  0
  143.8294  137.2329  153.1128 C   0  0  0  0  0  0  0  0  0  0  0  0
  144.0725  136.1065  153.5465 O   0  0  0  0  0  0  0  0  0  0  0  0
  142.6203  137.8211  153.1040 N   0  0  0  0  0  0  0  0  0  0  0  0
  141.3846  137.2988  153.5699 C   0  0  0  0  0  0  0  0  0  0  0  0
  141.2747  136.1566  154.2663 N   0  0  0  0  0  0  0  0  0  0  0  0
  139.9551  135.8749  154.5966 N   0  0  0  0  0  0  0  0  0  0  0  0
  139.1236  136.8143  154.1373 C   0  0  0  0  0  0  0  0  0  0  0  0
  139.8708  138.1353  153.2559 S   0  0  0  0  0  0  0  0  0  0  0  0
  148.0839  137.3338  154.8506 C   0  0  0  0  0  0  0  0  0  0  0  0
  149.3895  136.6779  155.3352 C   0  0  0  0  0  0  0  0  0  0  0  0
  149.2957  139.0600  156.9150 H   0  0  0  0  0  0  0  0  0  0  0  0
  151.0320  139.1791  157.1674 H   0  0  0  0  0  0  0  0  0  0  0  0
  150.1454  137.8000  157.7993 H   0  0  0  0  0  0  0  0  0  0  0  0
  151.4195  137.1752  155.7897 H   0  0  0  0  0  0  0  0  0  0  0  0
  151.3777  139.4359  154.6652 H   0  0  0  0  0  0  0  0  0  0  0  0
  151.0970  138.0782  153.6092 H   0  0  0  0  0  0  0  0  0  0  0  0
  148.9365  139.9421  154.7208 H   0  0  0  0  0  0  0  0  0  0  0  0
  149.5122  139.8548  153.0710 H   0  0  0  0  0  0  0  0  0  0  0  0
  146.5334  139.3268  153.8634 H   0  0  0  0  0  0  0  0  0  0  0  0
  147.3431  139.4981  152.3261 H   0  0  0  0  0  0  0  0  0  0  0  0
  146.4358  137.5560  151.4056 H   0  0  0  0  0  0  0  0  0  0  0  0
  146.3195  136.7309  152.9421 H   0  0  0  0  0  0  0  0  0  0  0  0
  144.4811  138.9436  152.2484 H   0  0  0  0  0  0  0  0  0  0  0  0
  142.5763  138.7521  152.7170 H   0  0  0  0  0  0  0  0  0  0  0  0
  138.0623  136.7286  154.3180 H   0  0  0  0  0  0  0  0  0  0  0  0
  147.6294  137.9170  155.6524 H   0  0  0  0  0  0  0  0  0  0  0  0
  147.3748  136.5458  154.6008 H   0  0  0  0  0  0  0  0  0  0  0  0
  149.7519  135.9987  154.5622 H   0  0  0  0  0  0  0  0  0  0  0  0
  149.1951  136.0597  156.2124 H   0  0  0  0  0  0  0  0  0  0  0  0
  148.7304  137.6263  152.9510 H   0  0  0  0  0  0  0  0  0  0  0  0
  1  2  1  0  0  0  0
  1 19  1  0  0  0  0
  1 20  1  0  0  0  0
  1 21  1  0  0  0  0
  2 18  1  0  0  0  0
  2  3  1  0  0  0  0
  2 22  1  0  0  0  0
  3  4  1  0  0  0  0
  3 23  1  0  0  0  0
  3 24  1  0  0  0  0
  4  5  1  0  0  0  0
  4 25  1  0  0  0  0
  4 26  1  0  0  0  0
  5  6  1  0  0  0  0
  5 17  1  0  0  0  0
  5 38  1  0  0  0  0
  6  7  1  0  0  0  0
  6 27  1  0  0  0  0
  6 28  1  0  0  0  0
  7  8  1  0  0  0  0
  7 29  1  0  0  0  0
  7 30  1  0  0  0  0
  8  9  1  0  0  0  0
  8 31  1  0  0  0  0
  9 10  2  0  0  0  0
  9 11  1  0  0  0  0
 11 12  1  0  0  0  0
 11 32  1  0  0  0  0
 12 16  1  0  0  0  0
 12 13  2  0  0  0  0
 13 14  1  0  0  0  0
 14 15  2  0  0  0  0
 15 16  1  0  0  0  0
 15 33  1  0  0  0  0
 17 18  1  0  0  0  0
 17 34  1  0  0  0  0
 17 35  1  0  0  0  0
 18 36  1  0  0  0  0
 18 37  1  0  0  0  0
M  CHG  1   5   1
M  END
> <s_m_source_file>
AV-unprocessed.smi

> <i_m_source_file_index>
1661

> <i_lp_mmshare_version>
43012

> <i_f3d_flags>
0

> <s_epik_input>
W0NIM11bQ0hdMVtDSDJdW0NIMl1OKFtDSDJdW0NIMl0xKVtDSDJdW0NIMl1bTkhdQyg9TylbTkhdYzJubltjSF1zMg==

> <s_epik_cmdline>
J2VwaWtfcHl0aG9uJywgJy1waCcsICc3LjAnLCAnLXRuJywgJzgnLCAnLW1hJywgJzIwMCcsICctbWV0YWxfYmluZGluZycsICctaW1hZScsICc8aW5maWxlLm1hZT4nLCAnLW9tYWUnLCAnPG91dGZpbGUubWFlPic=

> <r_lp_tautomer_probability>
1

> <r_epik_Ionization_Penalty>
0.0053917

> <r_epik_Ionization_Penalty_Charging>
0.00168873

> <r_epik_Ionization_Penalty_Neutral>
0.00370297

> <r_epik_State_Penalty>
-0

> <r_epik_Charging_Adjusted_Penalty>
0.00168873

> <i_epik_Tot_Q>
1

> <i_epik_Tot_abs_Q>
1

> <r_epik_Metal_State_Penalty>
0.36997

> <b_epik_Metal_Only>
0

> <s_lp_Force_Field>
OPLS_2005

> <r_lp_Energy>
16.5964

> <b_lp_Chiralities_Consistent>
1

> <s_lp_Variant>
AV-unprocessed.smi:1661-2

> <Gold.Version>
5.8.1

> <Gold.Id.Protein>
6NUR|6NUR_protein|mol2

> <Gold.PLP.Fitness>
42.5885

> <Gold.PLP.PLP>
-28.4030

> <Gold.PLP.part.hbond>
-5.5182

> <Gold.PLP.part.metal>
0.0000

> <Gold.PLP.part.buried>
-3.8843

> <Gold.PLP.part.nonpolar>
-19.6148

> <Gold.PLP.part.repulsive>
0.3134

> <Gold.PLP.ligand.clash>
0.0000

> <Gold.PLP.ligand.torsion>
0.3092

> <Gold.PLP.Chemscore.Hbond>
4.9280

> <Gold.PLP.Chemscore.CHOScore>
0.0000

> <Gold.PLP.Chemscore.Metal>
0.0000

> <Gold.Chemscore.Hbonds>
donor molecule, donor type, donor heavy atom, donor atom, acceptor molecule, acceptor atom, score
      L1  H     5    38       P1  7948  2.00
      L1  H     8    31       P1 10175  1.00
      L1  H    11    32       P1 10175  0.88
      P1  H 11000 11005       L1    14  1.00

> <Gold.PLP.Chemscore.Internal.Correction>
0.0199

> <Gold.Rescore>
     Score         DG    S(hbond)    S(metal)    S(lipo)     H(rot)  DE(clash)    DE(int)     intcor
     18.13     -19.74       3.76        0.00      51.90       1.70       0.03       1.57       ----

> <Gold.Chemscore.Fitness>
18.1329

> <Gold.Chemscore.DG>
-19.7380

> <Gold.Chemscore.ZeroCoef>
-5.4800

> <Gold.Chemscore.Hbond>
3.7574

> <Gold.Chemscore.Metal>
0.0000

> <Gold.Chemscore.Lipo>
51.8974

> <Gold.Chemscore.Internal_Hbond>
0.0000

> <Gold.Chemscore.DEClash>
0.0310

> <Gold.Chemscore.DEInternal>
1.5741

> <Gold.Chemscore.Rot>
1.7046

> <Gold.Chemscore.Internal.Correction>
   9.000000E+99

> <Gold.Chemscore.Hbonds>
donor molecule, donor type, donor heavy atom, donor atom, acceptor molecule, acceptor atom, score
      L1  H     5    38       P1  7948  1.00
      L1  H     8    31       P1 10175  0.96
      L1  H    11    32       P1 10175  0.84
      P1  H 11000 11005       L1    14  0.68

> <Gold.Chemscore.Hbond.Weighted>
-12.5499

> <Gold.Chemscore.Metal.Weighted>
-0.0000

> <Gold.Chemscore.Lipo.Weighted>
-6.0720

> <Gold.Chemscore.Internal_Hbond.Weighted>
0.0000

> <Gold.Chemscore.DEClash.Weighted>
0.0310

> <Gold.Chemscore.DEInternal.Weighted>
1.5741

> <Gold.Chemscore.Rot.Weighted>
4.3638

> <Gold.Chemscore.Internal.Correction.Weighted>
   9.000000E+99

> <Gold.Protein.RotatedTorsions>
[ 6907 6896 6895 6894 ] final  133.18 input  -60.11 | X-H torsion
[ 7974 7965 7964 7962 ] final  -27.66 input  175.53 | X-H torsion
[ 8008 7997 7996 7995 ] final -106.98 input   59.86 | X-H torsion
[ 10167 10162 10161 10158 ] final  123.25 input  -65.29 | X-H torsion
[ 10718 10713 10712 10709 ] final   -5.22 input   66.30 | X-H torsion
[ 10763 10752 10751 10750 ] final   33.95 input  -60.55 | X-H torsion
[ 11005 11000 10999 10996 ] final   75.48 input  -57.11 | X-H torsion

> <Gold.Protein.ActiveResidues>
 VAL166  LYS551  ARG553  GLY616  TRP617  ASP618  TYR619  PRO620  LYS621  CYS622 
 ASP623  PHE694  ASN695  SER759  ASP760  ASP761  ALA762  ILE779  LEU786  VAL792 
 PHE793  MET794  SER795  GLU796  ALA797  LYS798  CYS799  TRP800  GLU811  SER814 

> <Gold.Protein.RotatedAtoms>
  152.3246  133.5891  159.5767 H   0  0  0  0  0  0  0  0  0  0  0  0  # atno 6907 bound_to 6896
  150.7390  133.9959  159.3631 H   0  0  0  0  0  0  0  0  0  0  0  0  # atno 6908 bound_to 6896
  151.7840  135.0754  160.0429 H   0  0  0  0  0  0  0  0  0  0  0  0  # atno 6909 bound_to 6896
  146.1342  140.5180  142.8680 H   0  0  0  0  0  0  0  0  0  0  0  0  # atno 7974 bound_to 7965
  154.9225  140.0407  157.2005 H   0  0  0  0  0  0  0  0  0  0  0  0  # atno 8008 bound_to 7997
  154.8239  140.2888  155.5746 H   0  0  0  0  0  0  0  0  0  0  0  0  # atno 8009 bound_to 7997
  156.2982  140.2513  156.3152 H   0  0  0  0  0  0  0  0  0  0  0  0  # atno 8010 bound_to 7997
  139.5810  144.6986  151.3528 H   0  0  0  0  0  0  0  0  0  0  0  0  # atno 10167 bound_to 10162
  156.7498  130.5236  149.5806 H   0  0  0  0  0  0  0  0  0  0  0  0  # atno 10718 bound_to 10713
  153.0187  135.6373  154.1591 H   0  0  0  0  0  0  0  0  0  0  0  0  # atno 10763 bound_to 10752
  154.1328  135.2839  155.3182 H   0  0  0  0  0  0  0  0  0  0  0  0  # atno 10764 bound_to 10752
  154.6182  135.5534  153.7608 H   0  0  0  0  0  0  0  0  0  0  0  0  # atno 10765 bound_to 10752
  139.9342  134.7521  156.1276 H   0  0  0  0  0  0  0  0  0  0  0  0  # atno 11005 bound_to 11000
  144.7723  140.5663  143.6662 LP  0  0  0  0  0  0  0  0  0  0  0  0  # atno 17320 bound_to 7965
  145.5192  139.1477  143.3562 LP  0  0  0  0  0  0  0  0  0  0  0  0  # atno 17321 bound_to 7965
  140.7088  143.7444  150.7530 LP  0  0  0  0  0  0  0  0  0  0  0  0  # atno 17342 bound_to 10162
  140.0976  143.4818  152.2443 LP  0  0  0  0  0  0  0  0  0  0  0  0  # atno 17343 bound_to 10162
  156.1409  130.6244  151.0466 LP  0  0  0  0  0  0  0  0  0  0  0  0  # atno 17370 bound_to 10713
  157.6782  131.0845  150.7439 LP  0  0  0  0  0  0  0  0  0  0  0  0  # atno 17371 bound_to 10713
  141.0947  133.6700  156.2618 LP  0  0  0  0  0  0  0  0  0  0  0  0  # atno 17394 bound_to 11000
  140.6120  134.5448  157.5535 LP  0  0  0  0  0  0  0  0  0  0  0  0  # atno 17395 bound_to 11000

$$$$
