AV-unprocessed.smi:215|AV-procd|sdf|1656|dock4
  -GOLD-   2262020 43D 1   1.00000     0.00000
 Structure written by MMmdl.
 59 62  0  0  0  0  0  0  0  0  2 V2000
  146.0149  141.4266  154.9933 C   0  0  0  0  0  0  0  0  0  0  0  0
  147.2726  140.5443  154.9291 C   0  0  2  0  0  0  0  0  0  0  0  0
  148.5814  141.3390  154.8488 C   0  0  1  0  0  0  0  0  0  0  0  0
  148.9876  142.0495  156.0979 N   0  3  1  0  0  0  0  0  0  0  0  0
  148.1502  141.7728  157.2945 C   0  0  0  0  0  0  0  0  0  0  0  0
  150.4426  141.9168  156.3737 C   0  0  0  0  0  0  0  0  0  0  0  0
  150.8691  142.6553  157.6537 C   0  0  0  0  0  0  0  0  0  0  0  0
  150.2295  143.9122  157.7210 O   0  0  0  0  0  0  0  0  0  0  0  0
  149.5631  140.2841  154.3315 C   0  0  0  0  0  0  0  0  0  0  0  0
  148.6998  139.4531  153.3742 C   0  0  0  0  0  0  0  0  0  0  0  0
  147.3035  139.6986  153.7391 N   0  0  0  0  0  0  0  0  0  0  0  0
  146.5015  138.6110  153.7992 C   0  0  0  0  0  0  0  0  0  0  0  0
  145.8799  138.2844  154.9630 N   0  0  0  0  0  0  0  0  0  0  0  0
  145.0744  137.2191  155.0108 C   0  0  0  0  0  0  0  0  0  0  0  0
  144.7549  136.3701  154.0317 N   0  0  0  0  0  0  0  0  0  0  0  0
  145.3726  136.7004  152.8605 C   0  0  0  0  0  0  0  0  0  0  0  0
  146.2552  137.7986  152.6618 C   0  0  0  0  0  0  0  0  0  0  0  0
  146.6922  137.8305  151.3446 N   0  0  0  0  0  0  0  0  0  0  0  0
  146.1012  136.8059  150.7925 C   0  0  0  0  0  0  0  0  0  0  0  0
  145.2888  136.0707  151.6282 N   0  0  0  0  0  0  0  0  0  0  0  0
  144.5300  134.9048  151.2690 C   0  0  0  0  0  0  0  0  0  0  0  0
  144.6526  133.5971  152.0564 C   0  0  0  0  0  0  0  0  0  0  0  0
  144.4099  132.8030  150.7510 C   0  0  0  0  0  0  0  0  0  0  0  0
  145.2634  131.5350  150.5497 C   0  0  0  0  0  0  0  0  0  0  0  0
  146.5180  131.6151  151.1965 O   0  0  0  0  0  0  0  0  0  0  0  0
  142.9394  132.4033  150.5264 C   0  0  0  0  0  0  0  0  0  0  0  0
  142.6746  132.1308  149.1650 O   0  0  0  0  0  0  0  0  0  0  0  0
  144.8663  134.0877  150.0188 C   0  0  0  0  0  0  0  0  0  0  0  0
  147.2833  139.8870  155.7979 H   0  0  0  0  0  0  0  0  0  0  0  0
  148.4517  142.0902  154.0667 H   0  0  0  0  0  0  0  0  0  0  0  0
  146.0360  142.0737  155.8704 H   0  0  0  0  0  0  0  0  0  0  0  0
  145.1091  140.8229  155.0557 H   0  0  0  0  0  0  0  0  0  0  0  0
  145.9308  142.0624  154.1112 H   0  0  0  0  0  0  0  0  0  0  0  0
  148.2445  140.7390  157.6260 H   0  0  0  0  0  0  0  0  0  0  0  0
  147.0977  141.9833  157.1149 H   0  0  0  0  0  0  0  0  0  0  0  0
  148.4458  142.4075  158.1287 H   0  0  0  0  0  0  0  0  0  0  0  0
  150.7037  140.8596  156.4409 H   0  0  0  0  0  0  0  0  0  0  0  0
  151.0262  142.3172  155.5433 H   0  0  0  0  0  0  0  0  0  0  0  0
  150.6520  142.0825  158.5546 H   0  0  0  0  0  0  0  0  0  0  0  0
  151.9464  142.8227  157.6399 H   0  0  0  0  0  0  0  0  0  0  0  0
  149.9366  144.1491  156.8536 H   0  0  0  0  0  0  0  0  0  0  0  0
  150.4358  140.7160  153.8410 H   0  0  0  0  0  0  0  0  0  0  0  0
  149.9144  139.6366  155.1340 H   0  0  0  0  0  0  0  0  0  0  0  0
  148.8404  139.8004  152.3503 H   0  0  0  0  0  0  0  0  0  0  0  0
  148.9842  138.4002  153.3973 H   0  0  0  0  0  0  0  0  0  0  0  0
  144.6188  137.0182  155.9694 H   0  0  0  0  0  0  0  0  0  0  0  0
  146.2438  136.5584  149.7505 H   0  0  0  0  0  0  0  0  0  0  0  0
  143.4844  135.2167  151.2337 H   0  0  0  0  0  0  0  0  0  0  0  0
  145.6459  133.4519  152.4819 H   0  0  0  0  0  0  0  0  0  0  0  0
  143.8867  133.4627  152.8208 H   0  0  0  0  0  0  0  0  0  0  0  0
  144.7462  130.6548  150.9326 H   0  0  0  0  0  0  0  0  0  0  0  0
  145.4531  131.3532  149.4916 H   0  0  0  0  0  0  0  0  0  0  0  0
  147.1775  131.2632  150.6185 H   0  0  0  0  0  0  0  0  0  0  0  0
  142.6776  131.5246  151.1169 H   0  0  0  0  0  0  0  0  0  0  0  0
  142.2615  133.1957  150.8446 H   0  0  0  0  0  0  0  0  0  0  0  0
  142.0293  132.7476  148.8547 H   0  0  0  0  0  0  0  0  0  0  0  0
  144.2753  134.3520  149.1416 H   0  0  0  0  0  0  0  0  0  0  0  0
  145.9303  134.0981  149.7803 H   0  0  0  0  0  0  0  0  0  0  0  0
  148.8524  143.0284  155.8871 H   0  0  0  0  0  0  0  0  0  0  0  0
  1  2  1  0  0  0  0
  1 31  1  0  0  0  0
  1 32  1  0  0  0  0
  1 33  1  0  0  0  0
  2 29  1  0  0  0  0
  2 11  1  0  0  0  0
  2  3  1  0  0  0  0
  3 30  1  0  0  0  0
  3  4  1  0  0  0  0
  3  9  1  0  0  0  0
  4  5  1  0  0  0  0
  4  6  1  0  0  0  0
  4 59  1  0  0  0  0
  5 34  1  0  0  0  0
  5 35  1  0  0  0  0
  5 36  1  0  0  0  0
  6  7  1  0  0  0  0
  6 37  1  0  0  0  0
  6 38  1  0  0  0  0
  7  8  1  0  0  0  0
  7 39  1  0  0  0  0
  7 40  1  0  0  0  0
  8 41  1  0  0  0  0
  9 10  1  0  0  0  0
  9 42  1  0  0  0  0
  9 43  1  0  0  0  0
 10 11  1  0  0  0  0
 10 44  1  0  0  0  0
 10 45  1  0  0  0  0
 11 12  1  0  0  0  0
 12 17  1  0  0  0  0
 12 13  2  0  0  0  0
 13 14  1  0  0  0  0
 14 15  2  0  0  0  0
 14 46  1  0  0  0  0
 15 16  1  0  0  0  0
 16 20  1  0  0  0  0
 16 17  2  0  0  0  0
 17 18  1  0  0  0  0
 18 19  2  0  0  0  0
 19 20  1  0  0  0  0
 19 47  1  0  0  0  0
 20 21  1  0  0  0  0
 21 28  1  0  0  0  0
 21 22  1  0  0  0  0
 21 48  1  0  0  0  0
 22 23  1  0  0  0  0
 22 49  1  0  0  0  0
 22 50  1  0  0  0  0
 23 24  1  0  0  0  0
 23 26  1  0  0  0  0
 23 28  1  0  0  0  0
 24 25  1  0  0  0  0
 24 51  1  0  0  0  0
 24 52  1  0  0  0  0
 25 53  1  0  0  0  0
 26 27  1  0  0  0  0
 26 54  1  0  0  0  0
 26 55  1  0  0  0  0
 27 56  1  0  0  0  0
 28 57  1  0  0  0  0
 28 58  1  0  0  0  0
M  CHG  1   4   1
M  END
> <s_m_source_file>
AV-unprocessed.smi

> <i_m_source_file_index>
215

> <i_lp_mmshare_version>
43012

> <i_f3d_flags>
0

> <s_epik_input>
W09IXVtDSDJdW0NIMl1OKFtDSDNdKVtDQEBIXShbQ0BIXTFbQ0gzXSlbQ0gyXVtDSDJdTjFjKG5bY0hdbjIpYyhjMjMpbltjSF1uM1tDSF0oW0NIMl00KVtDSDJdQzQoW0NIMl1bT0hdKVtDSDJdW09IXQ==

> <s_epik_cmdline>
J2VwaWtfcHl0aG9uJywgJy1waCcsICc3LjAnLCAnLXRuJywgJzgnLCAnLW1hJywgJzIwMCcsICctbWV0YWxfYmluZGluZycsICctaW1hZScsICc8aW5maWxlLm1hZT4nLCAnLW9tYWUnLCAnPG91dGZpbGUubWFlPic=

> <r_lp_tautomer_probability>
1

> <r_epik_Ionization_Penalty>
0.0036237

> <r_epik_Ionization_Penalty_Charging>
0.0032725

> <r_epik_Ionization_Penalty_Neutral>
0.000351196

> <r_epik_State_Penalty>
-0

> <r_epik_Charging_Adjusted_Penalty>
0.0032725

> <i_epik_Tot_Q>
1

> <i_epik_Tot_abs_Q>
1

> <r_epik_Metal_State_Penalty>
-0

> <b_epik_Metal_Only>
0

> <s_lp_Force_Field>
OPLS_2005

> <r_lp_Energy>
69.5021

> <b_lp_Chiralities_Consistent>
1

> <s_lp_Variant>
AV-unprocessed.smi:215-7

> <Gold.Version>
5.8.1

> <Gold.Id.Protein>
6NUR|6NUR_protein|mol2

> <Gold.PLP.Fitness>
51.7824

> <Gold.PLP.PLP>
-35.9824

> <Gold.PLP.part.hbond>
-7.6860

> <Gold.PLP.part.metal>
0.0000

> <Gold.PLP.part.buried>
6.4246

> <Gold.PLP.part.nonpolar>
-38.4170

> <Gold.PLP.part.repulsive>
2.6533

> <Gold.PLP.ligand.clash>
0.0000

> <Gold.PLP.ligand.torsion>
2.3101

> <Gold.PLP.Chemscore.Hbond>
6.0800

> <Gold.PLP.Chemscore.CHOScore>
0.5090

> <Gold.PLP.Chemscore.Metal>
0.0000

> <Gold.Chemscore.Hbonds>
donor molecule, donor type, donor heavy atom, donor atom, acceptor molecule, acceptor atom, score
      L1  H     4    59       P1  8028  2.00
      L1  H     8    41       P1  8028  1.00
      L1  H    25    53       P1 10747  1.00
      L1  H    27    56       P1 10186  0.74
      P1  H  7954  7966       L1    18  0.55
      P1  H 10785 10796       L1    27  0.83
      L1  C    19    47       P1  7921  0.54

> <Gold.PLP.Chemscore.Internal.Correction>
0.6533

> <Gold.Rescore>
     Score         DG    S(hbond)    S(metal)    S(lipo)     H(rot)  DE(clash)    DE(int)     intcor
     13.40     -19.63       4.58        0.00      95.39       4.81       3.37       2.86       ----

> <Gold.Chemscore.Fitness>
13.3972

> <Gold.Chemscore.DG>
-19.6287

> <Gold.Chemscore.ZeroCoef>
-5.4800

> <Gold.Chemscore.Hbond>
4.5813

> <Gold.Chemscore.Metal>
0.0000

> <Gold.Chemscore.Lipo>
95.3856

> <Gold.Chemscore.Internal_Hbond>
0.0000

> <Gold.Chemscore.DEClash>
3.3690

> <Gold.Chemscore.DEInternal>
2.8625

> <Gold.Chemscore.Rot>
4.8098

> <Gold.Chemscore.Internal.Correction>
   9.000000E+99

> <Gold.Chemscore.Hbonds>
donor molecule, donor type, donor heavy atom, donor atom, acceptor molecule, acceptor atom, score
      L1  H     4    59       P1  8028  1.00
      L1  H     8    41       P1  8028  0.92
      L1  H    25    53       P1 10747  0.94
      L1  H    27    56       P1 10186  0.70
      P1  H  7954  7966       L1    18  0.04
      P1  H 10785 10796       L1    27  0.61

> <Gold.Chemscore.Hbond.Weighted>
-15.3016

> <Gold.Chemscore.Metal.Weighted>
-0.0000

> <Gold.Chemscore.Lipo.Weighted>
-11.1601

> <Gold.Chemscore.Internal_Hbond.Weighted>
0.0000

> <Gold.Chemscore.DEClash.Weighted>
3.3690

> <Gold.Chemscore.DEInternal.Weighted>
2.8625

> <Gold.Chemscore.Rot.Weighted>
12.3130

> <Gold.Chemscore.Internal.Correction.Weighted>
   9.000000E+99

> <Gold.Protein.RotatedTorsions>
[ 6907 6896 6895 6894 ] final  106.20 input  -60.11 | X-H torsion
[ 7974 7965 7964 7962 ] final    7.59 input  175.53 | X-H torsion
[ 8008 7997 7996 7995 ] final  157.28 input   59.86 | X-H torsion
[ 10167 10162 10161 10158 ] final  -93.47 input  -65.29 | X-H torsion
[ 10718 10713 10712 10709 ] final  118.44 input   66.30 | X-H torsion
[ 10763 10752 10751 10750 ] final   88.44 input  -60.55 | X-H torsion
[ 11005 11000 10999 10996 ] final   59.40 input  -57.11 | X-H torsion

> <Gold.Protein.ActiveResidues>
 VAL166  LYS551  ARG553  GLY616  TRP617  ASP618  TYR619  PRO620  LYS621  CYS622 
 ASP623  PHE694  ASN695  SER759  ASP760  ASP761  ALA762  ILE779  LEU786  VAL792 
 PHE793  MET794  SER795  GLU796  ALA797  LYS798  CYS799  TRP800  GLU811  SER814 

> <Gold.Protein.RotatedAtoms>
  152.5203  133.9417  159.7629 H   0  0  0  0  0  0  0  0  0  0  0  0  # atno 6907 bound_to 6896
  150.9745  133.6301  159.2739 H   0  0  0  0  0  0  0  0  0  0  0  0  # atno 6908 bound_to 6896
  151.3500  135.0888  159.9453 H   0  0  0  0  0  0  0  0  0  0  0  0  # atno 6909 bound_to 6896
  146.2425  140.0061  142.8411 H   0  0  0  0  0  0  0  0  0  0  0  0  # atno 7974 bound_to 7965
  156.2373  140.1889  156.7084 H   0  0  0  0  0  0  0  0  0  0  0  0  # atno 8008 bound_to 7997
  154.6130  140.0619  156.9546 H   0  0  0  0  0  0  0  0  0  0  0  0  # atno 8009 bound_to 7997
  155.1985  140.3290  155.4349 H   0  0  0  0  0  0  0  0  0  0  0  0  # atno 8010 bound_to 7997
  140.3243  143.3031  152.0012 H   0  0  0  0  0  0  0  0  0  0  0  0  # atno 10167 bound_to 10162
  157.6030  131.1048  150.7756 H   0  0  0  0  0  0  0  0  0  0  0  0  # atno 10718 bound_to 10713
  153.1768  135.4507  154.9976 H   0  0  0  0  0  0  0  0  0  0  0  0  # atno 10763 bound_to 10752
  154.8004  135.3253  154.7567 H   0  0  0  0  0  0  0  0  0  0  0  0  # atno 10764 bound_to 10752
  153.8036  135.6960  153.4906 H   0  0  0  0  0  0  0  0  0  0  0  0  # atno 10765 bound_to 10752
  140.0307  134.6016  155.9511 H   0  0  0  0  0  0  0  0  0  0  0  0  # atno 11005 bound_to 11000
  145.1371  140.9550  143.4510 LP  0  0  0  0  0  0  0  0  0  0  0  0  # atno 17320 bound_to 7965
  145.0332  139.3323  143.6014 LP  0  0  0  0  0  0  0  0  0  0  0  0  # atno 17321 bound_to 7965
  139.4868  144.6286  151.7115 LP  0  0  0  0  0  0  0  0  0  0  0  0  # atno 17342 bound_to 10162
  140.5455  144.0510  150.6105 LP  0  0  0  0  0  0  0  0  0  0  0  0  # atno 17343 bound_to 10162
  156.8151  130.4965  149.5350 LP  0  0  0  0  0  0  0  0  0  0  0  0  # atno 17370 bound_to 10713
  156.1108  130.6039  151.0044 LP  0  0  0  0  0  0  0  0  0  0  0  0  # atno 17371 bound_to 10713
  141.1829  133.6550  156.5095 LP  0  0  0  0  0  0  0  0  0  0  0  0  # atno 17394 bound_to 11000
  140.4231  134.7170  157.4901 LP  0  0  0  0  0  0  0  0  0  0  0  0  # atno 17395 bound_to 11000

$$$$
