#       Name:                AV-unprocessed.smi:1574
#       Creating user name   scv26
#       Creation time:       Fri Mar 27 06:54:51 2020


#       File generated by GOLD software.
#

@<TRIPOS>MOLECULE
AV-unprocessed.smi:1574
    47    48     1
SMALL
NO_CHARGES


@<TRIPOS>ATOM
      1 ****        -1.2401   0.8679   3.2501 C.3            1 S1                 0.0000
      2 ****        -1.4671   0.9118   1.7305 C.3            1 S1                 0.0000
      3 ****        -2.9550   1.1585   1.4095 C.3            1 S1                 0.0000
      4 ****        -3.2121   1.2030  -0.1044 C.3            1 S1                 0.0000
      5 ****        -2.7224  -0.0832  -0.7828 C.3            1 S1                 0.0000
      6 ****        -1.2390  -0.3319  -0.4786 C.3            1 S1                 0.0000
      7 ****        -0.9637  -0.3757   1.0396 C.3            1 S1                 0.0000
      8 ****         0.4393  -0.4638   1.2475 O.3            1 S1                 0.0000
      9 ****         0.9598  -1.7841   1.1920 C.3            1 S1                 0.0000
     10 ****         2.4883  -1.7041   1.0692 C.3            1 S1                 0.0000
     11 ****         2.8844  -0.9643  -0.1241 N.am           1 S1                 0.0000
     12 ****         2.7994  -1.4223  -1.3828 C.2            1 S1                 0.0000
     13 ****         2.4436  -2.5655  -1.6669 O.2            1 S1                 0.0000
     14 ****         3.1551  -0.4345  -2.4937 C.3            1 S1                 0.0000
     15 ****         2.0757   0.5100  -2.7157 N.pl3          1 S1                 0.0000
     16 ****         1.8398   1.7123  -2.1865 C.2            1 S1                 0.0000
     17 ****         0.7282   2.2488  -2.6661 N.2            1 S1                 0.0000
     18 ****         0.2683   1.2843  -3.5472 N.2            1 S1                 0.0000
     19 ****         1.0628   0.2496  -3.5795 N.2            1 S1                 0.0000
     20 ****        -1.7742   0.0342   3.7072 H              1 S1                 0.0000
     21 ****        -1.5871   1.7860   3.7253 H              1 S1                 0.0000
     22 ****        -0.1826   0.7567   3.4904 H              1 S1                 0.0000
     23 ****        -0.8970   1.7536   1.3340 H              1 S1                 0.0000
     24 ****        -3.5639   0.3714   1.8567 H              1 S1                 0.0000
     25 ****        -3.2835   2.0954   1.8605 H              1 S1                 0.0000
     26 ****        -4.2758   1.3439  -0.2977 H              1 S1                 0.0000
     27 ****        -2.7013   2.0636  -0.5384 H              1 S1                 0.0000
     28 ****        -3.3148  -0.9309  -0.4367 H              1 S1                 0.0000
     29 ****        -2.8739  -0.0162  -1.8605 H              1 S1                 0.0000
     30 ****        -0.9229  -1.2569  -0.9598 H              1 S1                 0.0000
     31 ****        -0.6439   0.4629  -0.9261 H              1 S1                 0.0000
     32 ****        -1.4688  -1.2347   1.4860 H              1 S1                 0.0000
     33 ****         0.6790  -2.3211   2.0987 H              1 S1                 0.0000
     34 ****         0.5491  -2.3437   0.3515 H              1 S1                 0.0000
     35 ****         2.9048  -1.1992   1.9412 H              1 S1                 0.0000
     36 ****         2.9215  -2.7053   1.0495 H              1 S1                 0.0000
     37 ****         3.1915  -0.0126   0.0156 H              1 S1                 0.0000
     38 ****         4.0592   0.1161  -2.2302 H              1 S1                 0.0000
     39 ****         3.3616  -0.9689  -3.4223 H              1 S1                 0.0000
     40 ****         2.4760   2.1894  -1.4559 H              1 S1                 0.0000
     41 ****         0.6462  -0.0839   2.1491 LP             1 S1                 0.0000
     42 ****         0.8945   0.0815   0.5436 LP             1 S1                 0.0000
     43 ****         2.1991  -3.2081  -0.9407 LP             1 S1                 0.0000
     44 ****         2.3990  -2.8520  -2.6239 LP             1 S1                 0.0000
     45 ****         0.3202   3.1347  -2.4457 LP             1 S1                 0.0000
     46 ****        -0.5671   1.3700  -4.0901 LP             1 S1                 0.0000
     47 ****         0.9474  -0.5750  -4.1334 LP             1 S1                 0.0000
@<TRIPOS>BOND
    1    1    2 1     
    2    1   20 1     
    3    1   21 1     
    4    1   22 1     
    5    2    7 1     
    6    2    3 1     
    7    2   23 1     
    8    3    4 1     
    9    3   24 1     
   10    3   25 1     
   11    4    5 1     
   12    4   26 1     
   13    4   27 1     
   14    5    6 1     
   15    5   28 1     
   16    5   29 1     
   17    6    7 1     
   18    6   30 1     
   19    6   31 1     
   20    7    8 1     
   21    7   32 1     
   22    8    9 1     
   23    9   10 1     
   24    9   33 1     
   25    9   34 1     
   26   10   11 1     
   27   10   35 1     
   28   10   36 1     
   29   11   12 am    
   30   11   37 1     
   31   12   13 2     
   32   12   14 1     
   33   14   15 1     
   34   14   38 1     
   35   14   39 1     
   36   15   19 1     
   37   15   16 1     
   38   16   17 2     
   39   16   40 1     
   40   17   18 1     
   41   18   19 2     
   42    8   41 1     
   43    8   42 1     
   44   13   43 1     
   45   13   44 1     
   46   17   45 1     
   47   18   46 1     
   48   19   47 1     
@<TRIPOS>SUBSTRUCTURE
      1 S1             1
@<TRIPOS>SET
LONE_PAIRS      STATIC     ATOMS    <user>   **** ""
7 41 42 43 44 45 46 47
DONOR_HYDROGENS      STATIC     ATOMS    <user>   **** ""
1 37
ATOM$BLUE        STATIC     ATOMS    COLORGROUP SYSTEM
7 41 42 43 44 45 46 47
ATOM$RED        STATIC     ATOMS    COLORGROUP SYSTEM
1 37
