AV-unprocessed.smi:1667|AV-procd|sdf|6679|dock3
  -GOLD-   22720 7393D 1   1.00000     0.00000
 Structure written by MMmdl.
 46 48  0  0  0  0  0  0  0  0  2 V2000
  152.5492  137.3811  158.6686 C   0  0  0  0  0  0  0  0  0  0  0  0
  152.4452  137.1139  157.1710 C   0  0  0  0  0  0  0  0  0  0  0  0
  153.1980  136.2977  156.6405 O   0  0  0  0  0  0  0  0  0  0  0  0
  151.5125  137.8117  156.5038 N   0  0  0  0  0  0  0  0  0  0  0  0
  151.2482  137.7207  155.0709 C   0  0  1  0  0  0  0  0  0  0  0  0
  150.9338  136.2649  154.6887 C   0  0  0  0  0  0  0  0  0  0  0  0
  150.1581  138.6693  154.6660 C   0  0  0  0  0  0  0  0  0  0  0  0
  149.0994  138.3854  153.8529 N   0  3  0  0  0  0  0  0  0  0  0  0
  148.2944  139.5144  153.7059 C   0  0  0  0  0  0  0  0  0  0  0  0
  147.1275  139.7132  152.9745 C   0  0  0  0  0  0  0  0  0  0  0  0
  146.5524  140.9995  153.0380 C   0  0  0  0  0  0  0  0  0  0  0  0
  147.1345  142.0265  153.8093 C   0  0  0  0  0  0  0  0  0  0  0  0
  148.3162  141.8113  154.5491 C   0  0  0  0  0  0  0  0  0  0  0  0
  148.8796  140.5377  154.4777 C   0  0  0  0  0  0  0  0  0  0  0  0
  150.0209  139.9720  155.0569 N   0  0  0  0  0  0  0  0  0  0  0  0
  150.8557  140.8047  155.9389 C   0  0  0  0  0  0  0  0  0  0  0  0
  150.1988  141.0716  157.3083 C   0  0  1  0  0  0  0  0  0  0  0  0
  149.7403  139.8392  157.8242 O   0  0  0  0  0  0  0  0  0  0  0  0
  151.1426  141.7854  158.2648 C   0  0  0  0  0  0  0  0  0  0  0  0
  151.9398  141.0526  159.1722 C   0  0  0  0  0  0  0  0  0  0  0  0
  152.8406  141.7202  160.0240 C   0  0  0  0  0  0  0  0  0  0  0  0
  152.9475  143.1234  159.9766 C   0  0  0  0  0  0  0  0  0  0  0  0
  152.1534  143.8590  159.0762 C   0  0  0  0  0  0  0  0  0  0  0  0
  152.2593  145.2078  159.0253 F   0  0  0  0  0  0  0  0  0  0  0  0
  151.2533  143.1920  158.2232 C   0  0  0  0  0  0  0  0  0  0  0  0
  152.1376  138.0091  154.5126 H   0  0  0  0  0  0  0  0  0  0  0  0
  151.5891  137.6921  159.0820 H   0  0  0  0  0  0  0  0  0  0  0  0
  153.2792  138.1679  158.8594 H   0  0  0  0  0  0  0  0  0  0  0  0
  152.8692  136.4816  159.1955 H   0  0  0  0  0  0  0  0  0  0  0  0
  150.9466  138.4622  157.0290 H   0  0  0  0  0  0  0  0  0  0  0  0
  150.7700  136.1678  153.6148 H   0  0  0  0  0  0  0  0  0  0  0  0
  150.0440  135.8960  155.2002 H   0  0  0  0  0  0  0  0  0  0  0  0
  151.7621  135.6061  154.9518 H   0  0  0  0  0  0  0  0  0  0  0  0
  146.6795  138.9277  152.3835 H   0  0  0  0  0  0  0  0  0  0  0  0
  145.6472  141.2024  152.4841 H   0  0  0  0  0  0  0  0  0  0  0  0
  146.6654  142.9995  153.8337 H   0  0  0  0  0  0  0  0  0  0  0  0
  148.7552  142.6048  155.1359 H   0  0  0  0  0  0  0  0  0  0  0  0
  151.8171  140.3037  156.0600 H   0  0  0  0  0  0  0  0  0  0  0  0
  151.0677  141.7429  155.4263 H   0  0  0  0  0  0  0  0  0  0  0  0
  149.3123  141.6914  157.1696 H   0  0  0  0  0  0  0  0  0  0  0  0
  150.3712  139.1696  157.6076 H   0  0  0  0  0  0  0  0  0  0  0  0
  151.8761  139.9745  159.2069 H   0  0  0  0  0  0  0  0  0  0  0  0
  153.4536  141.1547  160.7102 H   0  0  0  0  0  0  0  0  0  0  0  0
  153.6401  143.6349  160.6286 H   0  0  0  0  0  0  0  0  0  0  0  0
  150.6568  143.7636  157.5273 H   0  0  0  0  0  0  0  0  0  0  0  0
  148.9468  137.4817  153.4238 H   0  0  0  0  0  0  0  0  0  0  0  0
  1  2  1  0  0  0  0
  1 27  1  0  0  0  0
  1 28  1  0  0  0  0
  1 29  1  0  0  0  0
  2  3  2  0  0  0  0
  2  4  1  0  0  0  0
  4  5  1  0  0  0  0
  4 30  1  0  0  0  0
  5 26  1  0  0  0  0
  5  6  1  0  0  0  0
  5  7  1  0  0  0  0
  6 31  1  0  0  0  0
  6 32  1  0  0  0  0
  6 33  1  0  0  0  0
  7 15  1  0  0  0  0
  7  8  2  0  0  0  0
  8  9  1  0  0  0  0
  8 46  1  0  0  0  0
  9 14  2  0  0  0  0
  9 10  1  0  0  0  0
 10 11  2  0  0  0  0
 10 34  1  0  0  0  0
 11 12  1  0  0  0  0
 11 35  1  0  0  0  0
 12 13  2  0  0  0  0
 12 36  1  0  0  0  0
 13 14  1  0  0  0  0
 13 37  1  0  0  0  0
 14 15  1  0  0  0  0
 15 16  1  0  0  0  0
 16 17  1  0  0  0  0
 16 38  1  0  0  0  0
 16 39  1  0  0  0  0
 17 18  1  0  0  0  0
 17 19  1  0  0  0  0
 17 40  1  0  0  0  0
 18 41  1  0  0  0  0
 19 25  1  0  0  0  0
 19 20  2  0  0  0  0
 20 21  1  0  0  0  0
 20 42  1  0  0  0  0
 21 22  2  0  0  0  0
 21 43  1  0  0  0  0
 22 23  1  0  0  0  0
 22 44  1  0  0  0  0
 23 24  1  0  0  0  0
 23 25  2  0  0  0  0
 25 45  1  0  0  0  0
M  CHG  1   8   1
M  END
> <s_m_source_file>
AV-unprocessed.smi

> <i_m_source_file_index>
1667

> <i_lp_mmshare_version>
43012

> <i_f3d_flags>
0

> <s_epik_input>
W0NIM11DKD1PKVtOSF1bQ0BASF0oW0NIM10pYyhuMSluKGMoYzEyKVtjSF1bY0hdW2NIXVtjSF0yKVtDSDJdW0NASF0oW09IXSljM1tjSF1bY0hdW2NIXWMoRilbY0hdMw==

> <s_epik_cmdline>
J2VwaWtfcHl0aG9uJywgJy1waCcsICc3LjAnLCAnLXRuJywgJzgnLCAnLW1hJywgJzIwMCcsICctbWV0YWxfYmluZGluZycsICctaW1hZScsICc8aW5maWxlLm1hZT4nLCAnLW9tYWUnLCAnPG91dGZpbGUubWFlPic=

> <r_epik_Ionization_Penalty>
0.950383

> <r_epik_Ionization_Penalty_Charging>
0.950379

> <r_epik_Ionization_Penalty_Neutral>
3.60962e-06

> <r_epik_State_Penalty>
0.994584

> <r_epik_Charging_Adjusted_Penalty>
1.94496

> <i_epik_Tot_Q>
1

> <i_epik_Tot_abs_Q>
1

> <r_epik_Metal_State_Penalty>
1.10485

> <b_epik_Metal_Only>
0

> <s_lp_Force_Field>
OPLS_2005

> <r_lp_Energy>
12.894

> <b_lp_Chiralities_Consistent>
1

> <s_lp_Variant>
AV-unprocessed.smi:1667-7

> <Gold.Version>
5.8.1

> <Gold.Id.Protein>
6NUR|6NUR_protein|mol2

> <Gold.PLP.Fitness>
57.0869

> <Gold.PLP.PLP>
-50.4706

> <Gold.PLP.part.hbond>
-2.4715

> <Gold.PLP.part.metal>
0.0000

> <Gold.PLP.part.buried>
0.4988

> <Gold.PLP.part.nonpolar>
-48.8850

> <Gold.PLP.part.repulsive>
0.1042

> <Gold.PLP.ligand.clash>
0.0000

> <Gold.PLP.ligand.torsion>
1.2273

> <Gold.PLP.Chemscore.Hbond>
3.0000

> <Gold.PLP.Chemscore.CHOScore>
0.0000

> <Gold.PLP.Chemscore.Metal>
0.0000

> <Gold.Chemscore.Hbonds>
donor molecule, donor type, donor heavy atom, donor atom, acceptor molecule, acceptor atom, score
      L1  H     8    46       P1  7948  2.00
      P1  H 10752 10765       L1     3  1.00

> <Gold.PLP.Chemscore.Internal.Correction>
0.0708

> <Gold.Rescore>
     Score         DG    S(hbond)    S(metal)    S(lipo)     H(rot)  DE(clash)    DE(int)     intcor
     16.19     -20.68       1.86        0.00     132.30       2.53       1.13       3.35       ----

> <Gold.Chemscore.Fitness>
16.1929

> <Gold.Chemscore.DG>
-20.6763

> <Gold.Chemscore.ZeroCoef>
-5.4800

> <Gold.Chemscore.Hbond>
1.8570

> <Gold.Chemscore.Metal>
0.0000

> <Gold.Chemscore.Lipo>
132.3045

> <Gold.Chemscore.Internal_Hbond>
0.0000

> <Gold.Chemscore.DEClash>
1.1323

> <Gold.Chemscore.DEInternal>
3.3512

> <Gold.Chemscore.Rot>
2.5335

> <Gold.Chemscore.Internal.Correction>
   9.000000E+99

> <Gold.Chemscore.Hbonds>
donor molecule, donor type, donor heavy atom, donor atom, acceptor molecule, acceptor atom, score
      L1  H     8    46       P1  7948  0.94
      P1  H 10752 10765       L1     3  0.98

> <Gold.Chemscore.Hbond.Weighted>
-6.2023

> <Gold.Chemscore.Metal.Weighted>
-0.0000

> <Gold.Chemscore.Lipo.Weighted>
-15.4796

> <Gold.Chemscore.Internal_Hbond.Weighted>
0.0000

> <Gold.Chemscore.DEClash.Weighted>
1.1323

> <Gold.Chemscore.DEInternal.Weighted>
3.3512

> <Gold.Chemscore.Rot.Weighted>
6.4856

> <Gold.Chemscore.Internal.Correction.Weighted>
   9.000000E+99

> <Gold.Protein.RotatedTorsions>
[ 6907 6896 6895 6894 ] final  174.24 input  -60.11 | X-H torsion
[ 7974 7965 7964 7962 ] final -152.08 input  175.53 | X-H torsion
[ 8008 7997 7996 7995 ] final   33.61 input   59.86 | X-H torsion
[ 10167 10162 10161 10158 ] final -131.49 input  -65.29 | X-H torsion
[ 10718 10713 10712 10709 ] final -153.89 input   66.30 | X-H torsion
[ 10763 10752 10751 10750 ] final -127.43 input  -60.55 | X-H torsion
[ 11005 11000 10999 10996 ] final   74.67 input  -57.11 | X-H torsion

> <Gold.Protein.ActiveResidues>
 VAL166  LYS551  ARG553  GLY616  TRP617  ASP618  TYR619  PRO620  LYS621  CYS622 
 ASP623  PHE694  ASN695  SER759  ASP760  ASP761  ALA762  ILE779  LEU786  VAL792 
 PHE793  MET794  SER795  GLU796  ALA797  LYS798  CYS799  TRP800  GLU811  SER814 

> <Gold.Protein.RotatedAtoms>
  151.7555  133.3330  159.3403 H   0  0  0  0  0  0  0  0  0  0  0  0  # atno 6907 bound_to 6896
  150.7518  134.6153  159.6117 H   0  0  0  0  0  0  0  0  0  0  0  0  # atno 6908 bound_to 6896
  152.3440  134.7098  160.0307 H   0  0  0  0  0  0  0  0  0  0  0  0  # atno 6909 bound_to 6896
  144.7814  140.4710  143.5837 H   0  0  0  0  0  0  0  0  0  0  0  0  # atno 7974 bound_to 7965
  155.1414  140.3266  155.4451 H   0  0  0  0  0  0  0  0  0  0  0  0  # atno 8008 bound_to 7997
  156.2603  140.1993  156.6479 H   0  0  0  0  0  0  0  0  0  0  0  0  # atno 8009 bound_to 7997
  154.6539  140.0555  156.9974 H   0  0  0  0  0  0  0  0  0  0  0  0  # atno 8010 bound_to 7997
  139.9184  143.6411  152.2559 H   0  0  0  0  0  0  0  0  0  0  0  0  # atno 10167 bound_to 10162
  156.4919  130.8351  151.2574 H   0  0  0  0  0  0  0  0  0  0  0  0  # atno 10718 bound_to 10713
  154.8752  135.3962  154.3592 H   0  0  0  0  0  0  0  0  0  0  0  0  # atno 10763 bound_to 10752
  153.4367  135.7026  153.6201 H   0  0  0  0  0  0  0  0  0  0  0  0  # atno 10764 bound_to 10752
  153.4799  135.3771  155.2406 H   0  0  0  0  0  0  0  0  0  0  0  0  # atno 10765 bound_to 10752
  139.9380  134.7452  156.1176 H   0  0  0  0  0  0  0  0  0  0  0  0  # atno 11005 bound_to 11000
  145.6041  139.1506  143.3112 LP  0  0  0  0  0  0  0  0  0  0  0  0  # atno 17320 bound_to 7965
  146.2023  140.6161  142.9096 LP  0  0  0  0  0  0  0  0  0  0  0  0  # atno 17321 bound_to 7965
  139.6882  144.7649  151.1485 LP  0  0  0  0  0  0  0  0  0  0  0  0  # atno 17342 bound_to 10162
  140.7668  143.5626  150.9082 LP  0  0  0  0  0  0  0  0  0  0  0  0  # atno 17343 bound_to 10162
  157.7473  131.0010  150.2949 LP  0  0  0  0  0  0  0  0  0  0  0  0  # atno 17370 bound_to 10713
  156.3418  130.3816  149.7403 LP  0  0  0  0  0  0  0  0  0  0  0  0  # atno 17371 bound_to 10713
  141.1002  133.6680  156.2738 LP  0  0  0  0  0  0  0  0  0  0  0  0  # atno 17394 bound_to 11000
  140.6025  134.5540  157.5520 LP  0  0  0  0  0  0  0  0  0  0  0  0  # atno 17395 bound_to 11000

$$$$
