AV-unprocessed.smi:2027|AV-procd|sdf|8212|dock9
  -GOLD-   2272010473D 1   1.00000     0.00000
 Structure written by MMmdl.
 50 52  0  0  0  0  0  0  0  0  2 V2000
  147.2510  128.8862  152.5017 C   0  0  0  0  0  0  0  0  0  0  0  0
  146.5333  130.2064  152.2810 C   0  0  0  0  0  0  0  0  0  0  0  0
  145.6030  130.3140  151.2229 C   0  0  0  0  0  0  0  0  0  0  0  0
  144.9119  131.5221  150.9864 C   0  0  0  0  0  0  0  0  0  0  0  0
  143.9714  131.8468  150.0239 N   0  0  0  0  0  0  0  0  0  0  0  0
  143.7035  133.1135  150.3263 C   0  0  0  0  0  0  0  0  0  0  0  0
  144.3661  133.6518  151.3685 N   0  0  0  0  0  0  0  0  0  0  0  0
  144.2427  135.0039  151.8829 C   0  0  0  0  0  0  0  0  0  0  0  0
  145.6034  135.7163  152.0022 C   0  0  1  0  0  0  0  0  0  0  0  0
  146.0937  136.0099  150.7079 O   0  0  0  0  0  0  0  0  0  0  0  0
  145.4901  137.0327  152.7963 C   0  0  0  0  0  0  0  0  0  0  0  0
  146.7608  137.8023  152.7935 N   0  3  1  0  0  0  0  0  0  0  0  0
  146.7390  138.9073  151.8057 C   0  0  0  0  0  0  0  0  0  0  0  0
  147.1715  138.2524  154.1490 C   0  0  0  0  0  0  0  0  0  0  0  0
  148.5976  138.7313  154.1590 C   0  0  0  0  0  0  0  0  0  0  0  0
  149.0636  140.0735  154.2580 C   0  0  0  0  0  0  0  0  0  0  0  0
  150.3832  140.1615  154.2462 N   0  0  0  0  0  0  0  0  0  0  0  0
  150.8050  138.8857  154.1306 N   0  0  0  0  0  0  0  0  0  0  0  0
  152.2239  138.6034  154.0879 C   0  0  0  0  0  0  0  0  0  0  0  0
  149.7499  138.0011  154.0729 C   0  0  0  0  0  0  0  0  0  0  0  0
  145.1797  132.6291  151.8439 C   0  0  0  0  0  0  0  0  0  0  0  0
  146.1034  132.5351  152.8996 C   0  0  0  0  0  0  0  0  0  0  0  0
  146.7851  131.3202  153.1221 C   0  0  0  0  0  0  0  0  0  0  0  0
  147.7805  131.2275  154.2650 C   0  0  0  0  0  0  0  0  0  0  0  0
  146.9403  128.1371  151.7729 H   0  0  0  0  0  0  0  0  0  0  0  0
  147.0337  128.4948  153.4957 H   0  0  0  0  0  0  0  0  0  0  0  0
  148.3294  129.0164  152.4081 H   0  0  0  0  0  0  0  0  0  0  0  0
  145.4103  129.4656  150.5826 H   0  0  0  0  0  0  0  0  0  0  0  0
  142.9865  133.6847  149.7545 H   0  0  0  0  0  0  0  0  0  0  0  0
  143.5721  135.5662  151.2312 H   0  0  0  0  0  0  0  0  0  0  0  0
  143.7581  134.9513  152.8586 H   0  0  0  0  0  0  0  0  0  0  0  0
  146.3098  135.0405  152.4837 H   0  0  0  0  0  0  0  0  0  0  0  0
  147.0359  136.0799  150.7520 H   0  0  0  0  0  0  0  0  0  0  0  0
  144.6884  137.6301  152.3582 H   0  0  0  0  0  0  0  0  0  0  0  0
  145.1908  136.8380  153.8274 H   0  0  0  0  0  0  0  0  0  0  0  0
  145.9927  139.6561  152.0739 H   0  0  0  0  0  0  0  0  0  0  0  0
  146.5030  138.5310  150.8097 H   0  0  0  0  0  0  0  0  0  0  0  0
  147.7090  139.4000  151.7389 H   0  0  0  0  0  0  0  0  0  0  0  0
  146.4873  139.0301  154.4918 H   0  0  0  0  0  0  0  0  0  0  0  0
  147.0614  137.4350  154.8608 H   0  0  0  0  0  0  0  0  0  0  0  0
  148.4836  140.9807  154.3435 H   0  0  0  0  0  0  0  0  0  0  0  0
  152.3897  137.5617  153.8117 H   0  0  0  0  0  0  0  0  0  0  0  0
  152.6641  138.7853  155.0688 H   0  0  0  0  0  0  0  0  0  0  0  0
  152.7094  139.2454  153.3520 H   0  0  0  0  0  0  0  0  0  0  0  0
  149.9045  136.9359  153.9809 H   0  0  0  0  0  0  0  0  0  0  0  0
  146.2849  133.3903  153.5337 H   0  0  0  0  0  0  0  0  0  0  0  0
  147.8497  132.1692  154.8102 H   0  0  0  0  0  0  0  0  0  0  0  0
  148.7744  130.9857  153.8877 H   0  0  0  0  0  0  0  0  0  0  0  0
  147.4802  130.4536  154.9718 H   0  0  0  0  0  0  0  0  0  0  0  0
  147.4671  137.1544  152.4734 H   0  0  0  0  0  0  0  0  0  0  0  0
  1  2  1  0  0  0  0
  1 25  1  0  0  0  0
  1 26  1  0  0  0  0
  1 27  1  0  0  0  0
  2 23  1  0  0  0  0
  2  3  2  0  0  0  0
  3  4  1  0  0  0  0
  3 28  1  0  0  0  0
  4 21  2  0  0  0  0
  4  5  1  0  0  0  0
  5  6  2  0  0  0  0
  6  7  1  0  0  0  0
  6 29  1  0  0  0  0
  7  8  1  0  0  0  0
  7 21  1  0  0  0  0
  8  9  1  0  0  0  0
  8 30  1  0  0  0  0
  8 31  1  0  0  0  0
  9 10  1  0  0  0  0
  9 11  1  0  0  0  0
  9 32  1  0  0  0  0
 10 33  1  0  0  0  0
 11 12  1  0  0  0  0
 11 34  1  0  0  0  0
 11 35  1  0  0  0  0
 12 13  1  0  0  0  0
 12 14  1  0  0  0  0
 12 50  1  0  0  0  0
 13 36  1  0  0  0  0
 13 37  1  0  0  0  0
 13 38  1  0  0  0  0
 14 15  1  0  0  0  0
 14 39  1  0  0  0  0
 14 40  1  0  0  0  0
 15 20  2  0  0  0  0
 15 16  1  0  0  0  0
 16 17  2  0  0  0  0
 16 41  1  0  0  0  0
 17 18  1  0  0  0  0
 18 19  1  0  0  0  0
 18 20  1  0  0  0  0
 19 42  1  0  0  0  0
 19 43  1  0  0  0  0
 19 44  1  0  0  0  0
 20 45  1  0  0  0  0
 21 22  1  0  0  0  0
 22 23  2  0  0  0  0
 22 46  1  0  0  0  0
 23 24  1  0  0  0  0
 24 47  1  0  0  0  0
 24 48  1  0  0  0  0
 24 49  1  0  0  0  0
M  CHG  1  12   1
M  END
> <s_m_source_file>
AV-unprocessed.smi

> <i_m_source_file_index>
2027

> <i_lp_mmshare_version>
43012

> <i_f3d_flags>
0

> <s_epik_input>
W0NIM11jKFtjSF0xKWMoW0NIM10pW2NIXWMoYzEyKW4oW2NIXW4yKVtDSDJdW0NASF0oW09IXSlbQ0gyXU4oW0NIM10pW0NIMl1jM1tjSF1ubihbQ0gzXSlbY0hdMw==

> <s_epik_cmdline>
J2VwaWtfcHl0aG9uJywgJy1waCcsICc3LjAnLCAnLXRuJywgJzgnLCAnLW1hJywgJzIwMCcsICctbWV0YWxfYmluZGluZycsICctaW1hZScsICc8aW5maWxlLm1hZT4nLCAnLW9tYWUnLCAnPG91dGZpbGUubWFlPic=

> <r_lp_tautomer_probability>
1

> <r_epik_Ionization_Penalty>
0.646578

> <r_epik_Ionization_Penalty_Charging>
0.559419

> <r_epik_Ionization_Penalty_Neutral>
0.087159

> <r_epik_State_Penalty>
0.661677

> <r_epik_Charging_Adjusted_Penalty>
1.2211

> <i_epik_Tot_Q>
1

> <i_epik_Tot_abs_Q>
1

> <r_epik_Metal_State_Penalty>
0.649174

> <b_epik_Metal_Only>
0

> <s_lp_Force_Field>
OPLS_2005

> <r_lp_Energy>
9.42611

> <b_lp_Chiralities_Consistent>
1

> <s_lp_Variant>
AV-unprocessed.smi:2027-4

> <Gold.Version>
5.8.1

> <Gold.Id.Protein>
6NUR|6NUR_protein|mol2

> <Gold.PLP.Fitness>
59.1947

> <Gold.PLP.PLP>
-43.3825

> <Gold.PLP.part.hbond>
-4.2629

> <Gold.PLP.part.metal>
0.0000

> <Gold.PLP.part.buried>
-3.4921

> <Gold.PLP.part.nonpolar>
-36.1903

> <Gold.PLP.part.repulsive>
0.3019

> <Gold.PLP.ligand.clash>
0.0000

> <Gold.PLP.ligand.torsion>
0.9565

> <Gold.PLP.Chemscore.Hbond>
4.3255

> <Gold.PLP.Chemscore.CHOScore>
1.5095

> <Gold.PLP.Chemscore.Metal>
0.0000

> <Gold.Chemscore.Hbonds>
donor molecule, donor type, donor heavy atom, donor atom, acceptor molecule, acceptor atom, score
      L1  H    10    33       P1  7948  0.67
      L1  H    12    50       P1  7948  2.00
      P1  H  7989  7998       L1    17  0.90
      P1  H 10785 10796       L1     5  0.33
      L1  C     6    29       P1 10186  1.00
      L1  C    20    45       P1  7948  0.56

> <Gold.PLP.Chemscore.Internal.Correction>
0.2202

> <Gold.Rescore>
     Score         DG    S(hbond)    S(metal)    S(lipo)     H(rot)  DE(clash)    DE(int)     intcor
     19.48     -21.74       3.12        0.00     104.80       2.50       0.96       1.29       ----

> <Gold.Chemscore.Fitness>
19.4838

> <Gold.Chemscore.DG>
-21.7402

> <Gold.Chemscore.ZeroCoef>
-5.4800

> <Gold.Chemscore.Hbond>
3.1171

> <Gold.Chemscore.Metal>
0.0000

> <Gold.Chemscore.Lipo>
104.7953

> <Gold.Chemscore.Internal_Hbond>
0.0000

> <Gold.Chemscore.DEClash>
0.9633

> <Gold.Chemscore.DEInternal>
1.2930

> <Gold.Chemscore.Rot>
2.5047

> <Gold.Chemscore.Internal.Correction>
   9.000000E+99

> <Gold.Chemscore.Hbonds>
donor molecule, donor type, donor heavy atom, donor atom, acceptor molecule, acceptor atom, score
      L1  H    10    33       P1  7948  0.57
      L1  H    12    50       P1  7948  1.00
      P1  H  7989  7998       L1    17  0.17
      P1  H 10785 10796       L1     5  0.30

> <Gold.Chemscore.Hbond.Weighted>
-10.4111

> <Gold.Chemscore.Metal.Weighted>
-0.0000

> <Gold.Chemscore.Lipo.Weighted>
-12.2611

> <Gold.Chemscore.Internal_Hbond.Weighted>
0.0000

> <Gold.Chemscore.DEClash.Weighted>
0.9633

> <Gold.Chemscore.DEInternal.Weighted>
1.2930

> <Gold.Chemscore.Rot.Weighted>
6.4120

> <Gold.Chemscore.Internal.Correction.Weighted>
   9.000000E+99

> <Gold.Protein.RotatedTorsions>
[ 6907 6896 6895 6894 ] final  127.19 input  -60.11 | X-H torsion
[ 7974 7965 7964 7962 ] final   34.04 input  175.53 | X-H torsion
[ 8008 7997 7996 7995 ] final   -5.36 input   59.86 | X-H torsion
[ 10167 10162 10161 10158 ] final    2.94 input  -65.29 | X-H torsion
[ 10718 10713 10712 10709 ] final  169.87 input   66.30 | X-H torsion
[ 10763 10752 10751 10750 ] final  -80.74 input  -60.55 | X-H torsion
[ 11005 11000 10999 10996 ] final    0.88 input  -57.11 | X-H torsion

> <Gold.Protein.ActiveResidues>
 VAL166  LYS551  ARG553  GLY616  TRP617  ASP618  TYR619  PRO620  LYS621  CYS622 
 ASP623  PHE694  ASN695  SER759  ASP760  ASP761  ALA762  ILE779  LEU786  VAL792 
 PHE793  MET794  SER795  GLU796  ALA797  LYS798  CYS799  TRP800  GLU811  SER814 

> <Gold.Protein.RotatedAtoms>
  152.3835  133.6579  159.6180 H   0  0  0  0  0  0  0  0  0  0  0  0  # atno 6907 bound_to 6896
  150.7760  133.9074  159.3368 H   0  0  0  0  0  0  0  0  0  0  0  0  # atno 6908 bound_to 6896
  151.6874  135.0953  160.0278 H   0  0  0  0  0  0  0  0  0  0  0  0  # atno 6909 bound_to 6896
  146.1380  139.6320  142.9182 H   0  0  0  0  0  0  0  0  0  0  0  0  # atno 7974 bound_to 7965
  154.6047  140.2460  155.7746 H   0  0  0  0  0  0  0  0  0  0  0  0  # atno 8008 bound_to 7997
  156.2333  140.2959  156.0197 H   0  0  0  0  0  0  0  0  0  0  0  0  # atno 8009 bound_to 7997
  155.2152  140.0398  157.2930 H   0  0  0  0  0  0  0  0  0  0  0  0  # atno 8010 bound_to 7997
  140.6610  143.7303  150.7739 H   0  0  0  0  0  0  0  0  0  0  0  0  # atno 10167 bound_to 10162
  157.0163  131.0219  151.2788 H   0  0  0  0  0  0  0  0  0  0  0  0  # atno 10718 bound_to 10713
  154.5549  135.5651  153.6955 H   0  0  0  0  0  0  0  0  0  0  0  0  # atno 10763 bound_to 10752
  153.0000  135.6260  154.2324 H   0  0  0  0  0  0  0  0  0  0  0  0  # atno 10764 bound_to 10752
  154.2260  135.2868  155.2887 H   0  0  0  0  0  0  0  0  0  0  0  0  # atno 10765 bound_to 10752
  140.6216  133.9656  155.8228 H   0  0  0  0  0  0  0  0  0  0  0  0  # atno 11005 bound_to 11000
  145.5112  141.0435  143.2487 LP  0  0  0  0  0  0  0  0  0  0  0  0  # atno 17320 bound_to 7965
  144.7761  139.6627  143.7174 LP  0  0  0  0  0  0  0  0  0  0  0  0  # atno 17321 bound_to 7965
  140.0972  143.4822  152.2446 LP  0  0  0  0  0  0  0  0  0  0  0  0  # atno 17342 bound_to 10162
  139.5844  144.7525  151.3557 LP  0  0  0  0  0  0  0  0  0  0  0  0  # atno 17343 bound_to 10162
  157.5283  130.8042  149.7887 LP  0  0  0  0  0  0  0  0  0  0  0  0  # atno 17370 bound_to 10713
  156.0118  130.3830  150.2240 LP  0  0  0  0  0  0  0  0  0  0  0  0  # atno 17371 bound_to 10713
  141.0738  134.0166  157.3488 LP  0  0  0  0  0  0  0  0  0  0  0  0  # atno 17394 bound_to 11000
  139.9151  135.0195  156.7848 LP  0  0  0  0  0  0  0  0  0  0  0  0  # atno 17395 bound_to 11000

$$$$
