AV-unprocessed.smi:1624|AV-procd|sdf|6504|dock9
  -GOLD-   22720 7173D 1   1.00000     0.00000
 Structure written by MMmdl.
 35 36  0  0  0  0  0  0  0  0  2 V2000
  155.8491  139.7592  164.3888 O   0  0  0  0  0  0  0  0  0  0  0  0
  155.4961  140.9118  164.1277 C   0  0  0  0  0  0  0  0  0  0  0  0
  155.1197  141.2290  162.8803 N   0  0  0  0  0  0  0  0  0  0  0  0
  155.0714  140.3124  161.7467 C   0  0  0  0  0  0  0  0  0  0  0  0
  154.9076  141.0693  160.4158 C   0  0  0  0  0  0  0  0  0  0  0  0
  153.4958  141.3418  160.1257 N   0  0  0  0  0  0  0  0  0  0  0  0
  152.8527  142.3605  160.9697 C   0  0  0  0  0  0  0  0  0  0  0  0
  152.5571  143.6820  160.2258 C   0  0  0  0  0  0  0  0  0  0  0  0
  152.2261  143.5551  158.7256 C   0  0  0  0  0  0  0  0  0  0  0  0
  151.1323  142.5217  158.3832 C   0  0  0  0  0  0  0  0  0  0  0  0
  151.3614  141.0739  158.8833 C   0  0  0  0  0  0  0  0  0  0  0  0
  152.8335  140.7034  159.1302 C   0  0  0  0  0  0  0  0  0  0  0  0
  153.3549  139.8433  158.4201 O   0  0  0  0  0  0  0  0  0  0  0  0
  155.4355  141.9465  164.9969 N   0  5  0  0  0  0  0  0  0  0  0  0
  155.4917  141.7152  166.3189 C   0  0  0  0  0  0  0  0  0  0  0  0
  155.8660  140.5300  166.8271 N   0  0  0  0  0  0  0  0  0  0  0  0
  155.8577  140.5043  168.2155 N   0  0  0  0  0  0  0  0  0  0  0  0
  155.4846  141.6796  168.7210 C   0  0  0  0  0  0  0  0  0  0  0  0
  155.1118  142.9249  167.5479 S   0  0  0  0  0  0  0  0  0  0  0  0
  154.8381  142.1832  162.7087 H   0  0  0  0  0  0  0  0  0  0  0  0
  155.9953  139.7339  161.7404 H   0  0  0  0  0  0  0  0  0  0  0  0
  154.2593  139.5963  161.8833 H   0  0  0  0  0  0  0  0  0  0  0  0
  155.4653  142.0065  160.4420 H   0  0  0  0  0  0  0  0  0  0  0  0
  155.3569  140.4960  159.6031 H   0  0  0  0  0  0  0  0  0  0  0  0
  151.9283  141.9545  161.3809 H   0  0  0  0  0  0  0  0  0  0  0  0
  153.4586  142.5733  161.8515 H   0  0  0  0  0  0  0  0  0  0  0  0
  151.7446  144.1988  160.7373 H   0  0  0  0  0  0  0  0  0  0  0  0
  153.4258  144.3342  160.3198 H   0  0  0  0  0  0  0  0  0  0  0  0
  151.9182  144.5318  158.3513 H   0  0  0  0  0  0  0  0  0  0  0  0
  153.1364  143.3167  158.1734 H   0  0  0  0  0  0  0  0  0  0  0  0
  150.1780  142.8763  158.7740 H   0  0  0  0  0  0  0  0  0  0  0  0
  151.0128  142.5009  157.2995 H   0  0  0  0  0  0  0  0  0  0  0  0
  150.7986  140.9015  159.8006 H   0  0  0  0  0  0  0  0  0  0  0  0
  150.9348  140.3758  158.1620 H   0  0  0  0  0  0  0  0  0  0  0  0
  155.4315  141.8154  169.7909 H   0  0  0  0  0  0  0  0  0  0  0  0
  1  2  2  0  0  0  0
  2  3  1  0  0  0  0
  2 14  1  0  0  0  0
  3  4  1  0  0  0  0
  3 20  1  0  0  0  0
  4  5  1  0  0  0  0
  4 21  1  0  0  0  0
  4 22  1  0  0  0  0
  5  6  1  0  0  0  0
  5 23  1  0  0  0  0
  5 24  1  0  0  0  0
  6 12  1  0  0  0  0
  6  7  1  0  0  0  0
  7  8  1  0  0  0  0
  7 25  1  0  0  0  0
  7 26  1  0  0  0  0
  8  9  1  0  0  0  0
  8 27  1  0  0  0  0
  8 28  1  0  0  0  0
  9 10  1  0  0  0  0
  9 29  1  0  0  0  0
  9 30  1  0  0  0  0
 10 11  1  0  0  0  0
 10 31  1  0  0  0  0
 10 32  1  0  0  0  0
 11 12  1  0  0  0  0
 11 33  1  0  0  0  0
 11 34  1  0  0  0  0
 12 13  2  0  0  0  0
 14 15  1  0  0  0  0
 15 19  1  0  0  0  0
 15 16  2  0  0  0  0
 16 17  1  0  0  0  0
 17 18  2  0  0  0  0
 18 19  1  0  0  0  0
 18 35  1  0  0  0  0
M  CHG  1  14  -1
M  END
> <s_m_source_file>
AV-unprocessed.smi

> <i_m_source_file_index>
1624

> <i_lp_mmshare_version>
43012

> <i_f3d_flags>
0

> <s_epik_input>
czFbY0hdbm5jMVtOSF1DKD1PKVtOSF1bQ0gyXVtDSDJdTjJbQ0gyXVtDSDJdW0NIMl1bQ0gyXVtDSDJdQzI9Tw==

> <s_epik_cmdline>
J2VwaWtfcHl0aG9uJywgJy1waCcsICc3LjAnLCAnLXRuJywgJzgnLCAnLW1hJywgJzIwMCcsICctbWV0YWxfYmluZGluZycsICctaW1hZScsICc8aW5maWxlLm1hZT4nLCAnLW9tYWUnLCAnPG91dGZpbGUubWFlPic=

> <r_lp_tautomer_probability>
1

> <r_epik_Ionization_Penalty>
3.35684

> <r_epik_Ionization_Penalty_Charging>
3.31562

> <r_epik_Ionization_Penalty_Neutral>
0.0412242

> <r_epik_State_Penalty>
3.31341

> <r_epik_Charging_Adjusted_Penalty>
6.62903

> <i_epik_Tot_Q>
-1

> <i_epik_Tot_abs_Q>
1

> <r_epik_Metal_State_Penalty>
0.484053

> <b_epik_Metal_Only>
1

> <s_lp_Force_Field>
OPLS_2005

> <r_lp_Energy>
19.6576

> <b_lp_Chiralities_Consistent>
1

> <s_lp_Variant>
AV-unprocessed.smi:1624-2

> <Gold.Version>
5.8.1

> <Gold.Id.Protein>
6NUR|6NUR_protein|mol2

> <Gold.PLP.Fitness>
41.8770

> <Gold.PLP.PLP>
-39.6857

> <Gold.PLP.part.hbond>
-2.8003

> <Gold.PLP.part.metal>
0.0000

> <Gold.PLP.part.buried>
-5.0887

> <Gold.PLP.part.nonpolar>
-31.0602

> <Gold.PLP.part.repulsive>
0.1431

> <Gold.PLP.ligand.clash>
0.0000

> <Gold.PLP.ligand.torsion>
0.4143

> <Gold.PLP.Chemscore.Hbond>
1.0000

> <Gold.PLP.Chemscore.CHOScore>
0.0000

> <Gold.PLP.Chemscore.Metal>
0.0000

> <Gold.Chemscore.Hbonds>
donor molecule, donor type, donor heavy atom, donor atom, acceptor molecule, acceptor atom, score
      P1  H  7997  8010       L1    13  1.00

> <Gold.PLP.Chemscore.Internal.Correction>
0.0200

> <Gold.Rescore>
     Score         DG    S(hbond)    S(metal)    S(lipo)     H(rot)  DE(clash)    DE(int)     intcor
     10.32     -13.84       0.99        0.00      81.25       1.73       1.40       2.11       ----

> <Gold.Chemscore.Fitness>
10.3245

> <Gold.Chemscore.DG>
-13.8362

> <Gold.Chemscore.ZeroCoef>
-5.4800

> <Gold.Chemscore.Hbond>
0.9850

> <Gold.Chemscore.Metal>
0.0000

> <Gold.Chemscore.Lipo>
81.2536

> <Gold.Chemscore.Internal_Hbond>
0.0000

> <Gold.Chemscore.DEClash>
1.4039

> <Gold.Chemscore.DEInternal>
2.1077

> <Gold.Chemscore.Rot>
1.7346

> <Gold.Chemscore.Internal.Correction>
   9.000000E+99

> <Gold.Chemscore.Hbonds>
donor molecule, donor type, donor heavy atom, donor atom, acceptor molecule, acceptor atom, score
      P1  H  7997  8010       L1    13  0.98

> <Gold.Chemscore.Hbond.Weighted>
-3.2901

> <Gold.Chemscore.Metal.Weighted>
-0.0000

> <Gold.Chemscore.Lipo.Weighted>
-9.5067

> <Gold.Chemscore.Internal_Hbond.Weighted>
0.0000

> <Gold.Chemscore.DEClash.Weighted>
1.4039

> <Gold.Chemscore.DEInternal.Weighted>
2.1077

> <Gold.Chemscore.Rot.Weighted>
4.4406

> <Gold.Chemscore.Internal.Correction.Weighted>
   9.000000E+99

> <Gold.Protein.RotatedTorsions>
[ 6907 6896 6895 6894 ] final   76.74 input  -60.11 | X-H torsion
[ 7974 7965 7964 7962 ] final -167.38 input  175.53 | X-H torsion
[ 8008 7997 7996 7995 ] final   21.88 input   59.86 | X-H torsion
[ 10167 10162 10161 10158 ] final  -51.08 input  -65.29 | X-H torsion
[ 10718 10713 10712 10709 ] final  105.27 input   66.30 | X-H torsion
[ 10763 10752 10751 10750 ] final  165.44 input  -60.55 | X-H torsion
[ 11005 11000 10999 10996 ] final  179.71 input  -57.11 | X-H torsion

> <Gold.Protein.ActiveResidues>
 VAL166  LYS551  ARG553  GLY616  TRP617  ASP618  TYR619  PRO620  LYS621  CYS622 
 ASP623  PHE694  ASN695  SER759  ASP760  ASP761  ALA762  ILE779  LEU786  VAL792 
 PHE793  MET794  SER795  GLU796  ALA797  LYS798  CYS799  TRP800  GLU811  SER814 

> <Gold.Protein.RotatedAtoms>
  152.5087  134.3923  159.9387 H   0  0  0  0  0  0  0  0  0  0  0  0  # atno 6907 bound_to 6896
  151.3883  133.3791  159.2726 H   0  0  0  0  0  0  0  0  0  0  0  0  # atno 6908 bound_to 6896
  150.9452  134.8878  159.7696 H   0  0  0  0  0  0  0  0  0  0  0  0  # atno 6909 bound_to 6896
  144.7224  140.2527  143.6276 H   0  0  0  0  0  0  0  0  0  0  0  0  # atno 7974 bound_to 7965
  154.9573  140.3073  155.5047 H   0  0  0  0  0  0  0  0  0  0  0  0  # atno 8008 bound_to 7997
  156.2981  140.2308  156.4594 H   0  0  0  0  0  0  0  0  0  0  0  0  # atno 8009 bound_to 7997
  154.7998  140.0435  157.1252 H   0  0  0  0  0  0  0  0  0  0  0  0  # atno 8010 bound_to 7997
  140.6606  143.2633  151.4452 H   0  0  0  0  0  0  0  0  0  0  0  0  # atno 10167 bound_to 10162
  157.6711  131.0824  150.5832 H   0  0  0  0  0  0  0  0  0  0  0  0  # atno 10718 bound_to 10713
  154.3240  135.2755  155.2505 H   0  0  0  0  0  0  0  0  0  0  0  0  # atno 10763 bound_to 10752
  154.4846  135.5849  153.6418 H   0  0  0  0  0  0  0  0  0  0  0  0  # atno 10764 bound_to 10752
  152.9873  135.6120  154.3427 H   0  0  0  0  0  0  0  0  0  0  0  0  # atno 10765 bound_to 10752
  140.4091  134.6708  157.4604 H   0  0  0  0  0  0  0  0  0  0  0  0  # atno 11005 bound_to 11000
  145.8212  139.2045  143.1936 LP  0  0  0  0  0  0  0  0  0  0  0  0  # atno 17320 bound_to 7965
  146.0512  140.8067  142.9781 LP  0  0  0  0  0  0  0  0  0  0  0  0  # atno 17321 bound_to 7965
  139.5839  144.1648  152.2004 LP  0  0  0  0  0  0  0  0  0  0  0  0  # atno 17342 bound_to 10162
  140.0982  144.5562  150.7007 LP  0  0  0  0  0  0  0  0  0  0  0  0  # atno 17343 bound_to 10162
  156.6132  130.4385  149.5851 LP  0  0  0  0  0  0  0  0  0  0  0  0  # atno 17370 bound_to 10713
  156.2414  130.6853  151.1559 LP  0  0  0  0  0  0  0  0  0  0  0  0  # atno 17371 bound_to 10713
  140.0280  134.6448  155.9146 LP  0  0  0  0  0  0  0  0  0  0  0  0  # atno 17394 bound_to 11000
  141.1828  133.6549  156.5090 LP  0  0  0  0  0  0  0  0  0  0  0  0  # atno 17395 bound_to 11000

$$$$
