AV-unprocessed.smi:916|AV-procd|sdf|4159|dock3
  -GOLD-   22720 2 63D 1   1.00000     0.00000
 Structure written by MMmdl.
 43 44  0  0  0  0  0  0  0  0  1 V2000
  141.3632  136.7474  153.6805 C   0  0  0  0  0  0  0  0  0  0  0  0
  142.0590  135.3836  153.7543 C   0  0  0  0  0  0  0  0  0  0  0  0
  143.3301  135.3496  152.9611 C   0  0  0  0  0  0  0  0  0  0  0  0
  143.5906  134.5808  151.8529 C   0  0  0  0  0  0  0  0  0  0  0  0
  145.1989  134.8468  151.2350 S   0  0  0  0  0  0  0  0  0  0  0  0
  145.4614  136.0067  152.5277 C   0  0  0  0  0  0  0  0  0  0  0  0
  146.6889  136.7041  152.6737 N   0  0  0  0  0  0  0  0  0  0  0  0
  146.9436  137.7876  153.4283 C   0  0  0  0  0  0  0  0  0  0  0  0
  146.1278  138.3611  154.1507 O   0  0  0  0  0  0  0  0  0  0  0  0
  148.2186  138.1787  153.3018 N   0  0  0  0  0  0  0  0  0  0  0  0
  148.7982  139.3281  153.9857 C   0  0  0  0  0  0  0  0  0  0  0  0
  149.6151  138.8942  155.2245 C   0  0  1  0  0  0  0  0  0  0  0  0
  150.5979  137.7731  154.9121 C   0  0  0  0  0  0  0  0  0  0  0  0
  151.8494  138.5156  154.4380 C   0  0  0  0  0  0  0  0  0  0  0  0
  151.6813  139.8715  154.8418 O   0  0  0  0  0  0  0  0  0  0  0  0
  150.5919  139.9605  155.7511 C   0  0  1  0  0  0  0  0  0  0  0  0
  150.0706  141.4109  155.8700 C   0  0  0  0  0  0  0  0  0  0  0  0
  151.1280  142.3260  156.5088 C   0  0  0  0  0  0  0  0  0  0  0  0
  148.7616  141.4826  156.6748 C   0  0  0  0  0  0  0  0  0  0  0  0
  144.4060  136.1605  153.3351 N   0  0  0  0  0  0  0  0  0  0  0  0
  140.4457  136.7475  154.2692 H   0  0  0  0  0  0  0  0  0  0  0  0
  141.0989  136.9998  152.6532 H   0  0  0  0  0  0  0  0  0  0  0  0
  142.0067  137.5391  154.0652 H   0  0  0  0  0  0  0  0  0  0  0  0
  142.2630  135.1423  154.7981 H   0  0  0  0  0  0  0  0  0  0  0  0
  141.3764  134.6114  153.3976 H   0  0  0  0  0  0  0  0  0  0  0  0
  142.9348  133.8757  151.3640 H   0  0  0  0  0  0  0  0  0  0  0  0
  147.4631  136.3346  152.1420 H   0  0  0  0  0  0  0  0  0  0  0  0
  148.8257  137.6537  152.6899 H   0  0  0  0  0  0  0  0  0  0  0  0
  149.4271  139.8907  153.2934 H   0  0  0  0  0  0  0  0  0  0  0  0
  147.9796  139.9861  154.2771 H   0  0  0  0  0  0  0  0  0  0  0  0
  148.9251  138.5882  156.0119 H   0  0  0  0  0  0  0  0  0  0  0  0
  150.8262  137.2248  155.8271 H   0  0  0  0  0  0  0  0  0  0  0  0
  150.2366  137.0493  154.1813 H   0  0  0  0  0  0  0  0  0  0  0  0
  152.7532  138.0908  154.8753 H   0  0  0  0  0  0  0  0  0  0  0  0
  151.9468  138.4783  153.3527 H   0  0  0  0  0  0  0  0  0  0  0  0
  150.9595  139.6406  156.7285 H   0  0  0  0  0  0  0  0  0  0  0  0
  149.8770  141.7993  154.8699 H   0  0  0  0  0  0  0  0  0  0  0  0
  151.3857  141.9934  157.5146 H   0  0  0  0  0  0  0  0  0  0  0  0
  150.7679  143.3528  156.5798 H   0  0  0  0  0  0  0  0  0  0  0  0
  152.0451  142.3448  155.9194 H   0  0  0  0  0  0  0  0  0  0  0  0
  148.9017  141.1090  157.6897 H   0  0  0  0  0  0  0  0  0  0  0  0
  147.9694  140.8944  156.2125 H   0  0  0  0  0  0  0  0  0  0  0  0
  148.4014  142.5090  156.7466 H   0  0  0  0  0  0  0  0  0  0  0  0
  1  2  1  0  0  0  0
  1 21  1  0  0  0  0
  1 22  1  0  0  0  0
  1 23  1  0  0  0  0
  2  3  1  0  0  0  0
  2 24  1  0  0  0  0
  2 25  1  0  0  0  0
  3 20  1  0  0  0  0
  3  4  2  0  0  0  0
  4  5  1  0  0  0  0
  4 26  1  0  0  0  0
  5  6  1  0  0  0  0
  6  7  1  0  0  0  0
  6 20  2  0  0  0  0
  7  8  1  0  0  0  0
  7 27  1  0  0  0  0
  8  9  2  0  0  0  0
  8 10  1  0  0  0  0
 10 11  1  0  0  0  0
 10 28  1  0  0  0  0
 11 12  1  0  0  0  0
 11 29  1  0  0  0  0
 11 30  1  0  0  0  0
 12 16  1  0  0  0  0
 12 13  1  0  0  0  0
 12 31  1  0  0  0  0
 13 14  1  0  0  0  0
 13 32  1  0  0  0  0
 13 33  1  0  0  0  0
 14 15  1  0  0  0  0
 14 34  1  0  0  0  0
 14 35  1  0  0  0  0
 15 16  1  0  0  0  0
 16 17  1  0  0  0  0
 16 36  1  0  0  0  0
 17 18  1  0  0  0  0
 17 19  1  0  0  0  0
 17 37  1  0  0  0  0
 18 38  1  0  0  0  0
 18 39  1  0  0  0  0
 18 40  1  0  0  0  0
 19 41  1  0  0  0  0
 19 42  1  0  0  0  0
 19 43  1  0  0  0  0
M  END
> <s_m_source_file>
AV-unprocessed.smi

> <i_m_source_file_index>
916

> <i_lp_mmshare_version>
43012

> <i_f3d_flags>
0

> <s_epik_input>
W0NIM11bQ0gyXWMxW2NIXXNjKG4xKVtOSF1DKD1PKVtOSF1bQ0gyXVtDQEBIXTJbQ0gyXVtDSDJdT1tDQEhdMltDSF0oW0NIM10pW0NIM10=

> <s_epik_cmdline>
J2VwaWtfcHl0aG9uJywgJy1waCcsICc3LjAnLCAnLXRuJywgJzgnLCAnLW1hJywgJzIwMCcsICctbWV0YWxfYmluZGluZycsICctaW1hZScsICc8aW5maWxlLm1hZT4nLCAnLW9tYWUnLCAnPG91dGZpbGUubWFlPic=

> <r_lp_tautomer_probability>
0.999

> <r_epik_Ionization_Penalty>
0.000518907

> <r_epik_Ionization_Penalty_Charging>
0

> <r_epik_Ionization_Penalty_Neutral>
0.000518907

> <r_epik_State_Penalty>
0.000177984

> <r_epik_Charging_Adjusted_Penalty>
0.000177984

> <i_epik_Tot_Q>
0

> <i_epik_Tot_abs_Q>
0

> <r_epik_Metal_State_Penalty>
-0

> <b_epik_Metal_Only>
0

> <s_lp_Force_Field>
OPLS_2005

> <r_lp_Energy>
19.5432

> <b_lp_Chiralities_Consistent>
1

> <s_lp_Variant>
AV-unprocessed.smi:916-2

> <Gold.Version>
5.8.1

> <Gold.Id.Protein>
6NUR|6NUR_protein|mol2

> <Gold.PLP.Fitness>
43.4699

> <Gold.PLP.PLP>
-32.5637

> <Gold.PLP.part.hbond>
-3.7874

> <Gold.PLP.part.metal>
0.0000

> <Gold.PLP.part.buried>
-5.5227

> <Gold.PLP.part.nonpolar>
-24.3526

> <Gold.PLP.part.repulsive>
0.3234

> <Gold.PLP.ligand.clash>
0.0000

> <Gold.PLP.ligand.torsion>
0.3534

> <Gold.PLP.Chemscore.Hbond>
2.8480

> <Gold.PLP.Chemscore.CHOScore>
1.0000

> <Gold.PLP.Chemscore.Metal>
0.0000

> <Gold.Chemscore.Hbonds>
donor molecule, donor type, donor heavy atom, donor atom, acceptor molecule, acceptor atom, score
      L1  H     7    27       P1  7948  0.93
      L1  H    10    28       P1  7948  0.90
      P1  H  7989  7998       L1    15  1.00
      L1  C     4    26       P1 10186  0.56

> <Gold.PLP.Chemscore.Internal.Correction>
0.0689

> <Gold.Rescore>
     Score         DG    S(hbond)    S(metal)    S(lipo)     H(rot)  DE(clash)    DE(int)     intcor
     17.34     -19.15       2.72        0.00      72.47       1.52       0.05       1.75       ----

> <Gold.Chemscore.Fitness>
17.3427

> <Gold.Chemscore.DG>
-19.1485

> <Gold.Chemscore.ZeroCoef>
-5.4800

> <Gold.Chemscore.Hbond>
2.7215

> <Gold.Chemscore.Metal>
0.0000

> <Gold.Chemscore.Lipo>
72.4744

> <Gold.Chemscore.Internal_Hbond>
0.0000

> <Gold.Chemscore.DEClash>
0.0534

> <Gold.Chemscore.DEInternal>
1.7523

> <Gold.Chemscore.Rot>
1.5238

> <Gold.Chemscore.Internal.Correction>
   9.000000E+99

> <Gold.Chemscore.Hbonds>
donor molecule, donor type, donor heavy atom, donor atom, acceptor molecule, acceptor atom, score
      L1  H     7    27       P1  7948  0.85
      L1  H    10    28       P1  7948  0.88
      P1  H  7989  7998       L1    15  0.69

> <Gold.Chemscore.Hbond.Weighted>
-9.0898

> <Gold.Chemscore.Metal.Weighted>
-0.0000

> <Gold.Chemscore.Lipo.Weighted>
-8.4795

> <Gold.Chemscore.Internal_Hbond.Weighted>
0.0000

> <Gold.Chemscore.DEClash.Weighted>
0.0534

> <Gold.Chemscore.DEInternal.Weighted>
1.7523

> <Gold.Chemscore.Rot.Weighted>
3.9008

> <Gold.Chemscore.Internal.Correction.Weighted>
   9.000000E+99

> <Gold.Protein.RotatedTorsions>
[ 6907 6896 6895 6894 ] final  -40.81 input  -60.11 | X-H torsion
[ 7974 7965 7964 7962 ] final   89.81 input  175.53 | X-H torsion
[ 8008 7997 7996 7995 ] final  148.77 input   59.86 | X-H torsion
[ 10167 10162 10161 10158 ] final   -7.65 input  -65.29 | X-H torsion
[ 10718 10713 10712 10709 ] final    9.73 input   66.30 | X-H torsion
[ 10763 10752 10751 10750 ] final   86.71 input  -60.55 | X-H torsion
[ 11005 11000 10999 10996 ] final  -63.14 input  -57.11 | X-H torsion

> <Gold.Protein.ActiveResidues>
 VAL166  LYS551  ARG553  GLY616  TRP617  ASP618  TYR619  PRO620  LYS621  CYS622 
 ASP623  PHE694  ASN695  SER759  ASP760  ASP761  ALA762  ILE779  LEU786  VAL792 
 PHE793  MET794  SER795  GLU796  ALA797  LYS798  CYS799  TRP800  GLU811  SER814 

> <Gold.Protein.RotatedAtoms>
  150.9741  134.9109  159.7805 H   0  0  0  0  0  0  0  0  0  0  0  0  # atno 6907 bound_to 6896
  152.5200  134.3500  159.9258 H   0  0  0  0  0  0  0  0  0  0  0  0  # atno 6908 bound_to 6896
  151.3509  133.3885  159.2714 H   0  0  0  0  0  0  0  0  0  0  0  0  # atno 6909 bound_to 6896
  145.5273  139.2281  143.2638 H   0  0  0  0  0  0  0  0  0  0  0  0  # atno 7974 bound_to 7965
  156.2779  140.2120  156.5751 H   0  0  0  0  0  0  0  0  0  0  0  0  # atno 8008 bound_to 7997
  154.7104  140.0512  157.0568 H   0  0  0  0  0  0  0  0  0  0  0  0  # atno 8009 bound_to 7997
  155.0613  140.3167  155.4663 H   0  0  0  0  0  0  0  0  0  0  0  0  # atno 8010 bound_to 7997
  140.7035  143.6057  150.8753 H   0  0  0  0  0  0  0  0  0  0  0  0  # atno 10167 bound_to 10162
  156.9706  130.5967  149.5668 H   0  0  0  0  0  0  0  0  0  0  0  0  # atno 10718 bound_to 10713
  153.1597  135.4570  154.9754 H   0  0  0  0  0  0  0  0  0  0  0  0  # atno 10763 bound_to 10752
  154.7888  135.3213  154.7827 H   0  0  0  0  0  0  0  0  0  0  0  0  # atno 10764 bound_to 10752
  153.8319  135.6938  153.4868 H   0  0  0  0  0  0  0  0  0  0  0  0  # atno 10765 bound_to 10752
  141.1383  133.6648  156.5635 H   0  0  0  0  0  0  0  0  0  0  0  0  # atno 11005 bound_to 11000
  146.2067  140.6088  142.9078 LP  0  0  0  0  0  0  0  0  0  0  0  0  # atno 17320 bound_to 7965
  144.7644  140.5497  143.6713 LP  0  0  0  0  0  0  0  0  0  0  0  0  # atno 17321 bound_to 7965
  139.9781  143.5982  152.2952 LP  0  0  0  0  0  0  0  0  0  0  0  0  # atno 17342 bound_to 10162
  139.6593  144.7662  151.1994 LP  0  0  0  0  0  0  0  0  0  0  0  0  # atno 17343 bound_to 10162
  156.0284  130.5377  150.8469 LP  0  0  0  0  0  0  0  0  0  0  0  0  # atno 17370 bound_to 10713
  157.5595  131.0945  150.9580 LP  0  0  0  0  0  0  0  0  0  0  0  0  # atno 17371 bound_to 10713
  140.3969  134.7391  157.4756 LP  0  0  0  0  0  0  0  0  0  0  0  0  # atno 17394 bound_to 11000
  140.0524  134.6111  155.8845 LP  0  0  0  0  0  0  0  0  0  0  0  0  # atno 17395 bound_to 11000

$$$$
