#       Name:                AV-unprocessed.smi:103
#       Creating user name   scv26
#       Creation time:       Thu Mar 26 17:56:54 2020


#       File generated by GOLD software.
#

@<TRIPOS>MOLECULE
AV-unprocessed.smi:103
    64    66     1
SMALL
NO_CHARGES


@<TRIPOS>ATOM
      1 ****        -0.2704   5.2571  -0.5529 C.3            1 S1                 0.0000
      2 ****        -0.4981   3.8920  -1.1880 C.2            1 S1                 0.0000
      3 ****         0.0241   3.5872  -2.2607 O.2            1 S1                 0.0000
      4 ****        -1.3016   3.1115  -0.4486 O.3            1 S1                 0.0000
      5 ****        -1.6023   1.7949  -0.8832 C.3            1 S1                 0.0000
      6 ****        -2.0411   0.9491   0.3249 C.3            1 S1                 0.0000
      7 ****        -0.9012   0.7708   1.1701 O.3            1 S1                 0.0000
      8 ****        -0.5547  -0.5776   1.2587 C.3            1 S1                 0.0000
      9 ****         0.9393  -0.7165   1.2746 N.pl3          1 S1                 0.0000
     10 ****         1.7120  -1.6955   1.8659 C.2            1 S1                 0.0000
     11 ****         1.1199  -3.0495   2.8725 S.o2           1 S1                 0.0000
     12 ****         0.9842  -2.2529   4.5235 C.3            1 S1                 0.0000
     13 ****        -0.2263  -3.3968   2.3928 O.2            1 S1                 0.0000
     14 ****         2.1876  -4.0613   2.9023 O.2            1 S1                 0.0000
     15 ****         3.0066  -1.5593   1.7727 N.2            1 S1                 0.0000
     16 ****         3.1460  -0.4272   0.9832 C.ar           1 S1                 0.0000
     17 ****         4.2602   0.2733   0.4562 C.ar           1 S1                 0.0000
     18 ****         5.5285  -0.1024   0.6719 N.pl3          1 S1                 0.0000
     19 ****         4.0350   1.3710  -0.3026 N.ar           1 S1                 0.0000
     20 ****         2.7791   1.7660  -0.5320 C.ar           1 S1                 0.0000
     21 ****         1.6407   1.2162  -0.1029 N.ar           1 S1                 0.0000
     22 ****         1.8653   0.1076   0.6615 C.ar           1 S1                 0.0000
     23 ****        -1.2172  -1.2917   0.0738 C.3            1 S1                 0.0000
     24 ****        -0.4275  -1.1903  -1.1110 O.3            1 S1                 0.0000
     25 ****         0.2969  -2.2350  -1.5493 C.2            1 S1                 0.0000
     26 ****         1.0746  -1.9045  -2.8155 C.3            1 S1                 0.0000
     27 ****         0.3756  -3.3406  -1.0142 O.2            1 S1                 0.0000
     28 ****        -2.4931  -0.4787  -0.0311 C.3            1 S1                 0.0000
     29 ****        -3.1125  -0.6291  -1.3040 O.3            1 S1                 0.0000
     30 ****        -4.4235  -0.3762  -1.4521 C.2            1 S1                 0.0000
     31 ****        -4.8992  -0.5982  -2.8815 C.3            1 S1                 0.0000
     32 ****        -5.1928   0.0020  -0.5687 O.2            1 S1                 0.0000
     33 ****        -0.0228   5.1486   0.5033 H              1 S1                 0.0000
     34 ****        -1.1693   5.8680  -0.6380 H              1 S1                 0.0000
     35 ****         0.5506   5.7770  -1.0476 H              1 S1                 0.0000
     36 ****        -2.4039   1.8553  -1.6197 H              1 S1                 0.0000
     37 ****        -0.7454   1.3356  -1.3760 H              1 S1                 0.0000
     38 ****        -2.8345   1.4653   0.8664 H              1 S1                 0.0000
     39 ****        -0.8943  -0.9502   2.2245 H              1 S1                 0.0000
     40 ****         0.6257  -2.9818   5.2497 H              1 S1                 0.0000
     41 ****         0.2859  -1.4180   4.4703 H              1 S1                 0.0000
     42 ****         1.9637  -1.8863   4.8304 H              1 S1                 0.0000
     43 ****         5.7223  -0.9195   1.2330 H              1 S1                 0.0000
     44 ****         6.2869   0.4299   0.2710 H              1 S1                 0.0000
     45 ****         2.6693   2.6483  -1.1454 H              1 S1                 0.0000
     46 ****        -1.4338  -2.3294   0.3285 H              1 S1                 0.0000
     47 ****         1.6820  -1.0118  -2.6627 H              1 S1                 0.0000
     48 ****         0.3893  -1.7214  -3.6434 H              1 S1                 0.0000
     49 ****         1.7343  -2.7291  -3.0866 H              1 S1                 0.0000
     50 ****        -3.1651  -0.8344   0.7522 H              1 S1                 0.0000
     51 ****        -4.5427  -1.5575  -3.2574 H              1 S1                 0.0000
     52 ****        -4.5216   0.1916  -3.5311 H              1 S1                 0.0000
     53 ****        -5.9884  -0.5935  -2.9274 H              1 S1                 0.0000
     54 ****         0.6126   4.2424  -2.7344 LP             1 S1                 0.0000
     55 ****        -0.1404   2.6844  -2.6582 LP             1 S1                 0.0000
     56 ****        -1.1143   1.1150   2.0845 LP             1 S1                 0.0000
     57 ****        -0.1300   1.2831   0.7924 LP             1 S1                 0.0000
     58 ****         3.7228  -2.1312   2.1726 LP             1 S1                 0.0000
     59 ****         4.8025   1.8826  -0.6887 LP             1 S1                 0.0000
     60 ****         0.7315   1.5739  -0.3161 LP             1 S1                 0.0000
     61 ****        -0.1301  -3.5254  -0.1715 LP             1 S1                 0.0000
     62 ****         0.9451  -4.0542  -1.4222 LP             1 S1                 0.0000
     63 ****        -4.8539   0.1476   0.3608 LP             1 S1                 0.0000
     64 ****        -6.1567   0.1635  -0.7805 LP             1 S1                 0.0000
@<TRIPOS>BOND
    1    1    2 1     
    2    1   33 1     
    3    1   34 1     
    4    1   35 1     
    5    2    3 2     
    6    2    4 1     
    7    4    5 1     
    8    5    6 1     
    9    5   36 1     
   10    5   37 1     
   11    6   28 1     
   12    6    7 1     
   13    6   38 1     
   14    7    8 1     
   15    8    9 1     
   16    8   23 1     
   17    8   39 1     
   18    9   22 1     
   19    9   10 1     
   20   10   11 1     
   21   10   15 2     
   22   11   12 1     
   23   11   13 2     
   24   11   14 2     
   25   12   40 1     
   26   12   41 1     
   27   12   42 1     
   28   15   16 1     
   29   16   22 ar    
   30   16   17 ar    
   31   17   18 1     
   32   17   19 ar    
   33   18   43 1     
   34   18   44 1     
   35   19   20 ar    
   36   20   21 ar    
   37   20   45 1     
   38   21   22 ar    
   39   23   24 1     
   40   23   28 1     
   41   23   46 1     
   42   24   25 1     
   43   25   26 1     
   44   25   27 2     
   45   26   47 1     
   46   26   48 1     
   47   26   49 1     
   48   28   29 1     
   49   28   50 1     
   50   29   30 1     
   51   30   31 1     
   52   30   32 2     
   53   31   51 1     
   54   31   52 1     
   55   31   53 1     
   56    3   54 1     
   57    3   55 1     
   58    7   56 1     
   59    7   57 1     
   60   15   58 1     
   61   19   59 1     
   62   21   60 1     
   63   27   61 1     
   64   27   62 1     
   65   32   63 1     
   66   32   64 1     
@<TRIPOS>SUBSTRUCTURE
      1 S1             1
@<TRIPOS>SET
LONE_PAIRS      STATIC     ATOMS    <user>   **** ""
13 54 55 56 57 13 14 58 59 60 61 62 63 64
DONOR_HYDROGENS      STATIC     ATOMS    <user>   **** ""
2 43 44
ATOM$BLUE        STATIC     ATOMS    COLORGROUP SYSTEM
13 54 55 56 57 13 14 58 59 60 61 62 63 64
ATOM$RED        STATIC     ATOMS    COLORGROUP SYSTEM
2 43 44
