AV-unprocessed.smi:1072|AV-procd|sdf|4683|dock3
  -GOLD-   22720 3203D 1   1.00000     0.00000
 Structure written by MMmdl.
 46 47  0  0  0  0  0  0  0  0  1 V2000
  153.6724  142.4273  162.0652 C   0  0  0  0  0  0  0  0  0  0  0  0
  153.0593  142.6795  160.7041 C   0  0  0  0  0  0  0  0  0  0  0  0
  152.2802  143.6759  160.4386 N   0  0  0  0  0  0  0  0  0  0  0  0
  151.7741  143.8071  159.1379 C   0  0  0  0  0  0  0  0  0  0  0  0
  150.8718  145.0066  158.9032 C   0  0  0  0  0  0  0  0  0  0  0  0
  152.0827  142.9103  158.1556 C   0  0  0  0  0  0  0  0  0  0  0  0
  151.5498  143.0309  156.7286 C   0  0  0  0  0  0  0  0  0  0  0  0
  150.8874  141.7745  156.1583 C   0  0  0  0  0  0  0  0  0  0  0  0
  151.5793  140.8291  155.7809 O   0  0  0  0  0  0  0  0  0  0  0  0
  149.5444  141.7956  156.0968 N   0  0  0  0  0  0  0  0  0  0  0  0
  148.6331  140.7693  155.5696 C   0  0  1  0  0  0  0  0  0  0  0  0
  149.1402  139.3679  155.9733 C   0  0  0  0  0  0  0  0  0  0  0  0
  147.1778  140.9806  156.0654 C   0  0  0  0  0  0  0  0  0  0  0  0
  146.5626  142.3003  155.5663 C   0  0  0  0  0  0  0  0  0  0  0  0
  146.5918  142.3887  154.0300 C   0  0  1  0  0  0  0  0  0  0  0  0
  145.9864  143.7084  153.5321 C   0  0  0  0  0  0  0  0  0  0  0  0
  148.0276  142.1935  153.5100 C   0  0  0  0  0  0  0  0  0  0  0  0
  148.6454  140.8794  154.0256 C   0  0  0  0  0  0  0  0  0  0  0  0
  152.9731  141.7762  158.4702 C   0  0  0  0  0  0  0  0  0  0  0  0
  153.3199  140.9160  157.6623 O   0  0  0  0  0  0  0  0  0  0  0  0
  153.4130  141.7291  159.7476 N   0  0  0  0  0  0  0  0  0  0  0  0
  154.0264  140.9722  160.0122 H   0  0  0  0  0  0  0  0  0  0  0  0
  154.3063  143.2669  162.3514 H   0  0  0  0  0  0  0  0  0  0  0  0
  154.2805  141.5219  162.0724 H   0  0  0  0  0  0  0  0  0  0  0  0
  152.8891  142.3178  162.8153 H   0  0  0  0  0  0  0  0  0  0  0  0
  149.8664  144.6820  158.6356 H   0  0  0  0  0  0  0  0  0  0  0  0
  151.2615  145.6317  158.0997 H   0  0  0  0  0  0  0  0  0  0  0  0
  150.7962  145.6259  159.7977 H   0  0  0  0  0  0  0  0  0  0  0  0
  150.8384  143.8536  156.6504 H   0  0  0  0  0  0  0  0  0  0  0  0
  152.3777  143.3175  156.0791 H   0  0  0  0  0  0  0  0  0  0  0  0
  149.0953  142.6305  156.4438 H   0  0  0  0  0  0  0  0  0  0  0  0
  148.5337  138.5838  155.5192 H   0  0  0  0  0  0  0  0  0  0  0  0
  149.1037  139.2131  157.0516 H   0  0  0  0  0  0  0  0  0  0  0  0
  150.1708  139.2109  155.6526 H   0  0  0  0  0  0  0  0  0  0  0  0
  146.5574  140.1553  155.7132 H   0  0  0  0  0  0  0  0  0  0  0  0
  147.1216  140.9394  157.1528 H   0  0  0  0  0  0  0  0  0  0  0  0
  145.5348  142.3780  155.9226 H   0  0  0  0  0  0  0  0  0  0  0  0
  147.0994  143.1457  155.9985 H   0  0  0  0  0  0  0  0  0  0  0  0
  145.9792  141.5768  153.6352 H   0  0  0  0  0  0  0  0  0  0  0  0
  146.5496  144.5665  153.9000 H   0  0  0  0  0  0  0  0  0  0  0  0
  144.9550  143.8180  153.8686 H   0  0  0  0  0  0  0  0  0  0  0  0
  145.9840  143.7535  152.4427 H   0  0  0  0  0  0  0  0  0  0  0  0
  148.0290  142.1902  152.4195 H   0  0  0  0  0  0  0  0  0  0  0  0
  148.6476  143.0388  153.8114 H   0  0  0  0  0  0  0  0  0  0  0  0
  149.6649  140.7843  153.6492 H   0  0  0  0  0  0  0  0  0  0  0  0
  148.0898  140.0437  153.5973 H   0  0  0  0  0  0  0  0  0  0  0  0
  1  2  1  0  0  0  0
  1 23  1  0  0  0  0
  1 24  1  0  0  0  0
  1 25  1  0  0  0  0
  2 21  1  0  0  0  0
  2  3  2  0  0  0  0
  3  4  1  0  0  0  0
  4  5  1  0  0  0  0
  4  6  2  0  0  0  0
  5 26  1  0  0  0  0
  5 27  1  0  0  0  0
  5 28  1  0  0  0  0
  6  7  1  0  0  0  0
  6 19  1  0  0  0  0
  7  8  1  0  0  0  0
  7 29  1  0  0  0  0
  7 30  1  0  0  0  0
  8  9  2  0  0  0  0
  8 10  1  0  0  0  0
 10 11  1  0  0  0  0
 10 31  1  0  0  0  0
 11 18  1  0  0  0  0
 11 12  1  0  0  0  0
 11 13  1  0  0  0  0
 12 32  1  0  0  0  0
 12 33  1  0  0  0  0
 12 34  1  0  0  0  0
 13 14  1  0  0  0  0
 13 35  1  0  0  0  0
 13 36  1  0  0  0  0
 14 15  1  0  0  0  0
 14 37  1  0  0  0  0
 14 38  1  0  0  0  0
 15 16  1  0  0  0  0
 15 17  1  0  0  0  0
 15 39  1  0  0  0  0
 16 40  1  0  0  0  0
 16 41  1  0  0  0  0
 16 42  1  0  0  0  0
 17 18  1  0  0  0  0
 17 43  1  0  0  0  0
 17 44  1  0  0  0  0
 18 45  1  0  0  0  0
 18 46  1  0  0  0  0
 19 20  2  0  0  0  0
 19 21  1  0  0  0  0
 21 22  1  0  0  0  0
M  END
> <s_m_source_file>
AV-unprocessed.smi

> <i_m_source_file_index>
1072

> <i_lp_mmshare_version>
43012

> <i_f3d_flags>
0

> <s_epik_input>
W0NIM11jMW5jKFtDSDNdKWMoYyg9TylbbkhdMSlbQ0gyXUMoPU8pW05IXVtDQEBdMihbQ0gzXSlbQ0gyXVtDSDJdW0NAQEhdKFtDSDNdKVtDSDJdW0NIMl0y

> <s_epik_cmdline>
J2VwaWtfcHl0aG9uJywgJy1waCcsICc3LjAnLCAnLXRuJywgJzgnLCAnLW1hJywgJzIwMCcsICctbWV0YWxfYmluZGluZycsICctaW1hZScsICc8aW5maWxlLm1hZT4nLCAnLW9tYWUnLCAnPG91dGZpbGUubWFlPic=

> <r_lp_tautomer_probability>
0.839158

> <r_epik_Ionization_Penalty>
0.000352328

> <r_epik_Ionization_Penalty_Charging>
0.000314696

> <r_epik_Ionization_Penalty_Neutral>
3.76315e-05

> <r_epik_State_Penalty>
0.09125

> <r_epik_Charging_Adjusted_Penalty>
0.0915647

> <i_epik_Tot_Q>
0

> <i_epik_Tot_abs_Q>
0

> <r_epik_Metal_State_Penalty>
0.245598

> <b_epik_Metal_Only>
0

> <s_lp_Force_Field>
OPLS_2005

> <r_lp_Energy>
11.0611

> <b_lp_Chiralities_Consistent>
1

> <s_lp_Variant>
AV-unprocessed.smi:1072-1

> <Gold.Version>
5.8.1

> <Gold.Id.Protein>
6NUR|6NUR_protein|mol2

> <Gold.PLP.Fitness>
41.5683

> <Gold.PLP.PLP>
-40.3980

> <Gold.PLP.part.hbond>
-1.8866

> <Gold.PLP.part.metal>
0.0000

> <Gold.PLP.part.buried>
-5.9302

> <Gold.PLP.part.nonpolar>
-30.5784

> <Gold.PLP.part.repulsive>
0.1970

> <Gold.PLP.ligand.clash>
0.0000

> <Gold.PLP.ligand.torsion>
0.6589

> <Gold.PLP.Chemscore.Hbond>
0.8273

> <Gold.PLP.Chemscore.CHOScore>
0.0000

> <Gold.PLP.Chemscore.Metal>
0.0000

> <Gold.Chemscore.Hbonds>
donor molecule, donor type, donor heavy atom, donor atom, acceptor molecule, acceptor atom, score
      L1  H    10    31       P1  8028  0.32
      P1  H  7989  7998       L1     9  0.26
      P1  H  7997  8008       L1    20  0.46

> <Gold.PLP.Chemscore.Internal.Correction>
0.0061

> <Gold.Rescore>
     Score         DG    S(hbond)    S(metal)    S(lipo)     H(rot)  DE(clash)    DE(int)     intcor
      9.89     -15.91       1.02        0.00      92.28       1.47       2.13       3.89       ----

> <Gold.Chemscore.Fitness>
9.8923

> <Gold.Chemscore.DG>
-15.9132

> <Gold.Chemscore.ZeroCoef>
-5.4800

> <Gold.Chemscore.Hbond>
1.0170

> <Gold.Chemscore.Metal>
0.0000

> <Gold.Chemscore.Lipo>
92.2829

> <Gold.Chemscore.Internal_Hbond>
0.0000

> <Gold.Chemscore.DEClash>
2.1327

> <Gold.Chemscore.DEInternal>
3.8883

> <Gold.Chemscore.Rot>
1.4690

> <Gold.Chemscore.Internal.Correction>
   9.000000E+99

> <Gold.Chemscore.Hbonds>
donor molecule, donor type, donor heavy atom, donor atom, acceptor molecule, acceptor atom, score
      L1  H    10    31       P1  8028  0.32
      P1  H  7989  7998       L1     9  0.17
      P1  H  7997  8008       L1    20  0.46

> <Gold.Chemscore.Hbond.Weighted>
-3.3968

> <Gold.Chemscore.Metal.Weighted>
-0.0000

> <Gold.Chemscore.Lipo.Weighted>
-10.7971

> <Gold.Chemscore.Internal_Hbond.Weighted>
0.0000

> <Gold.Chemscore.DEClash.Weighted>
2.1327

> <Gold.Chemscore.DEInternal.Weighted>
3.8883

> <Gold.Chemscore.Rot.Weighted>
3.7607

> <Gold.Chemscore.Internal.Correction.Weighted>
   9.000000E+99

> <Gold.Protein.RotatedTorsions>
[ 6907 6896 6895 6894 ] final  -29.08 input  -60.11 | X-H torsion
[ 7974 7965 7964 7962 ] final -169.69 input  175.53 | X-H torsion
[ 8008 7997 7996 7995 ] final  -77.40 input   59.86 | X-H torsion
[ 10167 10162 10161 10158 ] final  106.18 input  -65.29 | X-H torsion
[ 10718 10713 10712 10709 ] final  148.71 input   66.30 | X-H torsion
[ 10763 10752 10751 10750 ] final -156.60 input  -60.55 | X-H torsion
[ 11005 11000 10999 10996 ] final -123.55 input  -57.11 | X-H torsion

> <Gold.Protein.ActiveResidues>
 VAL166  LYS551  ARG553  GLY616  TRP617  ASP618  TYR619  PRO620  LYS621  CYS622 
 ASP623  PHE694  ASN695  SER759  ASP760  ASP761  ALA762  ILE779  LEU786  VAL792 
 PHE793  MET794  SER795  GLU796  ALA797  LYS798  CYS799  TRP800  GLU811  SER814 

> <Gold.Protein.RotatedAtoms>
  151.1241  135.0095  159.8551 H   0  0  0  0  0  0  0  0  0  0  0  0  # atno 6907 bound_to 6896
  152.5449  134.1688  159.8598 H   0  0  0  0  0  0  0  0  0  0  0  0  # atno 6908 bound_to 6896
  151.1748  133.4716  159.2627 H   0  0  0  0  0  0  0  0  0  0  0  0  # atno 6909 bound_to 6896
  144.7181  140.2183  143.6319 H   0  0  0  0  0  0  0  0  0  0  0  0  # atno 7974 bound_to 7965
  154.5593  140.0711  156.8793 H   0  0  0  0  0  0  0  0  0  0  0  0  # atno 8008 bound_to 7997
  155.2842  140.3373  155.4238 H   0  0  0  0  0  0  0  0  0  0  0  0  # atno 8009 bound_to 7997
  156.2029  140.1728  156.7848 H   0  0  0  0  0  0  0  0  0  0  0  0  # atno 8010 bound_to 7997
  139.7030  144.7091  151.1153 H   0  0  0  0  0  0  0  0  0  0  0  0  # atno 10167 bound_to 10162
  157.3052  131.0878  151.1359 H   0  0  0  0  0  0  0  0  0  0  0  0  # atno 10718 bound_to 10713
  154.7700  135.3142  154.8208 H   0  0  0  0  0  0  0  0  0  0  0  0  # atno 10763 bound_to 10752
  153.8946  135.6822  153.4763 H   0  0  0  0  0  0  0  0  0  0  0  0  # atno 10764 bound_to 10752
  153.1313  135.4779  154.9287 H   0  0  0  0  0  0  0  0  0  0  0  0  # atno 10765 bound_to 10752
  140.9910  134.0538  157.3654 H   0  0  0  0  0  0  0  0  0  0  0  0  # atno 11005 bound_to 11000
  145.8525  139.2182  143.1764 LP  0  0  0  0  0  0  0  0  0  0  0  0  # atno 17320 bound_to 7965
  146.0248  140.8314  142.9905 LP  0  0  0  0  0  0  0  0  0  0  0  0  # atno 17321 bound_to 7965
  140.7714  143.5397  150.9327 LP  0  0  0  0  0  0  0  0  0  0  0  0  # atno 17342 bound_to 10162
  139.9079  143.6755  152.3120 LP  0  0  0  0  0  0  0  0  0  0  0  0  # atno 17343 bound_to 10162
  157.2703  130.6701  149.6016 LP  0  0  0  0  0  0  0  0  0  0  0  0  # atno 17370 bound_to 10713
  155.9674  130.4481  150.5607 LP  0  0  0  0  0  0  0  0  0  0  0  0  # atno 17371 bound_to 10713
  139.8992  135.0158  156.7186 LP  0  0  0  0  0  0  0  0  0  0  0  0  # atno 17394 bound_to 11000
  140.7039  133.9282  155.8042 LP  0  0  0  0  0  0  0  0  0  0  0  0  # atno 17395 bound_to 11000

$$$$
