AV-unprocessed.smi:1116|AV-procd|sdf|4807|dock1
  -GOLD-   22720 3353D 1   1.00000     0.00000
 Structure written by MMmdl.
 36 37  0  0  0  0  0  0  0  0  1 V2000
  152.8140  143.2358  161.3454 C   0  0  0  0  0  0  0  0  0  0  0  0
  152.3073  143.3470  159.9482 C   0  0  0  0  0  0  0  0  0  0  0  0
  152.1287  142.2988  159.1399 N   0  0  0  0  0  0  0  0  0  0  0  0
  151.6506  142.6670  157.8781 C   0  0  0  0  0  0  0  0  0  0  0  0
  151.4014  141.6201  156.8352 C   0  0  0  0  0  0  0  0  0  0  0  0
  150.4831  140.4983  157.3491 C   0  0  0  0  0  0  0  0  0  0  0  0
  150.7433  139.2302  156.6773 N   0  0  0  0  0  0  0  0  0  0  0  0
  150.8079  139.0571  155.3483 C   0  0  0  0  0  0  0  0  0  0  0  0
  150.6541  139.9720  154.5396 O   0  0  0  0  0  0  0  0  0  0  0  0
  151.0807  137.6318  154.8602 C   0  0  0  0  0  0  0  0  0  0  0  0
  149.9474  136.6544  155.2263 C   0  0  0  0  0  0  0  0  0  0  0  0
  150.2801  135.1878  154.8882 C   0  0  2  0  0  0  0  0  0  0  0  0
  149.2515  134.5466  154.0866 N   0  0  0  0  0  0  0  0  0  0  0  0
  148.7206  133.4767  154.6936 C   0  0  0  0  0  0  0  0  0  0  0  0
  147.8382  132.7529  154.2387 O   0  0  0  0  0  0  0  0  0  0  0  0
  149.3197  133.3364  155.8808 N   0  0  0  0  0  0  0  0  0  0  0  0
  150.2345  134.2785  156.1036 C   0  0  0  0  0  0  0  0  0  0  0  0
  150.9303  134.4118  157.1084 O   0  0  0  0  0  0  0  0  0  0  0  0
  151.4613  144.0202  157.7455 C   0  0  0  0  0  0  0  0  0  0  0  0
  151.8838  144.8815  159.1997 S   0  0  0  0  0  0  0  0  0  0  0  0
  153.1294  142.2144  161.5605 H   0  0  0  0  0  0  0  0  0  0  0  0
  152.0297  143.5160  162.0488 H   0  0  0  0  0  0  0  0  0  0  0  0
  153.6660  143.9012  161.4866 H   0  0  0  0  0  0  0  0  0  0  0  0
  150.9632  142.0807  155.9491 H   0  0  0  0  0  0  0  0  0  0  0  0
  152.3496  141.1905  156.5095 H   0  0  0  0  0  0  0  0  0  0  0  0
  150.6459  140.3488  158.4168 H   0  0  0  0  0  0  0  0  0  0  0  0
  149.4340  140.7754  157.2306 H   0  0  0  0  0  0  0  0  0  0  0  0
  150.8782  138.4222  157.2675 H   0  0  0  0  0  0  0  0  0  0  0  0
  151.2308  137.6413  153.7796 H   0  0  0  0  0  0  0  0  0  0  0  0
  152.0186  137.2938  155.3017 H   0  0  0  0  0  0  0  0  0  0  0  0
  149.7360  136.7276  156.2944 H   0  0  0  0  0  0  0  0  0  0  0  0
  149.0304  136.9536  154.7148 H   0  0  0  0  0  0  0  0  0  0  0  0
  151.2480  135.1021  154.3927 H   0  0  0  0  0  0  0  0  0  0  0  0
  148.9829  134.8760  153.1708 H   0  0  0  0  0  0  0  0  0  0  0  0
  149.0964  132.6036  156.5384 H   0  0  0  0  0  0  0  0  0  0  0  0
  151.1022  144.5613  156.8828 H   0  0  0  0  0  0  0  0  0  0  0  0
  1  2  1  0  0  0  0
  1 21  1  0  0  0  0
  1 22  1  0  0  0  0
  1 23  1  0  0  0  0
  2 20  1  0  0  0  0
  2  3  2  0  0  0  0
  3  4  1  0  0  0  0
  4  5  1  0  0  0  0
  4 19  2  0  0  0  0
  5  6  1  0  0  0  0
  5 24  1  0  0  0  0
  5 25  1  0  0  0  0
  6  7  1  0  0  0  0
  6 26  1  0  0  0  0
  6 27  1  0  0  0  0
  7  8  1  0  0  0  0
  7 28  1  0  0  0  0
  8  9  2  0  0  0  0
  8 10  1  0  0  0  0
 10 11  1  0  0  0  0
 10 29  1  0  0  0  0
 10 30  1  0  0  0  0
 11 12  1  0  0  0  0
 11 31  1  0  0  0  0
 11 32  1  0  0  0  0
 12 17  1  0  0  0  0
 12 13  1  0  0  0  0
 12 33  1  0  0  0  0
 13 14  1  0  0  0  0
 13 34  1  0  0  0  0
 14 15  2  0  0  0  0
 14 16  1  0  0  0  0
 16 17  1  0  0  0  0
 16 35  1  0  0  0  0
 17 18  2  0  0  0  0
 19 20  1  0  0  0  0
 19 36  1  0  0  0  0
M  END
> <s_m_source_file>
AV-unprocessed.smi

> <i_m_source_file_index>
1116

> <i_lp_mmshare_version>
43012

> <i_f3d_flags>
0

> <s_epik_input>
W0NIM11jMW5jKFtjSF1zMSlbQ0gyXVtDSDJdW05IXUMoPU8pW0NIMl1bQ0gyXVtDQEBIXTJbTkhdQyg9TylbTkhdQzI9Tw==

> <s_epik_cmdline>
J2VwaWtfcHl0aG9uJywgJy1waCcsICc3LjAnLCAnLXRuJywgJzgnLCAnLW1hJywgJzIwMCcsICctbWV0YWxfYmluZGluZycsICctaW1hZScsICc8aW5maWxlLm1hZT4nLCAnLW9tYWUnLCAnPG91dGZpbGUubWFlPic=

> <r_lp_tautomer_probability>
1

> <r_epik_Ionization_Penalty>
0.00889251

> <r_epik_Ionization_Penalty_Charging>
0

> <r_epik_Ionization_Penalty_Neutral>
0.00889251

> <r_epik_State_Penalty>
0.00583796

> <r_epik_Charging_Adjusted_Penalty>
0.00583796

> <i_epik_Tot_Q>
0

> <i_epik_Tot_abs_Q>
0

> <r_epik_Metal_State_Penalty>
0.408839

> <b_epik_Metal_Only>
0

> <s_lp_Force_Field>
OPLS_2005

> <r_lp_Energy>
12.4074

> <b_lp_Chiralities_Consistent>
1

> <s_lp_Variant>
AV-unprocessed.smi:1116-1

> <Gold.Version>
5.8.1

> <Gold.Id.Protein>
6NUR|6NUR_protein|mol2

> <Gold.PLP.Fitness>
44.5700

> <Gold.PLP.PLP>
-36.8568

> <Gold.PLP.part.hbond>
-3.0000

> <Gold.PLP.part.metal>
0.0000

> <Gold.PLP.part.buried>
-6.6921

> <Gold.PLP.part.nonpolar>
-27.9640

> <Gold.PLP.part.repulsive>
0.2001

> <Gold.PLP.ligand.clash>
0.0000

> <Gold.PLP.ligand.torsion>
1.0202

> <Gold.PLP.Chemscore.Hbond>
2.2276

> <Gold.PLP.Chemscore.CHOScore>
1.0000

> <Gold.PLP.Chemscore.Metal>
0.0000

> <Gold.Chemscore.Hbonds>
donor molecule, donor type, donor heavy atom, donor atom, acceptor molecule, acceptor atom, score
      L1  H    13    34       P1  7948  0.85
      P1  H  6896  6907       L1    18  0.23
      P1  H  7989  7998       L1     9  1.00
      L1  C    19    36       P1  8028  1.00

> <Gold.PLP.Chemscore.Internal.Correction>
0.0708

> <Gold.Rescore>
     Score         DG    S(hbond)    S(metal)    S(lipo)     H(rot)  DE(clash)    DE(int)     intcor
     14.94     -17.18       2.76        0.00      83.28       2.83       0.12       2.11       ----

> <Gold.Chemscore.Fitness>
14.9372

> <Gold.Chemscore.DG>
-17.1770

> <Gold.Chemscore.ZeroCoef>
-5.4800

> <Gold.Chemscore.Hbond>
2.7559

> <Gold.Chemscore.Metal>
0.0000

> <Gold.Chemscore.Lipo>
83.2759

> <Gold.Chemscore.Internal_Hbond>
0.0000

> <Gold.Chemscore.DEClash>
0.1249

> <Gold.Chemscore.DEInternal>
2.1149

> <Gold.Chemscore.Rot>
2.8324

> <Gold.Chemscore.Internal.Correction>
   9.000000E+99

> <Gold.Chemscore.Hbonds>
donor molecule, donor type, donor heavy atom, donor atom, acceptor molecule, acceptor atom, score
      L1  H    13    34       P1  7948  0.14
      P1  H  6896  6907       L1    18  0.23
      P1  H  7989  7998       L1     9  1.00

> <Gold.Chemscore.Hbond.Weighted>
-9.2047

> <Gold.Chemscore.Metal.Weighted>
-0.0000

> <Gold.Chemscore.Lipo.Weighted>
-9.7433

> <Gold.Chemscore.Internal_Hbond.Weighted>
0.0000

> <Gold.Chemscore.DEClash.Weighted>
0.1249

> <Gold.Chemscore.DEInternal.Weighted>
2.1149

> <Gold.Chemscore.Rot.Weighted>
7.2510

> <Gold.Chemscore.Internal.Correction.Weighted>
   9.000000E+99

> <Gold.Protein.RotatedTorsions>
[ 6907 6896 6895 6894 ] final -117.16 input  -60.11 | X-H torsion
[ 7974 7965 7964 7962 ] final -111.67 input  175.53 | X-H torsion
[ 8008 7997 7996 7995 ] final -160.60 input   59.86 | X-H torsion
[ 10167 10162 10161 10158 ] final  -35.64 input  -65.29 | X-H torsion
[ 10718 10713 10712 10709 ] final  138.10 input   66.30 | X-H torsion
[ 10763 10752 10751 10750 ] final  133.31 input  -60.55 | X-H torsion
[ 11005 11000 10999 10996 ] final  166.84 input  -57.11 | X-H torsion

> <Gold.Protein.ActiveResidues>
 VAL166  LYS551  ARG553  GLY616  TRP617  ASP618  TYR619  PRO620  LYS621  CYS622 
 ASP623  PHE694  ASN695  SER759  ASP760  ASP761  ALA762  ILE779  LEU786  VAL792 
 PHE793  MET794  SER795  GLU796  ALA797  LYS798  CYS799  TRP800  GLU811  SER814 

> <Gold.Protein.RotatedAtoms>
  150.8114  133.8415  159.3180 H   0  0  0  0  0  0  0  0  0  0  0  0  # atno 6907 bound_to 6896
  151.6199  135.1031  160.0109 H   0  0  0  0  0  0  0  0  0  0  0  0  # atno 6908 bound_to 6896
  152.4206  133.7070  159.6513 H   0  0  0  0  0  0  0  0  0  0  0  0  # atno 6909 bound_to 6896
  145.1533  140.8840  143.3634 H   0  0  0  0  0  0  0  0  0  0  0  0  # atno 7974 bound_to 7965
  155.7798  140.0863  157.2065 H   0  0  0  0  0  0  0  0  0  0  0  0  # atno 8008 bound_to 7997
  154.3991  140.1510  156.3097 H   0  0  0  0  0  0  0  0  0  0  0  0  # atno 8009 bound_to 7997
  155.8664  140.3427  155.5794 H   0  0  0  0  0  0  0  0  0  0  0  0  # atno 8010 bound_to 7997
  140.7160  143.3463  151.2248 H   0  0  0  0  0  0  0  0  0  0  0  0  # atno 10167 bound_to 10162
  157.4290  131.1046  151.0271 H   0  0  0  0  0  0  0  0  0  0  0  0  # atno 10718 bound_to 10713
  153.8051  135.3136  155.3394 H   0  0  0  0  0  0  0  0  0  0  0  0  # atno 10763 bound_to 10752
  154.8074  135.4689  154.0429 H   0  0  0  0  0  0  0  0  0  0  0  0  # atno 10764 bound_to 10752
  153.1790  135.6890  153.8592 H   0  0  0  0  0  0  0  0  0  0  0  0  # atno 10765 bound_to 10752
  140.2705  134.7830  157.3671 H   0  0  0  0  0  0  0  0  0  0  0  0  # atno 11005 bound_to 11000
  145.0408  139.3262  143.5977 LP  0  0  0  0  0  0  0  0  0  0  0  0  # atno 17320 bound_to 7965
  146.3492  139.9780  142.8699 LP  0  0  0  0  0  0  0  0  0  0  0  0  # atno 17321 bound_to 7965
  139.6984  143.9575  152.2893 LP  0  0  0  0  0  0  0  0  0  0  0  0  # atno 17342 bound_to 10162
  139.9259  144.6771  150.8412 LP  0  0  0  0  0  0  0  0  0  0  0  0  # atno 17343 bound_to 10162
  157.1174  130.6047  149.5496 LP  0  0  0  0  0  0  0  0  0  0  0  0  # atno 17370 bound_to 10713
  155.9906  130.4958  150.7266 LP  0  0  0  0  0  0  0  0  0  0  0  0  # atno 17371 bound_to 10713
  140.1377  134.5012  155.8055 LP  0  0  0  0  0  0  0  0  0  0  0  0  # atno 17394 bound_to 11000
  141.2178  133.6813  156.7154 LP  0  0  0  0  0  0  0  0  0  0  0  0  # atno 17395 bound_to 11000

$$$$
