AV-unprocessed.smi:2237|AV-procd|sdf|9051|dock3
  -GOLD-   2272012253D 1   1.00000     0.00000
 Structure written by MMmdl.
 54 56  0  0  0  0  0  0  0  0  2 V2000
  151.7666  144.8699  161.6864 C   0  0  0  0  0  0  0  0  0  0  0  0
  152.4771  143.5327  161.6955 C   0  0  0  0  0  0  0  0  0  0  0  0
  153.2760  143.1434  162.7886 C   0  0  0  0  0  0  0  0  0  0  0  0
  153.9059  141.8872  162.7347 C   0  0  0  0  0  0  0  0  0  0  0  0
  153.7116  141.0776  161.5990 C   0  0  0  0  0  0  0  0  0  0  0  0
  152.8935  141.5430  160.5449 C   0  0  0  0  0  0  0  0  0  0  0  0
  152.7583  140.6495  159.4498 N   0  0  0  0  0  0  0  0  0  0  0  0
  151.7847  140.6094  158.5232 C   0  0  0  0  0  0  0  0  0  0  0  0
  150.8329  141.3877  158.4534 O   0  0  0  0  0  0  0  0  0  0  0  0
  151.9801  139.6012  157.6608 N   0  0  0  0  0  0  0  0  0  0  0  0
  151.1074  139.2708  156.5382 C   0  0  0  0  0  0  0  0  0  0  0  0
  150.8535  140.5198  155.6903 C   0  0  0  0  0  0  0  0  0  0  0  0
  149.8355  140.2379  154.5723 C   0  0  0  0  0  0  0  0  0  0  0  0
  148.5442  139.7829  155.1142 N   0  0  0  0  0  0  0  0  0  0  0  0
  147.5298  139.5958  154.0509 C   0  0  2  0  0  0  0  0  0  0  0  0
  147.2893  140.8559  153.1795 C   0  0  0  0  0  0  0  0  0  0  0  0
  146.6092  141.9840  153.9762 C   0  0  0  0  0  0  0  0  0  0  0  0
  145.3169  141.5310  154.5468 N   0  3  2  0  0  0  0  0  0  0  0  0
  144.6012  142.6168  155.2505 C   0  0  0  0  0  0  0  0  0  0  0  0
  145.4670  140.3165  155.3853 C   0  0  0  0  0  0  0  0  0  0  0  0
  146.1401  139.1779  154.5976 C   0  0  0  0  0  0  0  0  0  0  0  0
  148.7816  138.5328  155.8562 C   0  0  0  0  0  0  0  0  0  0  0  0
  149.7552  138.7409  157.0292 C   0  0  0  0  0  0  0  0  0  0  0  0
  152.2906  142.7565  160.6061 N   0  0  0  0  0  0  0  0  0  0  0  0
  152.0984  145.4996  162.5125 H   0  0  0  0  0  0  0  0  0  0  0  0
  150.6899  144.7251  161.7780 H   0  0  0  0  0  0  0  0  0  0  0  0
  151.9639  145.4008  160.7547 H   0  0  0  0  0  0  0  0  0  0  0  0
  153.4043  143.7869  163.6465 H   0  0  0  0  0  0  0  0  0  0  0  0
  154.5272  141.5486  163.5505 H   0  0  0  0  0  0  0  0  0  0  0  0
  154.1875  140.1094  161.5427 H   0  0  0  0  0  0  0  0  0  0  0  0
  153.4840  139.9531  159.3674 H   0  0  0  0  0  0  0  0  0  0  0  0
  152.7900  139.0135  157.7940 H   0  0  0  0  0  0  0  0  0  0  0  0
  151.5865  138.5160  155.9114 H   0  0  0  0  0  0  0  0  0  0  0  0
  150.4828  141.3317  156.3180 H   0  0  0  0  0  0  0  0  0  0  0  0
  151.7900  140.8695  155.2542 H   0  0  0  0  0  0  0  0  0  0  0  0
  149.7255  141.1717  154.0271 H   0  0  0  0  0  0  0  0  0  0  0  0
  150.2311  139.4993  153.8732 H   0  0  0  0  0  0  0  0  0  0  0  0
  147.8933  138.8013  153.3971 H   0  0  0  0  0  0  0  0  0  0  0  0
  148.1899  141.2154  152.6859 H   0  0  0  0  0  0  0  0  0  0  0  0
  146.6323  140.5810  152.3530 H   0  0  0  0  0  0  0  0  0  0  0  0
  147.2656  142.3289  154.7768 H   0  0  0  0  0  0  0  0  0  0  0  0
  146.4350  142.8379  153.3207 H   0  0  0  0  0  0  0  0  0  0  0  0
  145.1721  142.9684  156.1109 H   0  0  0  0  0  0  0  0  0  0  0  0
  143.6283  142.2724  155.6028 H   0  0  0  0  0  0  0  0  0  0  0  0
  144.4326  143.4624  154.5828 H   0  0  0  0  0  0  0  0  0  0  0  0
  146.0479  140.5536  156.2782 H   0  0  0  0  0  0  0  0  0  0  0  0
  144.4837  139.9899  155.7256 H   0  0  0  0  0  0  0  0  0  0  0  0
  145.4999  138.9256  153.7511 H   0  0  0  0  0  0  0  0  0  0  0  0
  146.1650  138.2651  155.1882 H   0  0  0  0  0  0  0  0  0  0  0  0
  147.8630  138.1495  156.2917 H   0  0  0  0  0  0  0  0  0  0  0  0
  149.1600  137.7631  155.1816 H   0  0  0  0  0  0  0  0  0  0  0  0
  149.8929  137.7988  157.5611 H   0  0  0  0  0  0  0  0  0  0  0  0
  149.3157  139.4377  157.7447 H   0  0  0  0  0  0  0  0  0  0  0  0
  144.7364  141.2660  153.7638 H   0  0  0  0  0  0  0  0  0  0  0  0
  1  2  1  0  0  0  0
  1 25  1  0  0  0  0
  1 26  1  0  0  0  0
  1 27  1  0  0  0  0
  2 24  1  0  0  0  0
  2  3  2  0  0  0  0
  3  4  1  0  0  0  0
  3 28  1  0  0  0  0
  4  5  2  0  0  0  0
  4 29  1  0  0  0  0
  5  6  1  0  0  0  0
  5 30  1  0  0  0  0
  6  7  1  0  0  0  0
  6 24  2  0  0  0  0
  7  8  1  0  0  0  0
  7 31  1  0  0  0  0
  8  9  2  0  0  0  0
  8 10  1  0  0  0  0
 10 11  1  0  0  0  0
 10 32  1  0  0  0  0
 11 23  1  0  0  0  0
 11 12  1  0  0  0  0
 11 33  1  0  0  0  0
 12 13  1  0  0  0  0
 12 34  1  0  0  0  0
 12 35  1  0  0  0  0
 13 14  1  0  0  0  0
 13 36  1  0  0  0  0
 13 37  1  0  0  0  0
 14 15  1  0  0  0  0
 14 22  1  0  0  0  0
 15 21  1  0  0  0  0
 15 16  1  0  0  0  0
 15 38  1  0  0  0  0
 16 17  1  0  0  0  0
 16 39  1  0  0  0  0
 16 40  1  0  0  0  0
 17 18  1  0  0  0  0
 17 41  1  0  0  0  0
 17 42  1  0  0  0  0
 18 19  1  0  0  0  0
 18 20  1  0  0  0  0
 18 54  1  0  0  0  0
 19 43  1  0  0  0  0
 19 44  1  0  0  0  0
 19 45  1  0  0  0  0
 20 21  1  0  0  0  0
 20 46  1  0  0  0  0
 20 47  1  0  0  0  0
 21 48  1  0  0  0  0
 21 49  1  0  0  0  0
 22 23  1  0  0  0  0
 22 50  1  0  0  0  0
 22 51  1  0  0  0  0
 23 52  1  0  0  0  0
 23 53  1  0  0  0  0
M  CHG  1  18   1
M  END
> <s_m_source_file>
AV-unprocessed.smi

> <i_m_source_file_index>
2237

> <i_lp_mmshare_version>
43012

> <i_f3d_flags>
0

> <s_epik_input>
W0NIM11jMVtjSF1bY0hdW2NIXWMobjEpW05IXUMoPU8pW05IXVtDSF0yW0NIMl1bQ0gyXU4oW0NIMl1bQ0gyXTIpW0NIXTNbQ0gyXVtDSDJdTihbQ0gzXSlbQ0gyXVtDSDJdMw==

> <s_epik_cmdline>
J2VwaWtfcHl0aG9uJywgJy1waCcsICc3LjAnLCAnLXRuJywgJzgnLCAnLW1hJywgJzIwMCcsICctbWV0YWxfYmluZGluZycsICctaW1hZScsICc8aW5maWxlLm1hZT4nLCAnLW9tYWUnLCAnPG91dGZpbGUubWFlPic=

> <r_epik_Ionization_Penalty>
1.00983

> <r_epik_Ionization_Penalty_Charging>
0.000974969

> <r_epik_Ionization_Penalty_Neutral>
1.00886

> <r_epik_State_Penalty>
1.10286

> <r_epik_Charging_Adjusted_Penalty>
1.10383

> <i_epik_Tot_Q>
1

> <i_epik_Tot_abs_Q>
1

> <r_epik_Metal_State_Penalty>
1.10284

> <b_epik_Metal_Only>
0

> <s_lp_Force_Field>
OPLS_2005

> <r_lp_Energy>
36.6088

> <b_lp_Chiralities_Consistent>
1

> <s_lp_Variant>
AV-unprocessed.smi:2237-6

> <Gold.Version>
5.8.1

> <Gold.Id.Protein>
6NUR|6NUR_protein|mol2

> <Gold.PLP.Fitness>
42.3105

> <Gold.PLP.PLP>
-36.6627

> <Gold.PLP.part.hbond>
-1.0000

> <Gold.PLP.part.metal>
0.0000

> <Gold.PLP.part.buried>
-0.7447

> <Gold.PLP.part.nonpolar>
-34.8689

> <Gold.PLP.part.repulsive>
0.2763

> <Gold.PLP.ligand.clash>
0.0000

> <Gold.PLP.ligand.torsion>
0.1770

> <Gold.PLP.Chemscore.Hbond>
2.0000

> <Gold.PLP.Chemscore.CHOScore>
0.0000

> <Gold.PLP.Chemscore.Metal>
0.0000

> <Gold.Chemscore.Hbonds>
donor molecule, donor type, donor heavy atom, donor atom, acceptor molecule, acceptor atom, score
      L1  H    18    54       P1 10175  2.00

> <Gold.PLP.Chemscore.Internal.Correction>
0.0018

> <Gold.Rescore>
     Score         DG    S(hbond)    S(metal)    S(lipo)     H(rot)  DE(clash)    DE(int)     intcor
     13.66     -17.62       0.99        0.00     102.25       1.22       1.43       2.53       ----

> <Gold.Chemscore.Fitness>
13.6613

> <Gold.Chemscore.DG>
-17.6214

> <Gold.Chemscore.ZeroCoef>
-5.4800

> <Gold.Chemscore.Hbond>
0.9866

> <Gold.Chemscore.Metal>
0.0000

> <Gold.Chemscore.Lipo>
102.2538

> <Gold.Chemscore.Internal_Hbond>
0.0000

> <Gold.Chemscore.DEClash>
1.4337

> <Gold.Chemscore.DEInternal>
2.5264

> <Gold.Chemscore.Rot>
1.2179

> <Gold.Chemscore.Internal.Correction>
   9.000000E+99

> <Gold.Chemscore.Hbonds>
donor molecule, donor type, donor heavy atom, donor atom, acceptor molecule, acceptor atom, score
      L1  H    18    54       P1 10175  0.40

> <Gold.Chemscore.Hbond.Weighted>
-3.2954

> <Gold.Chemscore.Metal.Weighted>
-0.0000

> <Gold.Chemscore.Lipo.Weighted>
-11.9637

> <Gold.Chemscore.Internal_Hbond.Weighted>
0.0000

> <Gold.Chemscore.DEClash.Weighted>
1.4337

> <Gold.Chemscore.DEInternal.Weighted>
2.5264

> <Gold.Chemscore.Rot.Weighted>
3.1177

> <Gold.Chemscore.Internal.Correction.Weighted>
   9.000000E+99

> <Gold.Protein.RotatedTorsions>
[ 6907 6896 6895 6894 ] final  -90.10 input  -60.11 | X-H torsion
[ 7974 7965 7964 7962 ] final   51.64 input  175.53 | X-H torsion
[ 8008 7997 7996 7995 ] final  -26.08 input   59.86 | X-H torsion
[ 10167 10162 10161 10158 ] final  177.64 input  -65.29 | X-H torsion
[ 10718 10713 10712 10709 ] final -149.93 input   66.30 | X-H torsion
[ 10763 10752 10751 10750 ] final -146.12 input  -60.55 | X-H torsion
[ 11005 11000 10999 10996 ] final -167.87 input  -57.11 | X-H torsion

> <Gold.Protein.ActiveResidues>
 VAL166  LYS551  ARG553  GLY616  TRP617  ASP618  TYR619  PRO620  LYS621  CYS622 
 ASP623  PHE694  ASN695  SER759  ASP760  ASP761  ALA762  ILE779  LEU786  VAL792 
 PHE793  MET794  SER795  GLU796  ALA797  LYS798  CYS799  TRP800  GLU811  SER814 

> <Gold.Protein.RotatedAtoms>
  150.6879  134.2485  159.4500 H   0  0  0  0  0  0  0  0  0  0  0  0  # atno 6907 bound_to 6896
  152.0424  134.9701  160.0583 H   0  0  0  0  0  0  0  0  0  0  0  0  # atno 6908 bound_to 6896
  152.1197  133.4312  159.4707 H   0  0  0  0  0  0  0  0  0  0  0  0  # atno 6909 bound_to 6896
  145.9893  139.4322  143.0083 H   0  0  0  0  0  0  0  0  0  0  0  0  # atno 7974 bound_to 7965
  154.4443  140.1909  156.0719 H   0  0  0  0  0  0  0  0  0  0  0  0  # atno 8008 bound_to 7997
  156.0505  140.3309  155.7318 H   0  0  0  0  0  0  0  0  0  0  0  0  # atno 8009 bound_to 7997
  155.5565  140.0599  157.2829 H   0  0  0  0  0  0  0  0  0  0  0  0  # atno 8010 bound_to 7997
  139.5261  144.2774  152.0576 H   0  0  0  0  0  0  0  0  0  0  0  0  # atno 10167 bound_to 10162
  156.4395  130.8115  151.2344 H   0  0  0  0  0  0  0  0  0  0  0  0  # atno 10718 bound_to 10713
  154.8351  135.3395  154.6611 H   0  0  0  0  0  0  0  0  0  0  0  0  # atno 10763 bound_to 10752
  153.7227  135.6957  153.5013 H   0  0  0  0  0  0  0  0  0  0  0  0  # atno 10764 bound_to 10752
  153.2370  135.4397  155.0609 H   0  0  0  0  0  0  0  0  0  0  0  0  # atno 10765 bound_to 10752
  140.5484  134.5452  157.5116 H   0  0  0  0  0  0  0  0  0  0  0  0  # atno 11005 bound_to 11000
  145.7653  140.9918  143.1178 LP  0  0  0  0  0  0  0  0  0  0  0  0  # atno 17320 bound_to 7965
  144.6884  139.9381  143.7474 LP  0  0  0  0  0  0  0  0  0  0  0  0  # atno 17321 bound_to 7965
  140.2231  144.4446  150.6333 LP  0  0  0  0  0  0  0  0  0  0  0  0  # atno 17342 bound_to 10162
  140.6405  143.2203  151.6300 LP  0  0  0  0  0  0  0  0  0  0  0  0  # atno 17343 bound_to 10162
  157.7506  131.0173  150.3578 LP  0  0  0  0  0  0  0  0  0  0  0  0  # atno 17370 bound_to 10713
  156.3933  130.3902  149.7014 LP  0  0  0  0  0  0  0  0  0  0  0  0  # atno 17371 bound_to 10713
  139.9468  134.7688  156.0544 LP  0  0  0  0  0  0  0  0  0  0  0  0  # atno 17394 bound_to 11000
  141.1186  133.6620  156.3157 LP  0  0  0  0  0  0  0  0  0  0  0  0  # atno 17395 bound_to 11000

$$$$
