AV-unprocessed.smi:1286|AV-procd|sdf|5375|dock6
  -GOLD-   22720 4523D 1   1.00000     0.00000
 Structure written by MMmdl.
 36 37  0  0  0  0  0  0  0  0  1 V2000
  153.4670  140.2142  161.0115 C   0  0  0  0  0  0  0  0  0  0  0  0
  152.8860  141.3210  160.1213 C   0  0  2  0  0  0  0  0  0  0  0  0
  152.2739  142.4598  160.9634 C   0  0  0  0  0  0  0  0  0  0  0  0
  151.8155  143.5758  160.1543 N   0  0  0  0  0  0  0  0  0  0  0  0
  152.5364  144.3338  159.2554 C   0  0  0  0  0  0  0  0  0  0  0  0
  151.6862  145.2684  158.7381 C   0  0  0  0  0  0  0  0  0  0  0  0
  150.4504  144.9978  159.3896 C   0  0  0  0  0  0  0  0  0  0  0  0
  150.5293  143.9802  160.2315 N   0  0  0  0  0  0  0  0  0  0  0  0
  151.8742  140.7447  159.2364 N   0  0  0  0  0  0  0  0  0  0  0  0
  152.0858  139.7917  158.3146 C   0  0  0  0  0  0  0  0  0  0  0  0
  153.1728  139.2395  158.1446 O   0  0  0  0  0  0  0  0  0  0  0  0
  150.8825  139.4170  157.4412 C   0  0  0  0  0  0  0  0  0  0  0  0
  150.9139  140.0409  156.0275 C   0  0  2  0  0  0  0  0  0  0  0  0
  150.3836  141.4536  155.9736 C   0  0  0  0  0  0  0  0  0  0  0  0
  149.4182  141.6085  155.0709 C   0  0  0  0  0  0  0  0  0  0  0  0
  149.1067  140.3337  154.3378 C   0  0  0  0  0  0  0  0  0  0  0  0
  150.0228  139.2851  155.0082 C   0  0  0  0  0  0  0  0  0  0  0  0
  154.2409  140.6083  161.6708 H   0  0  0  0  0  0  0  0  0  0  0  0
  153.9184  139.4238  160.4112 H   0  0  0  0  0  0  0  0  0  0  0  0
  152.6970  139.7606  161.6368 H   0  0  0  0  0  0  0  0  0  0  0  0
  153.7119  141.7312  159.5374 H   0  0  0  0  0  0  0  0  0  0  0  0
  151.4333  142.0887  161.5515 H   0  0  0  0  0  0  0  0  0  0  0  0
  153.0086  142.8378  161.6758 H   0  0  0  0  0  0  0  0  0  0  0  0
  153.5833  144.1497  159.0642 H   0  0  0  0  0  0  0  0  0  0  0  0
  151.9133  146.0316  158.0088 H   0  0  0  0  0  0  0  0  0  0  0  0
  149.5042  145.5055  159.2751 H   0  0  0  0  0  0  0  0  0  0  0  0
  150.9441  141.1315  159.3037 H   0  0  0  0  0  0  0  0  0  0  0  0
  150.8483  138.3300  157.3608 H   0  0  0  0  0  0  0  0  0  0  0  0
  149.9651  139.7176  157.9500 H   0  0  0  0  0  0  0  0  0  0  0  0
  151.9405  140.0631  155.6587 H   0  0  0  0  0  0  0  0  0  0  0  0
  150.7776  142.2412  156.5984 H   0  0  0  0  0  0  0  0  0  0  0  0
  148.9079  142.5362  154.8575 H   0  0  0  0  0  0  0  0  0  0  0  0
  148.0519  140.0786  154.4430 H   0  0  0  0  0  0  0  0  0  0  0  0
  149.3345  140.4497  153.2776 H   0  0  0  0  0  0  0  0  0  0  0  0
  150.6305  138.7636  154.2681 H   0  0  0  0  0  0  0  0  0  0  0  0
  149.4132  138.5295  155.5052 H   0  0  0  0  0  0  0  0  0  0  0  0
  1  2  1  0  0  0  0
  1 18  1  0  0  0  0
  1 19  1  0  0  0  0
  1 20  1  0  0  0  0
  2  3  1  0  0  0  0
  2  9  1  0  0  0  0
  2 21  1  0  0  0  0
  3  4  1  0  0  0  0
  3 22  1  0  0  0  0
  3 23  1  0  0  0  0
  4  8  1  0  0  0  0
  4  5  1  0  0  0  0
  5  6  2  0  0  0  0
  5 24  1  0  0  0  0
  6  7  1  0  0  0  0
  6 25  1  0  0  0  0
  7  8  2  0  0  0  0
  7 26  1  0  0  0  0
  9 10  1  0  0  0  0
  9 27  1  0  0  0  0
 10 11  2  0  0  0  0
 10 12  1  0  0  0  0
 12 13  1  0  0  0  0
 12 28  1  0  0  0  0
 12 29  1  0  0  0  0
 13 17  1  0  0  0  0
 13 14  1  0  0  0  0
 13 30  1  0  0  0  0
 14 15  2  0  0  0  0
 14 31  1  0  0  0  0
 15 16  1  0  0  0  0
 15 32  1  0  0  0  0
 16 17  1  0  0  0  0
 16 33  1  0  0  0  0
 16 34  1  0  0  0  0
 17 35  1  0  0  0  0
 17 36  1  0  0  0  0
M  END
> <s_m_source_file>
AV-unprocessed.smi

> <i_m_source_file_index>
1286

> <i_lp_mmshare_version>
43012

> <i_f3d_flags>
0

> <s_epik_input>
bjFbY0hdW2NIXVtjSF1uMVtDSDJdW0NAQEhdKFtDSDNdKVtOSF1DKD1PKVtDSDJdW0NAQEhdMltDSF09W0NIXVtDSDJdW0NIMl0y

> <s_epik_cmdline>
J2VwaWtfcHl0aG9uJywgJy1waCcsICc3LjAnLCAnLXRuJywgJzgnLCAnLW1hJywgJzIwMCcsICctbWV0YWxfYmluZGluZycsICctaW1hZScsICc8aW5maWxlLm1hZT4nLCAnLW9tYWUnLCAnPG91dGZpbGUubWFlPic=

> <r_lp_tautomer_probability>
1

> <r_epik_Ionization_Penalty>
0.000301761

> <r_epik_Ionization_Penalty_Charging>
0

> <r_epik_Ionization_Penalty_Neutral>
0.000301761

> <r_epik_State_Penalty>
-0

> <r_epik_Charging_Adjusted_Penalty>
0

> <i_epik_Tot_Q>
0

> <i_epik_Tot_abs_Q>
0

> <r_epik_Metal_State_Penalty>
-0

> <b_epik_Metal_Only>
0

> <s_lp_Force_Field>
OPLS_2005

> <r_lp_Energy>
16.2222

> <b_lp_Chiralities_Consistent>
1

> <s_lp_Variant>
AV-unprocessed.smi:1286-1

> <Gold.Version>
5.8.1

> <Gold.Id.Protein>
6NUR|6NUR_protein|mol2

> <Gold.PLP.Fitness>
47.4984

> <Gold.PLP.PLP>
-42.4861

> <Gold.PLP.part.hbond>
-1.8007

> <Gold.PLP.part.metal>
0.0000

> <Gold.PLP.part.buried>
-3.9672

> <Gold.PLP.part.nonpolar>
-36.7283

> <Gold.PLP.part.repulsive>
0.2440

> <Gold.PLP.ligand.clash>
0.0000

> <Gold.PLP.ligand.torsion>
0.5014

> <Gold.PLP.Chemscore.Hbond>
1.0000

> <Gold.PLP.Chemscore.CHOScore>
0.9956

> <Gold.PLP.Chemscore.Metal>
0.0000

> <Gold.Chemscore.Hbonds>
donor molecule, donor type, donor heavy atom, donor atom, acceptor molecule, acceptor atom, score
      P1  H  7997  8009       L1    11  1.00
      L1  C     7    26       P1  8029  0.84

> <Gold.PLP.Chemscore.Internal.Correction>
0.0282

> <Gold.Rescore>
     Score         DG    S(hbond)    S(metal)    S(lipo)     H(rot)  DE(clash)    DE(int)     intcor
     15.08     -16.18       0.80        0.00     104.64       1.64       0.11       0.99       ----

> <Gold.Chemscore.Fitness>
15.0803

> <Gold.Chemscore.DG>
-16.1825

> <Gold.Chemscore.ZeroCoef>
-5.4800

> <Gold.Chemscore.Hbond>
0.7954

> <Gold.Chemscore.Metal>
0.0000

> <Gold.Chemscore.Lipo>
104.6380

> <Gold.Chemscore.Internal_Hbond>
0.0000

> <Gold.Chemscore.DEClash>
0.1111

> <Gold.Chemscore.DEInternal>
0.9910

> <Gold.Chemscore.Rot>
1.6394

> <Gold.Chemscore.Internal.Correction>
   9.000000E+99

> <Gold.Chemscore.Hbonds>
donor molecule, donor type, donor heavy atom, donor atom, acceptor molecule, acceptor atom, score
      P1  H  7997  8009       L1    11  0.92

> <Gold.Chemscore.Hbond.Weighted>
-2.6568

> <Gold.Chemscore.Metal.Weighted>
-0.0000

> <Gold.Chemscore.Lipo.Weighted>
-12.2426

> <Gold.Chemscore.Internal_Hbond.Weighted>
0.0000

> <Gold.Chemscore.DEClash.Weighted>
0.1111

> <Gold.Chemscore.DEInternal.Weighted>
0.9910

> <Gold.Chemscore.Rot.Weighted>
4.1969

> <Gold.Chemscore.Internal.Correction.Weighted>
   9.000000E+99

> <Gold.Protein.RotatedTorsions>
[ 6907 6896 6895 6894 ] final  168.16 input  -60.11 | X-H torsion
[ 7974 7965 7964 7962 ] final -107.86 input  175.53 | X-H torsion
[ 8008 7997 7996 7995 ] final  138.81 input   59.86 | X-H torsion
[ 10167 10162 10161 10158 ] final   -4.94 input  -65.29 | X-H torsion
[ 10718 10713 10712 10709 ] final  -74.04 input   66.30 | X-H torsion
[ 10763 10752 10751 10750 ] final  -55.56 input  -60.55 | X-H torsion
[ 11005 11000 10999 10996 ] final    1.03 input  -57.11 | X-H torsion

> <Gold.Protein.ActiveResidues>
 VAL166  LYS551  ARG553  GLY616  TRP617  ASP618  TYR619  PRO620  LYS621  CYS622 
 ASP623  PHE694  ASN695  SER759  ASP760  ASP761  ALA762  ILE779  LEU786  VAL792 
 PHE793  MET794  SER795  GLU796  ALA797  LYS798  CYS799  TRP800  GLU811  SER814 

> <Gold.Protein.RotatedAtoms>
  151.8519  133.3441  159.3675 H   0  0  0  0  0  0  0  0  0  0  0  0  # atno 6907 bound_to 6896
  150.7204  134.5290  159.5700 H   0  0  0  0  0  0  0  0  0  0  0  0  # atno 6908 bound_to 6896
  152.2786  134.7854  160.0452 H   0  0  0  0  0  0  0  0  0  0  0  0  # atno 6909 bound_to 6896
  145.2001  140.9052  143.3374 H   0  0  0  0  0  0  0  0  0  0  0  0  # atno 7974 bound_to 7965
  156.2995  140.2384  156.4134 H   0  0  0  0  0  0  0  0  0  0  0  0  # atno 8008 bound_to 7997
  154.8420  140.0428  157.1568 H   0  0  0  0  0  0  0  0  0  0  0  0  # atno 8009 bound_to 7997
  154.9092  140.2988  155.5279 H   0  0  0  0  0  0  0  0  0  0  0  0  # atno 8010 bound_to 7997
  140.6945  143.6365  150.8474 H   0  0  0  0  0  0  0  0  0  0  0  0  # atno 10167 bound_to 10162
  156.0257  130.4408  150.2833 H   0  0  0  0  0  0  0  0  0  0  0  0  # atno 10718 bound_to 10713
  154.1927  135.6424  153.5064 H   0  0  0  0  0  0  0  0  0  0  0  0  # atno 10763 bound_to 10752
  153.0031  135.5432  154.6398 H   0  0  0  0  0  0  0  0  0  0  0  0  # atno 10764 bound_to 10752
  154.5791  135.2923  155.0723 H   0  0  0  0  0  0  0  0  0  0  0  0  # atno 10765 bound_to 10752
  140.6200  133.9670  155.8220 H   0  0  0  0  0  0  0  0  0  0  0  0  # atno 11005 bound_to 11000
  144.9956  139.3647  143.6193 LP  0  0  0  0  0  0  0  0  0  0  0  0  # atno 17320 bound_to 7965
  146.3419  139.9157  142.8774 LP  0  0  0  0  0  0  0  0  0  0  0  0  # atno 17321 bound_to 7965
  140.0082  143.5671  152.2849 LP  0  0  0  0  0  0  0  0  0  0  0  0  # atno 17342 bound_to 10162
  139.6385  144.7652  151.2388 LP  0  0  0  0  0  0  0  0  0  0  0  0  # atno 17343 bound_to 10162
  157.0937  131.0176  151.3112 LP  0  0  0  0  0  0  0  0  0  0  0  0  # atno 17370 bound_to 10713
  157.4834  130.7779  149.7436 LP  0  0  0  0  0  0  0  0  0  0  0  0  # atno 17371 bound_to 10713
  141.0749  134.0150  157.3472 LP  0  0  0  0  0  0  0  0  0  0  0  0  # atno 17394 bound_to 11000
  139.9157  135.0196  156.7872 LP  0  0  0  0  0  0  0  0  0  0  0  0  # atno 17395 bound_to 11000

$$$$
