AV-unprocessed.smi:2877|AV-procd|sdf|11044|dock7
  -GOLD-   2272015513D 1   1.00000     0.00000
 Structure written by MMmdl.
 40 41  0  0  0  0  0  0  0  0  2 V2000
  147.4139  137.2326  161.5610 O   0  0  0  0  0  0  0  0  0  0  0  0
  147.7591  136.1906  160.9920 C   0  0  0  0  0  0  0  0  0  0  0  0
  148.4500  136.2223  159.6000 C   0  0  0  0  0  0  0  0  0  0  0  0
  148.6052  137.5913  158.8885 C   0  0  0  0  0  0  0  0  0  0  0  0
  149.8286  137.6015  158.0891 N   0  5  0  0  0  0  0  0  0  0  0  0
  151.0859  137.6969  158.6117 C   0  0  0  0  0  0  0  0  0  0  0  0
  151.5526  137.2053  159.6461 O   0  0  0  0  0  0  0  0  0  0  0  0
  152.0103  138.5579  157.7247 C   0  0  0  0  0  0  0  0  0  0  0  0
  153.2246  138.6116  158.2793 F   0  0  0  0  0  0  0  0  0  0  0  0
  152.1454  137.9712  156.5312 F   0  0  0  0  0  0  0  0  0  0  0  0
  151.4639  139.9776  157.5699 C   0  0  0  0  0  0  0  0  0  0  0  0
  151.3340  140.8349  158.6872 C   0  0  0  0  0  0  0  0  0  0  0  0
  150.8351  142.1360  158.4877 C   0  0  0  0  0  0  0  0  0  0  0  0
  150.4806  142.5346  157.1852 C   0  0  0  0  0  0  0  0  0  0  0  0
  150.6457  141.6104  156.1351 C   0  0  0  0  0  0  0  0  0  0  0  0
  151.1234  140.3607  156.3152 N   0  0  0  0  0  0  0  0  0  0  0  0
  147.5432  134.9793  161.5668 N   0  0  0  0  0  0  0  0  0  0  0  0
  146.8050  134.8181  162.8276 C   0  0  0  0  0  0  0  0  0  0  0  0
  145.4411  134.1707  162.5232 C   0  0  0  0  0  0  0  0  0  0  0  0
  145.6189  132.8317  161.7821 C   0  0  0  0  0  0  0  0  0  0  0  0
  146.5600  132.9720  160.5705 C   0  0  0  0  0  0  0  0  0  0  0  0
  147.8696  133.6742  160.9727 C   0  0  0  0  0  0  0  0  0  0  0  0
  149.4407  135.7807  159.7165 H   0  0  0  0  0  0  0  0  0  0  0  0
  147.8868  135.5661  158.9350 H   0  0  0  0  0  0  0  0  0  0  0  0
  147.7319  137.7630  158.2584 H   0  0  0  0  0  0  0  0  0  0  0  0
  148.5852  138.3897  159.6319 H   0  0  0  0  0  0  0  0  0  0  0  0
  151.6218  140.5086  159.6755 H   0  0  0  0  0  0  0  0  0  0  0  0
  150.7277  142.8167  159.3191 H   0  0  0  0  0  0  0  0  0  0  0  0
  150.0940  143.5248  156.9952 H   0  0  0  0  0  0  0  0  0  0  0  0
  150.3860  141.8822  155.1228 H   0  0  0  0  0  0  0  0  0  0  0  0
  147.3786  134.1842  163.5051 H   0  0  0  0  0  0  0  0  0  0  0  0
  146.6567  135.7583  163.3603 H   0  0  0  0  0  0  0  0  0  0  0  0
  144.8835  134.0152  163.4472 H   0  0  0  0  0  0  0  0  0  0  0  0
  144.8454  134.8500  161.9119 H   0  0  0  0  0  0  0  0  0  0  0  0
  146.0350  132.0967  162.4724 H   0  0  0  0  0  0  0  0  0  0  0  0
  144.6505  132.4433  161.4654 H   0  0  0  0  0  0  0  0  0  0  0  0
  146.7740  131.9895  160.1492 H   0  0  0  0  0  0  0  0  0  0  0  0
  146.0653  133.5459  159.7856 H   0  0  0  0  0  0  0  0  0  0  0  0
  148.5400  133.7308  160.1169 H   0  0  0  0  0  0  0  0  0  0  0  0
  148.4018  133.0704  161.7093 H   0  0  0  0  0  0  0  0  0  0  0  0
  1  2  2  0  0  0  0
  2  3  1  0  0  0  0
  2 17  1  0  0  0  0
  3  4  1  0  0  0  0
  3 23  1  0  0  0  0
  3 24  1  0  0  0  0
  4  5  1  0  0  0  0
  4 25  1  0  0  0  0
  4 26  1  0  0  0  0
  5  6  1  0  0  0  0
  6  7  2  0  0  0  0
  6  8  1  0  0  0  0
  8  9  1  0  0  0  0
  8 10  1  0  0  0  0
  8 11  1  0  0  0  0
 11 16  1  0  0  0  0
 11 12  2  0  0  0  0
 12 13  1  0  0  0  0
 12 27  1  0  0  0  0
 13 14  2  0  0  0  0
 13 28  1  0  0  0  0
 14 15  1  0  0  0  0
 14 29  1  0  0  0  0
 15 16  2  0  0  0  0
 15 30  1  0  0  0  0
 17 22  1  0  0  0  0
 17 18  1  0  0  0  0
 18 19  1  0  0  0  0
 18 31  1  0  0  0  0
 18 32  1  0  0  0  0
 19 20  1  0  0  0  0
 19 33  1  0  0  0  0
 19 34  1  0  0  0  0
 20 21  1  0  0  0  0
 20 35  1  0  0  0  0
 20 36  1  0  0  0  0
 21 22  1  0  0  0  0
 21 37  1  0  0  0  0
 21 38  1  0  0  0  0
 22 39  1  0  0  0  0
 22 40  1  0  0  0  0
M  CHG  1   5  -1
M  END
> <s_m_source_file>
AV-unprocessed.smi

> <i_m_source_file_index>
2877

> <i_lp_mmshare_version>
43012

> <i_f3d_flags>
0

> <s_epik_input>
W0NIMl0xW0NIMl1bQ0gyXVtDSDJdW0NIMl1OMUMoPU8pW0NIMl1bQ0gyXVtOSF1DKD1PKUMoRikoRiljMltjSF1bY0hdW2NIXVtjSF1uMg==

> <s_epik_cmdline>
J2VwaWtfcHl0aG9uJywgJy1waCcsICc3LjAnLCAnLXRuJywgJzgnLCAnLW1hJywgJzIwMCcsICctbWV0YWxfYmluZGluZycsICctaW1hZScsICc8aW5maWxlLm1hZT4nLCAnLW9tYWUnLCAnPG91dGZpbGUubWFlPic=

> <r_lp_tautomer_probability>
1

> <r_epik_Ionization_Penalty>
5.30743

> <r_epik_Ionization_Penalty_Charging>
5.30743

> <r_epik_Ionization_Penalty_Neutral>
2.29237e-06

> <r_epik_State_Penalty>
5.30735

> <r_epik_Charging_Adjusted_Penalty>
10.6148

> <i_epik_Tot_Q>
-1

> <i_epik_Tot_abs_Q>
1

> <r_epik_Metal_State_Penalty>
1.35027

> <b_epik_Metal_Only>
1

> <s_lp_Force_Field>
OPLS_2005

> <r_lp_Energy>
42.7236

> <b_lp_Chiralities_Consistent>
1

> <s_lp_Variant>
AV-unprocessed.smi:2877-2

> <Gold.Version>
5.8.1

> <Gold.Id.Protein>
6NUR|6NUR_protein|mol2

> <Gold.PLP.Fitness>
45.9019

> <Gold.PLP.PLP>
-38.8064

> <Gold.PLP.part.hbond>
-3.0000

> <Gold.PLP.part.metal>
0.0000

> <Gold.PLP.part.buried>
-5.6429

> <Gold.PLP.part.nonpolar>
-28.9666

> <Gold.PLP.part.repulsive>
0.0000

> <Gold.PLP.ligand.clash>
0.0000

> <Gold.PLP.ligand.torsion>
0.6461

> <Gold.PLP.Chemscore.Hbond>
2.7760

> <Gold.PLP.Chemscore.CHOScore>
0.0000

> <Gold.PLP.Chemscore.Metal>
0.0000

> <Gold.Chemscore.Hbonds>
donor molecule, donor type, donor heavy atom, donor atom, acceptor molecule, acceptor atom, score
      P1  H  6896  6907       L1     7  0.91
      P1  H  6931  6943       L1     1  0.90
      P1  H  6934  6947       L1     1  0.86

> <Gold.PLP.Chemscore.Internal.Correction>
0.0598

> <Gold.Rescore>
     Score         DG    S(hbond)    S(metal)    S(lipo)     H(rot)  DE(clash)    DE(int)     intcor
     18.25     -18.92       2.64        0.00      80.95       1.89       0.04       0.64       ----

> <Gold.Chemscore.Fitness>
18.2472

> <Gold.Chemscore.DG>
-18.9235

> <Gold.Chemscore.ZeroCoef>
-5.4800

> <Gold.Chemscore.Hbond>
2.6356

> <Gold.Chemscore.Metal>
0.0000

> <Gold.Chemscore.Lipo>
80.9519

> <Gold.Chemscore.Internal_Hbond>
0.0000

> <Gold.Chemscore.DEClash>
0.0356

> <Gold.Chemscore.DEInternal>
0.6407

> <Gold.Chemscore.Rot>
1.8871

> <Gold.Chemscore.Internal.Correction>
   9.000000E+99

> <Gold.Chemscore.Hbonds>
donor molecule, donor type, donor heavy atom, donor atom, acceptor molecule, acceptor atom, score
      P1  H  6896  6907       L1     7  0.86
      P1  H  6931  6943       L1     1  0.57
      P1  H  6934  6947       L1     1  0.85

> <Gold.Chemscore.Hbond.Weighted>
-8.8030

> <Gold.Chemscore.Metal.Weighted>
-0.0000

> <Gold.Chemscore.Lipo.Weighted>
-9.4714

> <Gold.Chemscore.Internal_Hbond.Weighted>
0.0000

> <Gold.Chemscore.DEClash.Weighted>
0.0356

> <Gold.Chemscore.DEInternal.Weighted>
0.6407

> <Gold.Chemscore.Rot.Weighted>
4.8309

> <Gold.Chemscore.Internal.Correction.Weighted>
   9.000000E+99

> <Gold.Protein.RotatedTorsions>
[ 6907 6896 6895 6894 ] final    3.33 input  -60.11 | X-H torsion
[ 7974 7965 7964 7962 ] final    0.73 input  175.53 | X-H torsion
[ 8008 7997 7996 7995 ] final  -17.80 input   59.86 | X-H torsion
[ 10167 10162 10161 10158 ] final  106.35 input  -65.29 | X-H torsion
[ 10718 10713 10712 10709 ] final -127.02 input   66.30 | X-H torsion
[ 10763 10752 10751 10750 ] final    1.47 input  -60.55 | X-H torsion
[ 11005 11000 10999 10996 ] final  -58.15 input  -57.11 | X-H torsion

> <Gold.Protein.ActiveResidues>
 VAL166  LYS551  ARG553  GLY616  TRP617  ASP618  TYR619  PRO620  LYS621  CYS622 
 ASP623  PHE694  ASN695  SER759  ASP760  ASP761  ALA762  ILE779  LEU786  VAL792 
 PHE793  MET794  SER795  GLU796  ALA797  LYS798  CYS799  TRP800  GLU811  SER814 

> <Gold.Protein.RotatedAtoms>
  151.6233  135.1030  160.0105 H   0  0  0  0  0  0  0  0  0  0  0  0  # atno 6907 bound_to 6896
  152.4146  133.7013  159.6436 H   0  0  0  0  0  0  0  0  0  0  0  0  # atno 6908 bound_to 6896
  150.8035  133.8480  159.3238 H   0  0  0  0  0  0  0  0  0  0  0  0  # atno 6909 bound_to 6896
  146.2436  140.1093  142.8344 H   0  0  0  0  0  0  0  0  0  0  0  0  # atno 7974 bound_to 7965
  154.4952  140.2133  155.9463 H   0  0  0  0  0  0  0  0  0  0  0  0  # atno 8008 bound_to 7997
  156.1360  140.3188  155.8389 H   0  0  0  0  0  0  0  0  0  0  0  0  # atno 8009 bound_to 7997
  155.4209  140.0497  157.3016 H   0  0  0  0  0  0  0  0  0  0  0  0  # atno 8010 bound_to 7997
  139.7016  144.7093  151.1176 H   0  0  0  0  0  0  0  0  0  0  0  0  # atno 10167 bound_to 10162
  156.1818  130.6737  151.0314 H   0  0  0  0  0  0  0  0  0  0  0  0  # atno 10718 bound_to 10713
  153.3076  135.6960  153.7145 H   0  0  0  0  0  0  0  0  0  0  0  0  # atno 10763 bound_to 10752
  153.6035  135.3457  155.2954 H   0  0  0  0  0  0  0  0  0  0  0  0  # atno 10764 bound_to 10752
  154.8567  135.4346  154.2205 H   0  0  0  0  0  0  0  0  0  0  0  0  # atno 10765 bound_to 10752
  141.1195  133.6611  156.4877 H   0  0  0  0  0  0  0  0  0  0  0  0  # atno 11005 bound_to 11000
  145.0501  140.9011  143.5001 LP  0  0  0  0  0  0  0  0  0  0  0  0  # atno 17320 bound_to 7965
  145.1189  139.2707  143.5599 LP  0  0  0  0  0  0  0  0  0  0  0  0  # atno 17321 bound_to 7965
  140.7711  143.5416  150.9306 LP  0  0  0  0  0  0  0  0  0  0  0  0  # atno 17342 bound_to 10162
  139.9098  143.6734  152.3117 LP  0  0  0  0  0  0  0  0  0  0  0  0  # atno 17343 bound_to 10162
  157.6873  131.0821  150.7206 LP  0  0  0  0  0  0  0  0  0  0  0  0  # atno 17370 bound_to 10713
  156.7263  130.4696  149.5510 LP  0  0  0  0  0  0  0  0  0  0  0  0  # atno 17371 bound_to 10713
  140.4549  134.6895  157.5057 LP  0  0  0  0  0  0  0  0  0  0  0  0  # atno 17394 bound_to 11000
  140.0141  134.6645  155.9336 LP  0  0  0  0  0  0  0  0  0  0  0  0  # atno 17395 bound_to 11000

$$$$
