AV-unprocessed.smi:2136|AV-procd|sdf|8704|dock10
  -GOLD-   2272011463D 1   1.00000     0.00000
 Structure written by MMmdl.
 43 44  0  0  0  0  0  0  0  0  2 V2000
  154.1901  140.6929  161.2561 C   0  0  0  0  0  0  0  0  0  0  0  0
  153.8180  140.1883  159.5241 S   0  0  0  0  0  0  0  0  0  0  0  0
  155.0801  139.9895  158.7949 O   0  0  0  0  0  0  0  0  0  0  0  0
  152.8486  139.0844  159.6047 O   0  0  0  0  0  0  0  0  0  0  0  0
  152.9977  141.5795  158.8476 N   0  0  0  0  0  0  0  0  0  0  0  0
  153.1713  142.8491  159.5953 C   0  0  0  0  0  0  0  0  0  0  0  0
  152.7174  144.0865  158.8104 C   0  0  0  0  0  0  0  0  0  0  0  0
  151.2853  143.9225  158.3167 C   0  0  0  0  0  0  0  0  0  0  0  0
  151.2352  142.6884  157.4214 C   0  0  0  0  0  0  0  0  0  0  0  0
  151.6769  141.4034  158.1642 C   0  0  1  0  0  0  0  0  0  0  0  0
  151.5886  140.2254  157.1792 C   0  0  0  0  0  0  0  0  0  0  0  0
  152.6082  139.6292  156.8295 O   0  0  0  0  0  0  0  0  0  0  0  0
  150.3641  139.8979  156.7377 N   0  0  0  0  0  0  0  0  0  0  0  0
  150.0697  138.8056  155.8190 C   0  0  0  0  0  0  0  0  0  0  0  0
  149.8716  139.3109  154.3797 C   0  0  0  0  0  0  0  0  0  0  0  0
  148.6405  140.1853  154.2417 C   0  0  0  0  0  0  0  0  0  0  0  0
  148.7023  141.5622  154.5506 C   0  0  0  0  0  0  0  0  0  0  0  0
  147.5437  142.3547  154.4134 C   0  0  0  0  0  0  0  0  0  0  0  0
  146.3480  141.7516  153.9725 C   0  0  0  0  0  0  0  0  0  0  0  0
  146.3264  140.4309  153.6875 N   0  3  0  0  0  0  0  0  0  0  0  0
  147.4146  139.6383  153.8042 C   0  0  0  0  0  0  0  0  0  0  0  0
  154.5414  139.8242  161.8124 H   0  0  0  0  0  0  0  0  0  0  0  0
  153.2859  141.0785  161.7262 H   0  0  0  0  0  0  0  0  0  0  0  0
  154.9668  141.4539  161.2755 H   0  0  0  0  0  0  0  0  0  0  0  0
  152.6197  142.7778  160.5335 H   0  0  0  0  0  0  0  0  0  0  0  0
  154.2213  142.9828  159.8551 H   0  0  0  0  0  0  0  0  0  0  0  0
  152.7935  144.9723  159.4417 H   0  0  0  0  0  0  0  0  0  0  0  0
  153.3856  144.2521  157.9641 H   0  0  0  0  0  0  0  0  0  0  0  0
  150.6000  143.8139  159.1581 H   0  0  0  0  0  0  0  0  0  0  0  0
  150.9730  144.8070  157.7608 H   0  0  0  0  0  0  0  0  0  0  0  0
  150.2209  142.5675  157.0382 H   0  0  0  0  0  0  0  0  0  0  0  0
  151.8702  142.8621  156.5507 H   0  0  0  0  0  0  0  0  0  0  0  0
  150.9451  141.2224  158.9538 H   0  0  0  0  0  0  0  0  0  0  0  0
  149.5784  140.4308  157.0828 H   0  0  0  0  0  0  0  0  0  0  0  0
  150.8680  138.0625  155.8616 H   0  0  0  0  0  0  0  0  0  0  0  0
  149.1637  138.3082  156.1665 H   0  0  0  0  0  0  0  0  0  0  0  0
  150.7504  139.8714  154.0578 H   0  0  0  0  0  0  0  0  0  0  0  0
  149.7752  138.4705  153.6909 H   0  0  0  0  0  0  0  0  0  0  0  0
  149.6277  142.0070  154.8873 H   0  0  0  0  0  0  0  0  0  0  0  0
  147.5724  143.4097  154.6441 H   0  0  0  0  0  0  0  0  0  0  0  0
  145.4156  142.2813  153.8401 H   0  0  0  0  0  0  0  0  0  0  0  0
  147.2709  138.5990  153.5460 H   0  0  0  0  0  0  0  0  0  0  0  0
  145.4506  140.0140  153.3707 H   0  0  0  0  0  0  0  0  0  0  0  0
  1  2  1  0  0  0  0
  1 22  1  0  0  0  0
  1 23  1  0  0  0  0
  1 24  1  0  0  0  0
  2  3  2  0  0  0  0
  2  4  2  0  0  0  0
  2  5  1  0  0  0  0
  5 10  1  0  0  0  0
  5  6  1  0  0  0  0
  6  7  1  0  0  0  0
  6 25  1  0  0  0  0
  6 26  1  0  0  0  0
  7  8  1  0  0  0  0
  7 27  1  0  0  0  0
  7 28  1  0  0  0  0
  8  9  1  0  0  0  0
  8 29  1  0  0  0  0
  8 30  1  0  0  0  0
  9 10  1  0  0  0  0
  9 31  1  0  0  0  0
  9 32  1  0  0  0  0
 10 11  1  0  0  0  0
 10 33  1  0  0  0  0
 11 12  2  0  0  0  0
 11 13  1  0  0  0  0
 13 14  1  0  0  0  0
 13 34  1  0  0  0  0
 14 15  1  0  0  0  0
 14 35  1  0  0  0  0
 14 36  1  0  0  0  0
 15 16  1  0  0  0  0
 15 37  1  0  0  0  0
 15 38  1  0  0  0  0
 16 21  1  0  0  0  0
 16 17  2  0  0  0  0
 17 18  1  0  0  0  0
 17 39  1  0  0  0  0
 18 19  2  0  0  0  0
 18 40  1  0  0  0  0
 19 20  1  0  0  0  0
 19 41  1  0  0  0  0
 20 21  2  0  0  0  0
 20 43  1  0  0  0  0
 21 42  1  0  0  0  0
M  CHG  1  20   1
M  END
> <s_m_source_file>
AV-unprocessed.smi

> <i_m_source_file_index>
2136

> <i_lp_mmshare_version>
43012

> <i_f3d_flags>
0

> <s_epik_input>
W0NIM11TKD1PKSg9TylOMVtDSDJdW0NIMl1bQ0gyXVtDSDJdW0NASF0xQyg9TylbTkhdW0NIMl1bQ0gyXWMyW2NIXVtjSF1bY0hdbltjSF0y

> <s_epik_cmdline>
J2VwaWtfcHl0aG9uJywgJy1waCcsICc3LjAnLCAnLXRuJywgJzgnLCAnLW1hJywgJzIwMCcsICctbWV0YWxfYmluZGluZycsICctaW1hZScsICc8aW5maWxlLm1hZT4nLCAnLW9tYWUnLCAnPG91dGZpbGUubWFlPic=

> <r_epik_Ionization_Penalty>
2.2835

> <r_epik_Ionization_Penalty_Charging>
2.2835

> <r_epik_Ionization_Penalty_Neutral>
1.35461e-07

> <r_epik_State_Penalty>
2.43297

> <r_epik_Charging_Adjusted_Penalty>
4.71647

> <i_epik_Tot_Q>
1

> <i_epik_Tot_abs_Q>
1

> <r_epik_Metal_State_Penalty>
2.44557

> <b_epik_Metal_Only>
0

> <s_lp_Force_Field>
OPLS_2005

> <r_lp_Energy>
13.1957

> <b_lp_Chiralities_Consistent>
1

> <s_lp_Variant>
AV-unprocessed.smi:2136-3

> <Gold.Version>
5.8.1

> <Gold.Id.Protein>
6NUR|6NUR_protein|mol2

> <Gold.PLP.Fitness>
50.2948

> <Gold.PLP.PLP>
-41.0460

> <Gold.PLP.part.hbond>
-3.0000

> <Gold.PLP.part.metal>
0.0000

> <Gold.PLP.part.buried>
1.3998

> <Gold.PLP.part.nonpolar>
-38.1949

> <Gold.PLP.part.repulsive>
0.0352

> <Gold.PLP.ligand.clash>
0.0000

> <Gold.PLP.ligand.torsion>
1.8142

> <Gold.PLP.Chemscore.Hbond>
3.5840

> <Gold.PLP.Chemscore.CHOScore>
0.0000

> <Gold.PLP.Chemscore.Metal>
0.0000

> <Gold.Chemscore.Hbonds>
donor molecule, donor type, donor heavy atom, donor atom, acceptor molecule, acceptor atom, score
      L1  H    20    43       P1 10175  1.65
      P1  H  7997  8008       L1     3  0.72
      P1  H  7997  8009       L1    12  0.88

> <Gold.PLP.Chemscore.Internal.Correction>
2.1251

> <Gold.Rescore>
     Score         DG    S(hbond)    S(metal)    S(lipo)     H(rot)  DE(clash)    DE(int)     intcor
     16.53     -22.81       2.65        0.00     108.79       1.65       1.23       5.05       ----

> <Gold.Chemscore.Fitness>
16.5340

> <Gold.Chemscore.DG>
-22.8117

> <Gold.Chemscore.ZeroCoef>
-5.4800

> <Gold.Chemscore.Hbond>
2.6459

> <Gold.Chemscore.Metal>
0.0000

> <Gold.Chemscore.Lipo>
108.7865

> <Gold.Chemscore.Internal_Hbond>
0.0000

> <Gold.Chemscore.DEClash>
1.2311

> <Gold.Chemscore.DEInternal>
5.0466

> <Gold.Chemscore.Rot>
1.6538

> <Gold.Chemscore.Internal.Correction>
   9.000000E+99

> <Gold.Chemscore.Hbonds>
donor molecule, donor type, donor heavy atom, donor atom, acceptor molecule, acceptor atom, score
      L1  H    20    43       P1 10175  0.77
      P1  H  7997  8008       L1     3  0.69
      P1  H  7997  8009       L1    12  0.86

> <Gold.Chemscore.Hbond.Weighted>
-8.8373

> <Gold.Chemscore.Metal.Weighted>
-0.0000

> <Gold.Chemscore.Lipo.Weighted>
-12.7280

> <Gold.Chemscore.Internal_Hbond.Weighted>
0.0000

> <Gold.Chemscore.DEClash.Weighted>
1.2311

> <Gold.Chemscore.DEInternal.Weighted>
5.0466

> <Gold.Chemscore.Rot.Weighted>
4.2337

> <Gold.Chemscore.Internal.Correction.Weighted>
   9.000000E+99

> <Gold.Protein.RotatedTorsions>
[ 6907 6896 6895 6894 ] final  109.52 input  -60.11 | X-H torsion
[ 7974 7965 7964 7962 ] final  146.17 input  175.53 | X-H torsion
[ 8008 7997 7996 7995 ] final -150.43 input   59.86 | X-H torsion
[ 10167 10162 10161 10158 ] final  173.70 input  -65.29 | X-H torsion
[ 10718 10713 10712 10709 ] final -167.59 input   66.30 | X-H torsion
[ 10763 10752 10751 10750 ] final  -88.87 input  -60.55 | X-H torsion
[ 11005 11000 10999 10996 ] final   28.90 input  -57.11 | X-H torsion

> <Gold.Protein.ActiveResidues>
 VAL166  LYS551  ARG553  GLY616  TRP617  ASP618  TYR619  PRO620  LYS621  CYS622 
 ASP623  PHE694  ASN695  SER759  ASP760  ASP761  ALA762  ILE779  LEU786  VAL792 
 PHE793  MET794  SER795  GLU796  ALA797  LYS798  CYS799  TRP800  GLU811  SER814 

> <Gold.Protein.RotatedAtoms>
  152.5063  133.8932  159.7403 H   0  0  0  0  0  0  0  0  0  0  0  0  # atno 6907 bound_to 6896
  150.9365  133.6697  159.2806 H   0  0  0  0  0  0  0  0  0  0  0  0  # atno 6908 bound_to 6896
  151.4023  135.0977  159.9612 H   0  0  0  0  0  0  0  0  0  0  0  0  # atno 6909 bound_to 6896
  144.8693  139.5872  143.5894 H   0  0  0  0  0  0  0  0  0  0  0  0  # atno 7974 bound_to 7965
  155.6235  140.0684  157.2671 H   0  0  0  0  0  0  0  0  0  0  0  0  # atno 8008 bound_to 7997
  154.4223  140.1780  156.1445 H   0  0  0  0  0  0  0  0  0  0  0  0  # atno 8009 bound_to 7997
  155.9991  140.3338  155.6831 H   0  0  0  0  0  0  0  0  0  0  0  0  # atno 8010 bound_to 7997
  139.5117  144.3231  152.0184 H   0  0  0  0  0  0  0  0  0  0  0  0  # atno 10167 bound_to 10162
  156.6846  130.9135  151.3061 H   0  0  0  0  0  0  0  0  0  0  0  0  # atno 10718 bound_to 10713
  154.6492  135.5361  153.7881 H   0  0  0  0  0  0  0  0  0  0  0  0  # atno 10763 bound_to 10752
  153.0376  135.6478  154.1043 H   0  0  0  0  0  0  0  0  0  0  0  0  # atno 10764 bound_to 10752
  154.0962  135.2936  155.3241 H   0  0  0  0  0  0  0  0  0  0  0  0  # atno 10765 bound_to 10752
  140.3106  134.2653  155.7735 H   0  0  0  0  0  0  0  0  0  0  0  0  # atno 11005 bound_to 11000
  146.2918  139.7163  142.9155 LP  0  0  0  0  0  0  0  0  0  0  0  0  # atno 17320 bound_to 7965
  145.4161  141.0402  143.2990 LP  0  0  0  0  0  0  0  0  0  0  0  0  # atno 17321 bound_to 7965
  140.2672  144.4003  150.6164 LP  0  0  0  0  0  0  0  0  0  0  0  0  # atno 17342 bound_to 10162
  140.6114  143.2170  151.6877 LP  0  0  0  0  0  0  0  0  0  0  0  0  # atno 17343 bound_to 10162
  157.7031  130.9355  150.0846 LP  0  0  0  0  0  0  0  0  0  0  0  0  # atno 17370 bound_to 10713
  156.1842  130.3651  149.8995 LP  0  0  0  0  0  0  0  0  0  0  0  0  # atno 17371 bound_to 10713
  141.2109  133.7706  156.9902 LP  0  0  0  0  0  0  0  0  0  0  0  0  # atno 17394 bound_to 11000
  140.1028  134.9525  157.1948 LP  0  0  0  0  0  0  0  0  0  0  0  0  # atno 17395 bound_to 11000

$$$$
