AV-unprocessed.smi:1401|AV-procd|sdf|5691|dock2
  -GOLD-   22720 5313D 1   1.00000     0.00000
 Structure written by MMmdl.
 48 50  0  0  0  0  0  0  0  0  1 V2000
  149.8828  134.1182  155.6806 C   0  0  0  0  0  0  0  0  0  0  0  0
  150.0408  135.2096  156.7047 C   0  0  0  0  0  0  0  0  0  0  0  0
  151.1271  135.9078  156.6471 N   0  0  0  0  0  0  0  0  0  0  0  0
  151.3733  136.9296  157.5436 N   0  0  0  0  0  0  0  0  0  0  0  0
  152.6649  137.6038  157.3486 C   0  0  0  0  0  0  0  0  0  0  0  0
  152.5154  139.0288  156.7980 C   0  0  0  0  0  0  0  0  0  0  0  0
  152.7970  139.2787  155.6253 O   0  0  0  0  0  0  0  0  0  0  0  0
  152.0544  139.9476  157.6600 N   0  0  0  0  0  0  0  0  0  0  0  0
  151.8664  141.3687  157.3731 C   0  0  1  0  0  0  0  0  0  0  0  0
  150.7606  141.5163  156.3135 C   0  0  0  0  0  0  0  0  0  0  0  0
  151.5476  142.1211  158.6887 C   0  0  1  0  0  0  0  0  0  0  0  0
  152.6715  142.0219  159.7523 C   0  0  0  0  0  0  0  0  0  0  0  0
  152.9492  143.4908  160.1152 C   0  0  2  0  0  0  0  0  0  0  0  0
  151.7485  144.0687  160.8862 C   0  0  0  0  0  0  0  0  0  0  0  0
  150.6789  144.2107  159.7875 C   0  0  0  0  0  0  0  0  0  0  0  0
  151.3953  143.6565  158.5407 C   0  0  1  0  0  0  0  0  0  0  0  0
  152.8159  144.1685  158.7586 C   0  0  0  0  0  0  0  0  0  0  0  0
  150.5238  137.3090  158.5419 C   0  0  0  0  0  0  0  0  0  0  0  0
  150.7803  138.2343  159.3143 O   0  0  0  0  0  0  0  0  0  0  0  0
  149.2957  136.5135  158.6009 C   0  0  0  0  0  0  0  0  0  0  0  0
  148.3819  136.8735  159.6365 C   0  0  0  0  0  0  0  0  0  0  0  0
  147.6257  137.1682  160.4621 N   0  0  0  0  0  0  0  0  0  0  0  0
  149.0457  135.5029  157.7313 C   0  0  0  0  0  0  0  0  0  0  0  0
  147.7869  134.6468  157.7508 C   0  0  0  0  0  0  0  0  0  0  0  0
  148.9884  134.2787  155.0788 H   0  0  0  0  0  0  0  0  0  0  0  0
  149.7961  133.1451  156.1640 H   0  0  0  0  0  0  0  0  0  0  0  0
  150.7335  134.0720  154.9992 H   0  0  0  0  0  0  0  0  0  0  0  0
  153.2111  137.6627  158.2918 H   0  0  0  0  0  0  0  0  0  0  0  0
  153.2945  137.0102  156.6826 H   0  0  0  0  0  0  0  0  0  0  0  0
  151.8431  139.6457  158.6000 H   0  0  0  0  0  0  0  0  0  0  0  0
  152.7901  141.7787  156.9613 H   0  0  0  0  0  0  0  0  0  0  0  0
  150.6345  142.5515  155.9993 H   0  0  0  0  0  0  0  0  0  0  0  0
  149.8002  141.1629  156.6901 H   0  0  0  0  0  0  0  0  0  0  0  0
  150.9973  140.9398  155.4184 H   0  0  0  0  0  0  0  0  0  0  0  0
  150.6262  141.7032  159.0979 H   0  0  0  0  0  0  0  0  0  0  0  0
  152.3724  141.4291  160.6172 H   0  0  0  0  0  0  0  0  0  0  0  0
  153.5760  141.5700  159.3420 H   0  0  0  0  0  0  0  0  0  0  0  0
  153.9064  143.6434  160.6148 H   0  0  0  0  0  0  0  0  0  0  0  0
  151.4274  143.4157  161.6986 H   0  0  0  0  0  0  0  0  0  0  0  0
  151.9908  145.0425  161.3137 H   0  0  0  0  0  0  0  0  0  0  0  0
  149.7633  143.6664  160.0217 H   0  0  0  0  0  0  0  0  0  0  0  0
  150.4146  145.2595  159.6462 H   0  0  0  0  0  0  0  0  0  0  0  0
  150.9332  143.9833  157.6102 H   0  0  0  0  0  0  0  0  0  0  0  0
  152.8808  145.2568  158.8110 H   0  0  0  0  0  0  0  0  0  0  0  0
  153.5314  143.8043  158.0197 H   0  0  0  0  0  0  0  0  0  0  0  0
  147.1048  134.9323  158.5513 H   0  0  0  0  0  0  0  0  0  0  0  0
  148.0407  133.5964  157.8970 H   0  0  0  0  0  0  0  0  0  0  0  0
  147.2446  134.7424  156.8096 H   0  0  0  0  0  0  0  0  0  0  0  0
  1  2  1  0  0  0  0
  1 25  1  0  0  0  0
  1 26  1  0  0  0  0
  1 27  1  0  0  0  0
  2 23  1  0  0  0  0
  2  3  2  0  0  0  0
  3  4  1  0  0  0  0
  4  5  1  0  0  0  0
  4 18  1  0  0  0  0
  5  6  1  0  0  0  0
  5 28  1  0  0  0  0
  5 29  1  0  0  0  0
  6  7  2  0  0  0  0
  6  8  1  0  0  0  0
  8  9  1  0  0  0  0
  8 30  1  0  0  0  0
  9 10  1  0  0  0  0
  9 11  1  0  0  0  0
  9 31  1  0  0  0  0
 10 32  1  0  0  0  0
 10 33  1  0  0  0  0
 10 34  1  0  0  0  0
 11 16  1  0  0  0  0
 11 12  1  0  0  0  0
 11 35  1  0  0  0  0
 12 13  1  0  0  0  0
 12 36  1  0  0  0  0
 12 37  1  0  0  0  0
 13 17  1  0  0  0  0
 13 14  1  0  0  0  0
 13 38  1  0  0  0  0
 14 15  1  0  0  0  0
 14 39  1  0  0  0  0
 14 40  1  0  0  0  0
 15 16  1  0  0  0  0
 15 41  1  0  0  0  0
 15 42  1  0  0  0  0
 16 17  1  0  0  0  0
 16 43  1  0  0  0  0
 17 44  1  0  0  0  0
 17 45  1  0  0  0  0
 18 19  2  0  0  0  0
 18 20  1  0  0  0  0
 20 21  1  0  0  0  0
 20 23  2  0  0  0  0
 21 22  3  0  0  0  0
 23 24  1  0  0  0  0
 24 46  1  0  0  0  0
 24 47  1  0  0  0  0
 24 48  1  0  0  0  0
M  END
> <s_m_source_file>
AV-unprocessed.smi

> <i_m_source_file_index>
1401

> <i_lp_mmshare_version>
43012

> <i_f3d_flags>
0

> <s_epik_input>
TiNDYyhjMVtDSDNdKWMoPU8pbihuYzFbQ0gzXSlbQ0gyXUMoPU8pW05IXVtDQEhdKFtDSDNdKVtDQEhdKFtDSDJdW0NASF0yMylbQ0BIXShbQ0gyXTMpW0NIMl1bQ0gyXTI=

> <s_epik_cmdline>
J2VwaWtfcHl0aG9uJywgJy1waCcsICc3LjAnLCAnLXRuJywgJzgnLCAnLW1hJywgJzIwMCcsICctbWV0YWxfYmluZGluZycsICctaW1hZScsICc8aW5maWxlLm1hZT4nLCAnLW9tYWUnLCAnPG91dGZpbGUubWFlPic=

> <r_lp_tautomer_probability>
1

> <r_epik_Ionization_Penalty>
2.16501e-08

> <r_epik_Ionization_Penalty_Charging>
2.29436e-11

> <r_epik_Ionization_Penalty_Neutral>
2.16271e-08

> <r_epik_State_Penalty>
-0

> <r_epik_Charging_Adjusted_Penalty>
2.29436e-11

> <i_epik_Tot_Q>
0

> <i_epik_Tot_abs_Q>
0

> <r_epik_Metal_State_Penalty>
-0

> <b_epik_Metal_Only>
0

> <s_lp_Force_Field>
OPLS_2005

> <r_lp_Energy>
65.5995

> <b_lp_Chiralities_Consistent>
1

> <s_lp_Variant>
AV-unprocessed.smi:1401-4

> <Gold.Version>
5.8.1

> <Gold.Id.Protein>
6NUR|6NUR_protein|mol2

> <Gold.PLP.Fitness>
47.8222

> <Gold.PLP.PLP>
-40.6895

> <Gold.PLP.part.hbond>
-3.8332

> <Gold.PLP.part.metal>
0.0000

> <Gold.PLP.part.buried>
-5.8360

> <Gold.PLP.part.nonpolar>
-31.2597

> <Gold.PLP.part.repulsive>
0.0808

> <Gold.PLP.ligand.clash>
0.0000

> <Gold.PLP.ligand.torsion>
0.3254

> <Gold.PLP.Chemscore.Hbond>
2.5870

> <Gold.PLP.Chemscore.CHOScore>
0.0000

> <Gold.PLP.Chemscore.Metal>
0.0000

> <Gold.Chemscore.Hbonds>
donor molecule, donor type, donor heavy atom, donor atom, acceptor molecule, acceptor atom, score
      P1  H  6931  6943       L1    22  0.27
      P1  H  6934  6947       L1    22  0.96
      P1  H  7997  8009       L1     7  0.99

> <Gold.PLP.Chemscore.Internal.Correction>
0.0224

> <Gold.Rescore>
     Score         DG    S(hbond)    S(metal)    S(lipo)     H(rot)  DE(clash)    DE(int)     intcor
     18.04     -20.17       1.73        0.00     111.80       1.63       0.27       1.85       ----

> <Gold.Chemscore.Fitness>
18.0404

> <Gold.Chemscore.DG>
-20.1659

> <Gold.Chemscore.ZeroCoef>
-5.4800

> <Gold.Chemscore.Hbond>
1.7285

> <Gold.Chemscore.Metal>
0.0000

> <Gold.Chemscore.Lipo>
111.8001

> <Gold.Chemscore.Internal_Hbond>
0.0000

> <Gold.Chemscore.DEClash>
0.2729

> <Gold.Chemscore.DEInternal>
1.8527

> <Gold.Chemscore.Rot>
1.6281

> <Gold.Chemscore.Internal.Correction>
   9.000000E+99

> <Gold.Chemscore.Hbonds>
donor molecule, donor type, donor heavy atom, donor atom, acceptor molecule, acceptor atom, score
      P1  H  6931  6943       L1    22  0.06
      P1  H  6934  6947       L1    22  0.90
      P1  H  7997  8009       L1     7  0.28

> <Gold.Chemscore.Hbond.Weighted>
-5.7732

> <Gold.Chemscore.Metal.Weighted>
-0.0000

> <Gold.Chemscore.Lipo.Weighted>
-13.0806

> <Gold.Chemscore.Internal_Hbond.Weighted>
0.0000

> <Gold.Chemscore.DEClash.Weighted>
0.2729

> <Gold.Chemscore.DEInternal.Weighted>
1.8527

> <Gold.Chemscore.Rot.Weighted>
4.1678

> <Gold.Chemscore.Internal.Correction.Weighted>
   9.000000E+99

> <Gold.Protein.RotatedTorsions>
[ 6907 6896 6895 6894 ] final  170.59 input  -60.11 | X-H torsion
[ 7974 7965 7964 7962 ] final -166.04 input  175.53 | X-H torsion
[ 8008 7997 7996 7995 ] final -129.63 input   59.86 | X-H torsion
[ 10167 10162 10161 10158 ] final -106.94 input  -65.29 | X-H torsion
[ 10718 10713 10712 10709 ] final -130.04 input   66.30 | X-H torsion
[ 10763 10752 10751 10750 ] final   99.34 input  -60.55 | X-H torsion
[ 11005 11000 10999 10996 ] final  144.94 input  -57.11 | X-H torsion

> <Gold.Protein.ActiveResidues>
 VAL166  LYS551  ARG553  GLY616  TRP617  ASP618  TYR619  PRO620  LYS621  CYS622 
 ASP623  PHE694  ASN695  SER759  ASP760  ASP761  ALA762  ILE779  LEU786  VAL792 
 PHE793  MET794  SER795  GLU796  ALA797  LYS798  CYS799  TRP800  GLU811  SER814 

> <Gold.Protein.RotatedAtoms>
  151.8137  133.3385  159.3562 H   0  0  0  0  0  0  0  0  0  0  0  0  # atno 6907 bound_to 6896
  150.7317  134.5639  159.5865 H   0  0  0  0  0  0  0  0  0  0  0  0  # atno 6908 bound_to 6896
  152.3056  134.7560  160.0399 H   0  0  0  0  0  0  0  0  0  0  0  0  # atno 6909 bound_to 6896
  144.7255  140.2725  143.6248 H   0  0  0  0  0  0  0  0  0  0  0  0  # atno 7974 bound_to 7965
  155.2825  140.0444  157.3016 H   0  0  0  0  0  0  0  0  0  0  0  0  # atno 8008 bound_to 7997
  154.5588  140.2340  155.8335 H   0  0  0  0  0  0  0  0  0  0  0  0  # atno 8009 bound_to 7997
  156.2030  140.3020  155.9574 H   0  0  0  0  0  0  0  0  0  0  0  0  # atno 8010 bound_to 7997
  140.1823  143.3957  152.1272 H   0  0  0  0  0  0  0  0  0  0  0  0  # atno 10167 bound_to 10162
  156.2106  130.6916  151.0645 H   0  0  0  0  0  0  0  0  0  0  0  0  # atno 10718 bound_to 10713
  153.3002  135.4117  155.1245 H   0  0  0  0  0  0  0  0  0  0  0  0  # atno 10763 bound_to 10752
  154.8547  135.3539  154.5862 H   0  0  0  0  0  0  0  0  0  0  0  0  # atno 10764 bound_to 10752
  153.6287  135.7061  153.5341 H   0  0  0  0  0  0  0  0  0  0  0  0  # atno 10765 bound_to 10752
  140.0672  134.9172  157.1284 H   0  0  0  0  0  0  0  0  0  0  0  0  # atno 11005 bound_to 11000
  145.8028  139.1971  143.2038 LP  0  0  0  0  0  0  0  0  0  0  0  0  # atno 17320 bound_to 7965
  146.0662  140.7918  142.9710 LP  0  0  0  0  0  0  0  0  0  0  0  0  # atno 17321 bound_to 7965
  139.5291  144.7138  151.5121 LP  0  0  0  0  0  0  0  0  0  0  0  0  # atno 17342 bound_to 10162
  140.6511  143.8694  150.6787 LP  0  0  0  0  0  0  0  0  0  0  0  0  # atno 17343 bound_to 10162
  157.7036  131.0766  150.6740 LP  0  0  0  0  0  0  0  0  0  0  0  0  # atno 17370 bound_to 10713
  156.6799  130.4564  149.5631 LP  0  0  0  0  0  0  0  0  0  0  0  0  # atno 17371 bound_to 10713
  140.3681  134.2420  155.7180 LP  0  0  0  0  0  0  0  0  0  0  0  0  # atno 17394 bound_to 11000
  141.1997  133.8004  157.0522 LP  0  0  0  0  0  0  0  0  0  0  0  0  # atno 17395 bound_to 11000

$$$$
