AV-unprocessed.smi:119|AV-procd|sdf|1136|dock7
  -GOLD-   2262018263D 1   1.00000     0.00000
 Structure written by MMmdl.
 51 54  0  0  0  0  0  0  0  0  1 V2000
  155.2646  139.4371  160.2200 C   0  0  0  0  0  0  0  0  0  0  0  0
  154.2981  140.2276  159.3286 C   0  0  1  0  0  0  0  0  0  0  0  0
  153.4929  139.2875  158.4128 C   0  0  0  0  0  0  0  0  0  0  0  0
  152.6979  140.0035  157.3053 C   0  0  0  0  0  0  0  0  0  0  0  0
  151.5365  140.7405  157.8209 N   0  0  0  0  0  0  0  0  0  0  0  0
  150.3096  140.1825  157.9949 C   0  0  0  0  0  0  0  0  0  0  0  0
  149.3650  140.8187  158.4700 O   0  0  0  0  0  0  0  0  0  0  0  0
  150.0843  138.7089  157.5879 C   0  0  0  0  0  0  0  0  0  0  0  0
  148.8207  138.1375  158.1052 N   0  0  0  0  0  0  0  0  0  0  0  0
  147.6015  138.5421  157.5089 C   0  0  0  0  0  0  0  0  0  0  0  0
  147.5819  139.3554  156.5836 O   0  0  0  0  0  0  0  0  0  0  0  0
  146.3991  137.9304  158.0609 C   0  0  0  0  0  0  0  0  0  0  0  0
  145.1953  138.2688  157.5681 F   0  0  0  0  0  0  0  0  0  0  0  0
  146.4716  137.0320  159.0649 C   0  0  0  0  0  0  0  0  0  0  0  0
  147.6706  136.6346  159.6332 N   0  0  0  0  0  0  0  0  0  0  0  0
  147.7643  135.5950  160.7332 C   0  0  1  0  0  0  0  0  0  0  0  0
  148.1917  136.1163  162.1081 C   0  0  0  0  0  0  0  0  0  0  0  0
  147.6618  135.0028  162.9810 C   0  0  0  0  0  0  0  0  0  0  0  0
  146.3287  134.6920  162.3005 C   0  0  0  0  0  0  0  0  0  0  0  0
  146.4977  135.0399  160.9266 O   0  0  0  0  0  0  0  0  0  0  0  0
  148.8793  137.1867  159.1520 C   0  0  0  0  0  0  0  0  0  0  0  0
  149.9616  136.8433  159.6332 O   0  0  0  0  0  0  0  0  0  0  0  0
  151.7502  142.1058  158.1553 C   0  0  0  0  0  0  0  0  0  0  0  0
  151.1886  143.1133  157.3385 C   0  0  0  0  0  0  0  0  0  0  0  0
  151.3857  144.4721  157.6487 C   0  0  0  0  0  0  0  0  0  0  0  0
  152.1457  144.8330  158.7771 C   0  0  0  0  0  0  0  0  0  0  0  0
  152.7082  143.8349  159.5949 C   0  0  0  0  0  0  0  0  0  0  0  0
  152.5183  142.4728  159.2874 C   0  0  0  0  0  0  0  0  0  0  0  0
  153.2209  141.2596  160.3630 S   0  0  0  0  0  0  0  0  0  0  0  0
  155.9678  138.8569  159.6218 H   0  0  0  0  0  0  0  0  0  0  0  0
  154.7279  138.7451  160.8698 H   0  0  0  0  0  0  0  0  0  0  0  0
  155.8481  140.1055  160.8540 H   0  0  0  0  0  0  0  0  0  0  0  0
  154.8930  140.9003  158.7097 H   0  0  0  0  0  0  0  0  0  0  0  0
  154.1894  138.6043  157.9257 H   0  0  0  0  0  0  0  0  0  0  0  0
  152.8369  138.6585  159.0150 H   0  0  0  0  0  0  0  0  0  0  0  0
  153.3573  140.6975  156.7818 H   0  0  0  0  0  0  0  0  0  0  0  0
  152.4018  139.2869  156.5400 H   0  0  0  0  0  0  0  0  0  0  0  0
  150.1163  138.6386  156.5002 H   0  0  0  0  0  0  0  0  0  0  0  0
  150.9269  138.1033  157.9205 H   0  0  0  0  0  0  0  0  0  0  0  0
  145.5348  136.6391  159.4235 H   0  0  0  0  0  0  0  0  0  0  0  0
  148.4564  134.8372  160.3597 H   0  0  0  0  0  0  0  0  0  0  0  0
  149.2697  136.2667  162.1694 H   0  0  0  0  0  0  0  0  0  0  0  0
  147.6634  137.0330  162.3679 H   0  0  0  0  0  0  0  0  0  0  0  0
  148.3244  134.1376  162.9320 H   0  0  0  0  0  0  0  0  0  0  0  0
  147.5501  135.2910  164.0267 H   0  0  0  0  0  0  0  0  0  0  0  0
  146.0438  133.6456  162.4131 H   0  0  0  0  0  0  0  0  0  0  0  0
  145.5305  135.3074  162.7173 H   0  0  0  0  0  0  0  0  0  0  0  0
  150.6030  142.8447  156.4711 H   0  0  0  0  0  0  0  0  0  0  0  0
  150.9518  145.2373  157.0219 H   0  0  0  0  0  0  0  0  0  0  0  0
  152.2951  145.8753  159.0168 H   0  0  0  0  0  0  0  0  0  0  0  0
  153.2865  144.1182  160.4623 H   0  0  0  0  0  0  0  0  0  0  0  0
  1  2  1  0  0  0  0
  1 30  1  0  0  0  0
  1 31  1  0  0  0  0
  1 32  1  0  0  0  0
  2 29  1  0  0  0  0
  2  3  1  0  0  0  0
  2 33  1  0  0  0  0
  3  4  1  0  0  0  0
  3 34  1  0  0  0  0
  3 35  1  0  0  0  0
  4  5  1  0  0  0  0
  4 36  1  0  0  0  0
  4 37  1  0  0  0  0
  5  6  1  0  0  0  0
  5 23  1  0  0  0  0
  6  7  2  0  0  0  0
  6  8  1  0  0  0  0
  8  9  1  0  0  0  0
  8 38  1  0  0  0  0
  8 39  1  0  0  0  0
  9 21  1  0  0  0  0
  9 10  1  0  0  0  0
 10 11  2  0  0  0  0
 10 12  1  0  0  0  0
 12 13  1  0  0  0  0
 12 14  2  0  0  0  0
 14 15  1  0  0  0  0
 14 40  1  0  0  0  0
 15 16  1  0  0  0  0
 15 21  1  0  0  0  0
 16 20  1  0  0  0  0
 16 17  1  0  0  0  0
 16 41  1  0  0  0  0
 17 18  1  0  0  0  0
 17 42  1  0  0  0  0
 17 43  1  0  0  0  0
 18 19  1  0  0  0  0
 18 44  1  0  0  0  0
 18 45  1  0  0  0  0
 19 20  1  0  0  0  0
 19 46  1  0  0  0  0
 19 47  1  0  0  0  0
 21 22  2  0  0  0  0
 23 28  2  0  0  0  0
 23 24  1  0  0  0  0
 24 25  2  0  0  0  0
 24 48  1  0  0  0  0
 25 26  1  0  0  0  0
 25 49  1  0  0  0  0
 26 27  2  0  0  0  0
 26 50  1  0  0  0  0
 27 28  1  0  0  0  0
 27 51  1  0  0  0  0
 28 29  1  0  0  0  0
M  END
> <s_m_source_file>
AV-unprocessed.smi

> <i_m_source_file_index>
119

> <i_lp_mmshare_version>
43012

> <i_f3d_flags>
0

> <s_epik_input>
W2NIXTFbY0hdW2NIXVtjSF1jKGMxMilTW0NASF0oW0NIM10pW0NIMl1bQ0gyXU4yQyg9TylbQ0gyXW4zYyg9TyljKEYpW2NIXW4oYzM9TylbQ0BASF00W0NIMl1bQ0gyXVtDSDJdTzQ=

> <s_epik_cmdline>
J2VwaWtfcHl0aG9uJywgJy1waCcsICc3LjAnLCAnLXRuJywgJzgnLCAnLW1hJywgJzIwMCcsICctbWV0YWxfYmluZGluZycsICctaW1hZScsICc8aW5maWxlLm1hZT4nLCAnLW9tYWUnLCAnPG91dGZpbGUubWFlPic=

> <r_lp_tautomer_probability>
1

> <r_epik_Ionization_Penalty>
1.68882e-06

> <r_epik_Ionization_Penalty_Charging>
3.67303e-09

> <r_epik_Ionization_Penalty_Neutral>
1.68515e-06

> <r_epik_State_Penalty>
-0

> <r_epik_Charging_Adjusted_Penalty>
3.67303e-09

> <i_epik_Tot_Q>
0

> <i_epik_Tot_abs_Q>
0

> <r_epik_Metal_State_Penalty>
-0

> <b_epik_Metal_Only>
0

> <s_epik_Chemistry_Notes>
This compound contains an acetal/aminal-like group ( X-CH(R)-Y where X, Y are N, S, or O) that may be acid/base labile, releasing an aldehyde.

> <s_lp_Force_Field>
OPLS_2005

> <r_lp_Energy>
51.7973

> <b_lp_Chiralities_Consistent>
1

> <s_lp_Variant>
AV-unprocessed.smi:119-4

> <Gold.Version>
5.8.1

> <Gold.Id.Protein>
6NUR|6NUR_protein|mol2

> <Gold.PLP.Fitness>
52.3278

> <Gold.PLP.PLP>
-50.8519

> <Gold.PLP.part.hbond>
-1.5967

> <Gold.PLP.part.metal>
0.0000

> <Gold.PLP.part.buried>
-1.6500

> <Gold.PLP.part.nonpolar>
-46.7101

> <Gold.PLP.part.repulsive>
0.0025

> <Gold.PLP.ligand.clash>
0.0000

> <Gold.PLP.ligand.torsion>
0.4388

> <Gold.PLP.Chemscore.Hbond>
0.7800

> <Gold.PLP.Chemscore.CHOScore>
0.0000

> <Gold.PLP.Chemscore.Metal>
0.0000

> <Gold.Chemscore.Hbonds>
donor molecule, donor type, donor heavy atom, donor atom, acceptor molecule, acceptor atom, score
      P1  H  6896  6907       L1    22  0.78

> <Gold.PLP.Chemscore.Internal.Correction>
0.0134

> <Gold.Rescore>
     Score         DG    S(hbond)    S(metal)    S(lipo)     H(rot)  DE(clash)    DE(int)     intcor
     18.72     -20.43       0.92        0.00     135.02       1.53       1.34       0.38       ----

> <Gold.Chemscore.Fitness>
18.7154

> <Gold.Chemscore.DG>
-20.4346

> <Gold.Chemscore.ZeroCoef>
-5.4800

> <Gold.Chemscore.Hbond>
0.9177

> <Gold.Chemscore.Metal>
0.0000

> <Gold.Chemscore.Lipo>
135.0202

> <Gold.Chemscore.Internal_Hbond>
0.0000

> <Gold.Chemscore.DEClash>
1.3397

> <Gold.Chemscore.DEInternal>
0.3794

> <Gold.Chemscore.Rot>
1.5266

> <Gold.Chemscore.Internal.Correction>
   9.000000E+99

> <Gold.Chemscore.Hbonds>
donor molecule, donor type, donor heavy atom, donor atom, acceptor molecule, acceptor atom, score
      P1  H  6896  6907       L1    22  0.77

> <Gold.Chemscore.Hbond.Weighted>
-3.0653

> <Gold.Chemscore.Metal.Weighted>
-0.0000

> <Gold.Chemscore.Lipo.Weighted>
-15.7974

> <Gold.Chemscore.Internal_Hbond.Weighted>
0.0000

> <Gold.Chemscore.DEClash.Weighted>
1.3397

> <Gold.Chemscore.DEInternal.Weighted>
0.3794

> <Gold.Chemscore.Rot.Weighted>
3.9081

> <Gold.Chemscore.Internal.Correction.Weighted>
   9.000000E+99

> <Gold.Protein.RotatedTorsions>
[ 6907 6896 6895 6894 ] final  -40.89 input  -60.11 | X-H torsion
[ 7974 7965 7964 7962 ] final -148.19 input  175.53 | X-H torsion
[ 8008 7997 7996 7995 ] final  118.99 input   59.86 | X-H torsion
[ 10167 10162 10161 10158 ] final  -97.76 input  -65.29 | X-H torsion
[ 10718 10713 10712 10709 ] final   84.99 input   66.30 | X-H torsion
[ 10763 10752 10751 10750 ] final   -0.70 input  -60.55 | X-H torsion
[ 11005 11000 10999 10996 ] final  -66.01 input  -57.11 | X-H torsion

> <Gold.Protein.ActiveResidues>
 VAL166  LYS551  ARG553  GLY616  TRP617  ASP618  TYR619  PRO620  LYS621  CYS622 
 ASP623  PHE694  ASN695  SER759  ASP760  ASP761  ALA762  ILE779  LEU786  VAL792 
 PHE793  MET794  SER795  GLU796  ALA797  LYS798  CYS799  TRP800  GLU811  SER814 

> <Gold.Protein.RotatedAtoms>
  150.9731  134.9100  159.7799 H   0  0  0  0  0  0  0  0  0  0  0  0  # atno 6907 bound_to 6896
  152.5197  134.3513  159.9262 H   0  0  0  0  0  0  0  0  0  0  0  0  # atno 6908 bound_to 6896
  151.3522  133.3880  159.2716 H   0  0  0  0  0  0  0  0  0  0  0  0  # atno 6909 bound_to 6896
  144.8045  140.5229  143.5684 H   0  0  0  0  0  0  0  0  0  0  0  0  # atno 7974 bound_to 7965
  156.2574  140.2862  156.0922 H   0  0  0  0  0  0  0  0  0  0  0  0  # atno 8008 bound_to 7997
  155.1450  140.0396  157.2825 H   0  0  0  0  0  0  0  0  0  0  0  0  # atno 8009 bound_to 7997
  154.6502  140.2543  155.7229 H   0  0  0  0  0  0  0  0  0  0  0  0  # atno 8010 bound_to 7997
  140.2800  143.3288  152.0450 H   0  0  0  0  0  0  0  0  0  0  0  0  # atno 10167 bound_to 10162
  157.6907  131.0156  150.2755 H   0  0  0  0  0  0  0  0  0  0  0  0  # atno 10718 bound_to 10713
  153.3353  135.6977  153.6913 H   0  0  0  0  0  0  0  0  0  0  0  0  # atno 10763 bound_to 10752
  153.5699  135.3518  155.2834 H   0  0  0  0  0  0  0  0  0  0  0  0  # atno 10764 bound_to 10752
  154.8626  135.4269  154.2552 H   0  0  0  0  0  0  0  0  0  0  0  0  # atno 10765 bound_to 10752
  141.1470  133.6691  156.6074 H   0  0  0  0  0  0  0  0  0  0  0  0  # atno 11005 bound_to 11000
  145.5471  139.1476  143.3414 LP  0  0  0  0  0  0  0  0  0  0  0  0  # atno 17320 bound_to 7965
  146.2334  140.5610  142.8965 LP  0  0  0  0  0  0  0  0  0  0  0  0  # atno 17321 bound_to 7965
  139.4965  144.6598  151.6491 LP  0  0  0  0  0  0  0  0  0  0  0  0  # atno 17342 bound_to 10162
  140.5819  143.9931  150.6273 LP  0  0  0  0  0  0  0  0  0  0  0  0  # atno 17343 bound_to 10162
  156.3310  130.3800  149.7491 LP  0  0  0  0  0  0  0  0  0  0  0  0  # atno 17370 bound_to 10713
  156.5030  130.8137  151.3140 LP  0  0  0  0  0  0  0  0  0  0  0  0  # atno 17371 bound_to 10713
  140.3641  134.7662  157.4554 LP  0  0  0  0  0  0  0  0  0  0  0  0  # atno 17394 bound_to 11000
  140.0762  134.5794  155.8589 LP  0  0  0  0  0  0  0  0  0  0  0  0  # atno 17395 bound_to 11000

$$$$
