AV-unprocessed.smi:53|AV-procd|sdf|523|dock2
  -GOLD-   2262016393D 1   1.00000     0.00000
 Structure written by MMmdl.
 30 31  0  0  0  0  0  0  0  0  1 V2000
  152.6525  141.0044  159.1219 N   0  0  0  0  0  0  0  0  0  0  0  0
  151.9462  140.9576  157.9838 C   0  0  0  0  0  0  0  0  0  0  0  0
  150.7987  141.8161  157.8003 C   0  0  0  0  0  0  0  0  0  0  0  0
  150.1345  141.7070  156.6284 C   0  0  0  0  0  0  0  0  0  0  0  0
  150.5136  140.8036  155.6412 N   0  0  0  0  0  0  0  0  0  0  0  0
  149.7840  140.6868  154.3128 C   0  0  2  0  0  0  0  0  0  0  0  0
  148.9616  141.8020  154.1304 O   0  0  0  0  0  0  0  0  0  0  0  0
  147.6330  141.4895  154.5369 C   0  0  1  0  0  0  0  0  0  0  0  0
  146.6260  142.5182  153.9948 C   0  0  0  0  0  0  0  0  0  0  0  0
  145.3157  142.1541  154.3742 O   0  0  0  0  0  0  0  0  0  0  0  0
  147.4751  140.0592  154.0128 C   0  0  1  0  0  0  0  0  0  0  0  0
  147.1579  140.0676  152.6298 O   0  0  0  0  0  0  0  0  0  0  0  0
  148.8494  139.4544  154.3003 C   0  0  1  0  0  0  0  0  0  0  0  0
  149.2214  138.4715  153.3512 O   0  0  0  0  0  0  0  0  0  0  0  0
  151.6612  139.9981  155.8426 C   0  0  0  0  0  0  0  0  0  0  0  0
  152.0602  139.2145  154.9817 O   0  0  0  0  0  0  0  0  0  0  0  0
  152.3194  140.1200  157.0364 N   0  0  0  0  0  0  0  0  0  0  0  0
  150.5667  140.6789  153.5512 H   0  0  0  0  0  0  0  0  0  0  0  0
  147.5817  141.4578  155.6270 H   0  0  0  0  0  0  0  0  0  0  0  0
  146.6845  139.5219  154.5376 H   0  0  0  0  0  0  0  0  0  0  0  0
  148.8342  139.0010  155.2925 H   0  0  0  0  0  0  0  0  0  0  0  0
  153.4560  140.4056  159.2459 H   0  0  0  0  0  0  0  0  0  0  0  0
  152.3795  141.6435  159.8546 H   0  0  0  0  0  0  0  0  0  0  0  0
  150.4604  142.5229  158.5442 H   0  0  0  0  0  0  0  0  0  0  0  0
  149.2842  142.3576  156.4907 H   0  0  0  0  0  0  0  0  0  0  0  0
  146.8556  143.5251  154.3454 H   0  0  0  0  0  0  0  0  0  0  0  0
  146.6577  142.5368  152.9050 H   0  0  0  0  0  0  0  0  0  0  0  0
  144.9801  141.5387  153.7401 H   0  0  0  0  0  0  0  0  0  0  0  0
  147.9642  140.1483  152.1431 H   0  0  0  0  0  0  0  0  0  0  0  0
  149.6120  138.9096  152.6097 H   0  0  0  0  0  0  0  0  0  0  0  0
  1  2  1  0  0  0  0
  1 22  1  0  0  0  0
  1 23  1  0  0  0  0
  2 17  2  0  0  0  0
  2  3  1  0  0  0  0
  3  4  2  0  0  0  0
  3 24  1  0  0  0  0
  4  5  1  0  0  0  0
  4 25  1  0  0  0  0
  5  6  1  0  0  0  0
  5 15  1  0  0  0  0
  6 18  1  0  0  0  0
  6 13  1  0  0  0  0
  6  7  1  0  0  0  0
  7  8  1  0  0  0  0
  8 19  1  0  0  0  0
  8  9  1  0  0  0  0
  8 11  1  0  0  0  0
  9 10  1  0  0  0  0
  9 26  1  0  0  0  0
  9 27  1  0  0  0  0
 10 28  1  0  0  0  0
 11 20  1  0  0  0  0
 11 12  1  0  0  0  0
 11 13  1  0  0  0  0
 12 29  1  0  0  0  0
 13 21  1  0  0  0  0
 13 14  1  0  0  0  0
 14 30  1  0  0  0  0
 15 16  2  0  0  0  0
 15 17  1  0  0  0  0
M  END
> <s_m_source_file>
AV-unprocessed.smi

> <i_m_source_file_index>
53

> <i_lp_mmshare_version>
43012

> <i_f3d_flags>
0

> <s_epik_input>
W05IMl1jMVtjSF1bY0hdbihjKD1PKW4xKVtDQEBIXTJPW0NASF0oW0NIMl1bT0hdKVtDQEBIXShbT0hdKVtDQEBIXTJbT0hd

> <s_epik_cmdline>
J2VwaWtfcHl0aG9uJywgJy1waCcsICc3LjAnLCAnLXRuJywgJzgnLCAnLW1hJywgJzIwMCcsICctbWV0YWxfYmluZGluZycsICctaW1hZScsICc8aW5maWxlLm1hZT4nLCAnLW9tYWUnLCAnPG91dGZpbGUubWFlPic=

> <r_lp_tautomer_probability>
0.99996

> <r_epik_Ionization_Penalty>
0.00069087

> <r_epik_Ionization_Penalty_Charging>
2.61959e-08

> <r_epik_Ionization_Penalty_Neutral>
0.000690844

> <r_epik_State_Penalty>
1.15523e-05

> <r_epik_Charging_Adjusted_Penalty>
1.15785e-05

> <i_epik_Tot_Q>
0

> <i_epik_Tot_abs_Q>
0

> <r_epik_Metal_State_Penalty>
-0

> <b_epik_Metal_Only>
0

> <s_epik_Chemistry_Notes>
This compound contains an acetal/aminal-like group ( X-CH(R)-Y where X, Y are N, S, or O) that may be acid/base labile, releasing an aldehyde.

> <s_lp_Force_Field>
OPLS_2005

> <r_lp_Energy>
34.1794

> <b_lp_Chiralities_Consistent>
1

> <s_lp_Variant>
AV-unprocessed.smi:53-11

> <Gold.Version>
5.8.1

> <Gold.Id.Protein>
6NUR|6NUR_protein|mol2

> <Gold.PLP.Fitness>
47.1009

> <Gold.PLP.PLP>
-31.3140

> <Gold.PLP.part.hbond>
-7.0005

> <Gold.PLP.part.metal>
0.0000

> <Gold.PLP.part.buried>
-1.4211

> <Gold.PLP.part.nonpolar>
-22.8448

> <Gold.PLP.part.repulsive>
0.3291

> <Gold.PLP.ligand.clash>
0.0000

> <Gold.PLP.ligand.torsion>
0.4858

> <Gold.PLP.Chemscore.Hbond>
4.5783

> <Gold.PLP.Chemscore.CHOScore>
1.0000

> <Gold.PLP.Chemscore.Metal>
0.0000

> <Gold.Chemscore.Hbonds>
donor molecule, donor type, donor heavy atom, donor atom, acceptor molecule, acceptor atom, score
      L1  H    10    28       P1 10175  0.76
      L1  H    12    29       P1  7957  1.00
      L1  H    14    30       P1  7957  1.00
      P1  H  7989  7998       L1    16  0.15
      P1  H  7997  8010       L1    17  0.81
      P1  H  8011  8017       L1     7  0.40
      L1  C     4    25       P1  8028  0.99

> <Gold.PLP.Chemscore.Internal.Correction>
0.0236

> <Gold.Rescore>
     Score         DG    S(hbond)    S(metal)    S(lipo)     H(rot)  DE(clash)    DE(int)     intcor
      9.82     -10.66       3.17        0.00      34.96       3.71       0.52       0.32       ----

> <Gold.Chemscore.Fitness>
9.8232

> <Gold.Chemscore.DG>
-10.6643

> <Gold.Chemscore.ZeroCoef>
-5.4800

> <Gold.Chemscore.Hbond>
3.1707

> <Gold.Chemscore.Metal>
0.0000

> <Gold.Chemscore.Lipo>
34.9631

> <Gold.Chemscore.Internal_Hbond>
0.0000

> <Gold.Chemscore.DEClash>
0.5207

> <Gold.Chemscore.DEInternal>
0.3204

> <Gold.Chemscore.Rot>
3.7095

> <Gold.Chemscore.Internal.Correction>
   9.000000E+99

> <Gold.Chemscore.Hbonds>
donor molecule, donor type, donor heavy atom, donor atom, acceptor molecule, acceptor atom, score
      L1  H    10    28       P1 10175  0.12
      L1  H    12    29       P1  7957  1.00
      L1  H    14    30       P1  7957  0.84
      P1  H  7997  8010       L1    17  0.26
      P1  H  8011  8017       L1     7  0.06

> <Gold.Chemscore.Hbond.Weighted>
-10.5900

> <Gold.Chemscore.Metal.Weighted>
-0.0000

> <Gold.Chemscore.Lipo.Weighted>
-4.0907

> <Gold.Chemscore.Internal_Hbond.Weighted>
0.0000

> <Gold.Chemscore.DEClash.Weighted>
0.5207

> <Gold.Chemscore.DEInternal.Weighted>
0.3204

> <Gold.Chemscore.Rot.Weighted>
9.4964

> <Gold.Chemscore.Internal.Correction.Weighted>
   9.000000E+99

> <Gold.Protein.RotatedTorsions>
[ 6907 6896 6895 6894 ] final  -96.81 input  -60.11 | X-H torsion
[ 7974 7965 7964 7962 ] final   26.94 input  175.53 | X-H torsion
[ 8008 7997 7996 7995 ] final   73.06 input   59.86 | X-H torsion
[ 10167 10162 10161 10158 ] final  -28.53 input  -65.29 | X-H torsion
[ 10718 10713 10712 10709 ] final   36.13 input   66.30 | X-H torsion
[ 10763 10752 10751 10750 ] final -156.95 input  -60.55 | X-H torsion
[ 11005 11000 10999 10996 ] final   34.85 input  -57.11 | X-H torsion

> <Gold.Protein.ActiveResidues>
 VAL166  LYS551  ARG553  GLY616  TRP617  ASP618  TYR619  PRO620  LYS621  CYS622 
 ASP623  PHE694  ASN695  SER759  ASP760  ASP761  ALA762  ILE779  LEU786  VAL792 
 PHE793  MET794  SER795  GLU796  ALA797  LYS798  CYS799  TRP800  GLU811  SER814 

> <Gold.Protein.RotatedAtoms>
  150.6999  134.1445  159.4116 H   0  0  0  0  0  0  0  0  0  0  0  0  # atno 6907 bound_to 6896
  151.9429  135.0203  160.0546 H   0  0  0  0  0  0  0  0  0  0  0  0  # atno 6908 bound_to 6896
  152.2078  133.4853  159.5130 H   0  0  0  0  0  0  0  0  0  0  0  0  # atno 6909 bound_to 6896
  146.1811  139.7259  142.8900 H   0  0  0  0  0  0  0  0  0  0  0  0  # atno 7974 bound_to 7965
  155.7780  140.3482  155.5282 H   0  0  0  0  0  0  0  0  0  0  0  0  # atno 8008 bound_to 7997
  155.8756  140.0994  157.1541 H   0  0  0  0  0  0  0  0  0  0  0  0  # atno 8009 bound_to 7997
  154.4021  140.1332  156.4120 H   0  0  0  0  0  0  0  0  0  0  0  0  # atno 8010 bound_to 7997
  140.7269  143.4002  151.1277 H   0  0  0  0  0  0  0  0  0  0  0  0  # atno 10167 bound_to 10162
  157.3311  130.7498  149.6848 H   0  0  0  0  0  0  0  0  0  0  0  0  # atno 10718 bound_to 10713
  154.7674  135.3135  154.8259 H   0  0  0  0  0  0  0  0  0  0  0  0  # atno 10763 bound_to 10752
  153.9003  135.6816  153.4760 H   0  0  0  0  0  0  0  0  0  0  0  0  # atno 10764 bound_to 10752
  153.1282  135.4792  154.9240 H   0  0  0  0  0  0  0  0  0  0  0  0  # atno 10765 bound_to 10752
  140.2486  134.3330  155.7898 H   0  0  0  0  0  0  0  0  0  0  0  0  # atno 11005 bound_to 11000
  145.4074  141.0392  143.3036 LP  0  0  0  0  0  0  0  0  0  0  0  0  # atno 17320 bound_to 7965
  144.8316  139.5618  143.6941 LP  0  0  0  0  0  0  0  0  0  0  0  0  # atno 17321 bound_to 7965
  139.7621  143.8619  152.3102 LP  0  0  0  0  0  0  0  0  0  0  0  0  # atno 17342 bound_to 10162
  139.8509  144.7165  150.9215 LP  0  0  0  0  0  0  0  0  0  0  0  0  # atno 17343 bound_to 10162
  155.9696  130.4195  150.4378 LP  0  0  0  0  0  0  0  0  0  0  0  0  # atno 17370 bound_to 10713
  157.2410  131.0525  151.2436 LP  0  0  0  0  0  0  0  0  0  0  0  0  # atno 17371 bound_to 10713
  141.2203  133.7340  156.9001 LP  0  0  0  0  0  0  0  0  0  0  0  0  # atno 17394 bound_to 11000
  140.1581  134.9184  157.2679 LP  0  0  0  0  0  0  0  0  0  0  0  0  # atno 17395 bound_to 11000

$$$$
