AV-unprocessed.smi:1209|AV-procd|sdf|5072|dock2
  -GOLD-   22720 4113D 1   1.00000     0.00000
 Structure written by MMmdl.
 49 51  0  0  0  0  0  0  0  0  2 V2000
  147.6265  135.2522  163.0030 C   0  0  0  0  0  0  0  0  0  0  0  0
  147.9571  135.5875  161.5890 C   0  0  0  0  0  0  0  0  0  0  0  0
  148.1931  134.8241  160.4816 C   0  0  0  0  0  0  0  0  0  0  0  0
  148.4418  135.7818  159.4598 C   0  0  0  0  0  0  0  0  0  0  0  0
  148.7611  135.5424  158.0080 C   0  0  0  0  0  0  0  0  0  0  0  0
  150.1527  135.8521  157.6584 N   0  0  0  0  0  0  0  0  0  0  0  0
  150.3152  135.9269  156.2088 C   0  0  0  0  0  0  0  0  0  0  0  0
  150.6039  137.1015  158.2734 C   0  0  0  0  0  0  0  0  0  0  0  0
  150.3023  138.3834  157.4637 C   0  0  1  0  0  0  0  0  0  0  0  0
  149.2259  139.0545  158.0824 O   0  0  0  0  0  0  0  0  0  0  0  0
  151.4923  139.3623  157.4068 C   0  0  0  0  0  0  0  0  0  0  0  0
  151.0725  140.7674  157.3293 N   0  0  0  0  0  0  0  0  0  0  0  0
  150.2974  141.4025  156.4084 C   0  0  0  0  0  0  0  0  0  0  0  0
  150.1927  142.7058  156.7895 N   0  3  0  0  0  0  0  0  0  0  0  0
  150.9184  142.9073  157.9657 C   0  0  0  0  0  0  0  0  0  0  0  0
  151.1130  144.0501  158.7326 C   0  0  0  0  0  0  0  0  0  0  0  0
  151.9189  143.9226  159.8867 C   0  0  0  0  0  0  0  0  0  0  0  0
  152.1523  145.1522  160.7476 C   0  0  0  0  0  0  0  0  0  0  0  0
  152.5005  142.6766  160.2378 C   0  0  0  0  0  0  0  0  0  0  0  0
  153.3652  142.5511  161.4808 C   0  0  0  0  0  0  0  0  0  0  0  0
  152.2905  141.5261  159.4444 C   0  0  0  0  0  0  0  0  0  0  0  0
  151.4912  141.6687  158.3133 C   0  0  0  0  0  0  0  0  0  0  0  0
  148.3655  137.0199  159.9192 N   0  0  0  0  0  0  0  0  0  0  0  0
  148.0543  136.9060  161.2788 O   0  0  0  0  0  0  0  0  0  0  0  0
  147.9013  134.2224  163.2327 H   0  0  0  0  0  0  0  0  0  0  0  0
  146.5581  135.3668  163.1864 H   0  0  0  0  0  0  0  0  0  0  0  0
  148.1611  135.9055  163.6928 H   0  0  0  0  0  0  0  0  0  0  0  0
  148.1845  133.7469  160.4103 H   0  0  0  0  0  0  0  0  0  0  0  0
  148.5386  134.5085  157.7384 H   0  0  0  0  0  0  0  0  0  0  0  0
  148.0778  136.1478  157.4160 H   0  0  0  0  0  0  0  0  0  0  0  0
  151.3525  136.1362  155.9453 H   0  0  0  0  0  0  0  0  0  0  0  0
  149.6922  136.7142  155.7822 H   0  0  0  0  0  0  0  0  0  0  0  0
  150.0475  134.9850  155.7294 H   0  0  0  0  0  0  0  0  0  0  0  0
  150.1504  137.2152  159.2596 H   0  0  0  0  0  0  0  0  0  0  0  0
  151.6748  137.0205  158.4604 H   0  0  0  0  0  0  0  0  0  0  0  0
  149.9964  138.1484  156.4464 H   0  0  0  0  0  0  0  0  0  0  0  0
  148.7305  138.4245  158.5839 H   0  0  0  0  0  0  0  0  0  0  0  0
  152.1369  139.2483  158.2797 H   0  0  0  0  0  0  0  0  0  0  0  0
  152.1119  139.1566  156.5326 H   0  0  0  0  0  0  0  0  0  0  0  0
  149.8403  140.9522  155.5389 H   0  0  0  0  0  0  0  0  0  0  0  0
  150.6681  144.9956  158.4593 H   0  0  0  0  0  0  0  0  0  0  0  0
  151.7631  144.9943  161.7537 H   0  0  0  0  0  0  0  0  0  0  0  0
  151.6565  146.0304  160.3326 H   0  0  0  0  0  0  0  0  0  0  0  0
  153.2173  145.3742  160.8179 H   0  0  0  0  0  0  0  0  0  0  0  0
  153.7219  141.5298  161.6181 H   0  0  0  0  0  0  0  0  0  0  0  0
  152.7995  142.8278  162.3706 H   0  0  0  0  0  0  0  0  0  0  0  0
  154.2374  143.2012  161.4078 H   0  0  0  0  0  0  0  0  0  0  0  0
  152.7339  140.5774  159.7098 H   0  0  0  0  0  0  0  0  0  0  0  0
  149.6647  143.4043  156.2819 H   0  0  0  0  0  0  0  0  0  0  0  0
  1  2  1  0  0  0  0
  1 25  1  0  0  0  0
  1 26  1  0  0  0  0
  1 27  1  0  0  0  0
  2 24  1  0  0  0  0
  2  3  2  0  0  0  0
  3  4  1  0  0  0  0
  3 28  1  0  0  0  0
  4  5  1  0  0  0  0
  4 23  2  0  0  0  0
  5  6  1  0  0  0  0
  5 29  1  0  0  0  0
  5 30  1  0  0  0  0
  6  7  1  0  0  0  0
  6  8  1  0  0  0  0
  7 31  1  0  0  0  0
  7 32  1  0  0  0  0
  7 33  1  0  0  0  0
  8  9  1  0  0  0  0
  8 34  1  0  0  0  0
  8 35  1  0  0  0  0
  9 10  1  0  0  0  0
  9 11  1  0  0  0  0
  9 36  1  0  0  0  0
 10 37  1  0  0  0  0
 11 12  1  0  0  0  0
 11 38  1  0  0  0  0
 11 39  1  0  0  0  0
 12 22  1  0  0  0  0
 12 13  1  0  0  0  0
 13 14  2  0  0  0  0
 13 40  1  0  0  0  0
 14 15  1  0  0  0  0
 14 49  1  0  0  0  0
 15 22  2  0  0  0  0
 15 16  1  0  0  0  0
 16 17  2  0  0  0  0
 16 41  1  0  0  0  0
 17 18  1  0  0  0  0
 17 19  1  0  0  0  0
 18 42  1  0  0  0  0
 18 43  1  0  0  0  0
 18 44  1  0  0  0  0
 19 20  1  0  0  0  0
 19 21  2  0  0  0  0
 20 45  1  0  0  0  0
 20 46  1  0  0  0  0
 20 47  1  0  0  0  0
 21 22  1  0  0  0  0
 21 48  1  0  0  0  0
 23 24  1  0  0  0  0
M  CHG  1  14   1
M  END
> <s_m_source_file>
AV-unprocessed.smi

> <i_m_source_file_index>
1209

> <i_lp_mmshare_version>
43012

> <i_f3d_flags>
0

> <s_epik_input>
W0NIM11jMVtjSF1jKG5vMSlbQ0gyXU4oW0NIM10pW0NIMl1bQ0BIXShbT0hdKVtDSDJdbihbY0hdbjIpYyhjMjMpW2NIXWMoW0NIM10pYyhbY0hdMylbQ0gzXQ==

> <s_epik_cmdline>
J2VwaWtfcHl0aG9uJywgJy1waCcsICc3LjAnLCAnLXRuJywgJzgnLCAnLW1hJywgJzIwMCcsICctbWV0YWxfYmluZGluZycsICctaW1hZScsICc8aW5maWxlLm1hZT4nLCAnLW9tYWUnLCAnPG91dGZpbGUubWFlPic=

> <r_epik_Ionization_Penalty>
1.23608

> <r_epik_Ionization_Penalty_Charging>
1.21624

> <r_epik_Ionization_Penalty_Neutral>
0.0198409

> <r_epik_State_Penalty>
1.27749

> <r_epik_Charging_Adjusted_Penalty>
2.49372

> <i_epik_Tot_Q>
1

> <i_epik_Tot_abs_Q>
1

> <r_epik_Metal_State_Penalty>
1.34809

> <b_epik_Metal_Only>
0

> <s_lp_Force_Field>
OPLS_2005

> <r_lp_Energy>
23.0789

> <b_lp_Chiralities_Consistent>
1

> <s_lp_Variant>
AV-unprocessed.smi:1209-4

> <Gold.Version>
5.8.1

> <Gold.Id.Protein>
6NUR|6NUR_protein|mol2

> <Gold.PLP.Fitness>
57.3949

> <Gold.PLP.PLP>
-50.6586

> <Gold.PLP.part.hbond>
-5.5305

> <Gold.PLP.part.metal>
0.0000

> <Gold.PLP.part.buried>
-7.0846

> <Gold.PLP.part.nonpolar>
-39.5505

> <Gold.PLP.part.repulsive>
0.0783

> <Gold.PLP.ligand.clash>
0.0000

> <Gold.PLP.ligand.torsion>
1.5530

> <Gold.PLP.Chemscore.Hbond>
3.2504

> <Gold.PLP.Chemscore.CHOScore>
0.0000

> <Gold.PLP.Chemscore.Metal>
0.0000

> <Gold.Chemscore.Hbonds>
donor molecule, donor type, donor heavy atom, donor atom, acceptor molecule, acceptor atom, score
      L1  H    14    49       P1  8028  2.00
      P1  H  6931  6943       L1    24  0.95
      P1  H  6934  6947       L1    24  0.02

> <Gold.PLP.Chemscore.Internal.Correction>
0.0910

> <Gold.Rescore>
     Score         DG    S(hbond)    S(metal)    S(lipo)     H(rot)  DE(clash)    DE(int)     intcor
     16.05     -20.52       1.84        0.00     131.22       2.53       0.07       4.40       ----

> <Gold.Chemscore.Fitness>
16.0487

> <Gold.Chemscore.DG>
-20.5241

> <Gold.Chemscore.ZeroCoef>
-5.4800

> <Gold.Chemscore.Hbond>
1.8440

> <Gold.Chemscore.Metal>
0.0000

> <Gold.Chemscore.Lipo>
131.2229

> <Gold.Chemscore.Internal_Hbond>
0.0000

> <Gold.Chemscore.DEClash>
0.0732

> <Gold.Chemscore.DEInternal>
4.4023

> <Gold.Chemscore.Rot>
2.5265

> <Gold.Chemscore.Internal.Correction>
   9.000000E+99

> <Gold.Chemscore.Hbonds>
donor molecule, donor type, donor heavy atom, donor atom, acceptor molecule, acceptor atom, score
      L1  H    14    49       P1  8028  1.00
      P1  H  6931  6943       L1    24  0.21

> <Gold.Chemscore.Hbond.Weighted>
-6.1588

> <Gold.Chemscore.Metal.Weighted>
-0.0000

> <Gold.Chemscore.Lipo.Weighted>
-15.3531

> <Gold.Chemscore.Internal_Hbond.Weighted>
0.0000

> <Gold.Chemscore.DEClash.Weighted>
0.0732

> <Gold.Chemscore.DEInternal.Weighted>
4.4023

> <Gold.Chemscore.Rot.Weighted>
6.4677

> <Gold.Chemscore.Internal.Correction.Weighted>
   9.000000E+99

> <Gold.Protein.RotatedTorsions>
[ 6907 6896 6895 6894 ] final  119.51 input  -60.11 | X-H torsion
[ 7974 7965 7964 7962 ] final -100.04 input  175.53 | X-H torsion
[ 8008 7997 7996 7995 ] final -123.57 input   59.86 | X-H torsion
[ 10167 10162 10161 10158 ] final -168.31 input  -65.29 | X-H torsion
[ 10718 10713 10712 10709 ] final   20.84 input   66.30 | X-H torsion
[ 10763 10752 10751 10750 ] final   12.10 input  -60.55 | X-H torsion
[ 11005 11000 10999 10996 ] final   78.87 input  -57.11 | X-H torsion

> <Gold.Protein.ActiveResidues>
 VAL166  LYS551  ARG553  GLY616  TRP617  ASP618  TYR619  PRO620  LYS621  CYS622 
 ASP623  PHE694  ASN695  SER759  ASP760  ASP761  ALA762  ILE779  LEU786  VAL792 
 PHE793  MET794  SER795  GLU796  ALA797  LYS798  CYS799  TRP800  GLU811  SER814 

> <Gold.Protein.RotatedAtoms>
  152.4466  133.7549  159.6714 H   0  0  0  0  0  0  0  0  0  0  0  0  # atno 6907 bound_to 6896
  150.8368  133.7990  159.3082 H   0  0  0  0  0  0  0  0  0  0  0  0  # atno 6908 bound_to 6896
  151.5628  135.1067  160.0028 H   0  0  0  0  0  0  0  0  0  0  0  0  # atno 6909 bound_to 6896
  145.2998  140.9374  143.2830 H   0  0  0  0  0  0  0  0  0  0  0  0  # atno 7974 bound_to 7965
  155.1827  140.0411  157.2885 H   0  0  0  0  0  0  0  0  0  0  0  0  # atno 8008 bound_to 7997
  154.6192  140.2496  155.7543 H   0  0  0  0  0  0  0  0  0  0  0  0  # atno 8009 bound_to 7997
  156.2424  140.2898  156.0492 H   0  0  0  0  0  0  0  0  0  0  0  0  # atno 8010 bound_to 7997
  139.5993  144.1044  152.1725 H   0  0  0  0  0  0  0  0  0  0  0  0  # atno 10167 bound_to 10162
  157.1301  130.6587  149.5949 H   0  0  0  0  0  0  0  0  0  0  0  0  # atno 10718 bound_to 10713
  153.1857  135.6835  153.8418 H   0  0  0  0  0  0  0  0  0  0  0  0  # atno 10763 bound_to 10752
  153.7734  135.3192  155.3356 H   0  0  0  0  0  0  0  0  0  0  0  0  # atno 10764 bound_to 10752
  154.8087  135.4731  154.0556 H   0  0  0  0  0  0  0  0  0  0  0  0  # atno 10765 bound_to 10752
  139.9195  134.7797  156.1705 H   0  0  0  0  0  0  0  0  0  0  0  0  # atno 11005 bound_to 11000
  144.9103  139.4537  143.6590 LP  0  0  0  0  0  0  0  0  0  0  0  0  # atno 17320 bound_to 7965
  146.3156  139.7908  142.8986 LP  0  0  0  0  0  0  0  0  0  0  0  0  # atno 17321 bound_to 7965
  140.0636  144.5836  150.7244 LP  0  0  0  0  0  0  0  0  0  0  0  0  # atno 17342 bound_to 10162
  140.7237  143.2614  151.4192 LP  0  0  0  0  0  0  0  0  0  0  0  0  # atno 17343 bound_to 10162
  155.9810  130.4814  150.6802 LP  0  0  0  0  0  0  0  0  0  0  0  0  # atno 17370 bound_to 10713
  157.4400  131.0860  151.0953 LP  0  0  0  0  0  0  0  0  0  0  0  0  # atno 17371 bound_to 10713
  141.0703  133.6800  156.2128 LP  0  0  0  0  0  0  0  0  0  0  0  0  # atno 17394 bound_to 11000
  140.6517  134.5060  157.5578 LP  0  0  0  0  0  0  0  0  0  0  0  0  # atno 17395 bound_to 11000

$$$$
