AV-unprocessed.smi:2152|AV-procd|sdf|8765|dock3
  -GOLD-   2272011543D 1   1.00000     0.00000
 Structure written by MMmdl.
 41 42  0  0  0  0  0  0  0  0  1 V2000
  150.7635  140.2868  158.1549 C   0  0  0  0  0  0  0  0  0  0  0  0
  150.9931  141.7803  158.4502 C   0  0  1  0  0  0  0  0  0  0  0  0
  152.1074  141.9571  159.5018 C   0  0  0  0  0  0  0  0  0  0  0  0
  152.3538  143.4368  159.8334 C   0  0  0  0  0  0  0  0  0  0  0  0
  152.6818  144.2386  158.5666 C   0  0  0  0  0  0  0  0  0  0  0  0
  151.5726  144.0842  157.5164 C   0  0  0  0  0  0  0  0  0  0  0  0
  151.3131  142.6035  157.1755 C   0  0  2  0  0  0  0  0  0  0  0  0
  150.2122  142.5268  156.2166 N   0  0  0  0  0  0  0  0  0  0  0  0
  149.9763  141.5157  155.3662 C   0  0  0  0  0  0  0  0  0  0  0  0
  150.6975  140.5215  155.2744 O   0  0  0  0  0  0  0  0  0  0  0  0
  148.7356  141.6626  154.4759 C   0  0  0  0  0  0  0  0  0  0  0  0
  147.7659  140.5771  154.6697 N   0  0  0  0  0  0  0  0  0  0  0  0
  147.3399  139.8354  153.5831 C   0  0  0  0  0  0  0  0  0  0  0  0
  146.4663  138.8093  153.6779 C   0  0  0  0  0  0  0  0  0  0  0  0
  145.9066  138.4198  154.9663 C   0  0  0  0  0  0  0  0  0  0  0  0
  145.1257  137.4774  155.1030 O   0  0  0  0  0  0  0  0  0  0  0  0
  146.3445  139.2056  156.0588 N   0  0  0  0  0  0  0  0  0  0  0  0
  145.8504  138.8697  157.3782 C   0  0  0  0  0  0  0  0  0  0  0  0
  147.2740  140.2653  155.9560 C   0  0  0  0  0  0  0  0  0  0  0  0
  147.6572  140.8982  156.9431 O   0  0  0  0  0  0  0  0  0  0  0  0
  151.6339  139.8412  157.6724 H   0  0  0  0  0  0  0  0  0  0  0  0
  149.9049  140.1315  157.5015 H   0  0  0  0  0  0  0  0  0  0  0  0
  150.5715  139.7307  159.0727 H   0  0  0  0  0  0  0  0  0  0  0  0
  150.0703  142.1714  158.8820 H   0  0  0  0  0  0  0  0  0  0  0  0
  151.8471  141.4206  160.4149 H   0  0  0  0  0  0  0  0  0  0  0  0
  153.0324  141.5095  159.1357 H   0  0  0  0  0  0  0  0  0  0  0  0
  151.4702  143.8568  160.3156 H   0  0  0  0  0  0  0  0  0  0  0  0
  153.1699  143.5258  160.5511 H   0  0  0  0  0  0  0  0  0  0  0  0
  152.8144  145.2915  158.8162 H   0  0  0  0  0  0  0  0  0  0  0  0
  153.6305  143.8964  158.1508 H   0  0  0  0  0  0  0  0  0  0  0  0
  150.6566  144.5440  157.8907 H   0  0  0  0  0  0  0  0  0  0  0  0
  151.8461  144.6324  156.6139 H   0  0  0  0  0  0  0  0  0  0  0  0
  152.2264  142.2030  156.7310 H   0  0  0  0  0  0  0  0  0  0  0  0
  149.5638  143.3009  156.2143 H   0  0  0  0  0  0  0  0  0  0  0  0
  148.2555  142.6259  154.6587 H   0  0  0  0  0  0  0  0  0  0  0  0
  149.0650  141.6895  153.4363 H   0  0  0  0  0  0  0  0  0  0  0  0
  147.7298  140.0821  152.6062 H   0  0  0  0  0  0  0  0  0  0  0  0
  146.1807  138.2668  152.7886 H   0  0  0  0  0  0  0  0  0  0  0  0
  145.7706  139.7782  157.9770 H   0  0  0  0  0  0  0  0  0  0  0  0
  146.5617  138.1658  157.8122 H   0  0  0  0  0  0  0  0  0  0  0  0
  144.8541  138.4328  157.2991 H   0  0  0  0  0  0  0  0  0  0  0  0
  1  2  1  0  0  0  0
  1 21  1  0  0  0  0
  1 22  1  0  0  0  0
  1 23  1  0  0  0  0
  2  7  1  0  0  0  0
  2  3  1  0  0  0  0
  2 24  1  0  0  0  0
  3  4  1  0  0  0  0
  3 25  1  0  0  0  0
  3 26  1  0  0  0  0
  4  5  1  0  0  0  0
  4 27  1  0  0  0  0
  4 28  1  0  0  0  0
  5  6  1  0  0  0  0
  5 29  1  0  0  0  0
  5 30  1  0  0  0  0
  6  7  1  0  0  0  0
  6 31  1  0  0  0  0
  6 32  1  0  0  0  0
  7  8  1  0  0  0  0
  7 33  1  0  0  0  0
  8  9  1  0  0  0  0
  8 34  1  0  0  0  0
  9 10  2  0  0  0  0
  9 11  1  0  0  0  0
 11 12  1  0  0  0  0
 11 35  1  0  0  0  0
 11 36  1  0  0  0  0
 12 19  1  0  0  0  0
 12 13  1  0  0  0  0
 13 14  2  0  0  0  0
 13 37  1  0  0  0  0
 14 15  1  0  0  0  0
 14 38  1  0  0  0  0
 15 16  2  0  0  0  0
 15 17  1  0  0  0  0
 17 18  1  0  0  0  0
 17 19  1  0  0  0  0
 18 39  1  0  0  0  0
 18 40  1  0  0  0  0
 18 41  1  0  0  0  0
 19 20  2  0  0  0  0
M  END
> <s_m_source_file>
AV-unprocessed.smi

> <i_m_source_file_index>
2152

> <i_lp_mmshare_version>
43012

> <i_f3d_flags>
0

> <s_epik_input>
W0NIM11bQ0BASF0xW0NIMl1bQ0gyXVtDSDJdW0NIMl1bQ0BIXTFbTkhdQyg9TylbQ0gyXW4yW2NIXVtjSF1jKD1PKW4oW0NIM10pYzI9Tw==

> <s_epik_cmdline>
J2VwaWtfcHl0aG9uJywgJy1waCcsICc3LjAnLCAnLXRuJywgJzgnLCAnLW1hJywgJzIwMCcsICctbWV0YWxfYmluZGluZycsICctaW1hZScsICc8aW5maWxlLm1hZT4nLCAnLW9tYWUnLCAnPG91dGZpbGUubWFlPic=

> <r_lp_tautomer_probability>
1

> <r_epik_Ionization_Penalty>
3.20555e-08

> <r_epik_Ionization_Penalty_Charging>
1.30086e-08

> <r_epik_Ionization_Penalty_Neutral>
1.90469e-08

> <r_epik_State_Penalty>
-0

> <r_epik_Charging_Adjusted_Penalty>
1.30086e-08

> <i_epik_Tot_Q>
0

> <i_epik_Tot_abs_Q>
0

> <r_epik_Metal_State_Penalty>
-0

> <b_epik_Metal_Only>
0

> <s_lp_Force_Field>
OPLS_2005

> <r_lp_Energy>
17.8687

> <b_lp_Chiralities_Consistent>
1

> <s_lp_Variant>
AV-unprocessed.smi:2152-4

> <Gold.Version>
5.8.1

> <Gold.Id.Protein>
6NUR|6NUR_protein|mol2

> <Gold.PLP.Fitness>
42.0999

> <Gold.PLP.PLP>
-33.8475

> <Gold.PLP.part.hbond>
-2.0000

> <Gold.PLP.part.metal>
0.0000

> <Gold.PLP.part.buried>
-2.7569

> <Gold.PLP.part.nonpolar>
-28.6279

> <Gold.PLP.part.repulsive>
0.2596

> <Gold.PLP.ligand.clash>
0.0000

> <Gold.PLP.ligand.torsion>
0.3410

> <Gold.PLP.Chemscore.Hbond>
1.9760

> <Gold.PLP.Chemscore.CHOScore>
1.0000

> <Gold.PLP.Chemscore.Metal>
0.0000

> <Gold.Chemscore.Hbonds>
donor molecule, donor type, donor heavy atom, donor atom, acceptor molecule, acceptor atom, score
      L1  H     8    34       P1  8028  1.00
      P1  H  7989  7998       L1    10  0.97
      L1  C    13    37       P1  7957  1.00

> <Gold.PLP.Chemscore.Internal.Correction>
0.0064

> <Gold.Rescore>
     Score         DG    S(hbond)    S(metal)    S(lipo)     H(rot)  DE(clash)    DE(int)     intcor
     16.91     -17.56       1.63        0.00      89.97       1.52       0.19       0.46       ----

> <Gold.Chemscore.Fitness>
16.9133

> <Gold.Chemscore.DG>
-17.5605

> <Gold.Chemscore.ZeroCoef>
-5.4800

> <Gold.Chemscore.Hbond>
1.6335

> <Gold.Chemscore.Metal>
0.0000

> <Gold.Chemscore.Lipo>
89.9709

> <Gold.Chemscore.Internal_Hbond>
0.0000

> <Gold.Chemscore.DEClash>
0.1874

> <Gold.Chemscore.DEInternal>
0.4598

> <Gold.Chemscore.Rot>
1.5242

> <Gold.Chemscore.Internal.Correction>
   9.000000E+99

> <Gold.Chemscore.Hbonds>
donor molecule, donor type, donor heavy atom, donor atom, acceptor molecule, acceptor atom, score
      L1  H     8    34       P1  8028  0.98
      P1  H  7989  7998       L1    10  0.26

> <Gold.Chemscore.Hbond.Weighted>
-5.4558

> <Gold.Chemscore.Metal.Weighted>
-0.0000

> <Gold.Chemscore.Lipo.Weighted>
-10.5266

> <Gold.Chemscore.Internal_Hbond.Weighted>
0.0000

> <Gold.Chemscore.DEClash.Weighted>
0.1874

> <Gold.Chemscore.DEInternal.Weighted>
0.4598

> <Gold.Chemscore.Rot.Weighted>
3.9019

> <Gold.Chemscore.Internal.Correction.Weighted>
   9.000000E+99

> <Gold.Protein.RotatedTorsions>
[ 6907 6896 6895 6894 ] final   -5.26 input  -60.11 | X-H torsion
[ 7974 7965 7964 7962 ] final -102.09 input  175.53 | X-H torsion
[ 8008 7997 7996 7995 ] final  -78.41 input   59.86 | X-H torsion
[ 10167 10162 10161 10158 ] final  114.17 input  -65.29 | X-H torsion
[ 10718 10713 10712 10709 ] final    2.83 input   66.30 | X-H torsion
[ 10763 10752 10751 10750 ] final  113.63 input  -60.55 | X-H torsion
[ 11005 11000 10999 10996 ] final   94.09 input  -57.11 | X-H torsion

> <Gold.Protein.ActiveResidues>
 VAL166  LYS551  ARG553  GLY616  TRP617  ASP618  TYR619  PRO620  LYS621  CYS622 
 ASP623  PHE694  ASN695  SER759  ASP760  ASP761  ALA762  ILE779  LEU786  VAL792 
 PHE793  MET794  SER795  GLU796  ALA797  LYS798  CYS799  TRP800  GLU811  SER814 

> <Gold.Protein.RotatedAtoms>
  151.4844  135.1054  159.9786 H   0  0  0  0  0  0  0  0  0  0  0  0  # atno 6907 bound_to 6896
  152.4766  133.8150  159.7034 H   0  0  0  0  0  0  0  0  0  0  0  0  # atno 6908 bound_to 6896
  150.8809  133.7312  159.2959 H   0  0  0  0  0  0  0  0  0  0  0  0  # atno 6909 bound_to 6896
  145.2732  140.9305  143.2974 H   0  0  0  0  0  0  0  0  0  0  0  0  # atno 7974 bound_to 7965
  154.5687  140.0694  156.8931 H   0  0  0  0  0  0  0  0  0  0  0  0  # atno 8008 bound_to 7997
  155.2675  140.3363  155.4250 H   0  0  0  0  0  0  0  0  0  0  0  0  # atno 8009 bound_to 7997
  156.2101  140.1755  156.7699 H   0  0  0  0  0  0  0  0  0  0  0  0  # atno 8010 bound_to 7997
  139.6408  144.7123  151.2241 H   0  0  0  0  0  0  0  0  0  0  0  0  # atno 10167 bound_to 10162
  156.8689  130.5613  149.5658 H   0  0  0  0  0  0  0  0  0  0  0  0  # atno 10718 bound_to 10713
  153.4953  135.3650  155.2513 H   0  0  0  0  0  0  0  0  0  0  0  0  # atno 10763 bound_to 10752
  154.8750  135.3987  154.3541 H   0  0  0  0  0  0  0  0  0  0  0  0  # atno 10764 bound_to 10752
  153.4168  135.7079  153.6387 H   0  0  0  0  0  0  0  0  0  0  0  0  # atno 10765 bound_to 10752
  139.8802  134.8826  156.3813 H   0  0  0  0  0  0  0  0  0  0  0  0  # atno 11005 bound_to 11000
  144.9317  139.4291  143.6492 LP  0  0  0  0  0  0  0  0  0  0  0  0  # atno 17320 bound_to 7965
  146.3240  139.8231  142.8923 LP  0  0  0  0  0  0  0  0  0  0  0  0  # atno 17321 bound_to 7965
  140.7490  143.6315  150.8418 LP  0  0  0  0  0  0  0  0  0  0  0  0  # atno 17342 bound_to 10162
  139.9952  143.5803  152.2896 LP  0  0  0  0  0  0  0  0  0  0  0  0  # atno 17343 bound_to 10162
  156.0737  130.5764  150.9433 LP  0  0  0  0  0  0  0  0  0  0  0  0  # atno 17370 bound_to 10713
  157.6207  131.0930  150.8627 LP  0  0  0  0  0  0  0  0  0  0  0  0  # atno 17371 bound_to 10713
  140.9397  133.7523  156.0130 LP  0  0  0  0  0  0  0  0  0  0  0  0  # atno 17394 bound_to 11000
  140.8234  134.3262  157.5374 LP  0  0  0  0  0  0  0  0  0  0  0  0  # atno 17395 bound_to 11000

$$$$
