#       Name:                AV-unprocessed.smi:2090
#       Creating user name   scv26
#       Creation time:       Fri Mar 27 11:25:21 2020


#       File generated by GOLD software.
#

@<TRIPOS>MOLECULE
AV-unprocessed.smi:2090
    47    48     1
SMALL
NO_CHARGES


@<TRIPOS>ATOM
      1 ****        -6.6018   5.0240   1.4850 C.3            1 S1                 0.0000
      2 ****        -5.3298   4.2529   1.3967 C.2            1 S1                 0.0000
      3 ****        -4.9970   2.9673   1.7188 C.2            1 S1                 0.0000
      4 ****        -3.6216   2.8972   1.3721 C.2            1 S1                 0.0000
      5 ****        -2.8868   1.6970   1.5471 N.am           1 S1                 0.0000
      6 ****        -1.5969   1.4771   1.2413 C.2            1 S1                 0.0000
      7 ****        -0.8225   2.3166   0.7808 O.2            1 S1                 0.0000
      8 ****        -1.2419   0.2088   1.4940 N.am           1 S1                 0.0000
      9 ****         0.0849  -0.3459   1.2509 C.3            1 S1                 0.0000
     10 ****         0.2994  -0.6593  -0.2429 C.3            1 S1                 0.0000
     11 ****         1.6649  -1.1677  -0.5267 N.4            1 S1                 1.0000
     12 ****         2.0490  -0.9731  -1.9489 C.3            1 S1                 0.0000
     13 ****         3.5130  -1.3767  -2.1909 C.3            1 S1                 0.0000
     14 ****         3.7669  -2.8323  -1.7660 C.3            1 S1                 0.0000
     15 ****         5.2311  -3.2407  -1.9793 C.3            1 S1                 0.0000
     16 ****         3.3308  -3.0136  -0.3026 C.3            1 S1                 0.0000
     17 ****         1.8708  -2.5763  -0.0959 C.3            1 S1                 0.0000
     18 ****        -3.1556   4.0378   0.8868 N.2            1 S1                 0.0000
     19 ****        -4.2480   4.9130   0.9008 O.3            1 S1                 0.0000
     20 ****        -7.4419   4.3654   1.7057 H              1 S1                 0.0000
     21 ****        -6.8112   5.5346   0.5448 H              1 S1                 0.0000
     22 ****        -6.5439   5.7747   2.2730 H              1 S1                 0.0000
     23 ****        -5.6380   2.2023   2.1315 H              1 S1                 0.0000
     24 ****        -3.4046   0.9186   1.9270 H              1 S1                 0.0000
     25 ****        -1.9369  -0.4158   1.8767 H              1 S1                 0.0000
     26 ****         0.8483   0.3463   1.6104 H              1 S1                 0.0000
     27 ****         0.1731  -1.2477   1.8553 H              1 S1                 0.0000
     28 ****        -0.4447  -1.3728  -0.6008 H              1 S1                 0.0000
     29 ****         0.1422   0.2581  -0.8121 H              1 S1                 0.0000
     30 ****         1.3855  -1.5561  -2.5898 H              1 S1                 0.0000
     31 ****         1.9195   0.0735  -2.2274 H              1 S1                 0.0000
     32 ****         3.7592  -1.2463  -3.2453 H              1 S1                 0.0000
     33 ****         4.1717  -0.7072  -1.6357 H              1 S1                 0.0000
     34 ****         3.1483  -3.4809  -2.3881 H              1 S1                 0.0000
     35 ****         5.9067  -2.6303  -1.3791 H              1 S1                 0.0000
     36 ****         5.5215  -3.1286  -3.0243 H              1 S1                 0.0000
     37 ****         5.3909  -4.2836  -1.7036 H              1 S1                 0.0000
     38 ****         3.4465  -4.0564  -0.0051 H              1 S1                 0.0000
     39 ****         3.9807  -2.4321   0.3530 H              1 S1                 0.0000
     40 ****         1.6167  -2.6938   0.9567 H              1 S1                 0.0000
     41 ****         1.2012  -3.2307  -0.6563 H              1 S1                 0.0000
     42 ****         2.2989  -0.5966   0.0140 H              1 S1                 0.0000
     43 ****        -1.1411   3.2482   0.6062 LP             1 S1                 0.0000
     44 ****         0.1250   2.0666   0.5813 LP             1 S1                 0.0000
     45 ****        -2.2247   4.2319   0.5773 LP             1 S1                 0.0000
     46 ****        -4.0402   5.7012   1.4800 LP             1 S1                 0.0000
     47 ****        -4.4413   5.2247  -0.0295 LP             1 S1                 0.0000
@<TRIPOS>BOND
    1    1    2 1     
    2    1   20 1     
    3    1   21 1     
    4    1   22 1     
    5    2   19 1     
    6    2    3 2     
    7    3    4 1     
    8    3   23 1     
    9    4    5 1     
   10    4   18 2     
   11    5    6 am    
   12    5   24 1     
   13    6    7 2     
   14    6    8 am    
   15    8    9 1     
   16    8   25 1     
   17    9   10 1     
   18    9   26 1     
   19    9   27 1     
   20   10   11 1     
   21   10   28 1     
   22   10   29 1     
   23   11   17 1     
   24   11   12 1     
   25   11   42 1     
   26   12   13 1     
   27   12   30 1     
   28   12   31 1     
   29   13   14 1     
   30   13   32 1     
   31   13   33 1     
   32   14   15 1     
   33   14   16 1     
   34   14   34 1     
   35   15   35 1     
   36   15   36 1     
   37   15   37 1     
   38   16   17 1     
   39   16   38 1     
   40   16   39 1     
   41   17   40 1     
   42   17   41 1     
   43   18   19 1     
   44    7   43 1     
   45    7   44 1     
   46   18   45 1     
   47   19   46 1     
   48   19   47 1     
@<TRIPOS>SUBSTRUCTURE
      1 S1             1
@<TRIPOS>SET
LONE_PAIRS      STATIC     ATOMS    <user>   **** ""
5 43 44 45 46 47
DONOR_HYDROGENS      STATIC     ATOMS    <user>   **** ""
3 24 25 42
ATOM$BLUE        STATIC     ATOMS    COLORGROUP SYSTEM
5 43 44 45 46 47
ATOM$RED        STATIC     ATOMS    COLORGROUP SYSTEM
3 24 25 42
