AV-unprocessed.smi:592|AV-procd|sdf|3011|dock5
  -GOLD-   2262023513D 1   1.00000     0.00000
 Structure written by MMmdl.
 28 29  0  0  0  0  0  0  0  0  2 V2000
  150.3929  140.6972  157.2934 O   0  0  0  0  0  0  0  0  0  0  0  0
  149.9193  141.5327  156.5246 C   0  0  0  0  0  0  0  0  0  0  0  0
  149.1372  141.1212  155.2660 C   0  0  0  0  0  0  0  0  0  0  0  0
  147.7887  141.7116  155.2000 N   0  0  0  0  0  0  0  0  0  0  0  0
  147.4050  142.2969  153.9766 C   0  0  0  0  0  0  0  0  0  0  0  0
  146.1989  142.8610  153.8060 C   0  0  0  0  0  0  0  0  0  0  0  0
  145.2804  142.8584  154.9199 C   0  0  0  0  0  0  0  0  0  0  0  0
  145.6387  142.3063  156.0962 C   0  0  0  0  0  0  0  0  0  0  0  0
  146.9577  141.6923  156.2882 C   0  0  0  0  0  0  0  0  0  0  0  0
  147.2969  141.1926  157.3612 O   0  0  0  0  0  0  0  0  0  0  0  0
  150.1308  142.9264  156.8333 N   0  0  0  0  0  0  0  0  0  0  0  0
  150.7740  143.5342  157.8618 C   0  0  0  0  0  0  0  0  0  0  0  0
  150.3867  144.7005  158.3981 N   0  3  0  0  0  0  0  0  0  0  0  0
  151.1713  145.2723  159.5033 C   0  0  0  0  0  0  0  0  0  0  0  0
  152.3403  144.3301  159.8331 C   0  0  0  0  0  0  0  0  0  0  0  0
  152.2472  142.9380  158.6901 S   0  0  0  0  0  0  0  0  0  0  0  0
  149.7042  141.4234  154.3856 H   0  0  0  0  0  0  0  0  0  0  0  0
  149.0543  140.0345  155.2309 H   0  0  0  0  0  0  0  0  0  0  0  0
  148.1499  142.2634  153.1948 H   0  0  0  0  0  0  0  0  0  0  0  0
  145.9241  143.3078  152.8619 H   0  0  0  0  0  0  0  0  0  0  0  0
  144.3018  143.3019  154.8099 H   0  0  0  0  0  0  0  0  0  0  0  0
  144.9385  142.3150  156.9186 H   0  0  0  0  0  0  0  0  0  0  0  0
  149.7688  143.6169  156.1915 H   0  0  0  0  0  0  0  0  0  0  0  0
  151.5403  146.2556  159.2103 H   0  0  0  0  0  0  0  0  0  0  0  0
  150.5274  145.4095  160.3722 H   0  0  0  0  0  0  0  0  0  0  0  0
  153.2988  144.8366  159.7174 H   0  0  0  0  0  0  0  0  0  0  0  0
  152.2749  143.9663  160.8589 H   0  0  0  0  0  0  0  0  0  0  0  0
  149.5750  145.1960  158.0572 H   0  0  0  0  0  0  0  0  0  0  0  0
  1  2  2  0  0  0  0
  2  3  1  0  0  0  0
  2 11  1  0  0  0  0
  3  4  1  0  0  0  0
  3 17  1  0  0  0  0
  3 18  1  0  0  0  0
  4  9  1  0  0  0  0
  4  5  1  0  0  0  0
  5  6  2  0  0  0  0
  5 19  1  0  0  0  0
  6  7  1  0  0  0  0
  6 20  1  0  0  0  0
  7  8  2  0  0  0  0
  7 21  1  0  0  0  0
  8  9  1  0  0  0  0
  8 22  1  0  0  0  0
  9 10  2  0  0  0  0
 11 12  1  0  0  0  0
 11 23  1  0  0  0  0
 12 16  1  0  0  0  0
 12 13  2  0  0  0  0
 13 14  1  0  0  0  0
 13 28  1  0  0  0  0
 14 15  1  0  0  0  0
 14 24  1  0  0  0  0
 14 25  1  0  0  0  0
 15 16  1  0  0  0  0
 15 26  1  0  0  0  0
 15 27  1  0  0  0  0
M  CHG  1  13   1
M  END
> <s_m_source_file>
AV-unprocessed.smi

> <i_m_source_file_index>
592

> <i_lp_mmshare_version>
43012

> <i_f3d_flags>
0

> <s_epik_input>
UzFbQ0gyXVtDSDJdTj1DMVtOSF1DKD1PKVtDSDJdbjJbY0hdW2NIXVtjSF1bY0hdYzI9Tw==

> <s_epik_cmdline>
J2VwaWtfcHl0aG9uJywgJy1waCcsICc3LjAnLCAnLXRuJywgJzgnLCAnLW1hJywgJzIwMCcsICctbWV0YWxfYmluZGluZycsICctaW1hZScsICc8aW5maWxlLm1hZT4nLCAnLW9tYWUnLCAnPG91dGZpbGUubWFlPic=

> <r_lp_tautomer_probability>
1

> <r_epik_Ionization_Penalty>
1.98499

> <r_epik_Ionization_Penalty_Charging>
1.98499

> <r_epik_Ionization_Penalty_Neutral>
2.63117e-16

> <r_epik_State_Penalty>
1.64719

> <r_epik_Charging_Adjusted_Penalty>
3.63218

> <i_epik_Tot_Q>
1

> <i_epik_Tot_abs_Q>
1

> <r_epik_Metal_State_Penalty>
5.35038

> <b_epik_Metal_Only>
0

> <s_epik_Chemistry_Notes>
This compound has an imine and may undergo hydrolysis.

> <s_lp_Force_Field>
OPLS_2005

> <r_lp_Energy>
33.1972

> <b_lp_Chiralities_Consistent>
1

> <s_lp_Variant>
AV-unprocessed.smi:592-2

> <Gold.Version>
5.8.1

> <Gold.Id.Protein>
6NUR|6NUR_protein|mol2

> <Gold.PLP.Fitness>
41.0236

> <Gold.PLP.PLP>
-33.0141

> <Gold.PLP.part.hbond>
-2.6475

> <Gold.PLP.part.metal>
0.0000

> <Gold.PLP.part.buried>
-4.3232

> <Gold.PLP.part.nonpolar>
-26.7211

> <Gold.PLP.part.repulsive>
0.2445

> <Gold.PLP.ligand.clash>
0.0000

> <Gold.PLP.ligand.torsion>
0.4105

> <Gold.PLP.Chemscore.Hbond>
2.9425

> <Gold.PLP.Chemscore.CHOScore>
0.0000

> <Gold.PLP.Chemscore.Metal>
0.0000

> <Gold.Chemscore.Hbonds>
donor molecule, donor type, donor heavy atom, donor atom, acceptor molecule, acceptor atom, score
      L1  H    11    23       P1  8028  0.94
      L1  H    13    28       P1  8029  1.90

> <Gold.PLP.Chemscore.Internal.Correction>
0.0030

> <Gold.Rescore>
     Score         DG    S(hbond)    S(metal)    S(lipo)     H(rot)  DE(clash)    DE(int)     intcor
     12.67     -14.67       1.67        0.00      60.53       1.35       0.02       1.98       ----

> <Gold.Chemscore.Fitness>
12.6681

> <Gold.Chemscore.DG>
-14.6725

> <Gold.Chemscore.ZeroCoef>
-5.4800

> <Gold.Chemscore.Hbond>
1.6663

> <Gold.Chemscore.Metal>
0.0000

> <Gold.Chemscore.Lipo>
60.5313

> <Gold.Chemscore.Internal_Hbond>
0.0000

> <Gold.Chemscore.DEClash>
0.0222

> <Gold.Chemscore.DEInternal>
1.9823

> <Gold.Chemscore.Rot>
1.3497

> <Gold.Chemscore.Internal.Correction>
   9.000000E+99

> <Gold.Chemscore.Hbonds>
donor molecule, donor type, donor heavy atom, donor atom, acceptor molecule, acceptor atom, score
      L1  H    11    23       P1  8028  0.89
      L1  H    13    28       P1  8029  0.21

> <Gold.Chemscore.Hbond.Weighted>
-5.5656

> <Gold.Chemscore.Metal.Weighted>
-0.0000

> <Gold.Chemscore.Lipo.Weighted>
-7.0822

> <Gold.Chemscore.Internal_Hbond.Weighted>
0.0000

> <Gold.Chemscore.DEClash.Weighted>
0.0222

> <Gold.Chemscore.DEInternal.Weighted>
1.9823

> <Gold.Chemscore.Rot.Weighted>
3.4552

> <Gold.Chemscore.Internal.Correction.Weighted>
   9.000000E+99

> <Gold.Protein.RotatedTorsions>
[ 6907 6896 6895 6894 ] final  -24.04 input  -60.11 | X-H torsion
[ 7974 7965 7964 7962 ] final -164.65 input  175.53 | X-H torsion
[ 8008 7997 7996 7995 ] final -100.47 input   59.86 | X-H torsion
[ 10167 10162 10161 10158 ] final  -54.26 input  -65.29 | X-H torsion
[ 10718 10713 10712 10709 ] final   25.04 input   66.30 | X-H torsion
[ 10763 10752 10751 10750 ] final   42.61 input  -60.55 | X-H torsion
[ 11005 11000 10999 10996 ] final  138.47 input  -57.11 | X-H torsion

> <Gold.Protein.ActiveResidues>
 VAL166  LYS551  ARG553  GLY616  TRP617  ASP618  TYR619  PRO620  LYS621  CYS622 
 ASP623  PHE694  ASN695  SER759  ASP760  ASP761  ALA762  ILE779  LEU786  VAL792 
 PHE793  MET794  SER795  GLU796  ALA797  LYS798  CYS799  TRP800  GLU811  SER814 

> <Gold.Protein.RotatedAtoms>
  151.1953  135.0419  159.8849 H   0  0  0  0  0  0  0  0  0  0  0  0  # atno 6907 bound_to 6896
  152.5436  134.0911  159.8287 H   0  0  0  0  0  0  0  0  0  0  0  0  # atno 6908 bound_to 6896
  151.1044  133.5172  159.2640 H   0  0  0  0  0  0  0  0  0  0  0  0  # atno 6909 bound_to 6896
  144.7291  140.2929  143.6217 H   0  0  0  0  0  0  0  0  0  0  0  0  # atno 7974 bound_to 7965
  154.8291  140.0440  157.1464 H   0  0  0  0  0  0  0  0  0  0  0  0  # atno 8008 bound_to 7997
  154.9173  140.3022  155.5214 H   0  0  0  0  0  0  0  0  0  0  0  0  # atno 8009 bound_to 7997
  156.2986  140.2347  156.4219 H   0  0  0  0  0  0  0  0  0  0  0  0  # atno 8010 bound_to 7997
  140.6440  143.2524  151.4911 H   0  0  0  0  0  0  0  0  0  0  0  0  # atno 10167 bound_to 10162
  157.1880  130.6833  149.6139 H   0  0  0  0  0  0  0  0  0  0  0  0  # atno 10718 bound_to 10713
  152.9879  135.6127  154.2976 H   0  0  0  0  0  0  0  0  0  0  0  0  # atno 10763 bound_to 10752
  154.2699  135.2780  155.2744 H   0  0  0  0  0  0  0  0  0  0  0  0  # atno 10764 bound_to 10752
  154.5132  135.5835  153.6678 H   0  0  0  0  0  0  0  0  0  0  0  0  # atno 10765 bound_to 10752
  140.0186  134.9407  157.0427 H   0  0  0  0  0  0  0  0  0  0  0  0  # atno 11005 bound_to 11000
  145.7837  139.1901  143.2143 LP  0  0  0  0  0  0  0  0  0  0  0  0  # atno 17320 bound_to 7965
  146.0813  140.7761  142.9640 LP  0  0  0  0  0  0  0  0  0  0  0  0  # atno 17321 bound_to 7965
  139.5650  144.2065  152.1750 LP  0  0  0  0  0  0  0  0  0  0  0  0  # atno 17342 bound_to 10162
  140.1344  144.5259  150.6782 LP  0  0  0  0  0  0  0  0  0  0  0  0  # atno 17343 bound_to 10162
  155.9715  130.4624  150.6145 LP  0  0  0  0  0  0  0  0  0  0  0  0  # atno 17370 bound_to 10713
  157.3888  131.0792  151.1412 LP  0  0  0  0  0  0  0  0  0  0  0  0  # atno 17371 bound_to 10713
  140.4427  134.1664  155.7175 LP  0  0  0  0  0  0  0  0  0  0  0  0  # atno 17394 bound_to 11000
  141.1759  133.8515  157.1422 LP  0  0  0  0  0  0  0  0  0  0  0  0  # atno 17395 bound_to 11000

$$$$
