AV-unprocessed.smi:648|AV-procd|sdf|3174|dock4
  -GOLD-   22720 0 93D 1   1.00000     0.00000
 Structure written by MMmdl.
 45 46  0  0  0  0  0  0  0  0  1 V2000
  147.6890  138.0535  157.6257 C   0  0  0  0  0  0  0  0  0  0  0  0
  148.3747  138.7899  156.4656 C   0  0  2  0  0  0  0  0  0  0  0  0
  147.5426  138.6888  155.1750 C   0  0  0  0  0  0  0  0  0  0  0  0
  148.1798  139.4229  153.9731 C   0  0  0  0  0  0  0  0  0  0  0  0
  147.4013  139.0398  152.6977 C   0  0  0  0  0  0  0  0  0  0  0  0
  148.0529  140.9549  154.1360 C   0  0  0  0  0  0  0  0  0  0  0  0
  149.6598  138.9777  153.7956 C   0  0  0  0  0  0  0  0  0  0  0  0
  150.5484  138.9671  155.0741 C   0  0  1  0  0  0  0  0  0  0  0  0
  151.8434  138.1591  154.7831 C   0  0  0  0  0  0  0  0  0  0  0  0
  151.5649  136.8599  154.2971 O   0  0  0  0  0  0  0  0  0  0  0  0
  150.9076  140.3540  155.4371 N   0  0  0  0  0  0  0  0  0  0  0  0
  151.1735  140.6677  156.8434 C   0  0  0  0  0  0  0  0  0  0  0  0
  150.1895  141.7299  157.3491 C   0  0  0  0  0  0  0  0  0  0  0  0
  150.7846  142.5599  158.3769 N   0  0  0  0  0  0  0  0  0  0  0  0
  150.9374  143.8833  158.4439 C   0  0  0  0  0  0  0  0  0  0  0  0
  151.5315  144.2975  159.5547 N   0  0  0  0  0  0  0  0  0  0  0  0
  151.7316  143.0930  160.1689 C   0  0  0  0  0  0  0  0  0  0  0  0
  151.3012  142.0199  159.5053 N   0  0  0  0  0  0  0  0  0  0  0  0
  149.7930  138.2457  156.2223 C   0  0  0  0  0  0  0  0  0  0  0  0
  147.5763  136.9906  157.4106 H   0  0  0  0  0  0  0  0  0  0  0  0
  146.6964  138.4616  157.8173 H   0  0  0  0  0  0  0  0  0  0  0  0
  148.2662  138.1474  158.5460 H   0  0  0  0  0  0  0  0  0  0  0  0
  148.4519  139.8368  156.7580 H   0  0  0  0  0  0  0  0  0  0  0  0
  147.4170  137.6336  154.9274 H   0  0  0  0  0  0  0  0  0  0  0  0
  146.5375  139.0743  155.3521 H   0  0  0  0  0  0  0  0  0  0  0  0
  147.8137  139.5336  151.8172 H   0  0  0  0  0  0  0  0  0  0  0  0
  146.3510  139.3241  152.7716 H   0  0  0  0  0  0  0  0  0  0  0  0
  147.4334  137.9652  152.5131 H   0  0  0  0  0  0  0  0  0  0  0  0
  148.5180  141.4806  153.3014 H   0  0  0  0  0  0  0  0  0  0  0  0
  148.5135  141.3266  155.0490 H   0  0  0  0  0  0  0  0  0  0  0  0
  147.0068  141.2605  154.1691 H   0  0  0  0  0  0  0  0  0  0  0  0
  149.6484  137.9605  153.4005 H   0  0  0  0  0  0  0  0  0  0  0  0
  150.1290  139.5785  153.0149 H   0  0  0  0  0  0  0  0  0  0  0  0
  152.4950  138.6733  154.0771 H   0  0  0  0  0  0  0  0  0  0  0  0
  152.4293  138.0459  155.6961 H   0  0  0  0  0  0  0  0  0  0  0  0
  151.4490  136.9082  153.3605 H   0  0  0  0  0  0  0  0  0  0  0  0
  151.7024  140.6442  154.8758 H   0  0  0  0  0  0  0  0  0  0  0  0
  151.0761  139.7774  157.4633 H   0  0  0  0  0  0  0  0  0  0  0  0
  152.1886  141.0413  156.9715 H   0  0  0  0  0  0  0  0  0  0  0  0
  149.8608  142.3711  156.5298 H   0  0  0  0  0  0  0  0  0  0  0  0
  149.2972  141.2560  157.7609 H   0  0  0  0  0  0  0  0  0  0  0  0
  150.6060  144.5564  157.6668 H   0  0  0  0  0  0  0  0  0  0  0  0
  152.2084  143.0045  161.1339 H   0  0  0  0  0  0  0  0  0  0  0  0
  150.3686  138.2615  157.1472 H   0  0  0  0  0  0  0  0  0  0  0  0
  149.7031  137.1879  155.9705 H   0  0  0  0  0  0  0  0  0  0  0  0
  1  2  1  0  0  0  0
  1 20  1  0  0  0  0
  1 21  1  0  0  0  0
  1 22  1  0  0  0  0
  2 19  1  0  0  0  0
  2  3  1  0  0  0  0
  2 23  1  0  0  0  0
  3  4  1  0  0  0  0
  3 24  1  0  0  0  0
  3 25  1  0  0  0  0
  4  5  1  0  0  0  0
  4  6  1  0  0  0  0
  4  7  1  0  0  0  0
  5 26  1  0  0  0  0
  5 27  1  0  0  0  0
  5 28  1  0  0  0  0
  6 29  1  0  0  0  0
  6 30  1  0  0  0  0
  6 31  1  0  0  0  0
  7  8  1  0  0  0  0
  7 32  1  0  0  0  0
  7 33  1  0  0  0  0
  8  9  1  0  0  0  0
  8 11  1  0  0  0  0
  8 19  1  0  0  0  0
  9 10  1  0  0  0  0
  9 34  1  0  0  0  0
  9 35  1  0  0  0  0
 10 36  1  0  0  0  0
 11 12  1  0  0  0  0
 11 37  1  0  0  0  0
 12 13  1  0  0  0  0
 12 38  1  0  0  0  0
 12 39  1  0  0  0  0
 13 14  1  0  0  0  0
 13 40  1  0  0  0  0
 13 41  1  0  0  0  0
 14 18  1  0  0  0  0
 14 15  1  0  0  0  0
 15 16  2  0  0  0  0
 15 42  1  0  0  0  0
 16 17  1  0  0  0  0
 17 18  2  0  0  0  0
 17 43  1  0  0  0  0
 19 44  1  0  0  0  0
 19 45  1  0  0  0  0
M  END
> <s_m_source_file>
AV-unprocessed.smi

> <i_m_source_file_index>
648

> <i_lp_mmshare_version>
43012

> <i_f3d_flags>
0

> <s_epik_input>
W0NIM11DMShbQ0gzXSlbQ0gyXVtDQEBIXShbQ0gzXSlbQ0gyXVtDQF0oW0NIMl0xKShbQ0gyXVtPSF0pW05IXVtDSDJdW0NIMl1uMltjSF1uW2NIXW4y

> <s_epik_cmdline>
J2VwaWtfcHl0aG9uJywgJy1waCcsICc3LjAnLCAnLXRuJywgJzgnLCAnLW1hJywgJzIwMCcsICctbWV0YWxfYmluZGluZycsICctaW1hZScsICc8aW5maWxlLm1hZT4nLCAnLW9tYWUnLCAnPG91dGZpbGUubWFlPic=

> <r_lp_tautomer_probability>
1

> <r_epik_Ionization_Penalty>
2.45849

> <r_epik_Ionization_Penalty_Charging>
0

> <r_epik_Ionization_Penalty_Neutral>
2.45849

> <r_epik_State_Penalty>
2.62037

> <r_epik_Charging_Adjusted_Penalty>
2.62037

> <i_epik_Tot_Q>
0

> <i_epik_Tot_abs_Q>
0

> <r_epik_Metal_State_Penalty>
2.62024

> <b_epik_Metal_Only>
0

> <s_lp_Force_Field>
OPLS_2005

> <r_lp_Energy>
32.3104

> <b_lp_Chiralities_Consistent>
1

> <s_lp_Variant>
AV-unprocessed.smi:648-5

> <Gold.Version>
5.8.1

> <Gold.Id.Protein>
6NUR|6NUR_protein|mol2

> <Gold.PLP.Fitness>
41.8678

> <Gold.PLP.PLP>
-35.1236

> <Gold.PLP.part.hbond>
-3.0000

> <Gold.PLP.part.metal>
0.0000

> <Gold.PLP.part.buried>
-3.4828

> <Gold.PLP.part.nonpolar>
-28.5058

> <Gold.PLP.part.repulsive>
0.0308

> <Gold.PLP.ligand.clash>
0.0000

> <Gold.PLP.ligand.torsion>
1.1294

> <Gold.PLP.Chemscore.Hbond>
2.0000

> <Gold.PLP.Chemscore.CHOScore>
1.0000

> <Gold.PLP.Chemscore.Metal>
0.0000

> <Gold.Chemscore.Hbonds>
donor molecule, donor type, donor heavy atom, donor atom, acceptor molecule, acceptor atom, score
      L1  H    10    36       P1  7949  0.83
      P1  H 10752 10764       L1    10  0.75
      L1  C    15    42       P1  8028  0.80

> <Gold.PLP.Chemscore.Internal.Correction>
0.0029

> <Gold.Rescore>
     Score         DG    S(hbond)    S(metal)    S(lipo)     H(rot)  DE(clash)    DE(int)     intcor
      7.63      -9.84       1.61        0.00      59.62       3.12       1.30       0.91       ----

> <Gold.Chemscore.Fitness>
7.6282

> <Gold.Chemscore.DG>
-9.8382

> <Gold.Chemscore.ZeroCoef>
-5.4800

> <Gold.Chemscore.Hbond>
1.6066

> <Gold.Chemscore.Metal>
0.0000

> <Gold.Chemscore.Lipo>
59.6165

> <Gold.Chemscore.Internal_Hbond>
0.0000

> <Gold.Chemscore.DEClash>
1.3046

> <Gold.Chemscore.DEInternal>
0.9054

> <Gold.Chemscore.Rot>
3.1183

> <Gold.Chemscore.Internal.Correction>
   9.000000E+99

> <Gold.Chemscore.Hbonds>
donor molecule, donor type, donor heavy atom, donor atom, acceptor molecule, acceptor atom, score
      L1  H    10    36       P1  7949  0.65
      P1  H 10752 10764       L1    10  0.09

> <Gold.Chemscore.Hbond.Weighted>
-5.3660

> <Gold.Chemscore.Metal.Weighted>
-0.0000

> <Gold.Chemscore.Lipo.Weighted>
-6.9751

> <Gold.Chemscore.Internal_Hbond.Weighted>
0.0000

> <Gold.Chemscore.DEClash.Weighted>
1.3046

> <Gold.Chemscore.DEInternal.Weighted>
0.9054

> <Gold.Chemscore.Rot.Weighted>
7.9829

> <Gold.Chemscore.Internal.Correction.Weighted>
   9.000000E+99

> <Gold.Protein.RotatedTorsions>
[ 6907 6896 6895 6894 ] final -168.28 input  -60.11 | X-H torsion
[ 7974 7965 7964 7962 ] final   36.16 input  175.53 | X-H torsion
[ 8008 7997 7996 7995 ] final   35.77 input   59.86 | X-H torsion
[ 10167 10162 10161 10158 ] final    9.04 input  -65.29 | X-H torsion
[ 10718 10713 10712 10709 ] final  143.00 input   66.30 | X-H torsion
[ 10763 10752 10751 10750 ] final  -80.84 input  -60.55 | X-H torsion
[ 11005 11000 10999 10996 ] final  159.04 input  -57.11 | X-H torsion

> <Gold.Protein.ActiveResidues>
 VAL166  LYS551  ARG553  GLY616  TRP617  ASP618  TYR619  PRO620  LYS621  CYS622 
 ASP623  PHE694  ASN695  SER759  ASP760  ASP761  ALA762  ILE779  LEU786  VAL792 
 PHE793  MET794  SER795  GLU796  ALA797  LYS798  CYS799  TRP800  GLU811  SER814 

> <Gold.Protein.RotatedAtoms>
  151.4731  133.3564  159.2826 H   0  0  0  0  0  0  0  0  0  0  0  0  # atno 6907 bound_to 6896
  150.8948  134.8357  159.7329 H   0  0  0  0  0  0  0  0  0  0  0  0  # atno 6908 bound_to 6896
  152.4844  134.4645  159.9667 H   0  0  0  0  0  0  0  0  0  0  0  0  # atno 6909 bound_to 6896
  146.1231  139.6052  142.9276 H   0  0  0  0  0  0  0  0  0  0  0  0  # atno 7974 bound_to 7965
  155.1765  140.3296  155.4383 H   0  0  0  0  0  0  0  0  0  0  0  0  # atno 8008 bound_to 7997
  156.2492  140.1934  156.6815 H   0  0  0  0  0  0  0  0  0  0  0  0  # atno 8009 bound_to 7997
  154.6301  140.0583  156.9708 H   0  0  0  0  0  0  0  0  0  0  0  0  # atno 8010 bound_to 7997
  140.6279  143.8061  150.7256 H   0  0  0  0  0  0  0  0  0  0  0  0  # atno 10167 bound_to 10162
  157.3741  131.0983  151.0801 H   0  0  0  0  0  0  0  0  0  0  0  0  # atno 10718 bound_to 10713
  154.5562  135.5647  153.6966 H   0  0  0  0  0  0  0  0  0  0  0  0  # atno 10763 bound_to 10752
  153.0004  135.6263  154.2306 H   0  0  0  0  0  0  0  0  0  0  0  0  # atno 10764 bound_to 10752
  154.2243  135.2868  155.2893 H   0  0  0  0  0  0  0  0  0  0  0  0  # atno 10765 bound_to 10752
  140.1923  134.8398  157.2926 H   0  0  0  0  0  0  0  0  0  0  0  0  # atno 11005 bound_to 11000
  145.5423  141.0420  143.2323 LP  0  0  0  0  0  0  0  0  0  0  0  0  # atno 17320 bound_to 7965
  144.7616  139.6943  143.7232 LP  0  0  0  0  0  0  0  0  0  0  0  0  # atno 17321 bound_to 7965
  140.1665  143.4231  152.2031 LP  0  0  0  0  0  0  0  0  0  0  0  0  # atno 17342 bound_to 10162
  139.5496  144.7327  151.4475 LP  0  0  0  0  0  0  0  0  0  0  0  0  # atno 17343 bound_to 10162
  157.1894  130.6345  149.5699 LP  0  0  0  0  0  0  0  0  0  0  0  0  # atno 17370 bound_to 10713
  155.9761  130.4727  150.6508 LP  0  0  0  0  0  0  0  0  0  0  0  0  # atno 17371 bound_to 10713
  140.2146  134.4097  155.7596 LP  0  0  0  0  0  0  0  0  0  0  0  0  # atno 17394 bound_to 11000
  141.2226  133.7135  156.8393 LP  0  0  0  0  0  0  0  0  0  0  0  0  # atno 17395 bound_to 11000

$$$$
