AV-unprocessed.smi:720|AV-procd|sdf|3495|dock2
  -GOLD-   22720 0493D 1   1.00000     0.00000
 Structure written by MMmdl.
 47 49  0  0  0  0  0  0  0  0  2 V2000
  145.5718  136.4058  150.6066 C   0  0  0  0  0  0  0  0  0  0  0  0
  146.3039  136.6532  151.8699 N   0  3  0  0  0  0  0  0  0  0  0  0
  145.6632  135.9649  153.0123 C   0  0  0  0  0  0  0  0  0  0  0  0
  146.5327  138.0934  152.1456 C   0  0  0  0  0  0  0  0  0  0  0  0
  147.7240  138.3346  153.0912 C   0  0  0  0  0  0  0  0  0  0  0  0
  147.8186  139.7254  153.4899 N   0  0  0  0  0  0  0  0  0  0  0  0
  147.0389  140.7916  153.0878 C   0  0  0  0  0  0  0  0  0  0  0  0
  147.5068  141.9057  153.7252 C   0  0  0  0  0  0  0  0  0  0  0  0
  148.5886  141.4081  154.5025 C   0  0  0  0  0  0  0  0  0  0  0  0
  149.3463  142.2758  155.3286 N   0  0  0  0  0  0  0  0  0  0  0  0
  150.3713  141.9549  156.1424 C   0  0  0  0  0  0  0  0  0  0  0  0
  150.8217  140.8190  156.2831 O   0  0  0  0  0  0  0  0  0  0  0  0
  150.8859  142.9980  156.8179 N   0  0  0  0  0  0  0  0  0  0  0  0
  151.9963  142.9904  157.7748 C   0  0  2  0  0  0  0  0  0  0  0  0
  151.6107  142.2499  159.0744 C   0  0  0  0  0  0  0  0  0  0  0  0
  151.8385  143.3139  160.1640 C   0  0  2  0  0  0  0  0  0  0  0  0
  150.7447  144.3942  160.0676 C   0  0  0  0  0  0  0  0  0  0  0  0
  151.1453  145.1721  158.7999 C   0  0  0  0  0  0  0  0  0  0  0  0
  152.3846  144.3955  158.3049 C   0  0  1  0  0  0  0  0  0  0  0  0
  153.0587  144.0509  159.6284 C   0  0  0  0  0  0  0  0  0  0  0  0
  148.7796  140.1040  154.3595 N   0  0  0  0  0  0  0  0  0  0  0  0
  144.5846  136.8693  150.6286 H   0  0  0  0  0  0  0  0  0  0  0  0
  145.4399  135.3357  150.4438 H   0  0  0  0  0  0  0  0  0  0  0  0
  146.1153  136.7963  149.7471 H   0  0  0  0  0  0  0  0  0  0  0  0
  144.6713  136.3740  153.2087 H   0  0  0  0  0  0  0  0  0  0  0  0
  146.2636  136.0726  153.9164 H   0  0  0  0  0  0  0  0  0  0  0  0
  145.5598  134.8978  152.8128 H   0  0  0  0  0  0  0  0  0  0  0  0
  146.6682  138.6360  151.2087 H   0  0  0  0  0  0  0  0  0  0  0  0
  145.6348  138.5026  152.6114 H   0  0  0  0  0  0  0  0  0  0  0  0
  147.6264  137.7262  153.9915 H   0  0  0  0  0  0  0  0  0  0  0  0
  148.6649  138.0536  152.6182 H   0  0  0  0  0  0  0  0  0  0  0  0
  146.2237  140.6707  152.3896 H   0  0  0  0  0  0  0  0  0  0  0  0
  147.1327  142.9159  153.6468 H   0  0  0  0  0  0  0  0  0  0  0  0
  149.0743  143.2477  155.3105 H   0  0  0  0  0  0  0  0  0  0  0  0
  150.4632  143.8987  156.6449 H   0  0  0  0  0  0  0  0  0  0  0  0
  152.8650  142.4991  157.3326 H   0  0  0  0  0  0  0  0  0  0  0  0
  150.5840  141.8806  159.0749 H   0  0  0  0  0  0  0  0  0  0  0  0
  152.2665  141.3924  159.2307 H   0  0  0  0  0  0  0  0  0  0  0  0
  151.9537  142.8963  161.1645 H   0  0  0  0  0  0  0  0  0  0  0  0
  149.7459  143.9631  159.9930 H   0  0  0  0  0  0  0  0  0  0  0  0
  150.7634  145.0484  160.9402 H   0  0  0  0  0  0  0  0  0  0  0  0
  150.3407  145.2266  158.0667 H   0  0  0  0  0  0  0  0  0  0  0  0
  151.4175  146.1968  159.0567 H   0  0  0  0  0  0  0  0  0  0  0  0
  153.0061  144.9673  157.6153 H   0  0  0  0  0  0  0  0  0  0  0  0
  153.3297  144.9281  160.2191 H   0  0  0  0  0  0  0  0  0  0  0  0
  153.9360  143.4116  159.5142 H   0  0  0  0  0  0  0  0  0  0  0  0
  147.2163  136.2318  151.7680 H   0  0  0  0  0  0  0  0  0  0  0  0
  1  2  1  0  0  0  0
  1 22  1  0  0  0  0
  1 23  1  0  0  0  0
  1 24  1  0  0  0  0
  2  3  1  0  0  0  0
  2  4  1  0  0  0  0
  2 47  1  0  0  0  0
  3 25  1  0  0  0  0
  3 26  1  0  0  0  0
  3 27  1  0  0  0  0
  4  5  1  0  0  0  0
  4 28  1  0  0  0  0
  4 29  1  0  0  0  0
  5  6  1  0  0  0  0
  5 30  1  0  0  0  0
  5 31  1  0  0  0  0
  6 21  1  0  0  0  0
  6  7  1  0  0  0  0
  7  8  2  0  0  0  0
  7 32  1  0  0  0  0
  8  9  1  0  0  0  0
  8 33  1  0  0  0  0
  9 10  1  0  0  0  0
  9 21  2  0  0  0  0
 10 11  1  0  0  0  0
 10 34  1  0  0  0  0
 11 12  2  0  0  0  0
 11 13  1  0  0  0  0
 13 14  1  0  0  0  0
 13 35  1  0  0  0  0
 14 19  1  0  0  0  0
 14 15  1  0  0  0  0
 14 36  1  0  0  0  0
 15 16  1  0  0  0  0
 15 37  1  0  0  0  0
 15 38  1  0  0  0  0
 16 20  1  0  0  0  0
 16 17  1  0  0  0  0
 16 39  1  0  0  0  0
 17 18  1  0  0  0  0
 17 40  1  0  0  0  0
 17 41  1  0  0  0  0
 18 19  1  0  0  0  0
 18 42  1  0  0  0  0
 18 43  1  0  0  0  0
 19 20  1  0  0  0  0
 19 44  1  0  0  0  0
 20 45  1  0  0  0  0
 20 46  1  0  0  0  0
M  CHG  1   2   1
M  END
> <s_m_source_file>
AV-unprocessed.smi

> <i_m_source_file_index>
720

> <i_lp_mmshare_version>
43012

> <i_f3d_flags>
0

> <s_epik_input>
W0NIM11OKFtDSDNdKVtDSDJdW0NIMl1uMVtjSF1bY0hdYyhuMSlbTkhdQyg9TylbTkhdW0NASF0oW0NIMl1bQ0BIXTIzKVtDQEhdKFtDSDJdMylbQ0gyXVtDSDJdMg==

> <s_epik_cmdline>
J2VwaWtfcHl0aG9uJywgJy1waCcsICc3LjAnLCAnLXRuJywgJzgnLCAnLW1hJywgJzIwMCcsICctbWV0YWxfYmluZGluZycsICctaW1hZScsICc8aW5maWxlLm1hZT4nLCAnLW9tYWUnLCAnPG91dGZpbGUubWFlPic=

> <r_lp_tautomer_probability>
1

> <r_epik_Ionization_Penalty>
0.0272832

> <r_epik_Ionization_Penalty_Charging>
0.027243

> <r_epik_Ionization_Penalty_Neutral>
4.01867e-05

> <r_epik_State_Penalty>
0.0222865

> <r_epik_Charging_Adjusted_Penalty>
0.0495295

> <i_epik_Tot_Q>
1

> <i_epik_Tot_abs_Q>
1

> <r_epik_Metal_State_Penalty>
0.0222866

> <b_epik_Metal_Only>
0

> <s_lp_Force_Field>
OPLS_2005

> <r_lp_Energy>
60.2388

> <b_lp_Chiralities_Consistent>
1

> <s_lp_Variant>
AV-unprocessed.smi:720-1

> <Gold.Version>
5.8.1

> <Gold.Id.Protein>
6NUR|6NUR_protein|mol2

> <Gold.PLP.Fitness>
53.0865

> <Gold.PLP.PLP>
-38.9632

> <Gold.PLP.part.hbond>
-2.9807

> <Gold.PLP.part.metal>
0.0000

> <Gold.PLP.part.buried>
-0.4567

> <Gold.PLP.part.nonpolar>
-35.6894

> <Gold.PLP.part.repulsive>
0.4026

> <Gold.PLP.ligand.clash>
0.0000

> <Gold.PLP.ligand.torsion>
0.2488

> <Gold.PLP.Chemscore.Hbond>
3.8480

> <Gold.PLP.Chemscore.CHOScore>
1.0000

> <Gold.PLP.Chemscore.Metal>
0.0000

> <Gold.Chemscore.Hbonds>
donor molecule, donor type, donor heavy atom, donor atom, acceptor molecule, acceptor atom, score
      L1  H     2    47       P1  7948  2.00
      L1  H    10    34       P1  8028  0.96
      L1  H    13    35       P1  8028  0.83
      L1  C     7    32       P1 10175  0.99

> <Gold.PLP.Chemscore.Internal.Correction>
0.0768

> <Gold.Rescore>
     Score         DG    S(hbond)    S(metal)    S(lipo)     H(rot)  DE(clash)    DE(int)     intcor
     20.27     -24.29       2.81        0.00     116.01       1.62       2.43       1.59       ----

> <Gold.Chemscore.Fitness>
20.2706

> <Gold.Chemscore.DG>
-24.2915

> <Gold.Chemscore.ZeroCoef>
-5.4800

> <Gold.Chemscore.Hbond>
2.8110

> <Gold.Chemscore.Metal>
0.0000

> <Gold.Chemscore.Lipo>
116.0090

> <Gold.Chemscore.Internal_Hbond>
0.0000

> <Gold.Chemscore.DEClash>
2.4344

> <Gold.Chemscore.DEInternal>
1.5865

> <Gold.Chemscore.Rot>
1.6212

> <Gold.Chemscore.Internal.Correction>
   9.000000E+99

> <Gold.Chemscore.Hbonds>
donor molecule, donor type, donor heavy atom, donor atom, acceptor molecule, acceptor atom, score
      L1  H     2    47       P1  7948  0.98
      L1  H    10    34       P1  8028  0.91
      L1  H    13    35       P1  8028  0.77

> <Gold.Chemscore.Hbond.Weighted>
-9.3886

> <Gold.Chemscore.Metal.Weighted>
-0.0000

> <Gold.Chemscore.Lipo.Weighted>
-13.5731

> <Gold.Chemscore.Internal_Hbond.Weighted>
0.0000

> <Gold.Chemscore.DEClash.Weighted>
2.4344

> <Gold.Chemscore.DEInternal.Weighted>
1.5865

> <Gold.Chemscore.Rot.Weighted>
4.1502

> <Gold.Chemscore.Internal.Correction.Weighted>
   9.000000E+99

> <Gold.Protein.RotatedTorsions>
[ 6907 6896 6895 6894 ] final  -22.99 input  -60.11 | X-H torsion
[ 7974 7965 7964 7962 ] final  138.18 input  175.53 | X-H torsion
[ 8008 7997 7996 7995 ] final  177.18 input   59.86 | X-H torsion
[ 10167 10162 10161 10158 ] final  174.92 input  -65.29 | X-H torsion
[ 10718 10713 10712 10709 ] final  -16.16 input   66.30 | X-H torsion
[ 10763 10752 10751 10750 ] final  -96.22 input  -60.55 | X-H torsion
[ 11005 11000 10999 10996 ] final -131.52 input  -57.11 | X-H torsion

> <Gold.Protein.ActiveResidues>
 VAL166  LYS551  ARG553  GLY616  TRP617  ASP618  TYR619  PRO620  LYS621  CYS622 
 ASP623  PHE694  ASN695  SER759  ASP760  ASP761  ALA762  ILE779  LEU786  VAL792 
 PHE793  MET794  SER795  GLU796  ALA797  LYS798  CYS799  TRP800  GLU811  SER814 

> <Gold.Protein.RotatedAtoms>
  151.2106  135.0479  159.8909 H   0  0  0  0  0  0  0  0  0  0  0  0  # atno 6907 bound_to 6896
  152.5425  134.0749  159.8220 H   0  0  0  0  0  0  0  0  0  0  0  0  # atno 6908 bound_to 6896
  151.0902  133.5274  159.2647 H   0  0  0  0  0  0  0  0  0  0  0  0  # atno 6909 bound_to 6896
  144.9397  139.4946  143.5578 H   0  0  0  0  0  0  0  0  0  0  0  0  # atno 7974 bound_to 7965
  156.0684  140.1365  156.9858 H   0  0  0  0  0  0  0  0  0  0  0  0  # atno 8008 bound_to 7997
  154.4518  140.0977  156.6694 H   0  0  0  0  0  0  0  0  0  0  0  0  # atno 8009 bound_to 7997
  155.5267  140.3457  155.4420 H   0  0  0  0  0  0  0  0  0  0  0  0  # atno 8010 bound_to 7997
  139.5158  144.3091  152.0308 H   0  0  0  0  0  0  0  0  0  0  0  0  # atno 10167 bound_to 10162
  156.5915  130.4800  149.6277 H   0  0  0  0  0  0  0  0  0  0  0  0  # atno 10718 bound_to 10713
  154.7219  135.5092  153.8826 H   0  0  0  0  0  0  0  0  0  0  0  0  # atno 10763 bound_to 10752
  153.0870  135.6648  153.9937 H   0  0  0  0  0  0  0  0  0  0  0  0  # atno 10764 bound_to 10752
  153.9758  135.3034  155.3403 H   0  0  0  0  0  0  0  0  0  0  0  0  # atno 10765 bound_to 10752
  140.9251  134.1393  157.4282 H   0  0  0  0  0  0  0  0  0  0  0  0  # atno 11005 bound_to 11000
  146.3281  139.8407  142.8891 LP  0  0  0  0  0  0  0  0  0  0  0  0  # atno 17320 bound_to 7965
  145.3011  141.0194  143.3608 LP  0  0  0  0  0  0  0  0  0  0  0  0  # atno 17321 bound_to 7965
  140.2536  144.4142  150.6212 LP  0  0  0  0  0  0  0  0  0  0  0  0  # atno 17342 bound_to 10162
  140.6207  143.2176  151.6700 LP  0  0  0  0  0  0  0  0  0  0  0  0  # atno 17343 bound_to 10162
  156.2546  130.6927  151.1675 LP  0  0  0  0  0  0  0  0  0  0  0  0  # atno 17370 bound_to 10713
  157.7302  131.0618  150.5736 LP  0  0  0  0  0  0  0  0  0  0  0  0  # atno 17371 bound_to 10713
  139.8784  134.9985  156.5905 LP  0  0  0  0  0  0  0  0  0  0  0  0  # atno 17394 bound_to 11000
  140.7936  133.8562  155.8667 LP  0  0  0  0  0  0  0  0  0  0  0  0  # atno 17395 bound_to 11000

$$$$
