#       Name:                AV-unprocessed.smi:2453
#       Creating user name   scv26
#       Creation time:       Fri Mar 27 13:32:48 2020


#       File generated by GOLD software.
#

@<TRIPOS>MOLECULE
AV-unprocessed.smi:2453
    45    46     1
SMALL
NO_CHARGES


@<TRIPOS>ATOM
      1 ****        -3.9978  -0.0876  -0.6664 C.3            1 S1                 0.0000
      2 ****        -3.7846   1.3380  -0.1880 C.ar           1 S1                 0.0000
      3 ****        -4.8704   2.2398  -0.1587 C.ar           1 S1                 0.0000
      4 ****        -4.7671   3.5194   0.2550 N.ar           1 S1                 0.0000
      5 ****        -3.5574   3.9499   0.6677 C.ar           1 S1                 0.0000
      6 ****        -2.4074   3.1369   0.6814 C.ar           1 S1                 0.0000
      7 ****        -2.5121   1.7982   0.2310 C.ar           1 S1                 0.0000
      8 ****        -1.4183   0.8860   0.2140 N.am           1 S1                 0.0000
      9 ****        -0.0987   1.1435   0.2169 C.2            1 S1                 0.0000
     10 ****         0.4123   2.2629   0.2344 O.2            1 S1                 0.0000
     11 ****         0.6127   0.0077   0.1788 N.am           1 S1                 0.0000
     12 ****         2.0742  -0.0819   0.1738 C.3            1 S1                 0.0000
     13 ****         2.6375   0.1496  -1.2456 C.3            1 S1                 0.0000
     14 ****         2.3120  -1.0141  -2.1967 C.3            1 S1                 0.0000
     15 ****         2.7966  -2.3524  -1.6213 C.3            1 S1                 0.0000
     16 ****         2.2237  -2.5975  -0.2163 C.3            1 S1                 0.0000
     17 ****         2.5587  -1.4401   0.7490 C.3            1 S1                 0.0000
     18 ****         2.0351  -1.7346   2.1708 C.3            1 S1                 0.0000
     19 ****         2.5172  -0.7790   3.0921 O.3            1 S1                 0.0000
     20 ****        -5.0318  -0.2541  -0.9695 H              1 S1                 0.0000
     21 ****        -3.7621  -0.7951   0.1291 H              1 S1                 0.0000
     22 ****        -3.3576  -0.3026  -1.5224 H              1 S1                 0.0000
     23 ****        -5.8545   1.9268  -0.4755 H              1 S1                 0.0000
     24 ****        -3.5048   4.9745   1.0049 H              1 S1                 0.0000
     25 ****        -1.4813   3.5531   1.0458 H              1 S1                 0.0000
     26 ****        -1.6750  -0.0861   0.1250 H              1 S1                 0.0000
     27 ****         0.1082  -0.8663   0.1565 H              1 S1                 0.0000
     28 ****         2.4609   0.7102   0.8175 H              1 S1                 0.0000
     29 ****         2.2614   1.0857  -1.6597 H              1 S1                 0.0000
     30 ****         3.7204   0.2642  -1.1836 H              1 S1                 0.0000
     31 ****         1.2366  -1.0579  -2.3737 H              1 S1                 0.0000
     32 ****         2.7765  -0.8395  -3.1675 H              1 S1                 0.0000
     33 ****         2.5109  -3.1673  -2.2869 H              1 S1                 0.0000
     34 ****         3.8865  -2.3576  -1.5775 H              1 S1                 0.0000
     35 ****         1.1428  -2.7286  -0.2808 H              1 S1                 0.0000
     36 ****         2.6219  -3.5347   0.1741 H              1 S1                 0.0000
     37 ****         3.6470  -1.3927   0.8161 H              1 S1                 0.0000
     38 ****         0.9455  -1.7517   2.2020 H              1 S1                 0.0000
     39 ****         2.3755  -2.7168   2.4999 H              1 S1                 0.0000
     40 ****         2.2087  -1.0094   3.9552 H              1 S1                 0.0000
     41 ****        -5.5605   4.1282   0.2557 LP             1 S1                 0.0000
     42 ****        -0.1680   3.0773   0.2480 LP             1 S1                 0.0000
     43 ****         1.4077   2.3582   0.2350 LP             1 S1                 0.0000
     44 ****         2.1781   0.1286   2.8444 LP             1 S1                 0.0000
     45 ****         3.5171  -0.7756   3.0816 LP             1 S1                 0.0000
@<TRIPOS>BOND
    1    1    2 1     
    2    1   20 1     
    3    1   21 1     
    4    1   22 1     
    5    2    7 ar    
    6    2    3 ar    
    7    3    4 ar    
    8    3   23 1     
    9    4    5 ar    
   10    5    6 ar    
   11    5   24 1     
   12    6    7 ar    
   13    6   25 1     
   14    7    8 1     
   15    8    9 am    
   16    8   26 1     
   17    9   10 2     
   18    9   11 am    
   19   11   12 1     
   20   11   27 1     
   21   12   17 1     
   22   12   13 1     
   23   12   28 1     
   24   13   14 1     
   25   13   29 1     
   26   13   30 1     
   27   14   15 1     
   28   14   31 1     
   29   14   32 1     
   30   15   16 1     
   31   15   33 1     
   32   15   34 1     
   33   16   17 1     
   34   16   35 1     
   35   16   36 1     
   36   17   18 1     
   37   17   37 1     
   38   18   19 1     
   39   18   38 1     
   40   18   39 1     
   41   19   40 1     
   42    4   41 1     
   43   10   42 1     
   44   10   43 1     
   45   19   44 1     
   46   19   45 1     
@<TRIPOS>SUBSTRUCTURE
      1 S1             1
@<TRIPOS>SET
LONE_PAIRS      STATIC     ATOMS    <user>   **** ""
5 41 42 43 44 45
DONOR_HYDROGENS      STATIC     ATOMS    <user>   **** ""
3 26 27 40
ATOM$BLUE        STATIC     ATOMS    COLORGROUP SYSTEM
5 41 42 43 44 45
ATOM$RED        STATIC     ATOMS    COLORGROUP SYSTEM
3 26 27 40
