#       Name:                AV-unprocessed.smi:1005
#       Creating user name   scv26
#       Creation time:       Fri Mar 27 02:28:25 2020


#       File generated by GOLD software.
#

@<TRIPOS>MOLECULE
AV-unprocessed.smi:1005
    62    64     1
SMALL
NO_CHARGES


@<TRIPOS>ATOM
      1 ****        -5.9974   2.9849   3.7680 C.3            1 S1                 0.0000
      2 ****        -4.8244   2.9340   2.8049 C.ar           1 S1                 0.0000
      3 ****        -5.0771   2.9142   1.4146 C.ar           1 S1                 0.0000
      4 ****        -4.0145   2.8633   0.4861 C.ar           1 S1                 0.0000
      5 ****        -4.0301   2.8282  -0.8978 N.2            1 S1                 0.0000
      6 ****        -2.7315   2.7836  -1.1802 C.2            1 S1                 0.0000
      7 ****        -1.8740   2.7829  -0.1415 N.pl3          1 S1                 0.0000
      8 ****        -0.4239   2.7349  -0.2068 C.3            1 S1                 0.0000
      9 ****         0.1197   1.2929  -0.2018 C.3            1 S1                 0.0000
     10 ****        -0.2482   0.6544   1.0063 O.3            1 S1                 0.0000
     11 ****         1.6564   1.2638  -0.3260 C.3            1 S1                 0.0000
     12 ****         2.2099  -0.1149  -0.3236 N.4            1 S1                 1.0000
     13 ****         3.6448  -0.1486   0.0445 C.3            1 S1                 0.0000
     14 ****         4.1488  -1.5996   0.1038 C.3            1 S1                 0.0000
     15 ****         3.9109  -2.2385  -1.1451 O.3            1 S1                 0.0000
     16 ****         2.5254  -2.2992  -1.4688 C.3            1 S1                 0.0000
     17 ****         2.3749  -3.0748  -2.7913 C.3            1 S1                 0.0000
     18 ****         2.7957  -4.4955  -2.6809 N.4            1 S1                 1.0000
     19 ****         1.8231  -5.3444  -1.9537 C.3            1 S1                 0.0000
     20 ****         3.1399  -5.0767  -3.9975 C.3            1 S1                 0.0000
     21 ****         1.9860  -0.8593  -1.5878 C.3            1 S1                 0.0000
     22 ****        -2.6812   2.8371   0.9902 C.ar           1 S1                 0.0000
     23 ****        -2.4170   2.8596   2.3711 C.ar           1 S1                 0.0000
     24 ****        -3.4903   2.9042   3.2852 C.ar           1 S1                 0.0000
     25 ****        -3.1942   2.9164   4.7744 C.3            1 S1                 0.0000
     26 ****        -6.9475   3.0380   3.2359 H              1 S1                 0.0000
     27 ****        -5.9263   3.8613   4.4124 H              1 S1                 0.0000
     28 ****        -6.0148   2.0935   4.3954 H              1 S1                 0.0000
     29 ****        -6.0931   2.9352   1.0485 H              1 S1                 0.0000
     30 ****        -2.3827   2.7466  -2.2021 H              1 S1                 0.0000
     31 ****        -0.1072   3.2519  -1.1137 H              1 S1                 0.0000
     32 ****        -0.0187   3.3036   0.6313 H              1 S1                 0.0000
     33 ****        -0.3389   0.7502  -1.0279 H              1 S1                 0.0000
     34 ****        -1.1866   0.7187   1.1065 H              1 S1                 0.0000
     35 ****         1.9780   1.7822  -1.2305 H              1 S1                 0.0000
     36 ****         2.0789   1.8213   0.5117 H              1 S1                 0.0000
     37 ****         4.2236   0.4199  -0.6854 H              1 S1                 0.0000
     38 ****         3.7920   0.3290   1.0140 H              1 S1                 0.0000
     39 ****         5.2187  -1.6165   0.3120 H              1 S1                 0.0000
     40 ****         3.6587  -2.1509   0.9081 H              1 S1                 0.0000
     41 ****         1.9853  -2.8104  -0.6713 H              1 S1                 0.0000
     42 ****         1.3435  -3.0334  -3.1448 H              1 S1                 0.0000
     43 ****         2.9784  -2.5750  -3.5510 H              1 S1                 0.0000
     44 ****         0.8575  -5.3558  -2.4609 H              1 S1                 0.0000
     45 ****         1.6690  -4.9971  -0.9330 H              1 S1                 0.0000
     46 ****         2.1831  -6.3720  -1.8913 H              1 S1                 0.0000
     47 ****         2.2707  -5.0963  -4.6563 H              1 S1                 0.0000
     48 ****         3.5070  -6.0975  -3.8853 H              1 S1                 0.0000
     49 ****         3.9260  -4.4981  -4.4841 H              1 S1                 0.0000
     50 ****         0.9230  -0.8949  -1.8231 H              1 S1                 0.0000
     51 ****         2.4780  -0.3370  -2.4101 H              1 S1                 0.0000
     52 ****        -1.3964   2.8373   2.7238 H              1 S1                 0.0000
     53 ****        -2.1240   2.8365   4.9680 H              1 S1                 0.0000
     54 ****        -3.6850   2.0780   5.2692 H              1 S1                 0.0000
     55 ****        -3.5494   3.8425   5.2268 H              1 S1                 0.0000
     56 ****         3.6522  -4.5019  -2.1446 H              1 S1                 0.0000
     57 ****         1.7181  -0.6104   0.4071 H              1 S1                 0.0000
     58 ****        -4.8122   2.8347  -1.5210 LP             1 S1                 0.0000
     59 ****         0.2047   1.1033   1.7765 LP             1 S1                 0.0000
     60 ****         0.0224  -0.3078   0.9752 LP             1 S1                 0.0000
     61 ****         4.2719  -3.1701  -1.1032 LP             1 S1                 0.0000
     62 ****         4.3861  -1.7288  -1.8623 LP             1 S1                 0.0000
@<TRIPOS>BOND
    1    1    2 1     
    2    1   26 1     
    3    1   27 1     
    4    1   28 1     
    5    2   24 ar    
    6    2    3 ar    
    7    3    4 ar    
    8    3   29 1     
    9    4   22 ar    
   10    4    5 1     
   11    5    6 2     
   12    6    7 1     
   13    6   30 1     
   14    7    8 1     
   15    7   22 1     
   16    8    9 1     
   17    8   31 1     
   18    8   32 1     
   19    9   10 1     
   20    9   11 1     
   21    9   33 1     
   22   10   34 1     
   23   11   12 1     
   24   11   35 1     
   25   11   36 1     
   26   12   21 1     
   27   12   13 1     
   28   12   57 1     
   29   13   14 1     
   30   13   37 1     
   31   13   38 1     
   32   14   15 1     
   33   14   39 1     
   34   14   40 1     
   35   15   16 1     
   36   16   17 1     
   37   16   21 1     
   38   16   41 1     
   39   17   18 1     
   40   17   42 1     
   41   17   43 1     
   42   18   19 1     
   43   18   20 1     
   44   18   56 1     
   45   19   44 1     
   46   19   45 1     
   47   19   46 1     
   48   20   47 1     
   49   20   48 1     
   50   20   49 1     
   51   21   50 1     
   52   21   51 1     
   53   22   23 ar    
   54   23   24 ar    
   55   23   52 1     
   56   24   25 1     
   57   25   53 1     
   58   25   54 1     
   59   25   55 1     
   60    5   58 1     
   61   10   59 1     
   62   10   60 1     
   63   15   61 1     
   64   15   62 1     
@<TRIPOS>SUBSTRUCTURE
      1 S1             1
@<TRIPOS>SET
LONE_PAIRS      STATIC     ATOMS    <user>   **** ""
5 58 59 60 61 62
DONOR_HYDROGENS      STATIC     ATOMS    <user>   **** ""
3 34 57 56
ATOM$BLUE        STATIC     ATOMS    COLORGROUP SYSTEM
5 58 59 60 61 62
ATOM$RED        STATIC     ATOMS    COLORGROUP SYSTEM
3 34 57 56
