AV-unprocessed.smi:1545|AV-procd|sdf|6216|dock9
  -GOLD-   22720 6393D 1   1.00000     0.00000
 Structure written by MMmdl.
 41 43  0  0  0  0  0  0  0  0  1 V2000
  150.7272  136.4877  158.5978 O   0  0  0  0  0  0  0  0  0  0  0  0
  150.7493  136.2819  157.2016 C   0  0  0  0  0  0  0  0  0  0  0  0
  151.8293  137.1577  156.5501 C   0  0  0  0  0  0  0  0  0  0  0  0
  151.3319  138.4793  156.2145 N   0  0  0  0  0  0  0  0  0  0  0  0
  150.2840  138.9050  155.4064 C   0  0  0  0  0  0  0  0  0  0  0  0
  149.4786  138.0840  154.7355 N   0  0  0  0  0  0  0  0  0  0  0  0
  148.6246  138.9656  154.1001 C   0  0  0  0  0  0  0  0  0  0  0  0
  147.5361  138.7230  153.2319 C   0  0  0  0  0  0  0  0  0  0  0  0
  146.7973  139.7978  152.6957 C   0  0  0  0  0  0  0  0  0  0  0  0
  147.1347  141.1282  153.0192 C   0  0  0  0  0  0  0  0  0  0  0  0
  148.2152  141.3933  153.8823 C   0  0  0  0  0  0  0  0  0  0  0  0
  148.9508  140.3173  154.4146 C   0  0  0  0  0  0  0  0  0  0  0  0
  150.0430  140.2305  155.2731 N   0  0  0  0  0  0  0  0  0  0  0  0
  150.7593  141.3388  155.8906 C   0  0  0  0  0  0  0  0  0  0  0  0
  150.1745  141.7290  157.2626 C   0  0  2  0  0  0  0  0  0  0  0  0
  148.9624  142.4371  157.0879 O   0  0  0  0  0  0  0  0  0  0  0  0
  151.1817  142.5065  158.0948 C   0  0  0  0  0  0  0  0  0  0  0  0
  151.5761  143.8012  157.6935 C   0  0  0  0  0  0  0  0  0  0  0  0
  152.5013  144.5324  158.4636 C   0  0  0  0  0  0  0  0  0  0  0  0
  153.0352  143.9746  159.6410 C   0  0  0  0  0  0  0  0  0  0  0  0
  152.6428  142.6852  160.0487 C   0  0  0  0  0  0  0  0  0  0  0  0
  153.1530  142.1495  161.1826 F   0  0  0  0  0  0  0  0  0  0  0  0
  151.7183  141.9530  159.2786 C   0  0  0  0  0  0  0  0  0  0  0  0
  150.7849  137.4156  158.7667 H   0  0  0  0  0  0  0  0  0  0  0  0
  150.8892  135.2249  156.9710 H   0  0  0  0  0  0  0  0  0  0  0  0
  149.7700  136.5668  156.8168 H   0  0  0  0  0  0  0  0  0  0  0  0
  152.6487  137.2985  157.2550 H   0  0  0  0  0  0  0  0  0  0  0  0
  152.2544  136.6747  155.6692 H   0  0  0  0  0  0  0  0  0  0  0  0
  151.8217  139.2243  156.6877 H   0  0  0  0  0  0  0  0  0  0  0  0
  147.2697  137.7075  152.9788 H   0  0  0  0  0  0  0  0  0  0  0  0
  145.9676  139.5999  152.0333 H   0  0  0  0  0  0  0  0  0  0  0  0
  146.5632  141.9455  152.6045 H   0  0  0  0  0  0  0  0  0  0  0  0
  148.4738  142.4113  154.1324 H   0  0  0  0  0  0  0  0  0  0  0  0
  151.8082  141.0574  155.9932 H   0  0  0  0  0  0  0  0  0  0  0  0
  150.7413  142.1914  155.2109 H   0  0  0  0  0  0  0  0  0  0  0  0
  149.9204  140.8196  157.8087 H   0  0  0  0  0  0  0  0  0  0  0  0
  149.1278  143.1845  156.5342 H   0  0  0  0  0  0  0  0  0  0  0  0
  151.1698  144.2393  156.7936 H   0  0  0  0  0  0  0  0  0  0  0  0
  152.8006  145.5222  158.1517 H   0  0  0  0  0  0  0  0  0  0  0  0
  153.7437  144.5363  160.2316 H   0  0  0  0  0  0  0  0  0  0  0  0
  151.4210  140.9662  159.6018 H   0  0  0  0  0  0  0  0  0  0  0  0
  1  2  1  0  0  0  0
  1 24  1  0  0  0  0
  2  3  1  0  0  0  0
  2 25  1  0  0  0  0
  2 26  1  0  0  0  0
  3  4  1  0  0  0  0
  3 27  1  0  0  0  0
  3 28  1  0  0  0  0
  4  5  1  0  0  0  0
  4 29  1  0  0  0  0
  5 13  1  0  0  0  0
  5  6  2  0  0  0  0
  6  7  1  0  0  0  0
  7 12  2  0  0  0  0
  7  8  1  0  0  0  0
  8  9  2  0  0  0  0
  8 30  1  0  0  0  0
  9 10  1  0  0  0  0
  9 31  1  0  0  0  0
 10 11  2  0  0  0  0
 10 32  1  0  0  0  0
 11 12  1  0  0  0  0
 11 33  1  0  0  0  0
 12 13  1  0  0  0  0
 13 14  1  0  0  0  0
 14 15  1  0  0  0  0
 14 34  1  0  0  0  0
 14 35  1  0  0  0  0
 15 16  1  0  0  0  0
 15 17  1  0  0  0  0
 15 36  1  0  0  0  0
 16 37  1  0  0  0  0
 17 23  1  0  0  0  0
 17 18  2  0  0  0  0
 18 19  1  0  0  0  0
 18 38  1  0  0  0  0
 19 20  2  0  0  0  0
 19 39  1  0  0  0  0
 20 21  1  0  0  0  0
 20 40  1  0  0  0  0
 21 22  1  0  0  0  0
 21 23  2  0  0  0  0
 23 41  1  0  0  0  0
M  END
> <s_m_source_file>
AV-unprocessed.smi

> <i_m_source_file_index>
1545

> <i_lp_mmshare_version>
43012

> <i_f3d_flags>
0

> <s_epik_input>
W09IXVtDSDJdW0NIMl1bTkhdYyhuMSluKGMoYzEyKVtjSF1bY0hdW2NIXVtjSF0yKVtDSDJdW0NASF0oW09IXSljM1tjSF1bY0hdW2NIXWMoRilbY0hdMw==

> <s_epik_cmdline>
J2VwaWtfcHl0aG9uJywgJy1waCcsICc3LjAnLCAnLXRuJywgJzgnLCAnLW1hJywgJzIwMCcsICctbWV0YWxfYmluZGluZycsICctaW1hZScsICc8aW5maWxlLm1hZT4nLCAnLW9tYWUnLCAnPG91dGZpbGUubWFlPic=

> <r_epik_Ionization_Penalty>
1.30972

> <r_epik_Ionization_Penalty_Charging>
0

> <r_epik_Ionization_Penalty_Neutral>
1.30972

> <r_epik_State_Penalty>
1.38438

> <r_epik_Charging_Adjusted_Penalty>
1.38438

> <i_epik_Tot_Q>
0

> <i_epik_Tot_abs_Q>
0

> <r_epik_Metal_State_Penalty>
0.00551145

> <b_epik_Metal_Only>
0

> <s_lp_Force_Field>
OPLS_2005

> <r_lp_Energy>
9.7293

> <b_lp_Chiralities_Consistent>
1

> <s_lp_Variant>
AV-unprocessed.smi:1545-3

> <Gold.Version>
5.8.1

> <Gold.Id.Protein>
6NUR|6NUR_protein|mol2

> <Gold.PLP.Fitness>
51.1121

> <Gold.PLP.PLP>
-46.7818

> <Gold.PLP.part.hbond>
-2.0000

> <Gold.PLP.part.metal>
0.0000

> <Gold.PLP.part.buried>
-2.2808

> <Gold.PLP.part.nonpolar>
-41.9444

> <Gold.PLP.part.repulsive>
0.2407

> <Gold.PLP.ligand.clash>
0.0000

> <Gold.PLP.ligand.torsion>
0.7478

> <Gold.PLP.Chemscore.Hbond>
1.9280

> <Gold.PLP.Chemscore.CHOScore>
0.0000

> <Gold.PLP.Chemscore.Metal>
0.0000

> <Gold.Chemscore.Hbonds>
donor molecule, donor type, donor heavy atom, donor atom, acceptor molecule, acceptor atom, score
      L1  H    16    37       P1  8028  1.00
      P1  H  6896  6908       L1     1  0.93

> <Gold.PLP.Chemscore.Internal.Correction>
0.0419

> <Gold.Rescore>
     Score         DG    S(hbond)    S(metal)    S(lipo)     H(rot)  DE(clash)    DE(int)     intcor
     18.04     -19.16       1.91        0.00     129.83       3.08       0.31       0.81       ----

> <Gold.Chemscore.Fitness>
18.0416

> <Gold.Chemscore.DG>
-19.1619

> <Gold.Chemscore.ZeroCoef>
-5.4800

> <Gold.Chemscore.Hbond>
1.9102

> <Gold.Chemscore.Metal>
0.0000

> <Gold.Chemscore.Lipo>
129.8253

> <Gold.Chemscore.Internal_Hbond>
0.0000

> <Gold.Chemscore.DEClash>
0.3104

> <Gold.Chemscore.DEInternal>
0.8098

> <Gold.Chemscore.Rot>
3.0812

> <Gold.Chemscore.Internal.Correction>
   9.000000E+99

> <Gold.Chemscore.Hbonds>
donor molecule, donor type, donor heavy atom, donor atom, acceptor molecule, acceptor atom, score
      L1  H    16    37       P1  8028  0.99
      P1  H  6896  6908       L1     1  0.87

> <Gold.Chemscore.Hbond.Weighted>
-6.3801

> <Gold.Chemscore.Metal.Weighted>
-0.0000

> <Gold.Chemscore.Lipo.Weighted>
-15.1896

> <Gold.Chemscore.Internal_Hbond.Weighted>
0.0000

> <Gold.Chemscore.DEClash.Weighted>
0.3104

> <Gold.Chemscore.DEInternal.Weighted>
0.8098

> <Gold.Chemscore.Rot.Weighted>
7.8878

> <Gold.Chemscore.Internal.Correction.Weighted>
   9.000000E+99

> <Gold.Protein.RotatedTorsions>
[ 6907 6896 6895 6894 ] final -155.24 input  -60.11 | X-H torsion
[ 7974 7965 7964 7962 ] final  -17.49 input  175.53 | X-H torsion
[ 8008 7997 7996 7995 ] final  -20.23 input   59.86 | X-H torsion
[ 10167 10162 10161 10158 ] final   64.57 input  -65.29 | X-H torsion
[ 10718 10713 10712 10709 ] final   56.13 input   66.30 | X-H torsion
[ 10763 10752 10751 10750 ] final  -62.90 input  -60.55 | X-H torsion
[ 11005 11000 10999 10996 ] final  -66.80 input  -57.11 | X-H torsion

> <Gold.Protein.ActiveResidues>
 VAL166  LYS551  ARG553  GLY616  TRP617  ASP618  TYR619  PRO620  LYS621  CYS622 
 ASP623  PHE694  ASN695  SER759  ASP760  ASP761  ALA762  ILE779  LEU786  VAL792 
 PHE793  MET794  SER795  GLU796  ALA797  LYS798  CYS799  TRP800  GLU811  SER814 

> <Gold.Protein.RotatedAtoms>
  151.2696  133.4262  159.2620 H   0  0  0  0  0  0  0  0  0  0  0  0  # atno 6907 bound_to 6896
  151.0457  134.9638  159.8195 H   0  0  0  0  0  0  0  0  0  0  0  0  # atno 6908 bound_to 6896
  152.5373  134.2652  159.9003 H   0  0  0  0  0  0  0  0  0  0  0  0  # atno 6909 bound_to 6896
  146.1938  140.3786  142.8448 H   0  0  0  0  0  0  0  0  0  0  0  0  # atno 7974 bound_to 7965
  154.4784  140.2067  155.9823 H   0  0  0  0  0  0  0  0  0  0  0  0  # atno 8008 bound_to 7997
  156.1126  140.3226  155.8063 H   0  0  0  0  0  0  0  0  0  0  0  0  # atno 8009 bound_to 7997
  155.4609  140.0524  157.2982 H   0  0  0  0  0  0  0  0  0  0  0  0  # atno 8010 bound_to 7997
  140.1207  144.4734  150.6922 H   0  0  0  0  0  0  0  0  0  0  0  0  # atno 10167 bound_to 10162
  157.5405  130.8693  149.8815 H   0  0  0  0  0  0  0  0  0  0  0  0  # atno 10718 bound_to 10713
  154.3068  135.6223  153.5448 H   0  0  0  0  0  0  0  0  0  0  0  0  # atno 10763 bound_to 10752
  152.9834  135.5691  154.5222 H   0  0  0  0  0  0  0  0  0  0  0  0  # atno 10764 bound_to 10752
  154.4863  135.2865  155.1508 H   0  0  0  0  0  0  0  0  0  0  0  0  # atno 10765 bound_to 10752
  141.1492  133.6706  156.6195 H   0  0  0  0  0  0  0  0  0  0  0  0  # atno 11005 bound_to 11000
  144.8540  140.7043  143.6150 LP  0  0  0  0  0  0  0  0  0  0  0  0  # atno 17320 bound_to 7965
  145.3708  139.1659  143.4333 LP  0  0  0  0  0  0  0  0  0  0  0  0  # atno 17321 bound_to 7965
  140.6873  143.2357  151.5225 LP  0  0  0  0  0  0  0  0  0  0  0  0  # atno 17342 bound_to 10162
  139.5570  144.2251  152.1629 LP  0  0  0  0  0  0  0  0  0  0  0  0  # atno 17343 bound_to 10162
  156.0493  130.3721  150.1241 LP  0  0  0  0  0  0  0  0  0  0  0  0  # atno 17370 bound_to 10713
  156.9421  130.9748  151.3514 LP  0  0  0  0  0  0  0  0  0  0  0  0  # atno 17371 bound_to 10713
  140.3551  134.7735  157.4494 LP  0  0  0  0  0  0  0  0  0  0  0  0  # atno 17394 bound_to 11000
  140.0829  134.5706  155.8522 LP  0  0  0  0  0  0  0  0  0  0  0  0  # atno 17395 bound_to 11000

$$$$
