AV-unprocessed.smi:2427|AV-procd|sdf|9579|dock9
  -GOLD-   2272013213D 1   1.00000     0.00000
 Structure written by MMmdl.
 35 36  0  0  0  0  0  0  0  0  3 V2000
  145.7634  138.3855  154.7031 O   0  0  0  0  0  0  0  0  0  0  0  0
  146.7264  138.1521  153.9709 C   0  0  0  0  0  0  0  0  0  0  0  0
  147.4848  139.2892  153.2705 C   0  0  0  0  0  0  0  0  0  0  0  0
  148.6885  139.7281  153.9967 N   0  0  0  0  0  0  0  0  0  0  0  0
  149.7780  138.8351  154.0240 C   0  0  0  0  0  0  0  0  0  0  0  0
  150.9275  139.1273  154.6631 C   0  0  0  0  0  0  0  0  0  0  0  0
  152.0340  138.1960  154.6851 N   0  3  0  0  0  0  0  0  0  0  0  0
  151.8702  137.0761  154.2116 O   0  0  0  0  0  0  0  0  0  0  0  0
  153.1017  138.5510  155.1758 O   0  5  0  0  0  0  0  0  0  0  0  0
  151.0181  140.4093  155.3348 C   0  0  0  0  0  0  0  0  0  0  0  0
  149.9778  141.2657  155.3167 C   0  0  0  0  0  0  0  0  0  0  0  0
  148.7264  140.9439  154.6231 C   0  0  0  0  0  0  0  0  0  0  0  0
  147.7709  141.7201  154.6067 O   0  0  0  0  0  0  0  0  0  0  0  0
  147.1888  136.9142  153.7406 N   0  0  0  0  0  0  0  0  0  0  0  0
  146.6325  135.6905  154.3060 C   0  0  0  0  0  0  0  0  0  0  0  0
  145.7821  134.9235  153.2792 C   0  0  1  0  0  0  0  0  0  0  0  0
  145.1181  135.8189  152.2339 C   0  0  0  0  0  0  0  0  0  0  0  0
  144.9630  134.9100  151.0228 C   0  0  0  0  0  0  0  0  0  0  0  0
  145.8074  133.6796  151.3656 C   0  0  0  0  0  0  0  0  0  0  0  0
  146.5920  134.0749  152.4812 O   0  0  0  0  0  0  0  0  0  0  0  0
  147.7497  138.9554  152.2662 H   0  0  0  0  0  0  0  0  0  0  0  0
  146.8046  140.1295  153.1194 H   0  0  0  0  0  0  0  0  0  0  0  0
  149.6078  137.9051  153.5005 H   0  0  0  0  0  0  0  0  0  0  0  0
  151.9197  140.6910  155.8587 H   0  0  0  0  0  0  0  0  0  0  0  0
  150.0663  142.2144  155.8256 H   0  0  0  0  0  0  0  0  0  0  0  0
  147.9891  136.8112  153.1335 H   0  0  0  0  0  0  0  0  0  0  0  0
  147.4399  135.0565  154.6763 H   0  0  0  0  0  0  0  0  0  0  0  0
  146.0263  135.9575  155.1721 H   0  0  0  0  0  0  0  0  0  0  0  0
  145.0210  134.3211  153.7789 H   0  0  0  0  0  0  0  0  0  0  0  0
  144.1693  136.2299  152.5802 H   0  0  0  0  0  0  0  0  0  0  0  0
  145.7716  136.6544  151.9791 H   0  0  0  0  0  0  0  0  0  0  0  0
  143.9221  134.6324  150.8541 H   0  0  0  0  0  0  0  0  0  0  0  0
  145.3282  135.4056  150.1225 H   0  0  0  0  0  0  0  0  0  0  0  0
  145.1678  132.8446  151.6559 H   0  0  0  0  0  0  0  0  0  0  0  0
  146.4347  133.3551  150.5350 H   0  0  0  0  0  0  0  0  0  0  0  0
  1  2  2  0  0  0  0
  2  3  1  0  0  0  0
  2 14  1  0  0  0  0
  3  4  1  0  0  0  0
  3 21  1  0  0  0  0
  3 22  1  0  0  0  0
  4 12  1  0  0  0  0
  4  5  1  0  0  0  0
  5  6  2  0  0  0  0
  5 23  1  0  0  0  0
  6  7  1  0  0  0  0
  6 10  1  0  0  0  0
  7  8  2  0  0  0  0
  7  9  1  0  0  0  0
 10 11  2  0  0  0  0
 10 24  1  0  0  0  0
 11 12  1  0  0  0  0
 11 25  1  0  0  0  0
 12 13  2  0  0  0  0
 14 15  1  0  0  0  0
 14 26  1  0  0  0  0
 15 16  1  0  0  0  0
 15 27  1  0  0  0  0
 15 28  1  0  0  0  0
 16 20  1  0  0  0  0
 16 17  1  0  0  0  0
 16 29  1  0  0  0  0
 17 18  1  0  0  0  0
 17 30  1  0  0  0  0
 17 31  1  0  0  0  0
 18 19  1  0  0  0  0
 18 32  1  0  0  0  0
 18 33  1  0  0  0  0
 19 20  1  0  0  0  0
 19 34  1  0  0  0  0
 19 35  1  0  0  0  0
M  CHG  1   7   1
M  CHG  1   9  -1
M  END
> <s_m_source_file>
AV-unprocessed.smi

> <i_m_source_file_index>
2427

> <i_lp_mmshare_version>
43012

> <i_f3d_flags>
0

> <s_epik_input>
TzFbQ0gyXVtDSDJdW0NIMl1bQ0BIXTFbQ0gyXVtOSF1DKD1PKVtDSDJdbjJbY0hdYyhbTitdKD1PKVtPLV0pW2NIXVtjSF1jMj1P

> <s_epik_cmdline>
J2VwaWtfcHl0aG9uJywgJy1waCcsICc3LjAnLCAnLXRuJywgJzgnLCAnLW1hJywgJzIwMCcsICctbWV0YWxfYmluZGluZycsICctaW1hZScsICc8aW5maWxlLm1hZT4nLCAnLW9tYWUnLCAnPG91dGZpbGUubWFlPic=

> <r_lp_tautomer_probability>
1

> <r_epik_Ionization_Penalty>
2.69366e-08

> <r_epik_Ionization_Penalty_Charging>
7.76344e-11

> <r_epik_Ionization_Penalty_Neutral>
2.6859e-08

> <r_epik_State_Penalty>
-0

> <r_epik_Charging_Adjusted_Penalty>
7.76344e-11

> <i_epik_Tot_Q>
0

> <i_epik_Tot_abs_Q>
2

> <r_epik_Metal_State_Penalty>
-0

> <b_epik_Metal_Only>
0

> <s_lp_Force_Field>
OPLS_2005

> <r_lp_Energy>
28.9532

> <b_lp_Chiralities_Consistent>
1

> <s_lp_Variant>
AV-unprocessed.smi:2427-2

> <Gold.Version>
5.8.1

> <Gold.Id.Protein>
6NUR|6NUR_protein|mol2

> <Gold.PLP.Fitness>
42.3272

> <Gold.PLP.PLP>
-32.1814

> <Gold.PLP.part.hbond>
-2.9370

> <Gold.PLP.part.metal>
0.0000

> <Gold.PLP.part.buried>
-1.0775

> <Gold.PLP.part.nonpolar>
-28.2113

> <Gold.PLP.part.repulsive>
1.2275

> <Gold.PLP.ligand.clash>
0.0000

> <Gold.PLP.ligand.torsion>
0.9105

> <Gold.PLP.Chemscore.Hbond>
2.9760

> <Gold.PLP.Chemscore.CHOScore>
1.0000

> <Gold.PLP.Chemscore.Metal>
0.0000

> <Gold.Chemscore.Hbonds>
donor molecule, donor type, donor heavy atom, donor atom, acceptor molecule, acceptor atom, score
      L1  H    14    26       P1  7948  1.00
      P1  H  7997  8008       L1     9  0.50
      P1  H 10752 10764       L1     8  1.00
      L1  C     5    23       P1  7948  1.00

> <Gold.PLP.Chemscore.Internal.Correction>
0.0388

> <Gold.Rescore>
     Score         DG    S(hbond)    S(metal)    S(lipo)     H(rot)  DE(clash)    DE(int)     intcor
     15.40     -16.51       2.87        0.00      54.12       1.90       0.25       0.87       ----

> <Gold.Chemscore.Fitness>
15.3967

> <Gold.Chemscore.DG>
-16.5143

> <Gold.Chemscore.ZeroCoef>
-5.4800

> <Gold.Chemscore.Hbond>
2.8675

> <Gold.Chemscore.Metal>
0.0000

> <Gold.Chemscore.Lipo>
54.1210

> <Gold.Chemscore.Internal_Hbond>
0.0000

> <Gold.Chemscore.DEClash>
0.2500

> <Gold.Chemscore.DEInternal>
0.8676

> <Gold.Chemscore.Rot>
1.9044

> <Gold.Chemscore.Internal.Correction>
   9.000000E+99

> <Gold.Chemscore.Hbonds>
donor molecule, donor type, donor heavy atom, donor atom, acceptor molecule, acceptor atom, score
      L1  H    14    26       P1  7948  0.99
      P1  H  7997  8008       L1     9  0.48
      P1  H 10752 10764       L1     8  0.98

> <Gold.Chemscore.Hbond.Weighted>
-9.5774

> <Gold.Chemscore.Metal.Weighted>
-0.0000

> <Gold.Chemscore.Lipo.Weighted>
-6.3322

> <Gold.Chemscore.Internal_Hbond.Weighted>
0.0000

> <Gold.Chemscore.DEClash.Weighted>
0.2500

> <Gold.Chemscore.DEInternal.Weighted>
0.8676

> <Gold.Chemscore.Rot.Weighted>
4.8753

> <Gold.Chemscore.Internal.Correction.Weighted>
   9.000000E+99

> <Gold.Protein.RotatedTorsions>
[ 6907 6896 6895 6894 ] final   30.11 input  -60.11 | X-H torsion
[ 7974 7965 7964 7962 ] final   24.68 input  175.53 | X-H torsion
[ 8008 7997 7996 7995 ] final  -24.33 input   59.86 | X-H torsion
[ 10167 10162 10161 10158 ] final -131.46 input  -65.29 | X-H torsion
[ 10718 10713 10712 10709 ] final   25.40 input   66.30 | X-H torsion
[ 10763 10752 10751 10750 ] final  -80.25 input  -60.55 | X-H torsion
[ 11005 11000 10999 10996 ] final  -39.80 input  -57.11 | X-H torsion

> <Gold.Protein.ActiveResidues>
 VAL166  LYS551  ARG553  GLY616  TRP617  ASP618  TYR619  PRO620  LYS621  CYS622 
 ASP623  PHE694  ASN695  SER759  ASP760  ASP761  ALA762  ILE779  LEU786  VAL792 
 PHE793  MET794  SER795  GLU796  ALA797  LYS798  CYS799  TRP800  GLU811  SER814 

> <Gold.Protein.RotatedAtoms>
  152.0413  134.9710  160.0573 H   0  0  0  0  0  0  0  0  0  0  0  0  # atno 6907 bound_to 6896
  152.1147  133.4315  159.4656 H   0  0  0  0  0  0  0  0  0  0  0  0  # atno 6908 bound_to 6896
  150.6845  134.2525  159.4559 H   0  0  0  0  0  0  0  0  0  0  0  0  # atno 6909 bound_to 6896
  146.1926  139.7571  142.8821 H   0  0  0  0  0  0  0  0  0  0  0  0  # atno 7974 bound_to 7965
  154.4535  140.1956  156.0448 H   0  0  0  0  0  0  0  0  0  0  0  0  # atno 8008 bound_to 7997
  156.0698  140.3286  155.7534 H   0  0  0  0  0  0  0  0  0  0  0  0  # atno 8009 bound_to 7997
  155.5281  140.0575  157.2885 H   0  0  0  0  0  0  0  0  0  0  0  0  # atno 8010 bound_to 7997
  139.9187  143.6408  152.2559 H   0  0  0  0  0  0  0  0  0  0  0  0  # atno 10167 bound_to 10162
  157.1929  130.6854  149.6157 H   0  0  0  0  0  0  0  0  0  0  0  0  # atno 10718 bound_to 10713
  154.5488  135.5667  153.6904 H   0  0  0  0  0  0  0  0  0  0  0  0  # atno 10763 bound_to 10752
  152.9984  135.6246  154.2402 H   0  0  0  0  0  0  0  0  0  0  0  0  # atno 10764 bound_to 10752
  154.2336  135.2865  155.2860 H   0  0  0  0  0  0  0  0  0  0  0  0  # atno 10765 bound_to 10752
  141.0128  133.6899  156.2236 H   0  0  0  0  0  0  0  0  0  0  0  0  # atno 11005 bound_to 11000
  145.3745  141.0348  143.3212 LP  0  0  0  0  0  0  0  0  0  0  0  0  # atno 17320 bound_to 7965
  144.8516  139.5313  143.6854 LP  0  0  0  0  0  0  0  0  0  0  0  0  # atno 17321 bound_to 7965
  139.6880  144.7649  151.1489 LP  0  0  0  0  0  0  0  0  0  0  0  0  # atno 17342 bound_to 10162
  140.7668  143.5629  150.9079 LP  0  0  0  0  0  0  0  0  0  0  0  0  # atno 17343 bound_to 10162
  155.9709  130.4608  150.6088 LP  0  0  0  0  0  0  0  0  0  0  0  0  # atno 17370 bound_to 10713
  157.3843  131.0786  151.1450 LP  0  0  0  0  0  0  0  0  0  0  0  0  # atno 17371 bound_to 10713
  140.6704  134.4873  157.5587 LP  0  0  0  0  0  0  0  0  0  0  0  0  # atno 17394 bound_to 11000
  139.9100  134.8366  156.1564 LP  0  0  0  0  0  0  0  0  0  0  0  0  # atno 17395 bound_to 11000

$$$$
