AV-unprocessed.smi:813|AV-procd|sdf|3819|dock8
  -GOLD-   22720 1263D 1   1.00000     0.00000
 Structure written by MMmdl.
 35 36  0  0  0  0  0  0  0  0  2 V2000
  155.0152  137.3523  159.8241 C   0  0  0  0  0  0  0  0  0  0  0  0
  154.3732  138.3239  160.8284 C   0  0  2  0  0  0  0  0  0  0  0  0
  152.9489  138.0039  160.9231 N   0  0  0  0  0  0  0  0  0  0  0  0
  152.0755  137.9862  159.9046 C   0  0  0  0  0  0  0  0  0  0  0  0
  152.4553  138.2625  158.7640 O   0  0  0  0  0  0  0  0  0  0  0  0
  150.8173  137.6521  160.2708 N   0  5  0  0  0  0  0  0  0  0  0  0
  150.1253  136.7534  159.5514 C   0  0  0  0  0  0  0  0  0  0  0  0
  148.8877  136.3596  159.8926 N   0  0  0  0  0  0  0  0  0  0  0  0
  148.3489  135.4297  159.0136 N   0  0  0  0  0  0  0  0  0  0  0  0
  149.1955  135.1504  158.0230 C   0  0  0  0  0  0  0  0  0  0  0  0
  150.7263  135.9993  158.0721 S   0  0  0  0  0  0  0  0  0  0  0  0
  154.5742  139.7564  160.3086 C   0  0  0  0  0  0  0  0  0  0  0  0
  155.4762  140.0153  159.5100 O   0  0  0  0  0  0  0  0  0  0  0  0
  153.7276  140.6814  160.7858 N   0  0  0  0  0  0  0  0  0  0  0  0
  153.7312  142.0944  160.4177 C   0  0  0  0  0  0  0  0  0  0  0  0
  153.3339  142.9751  161.6180 C   0  0  0  0  0  0  0  0  0  0  0  0
  152.2647  143.9394  161.1008 C   0  0  0  0  0  0  0  0  0  0  0  0
  151.5697  143.1668  159.9844 C   0  0  0  0  0  0  0  0  0  0  0  0
  152.6996  142.3885  159.3102 C   0  0  0  0  0  0  0  0  0  0  0  0
  156.0834  137.5438  159.7150 H   0  0  0  0  0  0  0  0  0  0  0  0
  154.5597  137.4288  158.8354 H   0  0  0  0  0  0  0  0  0  0  0  0
  154.9039  136.3201  160.1578 H   0  0  0  0  0  0  0  0  0  0  0  0
  154.8467  138.2034  161.8048 H   0  0  0  0  0  0  0  0  0  0  0  0
  152.5968  137.7626  161.8377 H   0  0  0  0  0  0  0  0  0  0  0  0
  148.9160  134.4425  157.2573 H   0  0  0  0  0  0  0  0  0  0  0  0
  153.0156  140.3794  161.4347 H   0  0  0  0  0  0  0  0  0  0  0  0
  154.7264  142.3814  160.0730 H   0  0  0  0  0  0  0  0  0  0  0  0
  152.9057  142.3675  162.4174 H   0  0  0  0  0  0  0  0  0  0  0  0
  154.1886  143.5044  162.0405 H   0  0  0  0  0  0  0  0  0  0  0  0
  151.5758  144.2614  161.8822 H   0  0  0  0  0  0  0  0  0  0  0  0
  152.7403  144.8301  160.6880 H   0  0  0  0  0  0  0  0  0  0  0  0
  150.8488  142.4696  160.4135 H   0  0  0  0  0  0  0  0  0  0  0  0
  151.0350  143.8165  159.2910 H   0  0  0  0  0  0  0  0  0  0  0  0
  153.1626  143.0152  158.5470 H   0  0  0  0  0  0  0  0  0  0  0  0
  152.3334  141.4922  158.8067 H   0  0  0  0  0  0  0  0  0  0  0  0
  1  2  1  0  0  0  0
  1 20  1  0  0  0  0
  1 21  1  0  0  0  0
  1 22  1  0  0  0  0
  2  3  1  0  0  0  0
  2 12  1  0  0  0  0
  2 23  1  0  0  0  0
  3  4  1  0  0  0  0
  3 24  1  0  0  0  0
  4  5  2  0  0  0  0
  4  6  1  0  0  0  0
  6  7  1  0  0  0  0
  7 11  1  0  0  0  0
  7  8  2  0  0  0  0
  8  9  1  0  0  0  0
  9 10  2  0  0  0  0
 10 11  1  0  0  0  0
 10 25  1  0  0  0  0
 12 13  2  0  0  0  0
 12 14  1  0  0  0  0
 14 15  1  0  0  0  0
 14 26  1  0  0  0  0
 15 19  1  0  0  0  0
 15 16  1  0  0  0  0
 15 27  1  0  0  0  0
 16 17  1  0  0  0  0
 16 28  1  0  0  0  0
 16 29  1  0  0  0  0
 17 18  1  0  0  0  0
 17 30  1  0  0  0  0
 17 31  1  0  0  0  0
 18 19  1  0  0  0  0
 18 32  1  0  0  0  0
 18 33  1  0  0  0  0
 19 34  1  0  0  0  0
 19 35  1  0  0  0  0
M  CHG  1   6  -1
M  END
> <s_m_source_file>
AV-unprocessed.smi

> <i_m_source_file_index>
813

> <i_lp_mmshare_version>
43012

> <i_f3d_flags>
0

> <s_epik_input>
W0NIMl0xW0NIMl1bQ0gyXVtDSDJdW0NIXTFbTkhdQyg9TylbQ0BIXShbQ0gzXSlbTkhdQyg9TylbTkhdYzJubltjSF1zMg==

> <s_epik_cmdline>
J2VwaWtfcHl0aG9uJywgJy1waCcsICc3LjAnLCAnLXRuJywgJzgnLCAnLW1hJywgJzIwMCcsICctbWV0YWxfYmluZGluZycsICctaW1hZScsICc8aW5maWxlLm1hZT4nLCAnLW9tYWUnLCAnPG91dGZpbGUubWFlPic=

> <r_lp_tautomer_probability>
1

> <r_epik_Ionization_Penalty>
3.13682

> <r_epik_Ionization_Penalty_Charging>
3.09647

> <r_epik_Ionization_Penalty_Neutral>
0.0403479

> <r_epik_State_Penalty>
3.09328

> <r_epik_Charging_Adjusted_Penalty>
6.18976

> <i_epik_Tot_Q>
-1

> <i_epik_Tot_abs_Q>
1

> <r_epik_Metal_State_Penalty>
0.461392

> <b_epik_Metal_Only>
1

> <s_lp_Force_Field>
OPLS_2005

> <r_lp_Energy>
16.0843

> <b_lp_Chiralities_Consistent>
1

> <s_lp_Variant>
AV-unprocessed.smi:813-3

> <Gold.Version>
5.8.1

> <Gold.Id.Protein>
6NUR|6NUR_protein|mol2

> <Gold.PLP.Fitness>
40.0976

> <Gold.PLP.PLP>
-32.1120

> <Gold.PLP.part.hbond>
-2.0000

> <Gold.PLP.part.metal>
0.0000

> <Gold.PLP.part.buried>
-3.4823

> <Gold.PLP.part.nonpolar>
-26.0074

> <Gold.PLP.part.repulsive>
0.2737

> <Gold.PLP.ligand.clash>
0.0000

> <Gold.PLP.ligand.torsion>
1.3328

> <Gold.PLP.Chemscore.Hbond>
1.5840

> <Gold.PLP.Chemscore.CHOScore>
1.9551

> <Gold.PLP.Chemscore.Metal>
0.0000

> <Gold.Chemscore.Hbonds>
donor molecule, donor type, donor heavy atom, donor atom, acceptor molecule, acceptor atom, score
      P1  H  7997  8009       L1    13  0.59

> <Gold.PLP.Chemscore.Internal.Correction>
0.0338

> <Gold.Rescore>
     Score         DG    S(hbond)    S(metal)    S(lipo)     H(rot)  DE(clash)    DE(int)     intcor
     12.44     -16.42       1.76        0.00      80.80       1.72       0.10       3.88       ----

> <Gold.Chemscore.Fitness>
12.4357

> <Gold.Chemscore.DG>
-16.4162

> <Gold.Chemscore.ZeroCoef>
-5.4800

> <Gold.Chemscore.Hbond>
1.7618

> <Gold.Chemscore.Metal>
0.0000

> <Gold.Chemscore.Lipo>
80.7972

> <Gold.Chemscore.Internal_Hbond>
0.0000

> <Gold.Chemscore.DEClash>
0.1000

> <Gold.Chemscore.DEInternal>
3.8805

> <Gold.Chemscore.Rot>
1.7194

> <Gold.Chemscore.Internal.Correction>
   9.000000E+99

> <Gold.Chemscore.Hbonds>
donor molecule, donor type, donor heavy atom, donor atom, acceptor molecule, acceptor atom, score
      P1  H  7997  8009       L1    13  0.56

> <Gold.Chemscore.Hbond.Weighted>
-5.8846

> <Gold.Chemscore.Metal.Weighted>
-0.0000

> <Gold.Chemscore.Lipo.Weighted>
-9.4533

> <Gold.Chemscore.Internal_Hbond.Weighted>
0.0000

> <Gold.Chemscore.DEClash.Weighted>
0.1000

> <Gold.Chemscore.DEInternal.Weighted>
3.8805

> <Gold.Chemscore.Rot.Weighted>
4.4016

> <Gold.Chemscore.Internal.Correction.Weighted>
   9.000000E+99

> <Gold.Protein.RotatedTorsions>
[ 6907 6896 6895 6894 ] final  156.77 input  -60.11 | X-H torsion
[ 7974 7965 7964 7962 ] final   59.58 input  175.53 | X-H torsion
[ 8008 7997 7996 7995 ] final   89.88 input   59.86 | X-H torsion
[ 10167 10162 10161 10158 ] final -105.88 input  -65.29 | X-H torsion
[ 10718 10713 10712 10709 ] final  -78.71 input   66.30 | X-H torsion
[ 10763 10752 10751 10750 ] final -128.24 input  -60.55 | X-H torsion
[ 11005 11000 10999 10996 ] final -149.85 input  -57.11 | X-H torsion

> <Gold.Protein.ActiveResidues>
 VAL166  LYS551  ARG553  GLY616  TRP617  ASP618  TYR619  PRO620  LYS621  CYS622 
 ASP623  PHE694  ASN695  SER759  ASP760  ASP761  ALA762  ILE779  LEU786  VAL792 
 PHE793  MET794  SER795  GLU796  ALA797  LYS798  CYS799  TRP800  GLU811  SER814 

> <Gold.Protein.RotatedAtoms>
  152.0248  133.3913  159.4272 H   0  0  0  0  0  0  0  0  0  0  0  0  # atno 6907 bound_to 6896
  150.6887  134.3586  159.4949 H   0  0  0  0  0  0  0  0  0  0  0  0  # atno 6908 bound_to 6896
  152.1364  134.9095  160.0607 H   0  0  0  0  0  0  0  0  0  0  0  0  # atno 6909 bound_to 6896
  145.9056  139.3614  143.0566 H   0  0  0  0  0  0  0  0  0  0  0  0  # atno 7974 bound_to 7965
  156.0053  140.3356  155.6886 H   0  0  0  0  0  0  0  0  0  0  0  0  # atno 8008 bound_to 7997
  155.6234  140.0677  157.2689 H   0  0  0  0  0  0  0  0  0  0  0  0  # atno 8009 bound_to 7997
  154.4262  140.1772  156.1383 H   0  0  0  0  0  0  0  0  0  0  0  0  # atno 8010 bound_to 7997
  140.1938  143.3871  152.1185 H   0  0  0  0  0  0  0  0  0  0  0  0  # atno 10167 bound_to 10162
  156.0110  130.4525  150.3538 H   0  0  0  0  0  0  0  0  0  0  0  0  # atno 10718 bound_to 10713
  154.8755  135.3935  154.3724 H   0  0  0  0  0  0  0  0  0  0  0  0  # atno 10763 bound_to 10752
  153.4482  135.7028  153.6131 H   0  0  0  0  0  0  0  0  0  0  0  0  # atno 10764 bound_to 10752
  153.4682  135.3796  155.2345 H   0  0  0  0  0  0  0  0  0  0  0  0  # atno 10765 bound_to 10752
  140.7464  134.3456  157.5136 H   0  0  0  0  0  0  0  0  0  0  0  0  # atno 11005 bound_to 11000
  145.8736  140.9405  143.0637 LP  0  0  0  0  0  0  0  0  0  0  0  0  # atno 17320 bound_to 7965
  144.6739  140.0688  143.7473 LP  0  0  0  0  0  0  0  0  0  0  0  0  # atno 17321 bound_to 7965
  139.5245  144.7084  151.5281 LP  0  0  0  0  0  0  0  0  0  0  0  0  # atno 17342 bound_to 10162
  140.6438  143.8836  150.6717 LP  0  0  0  0  0  0  0  0  0  0  0  0  # atno 17343 bound_to 10162
  157.1629  131.0349  151.2832 LP  0  0  0  0  0  0  0  0  0  0  0  0  # atno 17370 bound_to 10713
  157.4295  130.7483  149.6979 LP  0  0  0  0  0  0  0  0  0  0  0  0  # atno 17371 bound_to 10713
  139.8796  134.9114  156.3036 LP  0  0  0  0  0  0  0  0  0  0  0  0  # atno 17394 bound_to 11000
  140.9790  133.7279  156.0644 LP  0  0  0  0  0  0  0  0  0  0  0  0  # atno 17395 bound_to 11000

$$$$
