#       Name:                AV-unprocessed.smi:2653
#       Creating user name   scv26
#       Creation time:       Fri Mar 27 14:30:59 2020


#       File generated by GOLD software.
#

@<TRIPOS>MOLECULE
AV-unprocessed.smi:2653
    34    35     1
SMALL
NO_CHARGES


@<TRIPOS>ATOM
      1 ****        -1.9132  -2.2113   5.6666 C.3            1 S1                 0.0000
      2 ****        -1.8271  -0.7683   5.1581 C.3            1 S1                 0.0000
      3 ****        -0.6851  -0.5444   4.2213 C.2            1 S1                 0.0000
      4 ****         0.6053  -0.3803   4.6730 N.pl3          1 S1                 0.0000
      5 ****         1.4960  -0.1985   3.6830 N.2            1 S1                 0.0000
      6 ****         0.7513  -0.2514   2.5855 C.2            1 S1                 0.0000
      7 ****         1.2116  -0.1186   1.2428 N.am           1 S1                 0.0000
      8 ****         2.4510   0.0682   0.7412 C.2            1 S1                 0.0000
      9 ****         3.4276   0.1535   1.4841 O.2            1 S1                 0.0000
     10 ****         2.5419   0.1532  -0.5955 N.am           1 S1                 0.0000
     11 ****         3.7424   0.3500  -1.3408 C.3            1 S1                 0.0000
     12 ****         3.6532   1.1693  -2.6101 C.3            1 S1                 0.0000
     13 ****         3.8448  -0.3197  -2.6942 C.3            1 S1                 0.0000
     14 ****        -0.6350  -0.4669   2.8551 C.2            1 S1                 0.0000
     15 ****        -1.7741  -0.5883   1.8777 C.3            1 S1                 0.0000
     16 ****         0.8868  -0.3914   5.6431 H              1 S1                 0.0000
     17 ****        -2.7549  -2.3334   6.3483 H              1 S1                 0.0000
     18 ****        -1.0069  -2.4962   6.2018 H              1 S1                 0.0000
     19 ****        -2.0489  -2.9104   4.8407 H              1 S1                 0.0000
     20 ****        -2.7623  -0.5034   4.6642 H              1 S1                 0.0000
     21 ****        -1.7352  -0.0920   6.0086 H              1 S1                 0.0000
     22 ****         0.4841  -0.1797   0.5458 H              1 S1                 0.0000
     23 ****         1.6858   0.0710  -1.1259 H              1 S1                 0.0000
     24 ****         4.6714   0.4381  -0.7795 H              1 S1                 0.0000
     25 ****         2.6802   1.5668  -2.8931 H              1 S1                 0.0000
     26 ****         4.5038   1.8006  -2.8589 H              1 S1                 0.0000
     27 ****         4.8232  -0.6841  -3.0008 H              1 S1                 0.0000
     28 ****         2.9994  -0.9160  -3.0327 H              1 S1                 0.0000
     29 ****        -1.4629  -0.4054   0.8495 H              1 S1                 0.0000
     30 ****        -2.5697   0.1232   2.0988 H              1 S1                 0.0000
     31 ****        -2.2175  -1.5837   1.9038 H              1 S1                 0.0000
     32 ****         2.4833  -0.0572   3.7558 LP             1 S1                 0.0000
     33 ****         3.3098   0.0845   2.4747 LP             1 S1                 0.0000
     34 ****         4.3394   0.2919   1.0974 LP             1 S1                 0.0000
@<TRIPOS>BOND
    1    1    2 1     
    2    1   17 1     
    3    1   18 1     
    4    1   19 1     
    5    2    3 1     
    6    2   20 1     
    7    2   21 1     
    8    3   14 2     
    9    3    4 1     
   10    4   16 1     
   11    4    5 1     
   12    5    6 2     
   13    6    7 1     
   14    6   14 1     
   15    7    8 am    
   16    7   22 1     
   17    8    9 2     
   18    8   10 am    
   19   10   11 1     
   20   10   23 1     
   21   11   13 1     
   22   11   12 1     
   23   11   24 1     
   24   12   13 1     
   25   12   25 1     
   26   12   26 1     
   27   13   27 1     
   28   13   28 1     
   29   14   15 1     
   30   15   29 1     
   31   15   30 1     
   32   15   31 1     
   33    5   32 1     
   34    9   33 1     
   35    9   34 1     
@<TRIPOS>SUBSTRUCTURE
      1 S1             1
@<TRIPOS>SET
LONE_PAIRS      STATIC     ATOMS    <user>   **** ""
3 32 33 34
DONOR_HYDROGENS      STATIC     ATOMS    <user>   **** ""
3 16 22 23
ATOM$BLUE        STATIC     ATOMS    COLORGROUP SYSTEM
3 32 33 34
ATOM$RED        STATIC     ATOMS    COLORGROUP SYSTEM
3 16 22 23
