AV-unprocessed.smi:1658|AV-procd|sdf|6649|dock6
  -GOLD-   22720 7353D 1   1.00000     0.00000
 Structure written by MMmdl.
 47 48  0  0  0  0  0  0  0  0  2 V2000
  154.1177  141.3786  161.8704 C   0  0  0  0  0  0  0  0  0  0  0  0
  153.5754  142.6157  161.4212 O   0  0  0  0  0  0  0  0  0  0  0  0
  152.8026  142.6159  160.2780 C   0  0  0  0  0  0  0  0  0  0  0  0
  152.3580  143.8507  159.7654 C   0  0  0  0  0  0  0  0  0  0  0  0
  151.5663  143.8560  158.6017 C   0  0  0  0  0  0  0  0  0  0  0  0
  151.2504  142.6320  157.9786 C   0  0  0  0  0  0  0  0  0  0  0  0
  150.4283  142.6648  156.8202 N   0  0  0  0  0  0  0  0  0  0  0  0
  150.0022  141.6353  156.0691 C   0  0  0  0  0  0  0  0  0  0  0  0
  150.3262  140.4581  156.2244 O   0  0  0  0  0  0  0  0  0  0  0  0
  149.1753  142.0537  155.1000 N   0  0  0  0  0  0  0  0  0  0  0  0
  148.5329  141.2043  154.0964 C   0  0  0  0  0  0  0  0  0  0  0  0
  146.9728  141.2631  154.1055 C   0  0  0  0  0  0  0  0  0  0  0  0
  146.4278  141.1944  155.5536 C   0  0  0  0  0  0  0  0  0  0  0  0
  146.5482  142.6298  153.5043 C   0  0  0  0  0  0  0  0  0  0  0  0
  146.4430  140.1189  153.2734 N   0  3  0  0  0  0  0  0  0  0  0  0
  147.0825  139.9504  151.9360 C   0  0  0  0  0  0  0  0  0  0  0  0
  146.3445  138.8875  151.1074 C   0  0  0  0  0  0  0  0  0  0  0  0
  146.3559  137.6533  151.8088 O   0  0  0  0  0  0  0  0  0  0  0  0
  145.6741  137.7531  153.0501 C   0  0  0  0  0  0  0  0  0  0  0  0
  146.3637  138.7923  153.9516 C   0  0  0  0  0  0  0  0  0  0  0  0
  151.7366  141.4436  158.5762 C   0  0  0  0  0  0  0  0  0  0  0  0
  152.4942  141.4317  159.6938 N   0  0  0  0  0  0  0  0  0  0  0  0
  154.6910  141.5463  162.7818 H   0  0  0  0  0  0  0  0  0  0  0  0
  154.7919  140.9461  161.1299 H   0  0  0  0  0  0  0  0  0  0  0  0
  153.3316  140.6587  162.1031 H   0  0  0  0  0  0  0  0  0  0  0  0
  152.6170  144.7765  160.2576 H   0  0  0  0  0  0  0  0  0  0  0  0
  151.2100  144.7907  158.1936 H   0  0  0  0  0  0  0  0  0  0  0  0
  150.1570  143.5862  156.5092 H   0  0  0  0  0  0  0  0  0  0  0  0
  148.9733  143.0417  155.0498 H   0  0  0  0  0  0  0  0  0  0  0  0
  148.9012  141.5268  153.1217 H   0  0  0  0  0  0  0  0  0  0  0  0
  148.9019  140.1879  154.2252 H   0  0  0  0  0  0  0  0  0  0  0  0
  146.6964  142.0841  156.1235 H   0  0  0  0  0  0  0  0  0  0  0  0
  146.8249  140.3394  156.1012 H   0  0  0  0  0  0  0  0  0  0  0  0
  145.3402  141.1280  155.5756 H   0  0  0  0  0  0  0  0  0  0  0  0
  147.0058  143.4694  154.0275 H   0  0  0  0  0  0  0  0  0  0  0  0
  145.4740  142.7984  153.5809 H   0  0  0  0  0  0  0  0  0  0  0  0
  146.8309  142.7103  152.4541 H   0  0  0  0  0  0  0  0  0  0  0  0
  147.0849  140.8777  151.3680 H   0  0  0  0  0  0  0  0  0  0  0  0
  148.1229  139.6454  152.0521 H   0  0  0  0  0  0  0  0  0  0  0  0
  145.3197  139.1964  150.8947 H   0  0  0  0  0  0  0  0  0  0  0  0
  146.8412  138.7492  150.1469 H   0  0  0  0  0  0  0  0  0  0  0  0
  144.6283  138.0165  152.8831 H   0  0  0  0  0  0  0  0  0  0  0  0
  145.6808  136.7762  153.5339 H   0  0  0  0  0  0  0  0  0  0  0  0
  147.3634  138.4474  154.2168 H   0  0  0  0  0  0  0  0  0  0  0  0
  145.7824  138.8433  154.8704 H   0  0  0  0  0  0  0  0  0  0  0  0
  151.5049  140.4679  158.1785 H   0  0  0  0  0  0  0  0  0  0  0  0
  145.4821  140.3663  153.0836 H   0  0  0  0  0  0  0  0  0  0  0  0
  1  2  1  0  0  0  0
  1 23  1  0  0  0  0
  1 24  1  0  0  0  0
  1 25  1  0  0  0  0
  2  3  1  0  0  0  0
  3 22  1  0  0  0  0
  3  4  2  0  0  0  0
  4  5  1  0  0  0  0
  4 26  1  0  0  0  0
  5  6  2  0  0  0  0
  5 27  1  0  0  0  0
  6  7  1  0  0  0  0
  6 21  1  0  0  0  0
  7  8  1  0  0  0  0
  7 28  1  0  0  0  0
  8  9  2  0  0  0  0
  8 10  1  0  0  0  0
 10 11  1  0  0  0  0
 10 29  1  0  0  0  0
 11 12  1  0  0  0  0
 11 30  1  0  0  0  0
 11 31  1  0  0  0  0
 12 13  1  0  0  0  0
 12 14  1  0  0  0  0
 12 15  1  0  0  0  0
 13 32  1  0  0  0  0
 13 33  1  0  0  0  0
 13 34  1  0  0  0  0
 14 35  1  0  0  0  0
 14 36  1  0  0  0  0
 14 37  1  0  0  0  0
 15 20  1  0  0  0  0
 15 16  1  0  0  0  0
 15 47  1  0  0  0  0
 16 17  1  0  0  0  0
 16 38  1  0  0  0  0
 16 39  1  0  0  0  0
 17 18  1  0  0  0  0
 17 40  1  0  0  0  0
 17 41  1  0  0  0  0
 18 19  1  0  0  0  0
 19 20  1  0  0  0  0
 19 42  1  0  0  0  0
 19 43  1  0  0  0  0
 20 44  1  0  0  0  0
 20 45  1  0  0  0  0
 21 22  2  0  0  0  0
 21 46  1  0  0  0  0
M  CHG  1  15   1
M  END
> <s_m_source_file>
AV-unprocessed.smi

> <i_m_source_file_index>
1658

> <i_lp_mmshare_version>
43012

> <i_f3d_flags>
0

> <s_epik_input>
W0NIM11PYzFbY0hdW2NIXWMoW2NIXW4xKVtOSF1DKD1PKVtOSF1bQ0gyXUMoW0NIM10pKFtDSDNdKU4yW0NIMl1bQ0gyXU9bQ0gyXVtDSDJdMg==

> <s_epik_cmdline>
J2VwaWtfcHl0aG9uJywgJy1waCcsICc3LjAnLCAnLXRuJywgJzgnLCAnLW1hJywgJzIwMCcsICctbWV0YWxfYmluZGluZycsICctaW1hZScsICc8aW5maWxlLm1hZT4nLCAnLW9tYWUnLCAnPG91dGZpbGUubWFlPic=

> <r_lp_tautomer_probability>
1

> <r_epik_Ionization_Penalty>
0.602608

> <r_epik_Ionization_Penalty_Charging>
0.602531

> <r_epik_Ionization_Penalty_Neutral>
7.74737e-05

> <r_epik_State_Penalty>
0.617039

> <r_epik_Charging_Adjusted_Penalty>
1.21957

> <i_epik_Tot_Q>
1

> <i_epik_Tot_abs_Q>
1

> <r_epik_Metal_State_Penalty>
0.617043

> <b_epik_Metal_Only>
0

> <s_lp_Force_Field>
OPLS_2005

> <r_lp_Energy>
28.7753

> <b_lp_Chiralities_Consistent>
1

> <s_lp_Variant>
AV-unprocessed.smi:1658-2

> <Gold.Version>
5.8.1

> <Gold.Id.Protein>
6NUR|6NUR_protein|mol2

> <Gold.PLP.Fitness>
49.3151

> <Gold.PLP.PLP>
-38.3403

> <Gold.PLP.part.hbond>
-3.0000

> <Gold.PLP.part.metal>
0.0000

> <Gold.PLP.part.buried>
0.5527

> <Gold.PLP.part.nonpolar>
-37.3323

> <Gold.PLP.part.repulsive>
1.5390

> <Gold.PLP.ligand.clash>
0.0000

> <Gold.PLP.ligand.torsion>
0.5645

> <Gold.PLP.Chemscore.Hbond>
3.9920

> <Gold.PLP.Chemscore.CHOScore>
0.0000

> <Gold.PLP.Chemscore.Metal>
0.0000

> <Gold.Chemscore.Hbonds>
donor molecule, donor type, donor heavy atom, donor atom, acceptor molecule, acceptor atom, score
      L1  H     7    28       P1  8028  1.00
      L1  H    10    29       P1  8028  1.00
      L1  H    15    47       P1 10175  2.00

> <Gold.PLP.Chemscore.Internal.Correction>
0.1278

> <Gold.Rescore>
     Score         DG    S(hbond)    S(metal)    S(lipo)     H(rot)  DE(clash)    DE(int)     intcor
     18.08     -22.40       2.96        0.00      98.67       1.76       2.51       1.82       ----

> <Gold.Chemscore.Fitness>
18.0755

> <Gold.Chemscore.DG>
-22.4038

> <Gold.Chemscore.ZeroCoef>
-5.4800

> <Gold.Chemscore.Hbond>
2.9578

> <Gold.Chemscore.Metal>
0.0000

> <Gold.Chemscore.Lipo>
98.6715

> <Gold.Chemscore.Internal_Hbond>
0.0000

> <Gold.Chemscore.DEClash>
2.5080

> <Gold.Chemscore.DEInternal>
1.8204

> <Gold.Chemscore.Rot>
1.7577

> <Gold.Chemscore.Internal.Correction>
   9.000000E+99

> <Gold.Chemscore.Hbonds>
donor molecule, donor type, donor heavy atom, donor atom, acceptor molecule, acceptor atom, score
      L1  H     7    28       P1  8028  0.94
      L1  H    10    29       P1  8028  0.99
      L1  H    15    47       P1 10175  0.96

> <Gold.Chemscore.Hbond.Weighted>
-9.8789

> <Gold.Chemscore.Metal.Weighted>
-0.0000

> <Gold.Chemscore.Lipo.Weighted>
-11.5446

> <Gold.Chemscore.Internal_Hbond.Weighted>
0.0000

> <Gold.Chemscore.DEClash.Weighted>
2.5080

> <Gold.Chemscore.DEInternal.Weighted>
1.8204

> <Gold.Chemscore.Rot.Weighted>
4.4997

> <Gold.Chemscore.Internal.Correction.Weighted>
   9.000000E+99

> <Gold.Protein.RotatedTorsions>
[ 6907 6896 6895 6894 ] final  -14.88 input  -60.11 | X-H torsion
[ 7974 7965 7964 7962 ] final  -82.24 input  175.53 | X-H torsion
[ 8008 7997 7996 7995 ] final   90.32 input   59.86 | X-H torsion
[ 10167 10162 10161 10158 ] final -152.07 input  -65.29 | X-H torsion
[ 10718 10713 10712 10709 ] final  102.81 input   66.30 | X-H torsion
[ 10763 10752 10751 10750 ] final    9.97 input  -60.55 | X-H torsion
[ 11005 11000 10999 10996 ] final   74.76 input  -57.11 | X-H torsion

> <Gold.Protein.ActiveResidues>
 VAL166  LYS551  ARG553  GLY616  TRP617  ASP618  TYR619  PRO620  LYS621  CYS622 
 ASP623  PHE694  ASN695  SER759  ASP760  ASP761  ALA762  ILE779  LEU786  VAL792 
 PHE793  MET794  SER795  GLU796  ALA797  LYS798  CYS799  TRP800  GLU811  SER814 

> <Gold.Protein.RotatedAtoms>
  151.3326  135.0845  159.9343 H   0  0  0  0  0  0  0  0  0  0  0  0  # atno 6907 bound_to 6896
  152.5231  133.9527  159.7690 H   0  0  0  0  0  0  0  0  0  0  0  0  # atno 6908 bound_to 6896
  150.9869  133.6136  159.2744 H   0  0  0  0  0  0  0  0  0  0  0  0  # atno 6909 bound_to 6896
  145.5360  140.9515  143.1577 H   0  0  0  0  0  0  0  0  0  0  0  0  # atno 7974 bound_to 7965
  156.0106  140.3350  155.6937 H   0  0  0  0  0  0  0  0  0  0  0  0  # atno 8008 bound_to 7997
  155.6163  140.0670  157.2709 H   0  0  0  0  0  0  0  0  0  0  0  0  # atno 8009 bound_to 7997
  154.4280  140.1784  156.1312 H   0  0  0  0  0  0  0  0  0  0  0  0  # atno 8010 bound_to 7997
  139.7213  143.8953  152.2504 H   0  0  0  0  0  0  0  0  0  0  0  0  # atno 10167 bound_to 10162
  157.6791  131.0762  150.5460 H   0  0  0  0  0  0  0  0  0  0  0  0  # atno 10718 bound_to 10713
  153.2082  135.6865  153.8146 H   0  0  0  0  0  0  0  0  0  0  0  0  # atno 10763 bound_to 10752
  153.7388  135.3241  155.3301 H   0  0  0  0  0  0  0  0  0  0  0  0  # atno 10764 bound_to 10752
  154.8208  135.4653  154.0879 H   0  0  0  0  0  0  0  0  0  0  0  0  # atno 10765 bound_to 10752
  139.9376  134.7460  156.1187 H   0  0  0  0  0  0  0  0  0  0  0  0  # atno 11005 bound_to 11000
  144.7601  139.6977  143.7238 LP  0  0  0  0  0  0  0  0  0  0  0  0  # atno 17320 bound_to 7965
  146.2013  139.5309  142.9742 LP  0  0  0  0  0  0  0  0  0  0  0  0  # atno 17321 bound_to 7965
  139.8849  144.6997  150.8835 LP  0  0  0  0  0  0  0  0  0  0  0  0  # atno 17342 bound_to 10162
  140.7754  143.3631  151.1789 LP  0  0  0  0  0  0  0  0  0  0  0  0  # atno 17343 bound_to 10162
  156.5766  130.4293  149.5996 LP  0  0  0  0  0  0  0  0  0  0  0  0  # atno 17370 bound_to 10713
  156.2696  130.7009  151.1803 LP  0  0  0  0  0  0  0  0  0  0  0  0  # atno 17371 bound_to 10713
  141.0996  133.6682  156.2724 LP  0  0  0  0  0  0  0  0  0  0  0  0  # atno 17394 bound_to 11000
  140.6036  134.5530  157.5522 LP  0  0  0  0  0  0  0  0  0  0  0  0  # atno 17395 bound_to 11000

$$$$
