AV-unprocessed.smi:13|AV-procd|sdf|69|dock5
  -GOLD-   2262015193D 1   1.00000     0.00000
 Structure written by MMmdl.
 54 58  0  0  0  0  0  0  0  0  1 V2000
  149.0804  142.3001  154.6164 C   0  0  0  0  0  0  0  0  0  0  0  0
  148.3795  141.5379  155.7488 C   0  0  0  0  0  0  0  0  0  0  0  0
  147.0119  142.1934  155.9376 C   0  0  0  0  0  0  0  0  0  0  0  0
  148.3728  140.0072  155.6148 C   0  0  0  0  0  0  0  0  0  0  0  0
  149.5393  139.9960  156.4822 N   0  0  0  0  0  0  0  0  0  0  0  0
  149.5922  138.9242  157.4125 C   0  0  0  0  0  0  0  0  0  0  0  0
  150.8278  138.5418  157.8220 N   0  0  0  0  0  0  0  0  0  0  0  0
  150.9884  137.5509  158.7032 C   0  0  0  0  0  0  0  0  0  0  0  0
  150.0564  136.8092  159.3010 N   0  0  0  0  0  0  0  0  0  0  0  0
  148.8075  137.1780  158.9003 C   0  0  0  0  0  0  0  0  0  0  0  0
  148.4890  138.2114  157.9726 C   0  0  0  0  0  0  0  0  0  0  0  0
  147.1086  138.2921  157.8219 N   0  0  0  0  0  0  0  0  0  0  0  0
  146.6416  137.3649  158.6115 C   0  0  0  0  0  0  0  0  0  0  0  0
  147.5935  136.6421  159.2928 N   0  0  0  0  0  0  0  0  0  0  0  0
  147.3559  135.5531  160.2277 C   0  0  0  0  0  0  0  0  0  0  0  0
  146.2180  135.8487  161.2316 C   0  0  1  0  0  0  0  0  0  0  0  0
  146.4562  137.1087  161.8356 O   0  0  0  0  0  0  0  0  0  0  0  0
  144.8246  135.8653  160.6108 C   0  0  0  0  0  0  0  0  0  0  0  0
  143.9399  135.3943  161.7561 C   0  0  0  0  0  0  0  0  0  0  0  0
  144.7260  134.3805  162.3594 O   0  0  0  0  0  0  0  0  0  0  0  0
  146.0905  134.7902  162.3452 C   0  0  0  0  0  0  0  0  0  0  0  0
  149.1830  141.2932  157.0437 C   0  0  1  0  0  0  0  0  0  0  0  0
  150.4253  142.1131  157.3932 C   0  0  2  0  0  0  0  0  0  0  0  0
  151.2973  141.4893  158.4825 C   0  0  0  0  0  0  0  0  0  0  0  0
  152.0182  142.6829  159.0868 C   0  0  0  0  0  0  0  0  0  0  0  0
  151.1937  143.8874  158.6231 C   0  0  0  0  0  0  0  0  0  0  0  0
  150.0414  143.3358  158.0008 O   0  0  0  0  0  0  0  0  0  0  0  0
  148.5009  142.2658  153.6934 H   0  0  0  0  0  0  0  0  0  0  0  0
  150.0609  141.8789  154.3921 H   0  0  0  0  0  0  0  0  0  0  0  0
  149.2294  143.3497  154.8723 H   0  0  0  0  0  0  0  0  0  0  0  0
  146.4354  141.6965  156.7186 H   0  0  0  0  0  0  0  0  0  0  0  0
  146.4177  142.1529  155.0242 H   0  0  0  0  0  0  0  0  0  0  0  0
  147.1082  143.2407  156.2252 H   0  0  0  0  0  0  0  0  0  0  0  0
  147.4885  139.5361  156.0450 H   0  0  0  0  0  0  0  0  0  0  0  0
  148.5769  139.6433  154.6074 H   0  0  0  0  0  0  0  0  0  0  0  0
  152.0102  137.3195  158.9659 H   0  0  0  0  0  0  0  0  0  0  0  0
  145.5829  137.1765  158.7145 H   0  0  0  0  0  0  0  0  0  0  0  0
  147.1247  134.6549  159.6535 H   0  0  0  0  0  0  0  0  0  0  0  0
  148.2863  135.3445  160.7576 H   0  0  0  0  0  0  0  0  0  0  0  0
  145.6938  137.6517  161.7048 H   0  0  0  0  0  0  0  0  0  0  0  0
  144.5316  136.8358  160.2074 H   0  0  0  0  0  0  0  0  0  0  0  0
  144.7634  135.1369  159.8015 H   0  0  0  0  0  0  0  0  0  0  0  0
  143.7606  136.1985  162.4714 H   0  0  0  0  0  0  0  0  0  0  0  0
  142.9779  135.0101  161.4165 H   0  0  0  0  0  0  0  0  0  0  0  0
  146.7160  133.9169  162.1578 H   0  0  0  0  0  0  0  0  0  0  0  0
  146.3687  135.1848  163.3238 H   0  0  0  0  0  0  0  0  0  0  0  0
  148.4997  141.2009  157.8882 H   0  0  0  0  0  0  0  0  0  0  0  0
  151.0268  142.3335  156.5090 H   0  0  0  0  0  0  0  0  0  0  0  0
  150.6721  141.0175  159.2420 H   0  0  0  0  0  0  0  0  0  0  0  0
  151.9798  140.7327  158.0944 H   0  0  0  0  0  0  0  0  0  0  0  0
  152.0561  142.6084  160.1740 H   0  0  0  0  0  0  0  0  0  0  0  0
  153.0420  142.7558  158.7181 H   0  0  0  0  0  0  0  0  0  0  0  0
  150.9144  144.5455  159.4462 H   0  0  0  0  0  0  0  0  0  0  0  0
  151.7508  144.4743  157.8916 H   0  0  0  0  0  0  0  0  0  0  0  0
  1  2  1  0  0  0  0
  1 28  1  0  0  0  0
  1 29  1  0  0  0  0
  1 30  1  0  0  0  0
  2 22  1  0  0  0  0
  2  3  1  0  0  0  0
  2  4  1  0  0  0  0
  3 31  1  0  0  0  0
  3 32  1  0  0  0  0
  3 33  1  0  0  0  0
  4  5  1  0  0  0  0
  4 34  1  0  0  0  0
  4 35  1  0  0  0  0
  5  6  1  0  0  0  0
  5 22  1  0  0  0  0
  6 11  1  0  0  0  0
  6  7  2  0  0  0  0
  7  8  1  0  0  0  0
  8  9  2  0  0  0  0
  8 36  1  0  0  0  0
  9 10  1  0  0  0  0
 10 14  1  0  0  0  0
 10 11  2  0  0  0  0
 11 12  1  0  0  0  0
 12 13  2  0  0  0  0
 13 14  1  0  0  0  0
 13 37  1  0  0  0  0
 14 15  1  0  0  0  0
 15 16  1  0  0  0  0
 15 38  1  0  0  0  0
 15 39  1  0  0  0  0
 16 21  1  0  0  0  0
 16 17  1  0  0  0  0
 16 18  1  0  0  0  0
 17 40  1  0  0  0  0
 18 19  1  0  0  0  0
 18 41  1  0  0  0  0
 18 42  1  0  0  0  0
 19 20  1  0  0  0  0
 19 43  1  0  0  0  0
 19 44  1  0  0  0  0
 20 21  1  0  0  0  0
 21 45  1  0  0  0  0
 21 46  1  0  0  0  0
 22 23  1  0  0  0  0
 22 47  1  0  0  0  0
 23 27  1  0  0  0  0
 23 24  1  0  0  0  0
 23 48  1  0  0  0  0
 24 25  1  0  0  0  0
 24 49  1  0  0  0  0
 24 50  1  0  0  0  0
 25 26  1  0  0  0  0
 25 51  1  0  0  0  0
 25 52  1  0  0  0  0
 26 27  1  0  0  0  0
 26 53  1  0  0  0  0
 26 54  1  0  0  0  0
M  END
> <s_m_source_file>
AV-unprocessed.smi

> <i_m_source_file_index>
13

> <i_lp_mmshare_version>
43012

> <i_f3d_flags>
0

> <s_epik_input>
TzFbQ0gyXVtDSDJdW0NIMl1bQ0BIXTFbQ0BASF0yTihbQ0gyXUMyKFtDSDNdKVtDSDNdKWMobltjSF1uMyljKGMzNCluW2NIXW40W0NIMl1bQ0BAXTUoW09IXSlbQ0gyXVtDSDJdT1tDSDJdNQ==

> <s_epik_cmdline>
J2VwaWtfcHl0aG9uJywgJy1waCcsICc3LjAnLCAnLXRuJywgJzgnLCAnLW1hJywgJzIwMCcsICctbWV0YWxfYmluZGluZycsICctaW1hZScsICc8aW5maWxlLm1hZT4nLCAnLW9tYWUnLCAnPG91dGZpbGUubWFlPic=

> <r_lp_tautomer_probability>
1

> <r_epik_Ionization_Penalty>
0.00202764

> <r_epik_Ionization_Penalty_Charging>
0

> <r_epik_Ionization_Penalty_Neutral>
0.00202764

> <r_epik_State_Penalty>
0.00134017

> <r_epik_Charging_Adjusted_Penalty>
0.00134017

> <i_epik_Tot_Q>
0

> <i_epik_Tot_abs_Q>
0

> <r_epik_Metal_State_Penalty>
-0

> <b_epik_Metal_Only>
0

> <s_lp_Force_Field>
OPLS_2005

> <r_lp_Energy>
60.4132

> <b_lp_Chiralities_Consistent>
1

> <s_lp_Variant>
AV-unprocessed.smi:13-1

> <Gold.Version>
5.8.1

> <Gold.Id.Protein>
6NUR|6NUR_protein|mol2

> <Gold.PLP.Fitness>
42.6164

> <Gold.PLP.PLP>
-38.5284

> <Gold.PLP.part.hbond>
-3.6754

> <Gold.PLP.part.metal>
0.0000

> <Gold.PLP.part.buried>
-2.9076

> <Gold.PLP.part.nonpolar>
-32.9677

> <Gold.PLP.part.repulsive>
0.6102

> <Gold.PLP.ligand.clash>
0.0000

> <Gold.PLP.ligand.torsion>
1.0504

> <Gold.PLP.Chemscore.Hbond>
1.9120

> <Gold.PLP.Chemscore.CHOScore>
0.0000

> <Gold.PLP.Chemscore.Metal>
0.0000

> <Gold.Chemscore.Hbonds>
donor molecule, donor type, donor heavy atom, donor atom, acceptor molecule, acceptor atom, score
      P1  H  6896  6907       L1     9  0.73

> <Gold.PLP.Chemscore.Internal.Correction>
0.4527

> <Gold.Rescore>
     Score         DG    S(hbond)    S(metal)    S(lipo)     H(rot)  DE(clash)    DE(int)     intcor
     12.96     -16.46       1.71        0.00      95.45       2.30       1.94       1.57       ----

> <Gold.Chemscore.Fitness>
12.9595

> <Gold.Chemscore.DG>
-16.4649

> <Gold.Chemscore.ZeroCoef>
-5.4800

> <Gold.Chemscore.Hbond>
1.7077

> <Gold.Chemscore.Metal>
0.0000

> <Gold.Chemscore.Lipo>
95.4535

> <Gold.Chemscore.Internal_Hbond>
0.0000

> <Gold.Chemscore.DEClash>
1.9391

> <Gold.Chemscore.DEInternal>
1.5663

> <Gold.Chemscore.Rot>
2.2996

> <Gold.Chemscore.Internal.Correction>
   9.000000E+99

> <Gold.Chemscore.Hbonds>
donor molecule, donor type, donor heavy atom, donor atom, acceptor molecule, acceptor atom, score
      P1  H  6896  6907       L1     9  0.18

> <Gold.Chemscore.Hbond.Weighted>
-5.7038

> <Gold.Chemscore.Metal.Weighted>
-0.0000

> <Gold.Chemscore.Lipo.Weighted>
-11.1681

> <Gold.Chemscore.Internal_Hbond.Weighted>
0.0000

> <Gold.Chemscore.DEClash.Weighted>
1.9391

> <Gold.Chemscore.DEInternal.Weighted>
1.5663

> <Gold.Chemscore.Rot.Weighted>
5.8869

> <Gold.Chemscore.Internal.Correction.Weighted>
   9.000000E+99

> <Gold.Protein.RotatedTorsions>
[ 6907 6896 6895 6894 ] final  -18.68 input  -60.11 | X-H torsion
[ 7974 7965 7964 7962 ] final -158.38 input  175.53 | X-H torsion
[ 8008 7997 7996 7995 ] final -147.30 input   59.86 | X-H torsion
[ 10167 10162 10161 10158 ] final -111.86 input  -65.29 | X-H torsion
[ 10718 10713 10712 10709 ] final  -81.71 input   66.30 | X-H torsion
[ 10763 10752 10751 10750 ] final   96.62 input  -60.55 | X-H torsion
[ 11005 11000 10999 10996 ] final  -53.75 input  -57.11 | X-H torsion

> <Gold.Protein.ActiveResidues>
 VAL166  LYS551  ARG553  GLY616  TRP617  ASP618  TYR619  PRO620  LYS621  CYS622 
 ASP623  PHE694  ASN695  SER759  ASP760  ASP761  ALA762  ILE779  LEU786  VAL792 
 PHE793  MET794  SER795  GLU796  ALA797  LYS798  CYS799  TRP800  GLU811  SER814 

> <Gold.Protein.RotatedAtoms>
  151.2745  135.0695  159.9146 H   0  0  0  0  0  0  0  0  0  0  0  0  # atno 6907 bound_to 6896
  152.5345  134.0095  159.7942 H   0  0  0  0  0  0  0  0  0  0  0  0  # atno 6908 bound_to 6896
  151.0339  133.5715  159.2689 H   0  0  0  0  0  0  0  0  0  0  0  0  # atno 6909 bound_to 6896
  144.7508  140.3836  143.6049 H   0  0  0  0  0  0  0  0  0  0  0  0  # atno 7974 bound_to 7965
  155.5733  140.0636  157.2801 H   0  0  0  0  0  0  0  0  0  0  0  0  # atno 8008 bound_to 7997
  154.4354  140.1865  156.0948 H   0  0  0  0  0  0  0  0  0  0  0  0  # atno 8009 bound_to 7997
  156.0360  140.3301  155.7195 H   0  0  0  0  0  0  0  0  0  0  0  0  # atno 8010 bound_to 7997
  140.1290  143.4377  152.1640 H   0  0  0  0  0  0  0  0  0  0  0  0  # atno 10167 bound_to 10162
  156.0045  130.4612  150.3994 H   0  0  0  0  0  0  0  0  0  0  0  0  # atno 10718 bound_to 10713
  153.2672  135.4212  155.0952 H   0  0  0  0  0  0  0  0  0  0  0  0  # atno 10763 bound_to 10752
  154.8442  135.3463  154.6295 H   0  0  0  0  0  0  0  0  0  0  0  0  # atno 10764 bound_to 10752
  153.6715  135.7043  153.5203 H   0  0  0  0  0  0  0  0  0  0  0  0  # atno 10765 bound_to 10752
  141.0992  133.6620  156.4219 H   0  0  0  0  0  0  0  0  0  0  0  0  # atno 11005 bound_to 11000
  145.6951  139.1648  143.2624 LP  0  0  0  0  0  0  0  0  0  0  0  0  # atno 17320 bound_to 7965
  146.1455  140.6998  142.9347 LP  0  0  0  0  0  0  0  0  0  0  0  0  # atno 17321 bound_to 7965
  139.5529  144.7351  151.4380 LP  0  0  0  0  0  0  0  0  0  0  0  0  # atno 17342 bound_to 10162
  140.6828  143.8043  150.7145 LP  0  0  0  0  0  0  0  0  0  0  0  0  # atno 17343 bound_to 10162
  157.2064  131.0450  151.2623 LP  0  0  0  0  0  0  0  0  0  0  0  0  # atno 17370 bound_to 10713
  157.3929  130.7291  149.6710 LP  0  0  0  0  0  0  0  0  0  0  0  0  # atno 17371 bound_to 10713
  140.5065  134.6436  157.5268 LP  0  0  0  0  0  0  0  0  0  0  0  0  # atno 17394 bound_to 11000
  139.9838  134.7095  155.9812 LP  0  0  0  0  0  0  0  0  0  0  0  0  # atno 17395 bound_to 11000

$$$$
