AV-unprocessed.smi:221|AV-procd|sdf|1690|dock1
  -GOLD-   2262020133D 1   1.00000     0.00000
 Structure written by MMmdl.
 50 53  0  0  0  0  0  0  0  0  1 V2000
  147.6174  129.8446  152.5809 N   0  0  0  0  0  0  0  0  0  0  0  0
  146.5960  130.4392  153.2019 C   0  0  0  0  0  0  0  0  0  0  0  0
  146.2736  130.1501  154.3531 O   0  0  0  0  0  0  0  0  0  0  0  0
  145.8471  131.5253  152.4162 C   0  0  2  0  0  0  0  0  0  0  0  0
  145.2318  130.9735  151.1232 C   0  0  0  0  0  0  0  0  0  0  0  0
  145.0942  132.2142  150.2483 C   0  0  1  0  0  0  0  0  0  0  0  0
  143.9822  132.8727  150.5791 F   0  0  0  0  0  0  0  0  0  0  0  0
  146.3181  133.0505  150.6293 C   0  0  0  0  0  0  0  0  0  0  0  0
  146.7369  132.5918  151.9515 N   0  0  0  0  0  0  0  0  0  0  0  0
  147.0128  133.5648  152.8478 C   0  0  0  0  0  0  0  0  0  0  0  0
  146.1702  134.6251  152.8905 N   0  0  0  0  0  0  0  0  0  0  0  0
  146.3921  135.6192  153.7561 C   0  0  0  0  0  0  0  0  0  0  0  0
  147.3773  135.7458  154.6483 N   0  0  0  0  0  0  0  0  0  0  0  0
  148.2261  134.6789  154.6057 C   0  0  0  0  0  0  0  0  0  0  0  0
  148.1196  133.5530  153.7423 C   0  0  0  0  0  0  0  0  0  0  0  0
  149.1643  132.6687  153.9828 N   0  0  0  0  0  0  0  0  0  0  0  0
  149.8505  133.2396  154.9348 C   0  0  0  0  0  0  0  0  0  0  0  0
  149.3608  134.4517  155.3651 N   0  0  0  0  0  0  0  0  0  0  0  0
  149.9295  135.2926  156.4041 C   0  0  0  0  0  0  0  0  0  0  0  0
  149.4836  136.7721  156.2991 C   0  0  1  0  0  0  0  0  0  0  0  0
  149.3059  137.4385  157.6851 C   0  0  0  0  0  0  0  0  0  0  0  0
  150.2979  137.0107  158.5958 O   0  0  0  0  0  0  0  0  0  0  0  0
  150.4191  137.5847  155.3680 C   0  0  2  0  0  0  0  0  0  0  0  0
  151.7570  137.9654  155.9774 C   0  0  0  0  0  0  0  0  0  0  0  0
  152.2150  139.0986  155.0664 C   0  0  0  0  0  0  0  0  0  0  0  0
  151.0258  139.7603  154.6513 O   0  0  0  0  0  0  0  0  0  0  0  0
  149.8879  138.9688  154.9794 C   0  0  0  0  0  0  0  0  0  0  0  0
  145.0545  131.9437  153.0396 H   0  0  0  0  0  0  0  0  0  0  0  0
  145.0387  131.9910  149.1827 H   0  0  0  0  0  0  0  0  0  0  0  0
  148.1402  129.1234  153.0564 H   0  0  0  0  0  0  0  0  0  0  0  0
  147.8634  130.1161  151.6400 H   0  0  0  0  0  0  0  0  0  0  0  0
  145.9073  130.2637  150.6419 H   0  0  0  0  0  0  0  0  0  0  0  0
  144.2796  130.4687  151.2895 H   0  0  0  0  0  0  0  0  0  0  0  0
  147.1370  132.8467  149.9388 H   0  0  0  0  0  0  0  0  0  0  0  0
  146.1107  134.1208  150.5751 H   0  0  0  0  0  0  0  0  0  0  0  0
  145.6778  136.4287  153.7300 H   0  0  0  0  0  0  0  0  0  0  0  0
  150.7412  132.7910  155.3503 H   0  0  0  0  0  0  0  0  0  0  0  0
  149.6576  134.8817  157.3770 H   0  0  0  0  0  0  0  0  0  0  0  0
  151.0140  135.2116  156.3309 H   0  0  0  0  0  0  0  0  0  0  0  0
  148.4966  136.7696  155.8342 H   0  0  0  0  0  0  0  0  0  0  0  0
  149.3535  138.5242  157.6035 H   0  0  0  0  0  0  0  0  0  0  0  0
  148.3253  137.2143  158.1050 H   0  0  0  0  0  0  0  0  0  0  0  0
  150.9316  137.7043  158.6985 H   0  0  0  0  0  0  0  0  0  0  0  0
  150.6061  137.0198  154.4533 H   0  0  0  0  0  0  0  0  0  0  0  0
  151.6231  138.3346  156.9953 H   0  0  0  0  0  0  0  0  0  0  0  0
  152.4696  137.1405  156.0034 H   0  0  0  0  0  0  0  0  0  0  0  0
  152.9014  139.7837  155.5640 H   0  0  0  0  0  0  0  0  0  0  0  0
  152.7155  138.6979  154.1841 H   0  0  0  0  0  0  0  0  0  0  0  0
  149.1883  138.9272  154.1444 H   0  0  0  0  0  0  0  0  0  0  0  0
  149.3783  139.4394  155.8213 H   0  0  0  0  0  0  0  0  0  0  0  0
  1  2  1  0  0  0  0
  1 30  1  0  0  0  0
  1 31  1  0  0  0  0
  2  3  2  0  0  0  0
  2  4  1  0  0  0  0
  4 28  1  0  0  0  0
  4  9  1  0  0  0  0
  4  5  1  0  0  0  0
  5  6  1  0  0  0  0
  5 32  1  0  0  0  0
  5 33  1  0  0  0  0
  6 29  1  0  0  0  0
  6  7  1  0  0  0  0
  6  8  1  0  0  0  0
  8  9  1  0  0  0  0
  8 34  1  0  0  0  0
  8 35  1  0  0  0  0
  9 10  1  0  0  0  0
 10 15  1  0  0  0  0
 10 11  2  0  0  0  0
 11 12  1  0  0  0  0
 12 13  2  0  0  0  0
 12 36  1  0  0  0  0
 13 14  1  0  0  0  0
 14 18  1  0  0  0  0
 14 15  2  0  0  0  0
 15 16  1  0  0  0  0
 16 17  2  0  0  0  0
 17 18  1  0  0  0  0
 17 37  1  0  0  0  0
 18 19  1  0  0  0  0
 19 20  1  0  0  0  0
 19 38  1  0  0  0  0
 19 39  1  0  0  0  0
 20 21  1  0  0  0  0
 20 23  1  0  0  0  0
 20 40  1  0  0  0  0
 21 22  1  0  0  0  0
 21 41  1  0  0  0  0
 21 42  1  0  0  0  0
 22 43  1  0  0  0  0
 23 27  1  0  0  0  0
 23 24  1  0  0  0  0
 23 44  1  0  0  0  0
 24 25  1  0  0  0  0
 24 45  1  0  0  0  0
 24 46  1  0  0  0  0
 25 26  1  0  0  0  0
 25 47  1  0  0  0  0
 25 48  1  0  0  0  0
 26 27  1  0  0  0  0
 27 49  1  0  0  0  0
 27 50  1  0  0  0  0
M  END
> <s_m_source_file>
AV-unprocessed.smi

> <i_m_source_file_index>
221

> <i_lp_mmshare_version>
43012

> <i_f3d_flags>
0

> <s_epik_input>
W05IMl1DKD1PKVtDQEBIXTFbQ0gyXVtDQEBIXShGKVtDSDJdTjFjKG5bY0hdbjIpYyhjMjMpbltjSF1uM1tDSDJdW0NASF0oW0NIMl1bT0hdKVtDQEBIXTRbQ0gyXVtDSDJdT1tDSDJdNA==

> <s_epik_cmdline>
J2VwaWtfcHl0aG9uJywgJy1waCcsICc3LjAnLCAnLXRuJywgJzgnLCAnLW1hJywgJzIwMCcsICctbWV0YWxfYmluZGluZycsICctaW1hZScsICc8aW5maWxlLm1hZT4nLCAnLW9tYWUnLCAnPG91dGZpbGUubWFlPic=

> <r_lp_tautomer_probability>
1

> <r_epik_Ionization_Penalty>
0.000818822

> <r_epik_Ionization_Penalty_Charging>
0

> <r_epik_Ionization_Penalty_Neutral>
0.000818822

> <r_epik_State_Penalty>
0.000440551

> <r_epik_Charging_Adjusted_Penalty>
0.000440551

> <i_epik_Tot_Q>
0

> <i_epik_Tot_abs_Q>
0

> <r_epik_Metal_State_Penalty>
-0

> <b_epik_Metal_Only>
0

> <s_lp_Force_Field>
OPLS_2005

> <r_lp_Energy>
51.1408

> <b_lp_Chiralities_Consistent>
1

> <s_lp_Variant>
AV-unprocessed.smi:221-5

> <Gold.Version>
5.8.1

> <Gold.Id.Protein>
6NUR|6NUR_protein|mol2

> <Gold.PLP.Fitness>
46.1459

> <Gold.PLP.PLP>
-40.5043

> <Gold.PLP.part.hbond>
-3.0000

> <Gold.PLP.part.metal>
0.0000

> <Gold.PLP.part.buried>
-8.4702

> <Gold.PLP.part.nonpolar>
-30.0876

> <Gold.PLP.part.repulsive>
0.6914

> <Gold.PLP.ligand.clash>
0.0000

> <Gold.PLP.ligand.torsion>
1.7489

> <Gold.PLP.Chemscore.Hbond>
2.8960

> <Gold.PLP.Chemscore.CHOScore>
0.0000

> <Gold.PLP.Chemscore.Metal>
0.0000

> <Gold.Chemscore.Hbonds>
donor molecule, donor type, donor heavy atom, donor atom, acceptor molecule, acceptor atom, score
      L1  H     1    31       P1 10747  1.00
      P1  H  7989  7998       L1    26  1.00

> <Gold.PLP.Chemscore.Internal.Correction>
0.4514

> <Gold.Rescore>
     Score         DG    S(hbond)    S(metal)    S(lipo)     H(rot)  DE(clash)    DE(int)     intcor
      9.90     -13.96       2.84        0.00      72.72       3.72       0.13       3.94       ----

> <Gold.Chemscore.Fitness>
9.8981

> <Gold.Chemscore.DG>
-13.9605

> <Gold.Chemscore.ZeroCoef>
-5.4800

> <Gold.Chemscore.Hbond>
2.8431

> <Gold.Chemscore.Metal>
0.0000

> <Gold.Chemscore.Lipo>
72.7206

> <Gold.Chemscore.Internal_Hbond>
0.0000

> <Gold.Chemscore.DEClash>
0.1274

> <Gold.Chemscore.DEInternal>
3.9350

> <Gold.Chemscore.Rot>
3.7202

> <Gold.Chemscore.Internal.Correction>
   9.000000E+99

> <Gold.Chemscore.Hbonds>
donor molecule, donor type, donor heavy atom, donor atom, acceptor molecule, acceptor atom, score
      L1  H     1    31       P1 10747  0.98
      P1  H  6896  6908       L1    22  0.04
      P1  H  7989  7998       L1    26  0.30

> <Gold.Chemscore.Hbond.Weighted>
-9.4960

> <Gold.Chemscore.Metal.Weighted>
-0.0000

> <Gold.Chemscore.Lipo.Weighted>
-8.5083

> <Gold.Chemscore.Internal_Hbond.Weighted>
0.0000

> <Gold.Chemscore.DEClash.Weighted>
0.1274

> <Gold.Chemscore.DEInternal.Weighted>
3.9350

> <Gold.Chemscore.Rot.Weighted>
9.5237

> <Gold.Chemscore.Internal.Correction.Weighted>
   9.000000E+99

> <Gold.Protein.RotatedTorsions>
[ 6907 6896 6895 6894 ] final -150.38 input  -60.11 | X-H torsion
[ 7974 7965 7964 7962 ] final  -91.40 input  175.53 | X-H torsion
[ 8008 7997 7996 7995 ] final  -64.80 input   59.86 | X-H torsion
[ 10167 10162 10161 10158 ] final   55.74 input  -65.29 | X-H torsion
[ 10718 10713 10712 10709 ] final  -77.01 input   66.30 | X-H torsion
[ 10763 10752 10751 10750 ] final   74.92 input  -60.55 | X-H torsion
[ 11005 11000 10999 10996 ] final -149.81 input  -57.11 | X-H torsion

> <Gold.Protein.ActiveResidues>
 VAL166  LYS551  ARG553  GLY616  TRP617  ASP618  TYR619  PRO620  LYS621  CYS622 
 ASP623  PHE694  ASN695  SER759  ASP760  ASP761  ALA762  ILE779  LEU786  VAL792 
 PHE793  MET794  SER795  GLU796  ALA797  LYS798  CYS799  TRP800  GLU811  SER814 

> <Gold.Protein.RotatedAtoms>
  151.1977  133.4629  159.2595 H   0  0  0  0  0  0  0  0  0  0  0  0  # atno 6907 bound_to 6896
  151.1100  135.0021  159.8499 H   0  0  0  0  0  0  0  0  0  0  0  0  # atno 6908 bound_to 6896
  152.5450  134.1897  159.8722 H   0  0  0  0  0  0  0  0  0  0  0  0  # atno 6909 bound_to 6896
  145.4136  140.9546  143.2220 H   0  0  0  0  0  0  0  0  0  0  0  0  # atno 7974 bound_to 7965
  154.4633  140.0946  156.6953 H   0  0  0  0  0  0  0  0  0  0  0  0  # atno 8008 bound_to 7997
  155.4930  140.3471  155.4340 H   0  0  0  0  0  0  0  0  0  0  0  0  # atno 8009 bound_to 7997
  156.0911  140.1397  156.9579 H   0  0  0  0  0  0  0  0  0  0  0  0  # atno 8010 bound_to 7997
  140.2163  144.3836  150.6468 H   0  0  0  0  0  0  0  0  0  0  0  0  # atno 10167 bound_to 10162
  156.0157  130.4480  150.3280 H   0  0  0  0  0  0  0  0  0  0  0  0  # atno 10718 bound_to 10713
  153.0619  135.5008  154.8113 H   0  0  0  0  0  0  0  0  0  0  0  0  # atno 10763 bound_to 10752
  154.6896  135.2982  154.9501 H   0  0  0  0  0  0  0  0  0  0  0  0  # atno 10764 bound_to 10752
  154.0260  135.6736  153.4829 H   0  0  0  0  0  0  0  0  0  0  0  0  # atno 10765 bound_to 10752
  140.7468  134.3452  157.5135 H   0  0  0  0  0  0  0  0  0  0  0  0  # atno 11005 bound_to 11000
  144.8292  139.5657  143.6951 LP  0  0  0  0  0  0  0  0  0  0  0  0  # atno 17320 bound_to 7965
  146.2692  139.6594  142.9308 LP  0  0  0  0  0  0  0  0  0  0  0  0  # atno 17321 bound_to 7965
  140.6288  143.2184  151.6540 LP  0  0  0  0  0  0  0  0  0  0  0  0  # atno 17342 bound_to 10162
  139.5161  144.3358  152.0785 LP  0  0  0  0  0  0  0  0  0  0  0  0  # atno 17343 bound_to 10162
  157.1379  131.0289  151.2941 LP  0  0  0  0  0  0  0  0  0  0  0  0  # atno 17370 bound_to 10713
  157.4496  130.7591  149.7140 LP  0  0  0  0  0  0  0  0  0  0  0  0  # atno 17371 bound_to 10713
  139.8795  134.9116  156.3041 LP  0  0  0  0  0  0  0  0  0  0  0  0  # atno 17394 bound_to 11000
  140.9787  133.7281  156.0640 LP  0  0  0  0  0  0  0  0  0  0  0  0  # atno 17395 bound_to 11000

$$$$
