AV-unprocessed.smi:3303|AV-procd|sdf|12694|dock2
  -GOLD-   2272019 23D 1   1.00000     0.00000
 Structure written by MMmdl.
 44 45  0  0  0  0  0  0  0  0  2 V2000
  147.5072  141.9834  154.2007 C   0  0  0  0  0  0  0  0  0  0  0  0
  148.2365  140.6996  154.6340 C   0  0  1  0  0  0  0  0  0  0  0  0
  148.1694  139.6519  153.4988 C   0  0  0  0  0  0  0  0  0  0  0  0
  148.8837  138.3939  153.8362 N   0  3  2  0  0  0  0  0  0  0  0  0
  148.1439  137.5525  154.8113 C   0  0  0  0  0  0  0  0  0  0  0  0
  150.3144  138.6521  154.1655 C   0  0  2  0  0  0  0  0  0  0  0  0
  151.1186  137.3620  154.4016 C   0  0  0  0  0  0  0  0  0  0  0  0
  150.4454  139.6485  155.3334 C   0  0  0  0  0  0  0  0  0  0  0  0
  149.7068  140.9680  155.0383 C   0  0  2  0  0  0  0  0  0  0  0  0
  149.7519  141.7695  156.2556 N   0  0  0  0  0  0  0  0  0  0  0  0
  151.1183  141.9492  156.7225 C   0  0  0  0  0  0  0  0  0  0  0  0
  151.2529  143.3183  157.4028 C   0  0  0  0  0  0  0  0  0  0  0  0
  151.6086  143.1962  158.8724 C   0  0  0  0  0  0  0  0  0  0  0  0
  152.1071  141.9837  159.3947 C   0  0  0  0  0  0  0  0  0  0  0  0
  152.4200  141.9226  160.7666 C   0  0  0  0  0  0  0  0  0  0  0  0
  152.2222  143.0694  161.5596 C   0  0  0  0  0  0  0  0  0  0  0  0
  151.7185  144.2317  160.9422 C   0  0  0  0  0  0  0  0  0  0  0  0
  151.4153  144.3011  159.6277 N   0  0  0  0  0  0  0  0  0  0  0  0
  148.0106  142.4607  153.3594 H   0  0  0  0  0  0  0  0  0  0  0  0
  147.4550  142.7084  155.0130 H   0  0  0  0  0  0  0  0  0  0  0  0
  146.4825  141.7684  153.8961 H   0  0  0  0  0  0  0  0  0  0  0  0
  147.7055  140.2984  155.4987 H   0  0  0  0  0  0  0  0  0  0  0  0
  147.1322  139.4272  153.2464 H   0  0  0  0  0  0  0  0  0  0  0  0
  148.6163  140.0651  152.5935 H   0  0  0  0  0  0  0  0  0  0  0  0
  148.1314  137.9930  155.8078 H   0  0  0  0  0  0  0  0  0  0  0  0
  148.5785  136.5561  154.8850 H   0  0  0  0  0  0  0  0  0  0  0  0
  147.1099  137.4209  154.4919 H   0  0  0  0  0  0  0  0  0  0  0  0
  150.7475  139.1253  153.2826 H   0  0  0  0  0  0  0  0  0  0  0  0
  152.1834  137.5823  154.4829 H   0  0  0  0  0  0  0  0  0  0  0  0
  150.9924  136.6602  153.5765 H   0  0  0  0  0  0  0  0  0  0  0  0
  150.8248  136.8589  155.3230 H   0  0  0  0  0  0  0  0  0  0  0  0
  150.0641  139.1970  156.2504 H   0  0  0  0  0  0  0  0  0  0  0  0
  151.5003  139.8572  155.5173 H   0  0  0  0  0  0  0  0  0  0  0  0
  150.2186  141.4736  154.2170 H   0  0  0  0  0  0  0  0  0  0  0  0
  149.2131  141.3176  156.9809 H   0  0  0  0  0  0  0  0  0  0  0  0
  151.3703  141.1546  157.4263 H   0  0  0  0  0  0  0  0  0  0  0  0
  151.8112  141.8774  155.8832 H   0  0  0  0  0  0  0  0  0  0  0  0
  152.0162  143.9125  156.8983 H   0  0  0  0  0  0  0  0  0  0  0  0
  150.3198  143.8768  157.3127 H   0  0  0  0  0  0  0  0  0  0  0  0
  152.2469  141.1201  158.7614 H   0  0  0  0  0  0  0  0  0  0  0  0
  152.8046  141.0125  161.2025 H   0  0  0  0  0  0  0  0  0  0  0  0
  152.4504  143.0586  162.6150 H   0  0  0  0  0  0  0  0  0  0  0  0
  151.5546  145.1293  161.5198 H   0  0  0  0  0  0  0  0  0  0  0  0
  148.8924  137.8531  152.9829 H   0  0  0  0  0  0  0  0  0  0  0  0
  1  2  1  0  0  0  0
  1 19  1  0  0  0  0
  1 20  1  0  0  0  0
  1 21  1  0  0  0  0
  2  9  1  0  0  0  0
  2  3  1  0  0  0  0
  2 22  1  0  0  0  0
  3  4  1  0  0  0  0
  3 23  1  0  0  0  0
  3 24  1  0  0  0  0
  4  5  1  0  0  0  0
  4  6  1  0  0  0  0
  4 44  1  0  0  0  0
  5 25  1  0  0  0  0
  5 26  1  0  0  0  0
  5 27  1  0  0  0  0
  6  7  1  0  0  0  0
  6  8  1  0  0  0  0
  6 28  1  0  0  0  0
  7 29  1  0  0  0  0
  7 30  1  0  0  0  0
  7 31  1  0  0  0  0
  8  9  1  0  0  0  0
  8 32  1  0  0  0  0
  8 33  1  0  0  0  0
  9 10  1  0  0  0  0
  9 34  1  0  0  0  0
 10 11  1  0  0  0  0
 10 35  1  0  0  0  0
 11 12  1  0  0  0  0
 11 36  1  0  0  0  0
 11 37  1  0  0  0  0
 12 13  1  0  0  0  0
 12 38  1  0  0  0  0
 12 39  1  0  0  0  0
 13 18  1  0  0  0  0
 13 14  2  0  0  0  0
 14 15  1  0  0  0  0
 14 40  1  0  0  0  0
 15 16  2  0  0  0  0
 15 41  1  0  0  0  0
 16 17  1  0  0  0  0
 16 42  1  0  0  0  0
 17 18  2  0  0  0  0
 17 43  1  0  0  0  0
M  CHG  1   4   1
M  END
> <s_m_source_file>
AV-unprocessed.smi

> <i_m_source_file_index>
3303

> <i_lp_mmshare_version>
43012

> <i_f3d_flags>
0

> <s_epik_input>
W0NIM11bQ0BASF0xW0NIMl1OKFtDSDNdKVtDQEBIXShbQ0gzXSlbQ0gyXVtDQEhdMVtOSF1bQ0gyXVtDSDJdYzJbY0hdW2NIXVtjSF1bY0hdbjI=

> <s_epik_cmdline>
J2VwaWtfcHl0aG9uJywgJy1waCcsICc3LjAnLCAnLXRuJywgJzgnLCAnLW1hJywgJzIwMCcsICctbWV0YWxfYmluZGluZycsICctaW1hZScsICc8aW5maWxlLm1hZT4nLCAnLW9tYWUnLCAnPG91dGZpbGUubWFlPic=

> <r_epik_Ionization_Penalty>
2.31085

> <r_epik_Ionization_Penalty_Charging>
0.000313057

> <r_epik_Ionization_Penalty_Neutral>
2.31054

> <r_epik_State_Penalty>
2.4087

> <r_epik_Charging_Adjusted_Penalty>
2.40902

> <i_epik_Tot_Q>
1

> <i_epik_Tot_abs_Q>
1

> <r_epik_Metal_State_Penalty>
2.30979

> <b_epik_Metal_Only>
0

> <s_lp_Force_Field>
OPLS_2005

> <r_lp_Energy>
26.2858

> <b_lp_Chiralities_Consistent>
1

> <s_lp_Variant>
AV-unprocessed.smi:3303-38

> <Gold.Version>
5.8.1

> <Gold.Id.Protein>
6NUR|6NUR_protein|mol2

> <Gold.PLP.Fitness>
47.1838

> <Gold.PLP.PLP>
-42.8353

> <Gold.PLP.part.hbond>
-2.3652

> <Gold.PLP.part.metal>
0.0000

> <Gold.PLP.part.buried>
-1.5337

> <Gold.PLP.part.nonpolar>
-39.2689

> <Gold.PLP.part.repulsive>
0.1159

> <Gold.PLP.ligand.clash>
0.0000

> <Gold.PLP.ligand.torsion>
0.8070

> <Gold.PLP.Chemscore.Hbond>
1.9825

> <Gold.PLP.Chemscore.CHOScore>
0.0000

> <Gold.PLP.Chemscore.Metal>
0.0000

> <Gold.Chemscore.Hbonds>
donor molecule, donor type, donor heavy atom, donor atom, acceptor molecule, acceptor atom, score
      L1  H     4    44       P1  7948  2.00

> <Gold.PLP.Chemscore.Internal.Correction>
0.0149

> <Gold.Rescore>
     Score         DG    S(hbond)    S(metal)    S(lipo)     H(rot)  DE(clash)    DE(int)     intcor
     19.36     -20.05       1.00        0.00     125.16       1.33       0.11       0.58       ----

> <Gold.Chemscore.Fitness>
19.3640

> <Gold.Chemscore.DG>
-20.0500

> <Gold.Chemscore.ZeroCoef>
-5.4800

> <Gold.Chemscore.Hbond>
0.9950

> <Gold.Chemscore.Metal>
0.0000

> <Gold.Chemscore.Lipo>
125.1644

> <Gold.Chemscore.Internal_Hbond>
0.0000

> <Gold.Chemscore.DEClash>
0.1068

> <Gold.Chemscore.DEInternal>
0.5793

> <Gold.Chemscore.Rot>
1.3272

> <Gold.Chemscore.Internal.Correction>
   9.000000E+99

> <Gold.Chemscore.Hbonds>
donor molecule, donor type, donor heavy atom, donor atom, acceptor molecule, acceptor atom, score
      L1  H     4    44       P1  7948  0.98

> <Gold.Chemscore.Hbond.Weighted>
-3.3234

> <Gold.Chemscore.Metal.Weighted>
-0.0000

> <Gold.Chemscore.Lipo.Weighted>
-14.6442

> <Gold.Chemscore.Internal_Hbond.Weighted>
0.0000

> <Gold.Chemscore.DEClash.Weighted>
0.1068

> <Gold.Chemscore.DEInternal.Weighted>
0.5793

> <Gold.Chemscore.Rot.Weighted>
3.3976

> <Gold.Chemscore.Internal.Correction.Weighted>
   9.000000E+99

> <Gold.Protein.RotatedTorsions>
[ 6907 6896 6895 6894 ] final -149.30 input  -60.11 | X-H torsion
[ 7974 7965 7964 7962 ] final  -49.57 input  175.53 | X-H torsion
[ 8008 7997 7996 7995 ] final  -52.08 input   59.86 | X-H torsion
[ 10167 10162 10161 10158 ] final  150.09 input  -65.29 | X-H torsion
[ 10718 10713 10712 10709 ] final   75.52 input   66.30 | X-H torsion
[ 10763 10752 10751 10750 ] final -177.22 input  -60.55 | X-H torsion
[ 11005 11000 10999 10996 ] final  -18.05 input  -57.11 | X-H torsion

> <Gold.Protein.ActiveResidues>
 VAL166  LYS551  ARG553  GLY616  TRP617  ASP618  TYR619  PRO620  LYS621  CYS622 
 ASP623  PHE694  ASN695  SER759  ASP760  ASP761  ALA762  ILE779  LEU786  VAL792 
 PHE793  MET794  SER795  GLU796  ALA797  LYS798  CYS799  TRP800  GLU811  SER814 

> <Gold.Protein.RotatedAtoms>
  151.1821  133.4718  159.2593 H   0  0  0  0  0  0  0  0  0  0  0  0  # atno 6907 bound_to 6896
  151.1248  135.0099  159.8565 H   0  0  0  0  0  0  0  0  0  0  0  0  # atno 6908 bound_to 6896
  152.5457  134.1729  159.8657 H   0  0  0  0  0  0  0  0  0  0  0  0  # atno 6909 bound_to 6896
  145.9391  140.7678  142.9561 H   0  0  0  0  0  0  0  0  0  0  0  0  # atno 7974 bound_to 7965
  154.4098  140.1232  156.4934 H   0  0  0  0  0  0  0  0  0  0  0  0  # atno 8008 bound_to 7997
  155.6967  140.3495  155.4896 H   0  0  0  0  0  0  0  0  0  0  0  0  # atno 8009 bound_to 7997
  155.9421  140.1089  157.1037 H   0  0  0  0  0  0  0  0  0  0  0  0  # atno 8010 bound_to 7997
  139.4854  144.5550  151.7334 H   0  0  0  0  0  0  0  0  0  0  0  0  # atno 10167 bound_to 10162
  157.6637  130.9730  150.1365 H   0  0  0  0  0  0  0  0  0  0  0  0  # atno 10718 bound_to 10713
  154.5628  135.2821  155.0903 H   0  0  0  0  0  0  0  0  0  0  0  0  # atno 10763 bound_to 10752
  154.2305  135.6375  153.5177 H   0  0  0  0  0  0  0  0  0  0  0  0  # atno 10764 bound_to 10752
  153.0034  135.5536  154.6227 H   0  0  0  0  0  0  0  0  0  0  0  0  # atno 10765 bound_to 10752
  140.8230  133.8054  155.9679 H   0  0  0  0  0  0  0  0  0  0  0  0  # atno 11005 bound_to 11000
  144.6776  140.2252  143.7362 LP  0  0  0  0  0  0  0  0  0  0  0  0  # atno 17320 bound_to 7965
  145.8323  139.2091  143.1875 LP  0  0  0  0  0  0  0  0  0  0  0  0  # atno 17321 bound_to 7965
  140.5110  144.1025  150.5995 LP  0  0  0  0  0  0  0  0  0  0  0  0  # atno 17342 bound_to 10162
  140.3951  143.2732  152.0014 LP  0  0  0  0  0  0  0  0  0  0  0  0  # atno 17343 bound_to 10162
  156.2199  130.3673  149.8569 LP  0  0  0  0  0  0  0  0  0  0  0  0  # atno 17370 bound_to 10713
  156.6425  130.8710  151.3516 LP  0  0  0  0  0  0  0  0  0  0  0  0  # atno 17371 bound_to 10713
  140.9079  134.2297  157.5003 LP  0  0  0  0  0  0  0  0  0  0  0  0  # atno 17394 bound_to 11000
  139.8707  134.9737  156.4818 LP  0  0  0  0  0  0  0  0  0  0  0  0  # atno 17395 bound_to 11000

$$$$
