AV-unprocessed.smi:1213|AV-procd|sdf|5087|dock5
  -GOLD-   22720 4133D 1   1.00000     0.00000
 Structure written by MMmdl.
 35 36  0  0  0  0  0  0  0  0  2 V2000
  146.7559  136.0457  153.1616 N   0  0  0  0  0  0  0  0  0  0  0  0
  146.0784  137.1154  153.5861 C   0  0  0  0  0  0  0  0  0  0  0  0
  145.2291  137.0477  154.4717 O   0  0  0  0  0  0  0  0  0  0  0  0
  146.3943  138.4550  152.9110 C   0  0  0  0  0  0  0  0  0  0  0  0
  147.0315  139.4596  153.7936 N   0  0  0  0  0  0  0  0  0  0  0  0
  147.2889  140.7320  153.1020 C   0  0  0  0  0  0  0  0  0  0  0  0
  147.8897  141.7648  154.0722 C   0  0  0  0  0  0  0  0  0  0  0  0
  149.1895  141.2465  154.7029 C   0  0  0  0  0  0  0  0  0  0  0  0
  149.6741  142.1987  155.6986 N   0  0  0  0  0  0  0  0  0  0  0  0
  150.6438  141.9756  156.5976 C   0  0  0  0  0  0  0  0  0  0  0  0
  151.2124  140.8815  156.6323 O   0  0  0  0  0  0  0  0  0  0  0  0
  150.8947  143.0349  157.4006 N   0  5  0  0  0  0  0  0  0  0  0  0
  151.5945  142.8677  158.5346 C   0  0  0  0  0  0  0  0  0  0  0  0
  152.0901  141.6856  158.9181 N   0  0  0  0  0  0  0  0  0  0  0  0
  152.7780  141.7391  160.1318 C   0  0  0  0  0  0  0  0  0  0  0  0
  152.7985  142.9897  160.6903 C   0  0  0  0  0  0  0  0  0  0  0  0
  151.9492  144.1442  159.7026 S   0  0  0  0  0  0  0  0  0  0  0  0
  148.9187  139.8736  155.3392 C   0  0  0  0  0  0  0  0  0  0  0  0
  148.2844  138.9091  154.3223 C   0  0  0  0  0  0  0  0  0  0  0  0
  146.5877  135.1439  153.5832 H   0  0  0  0  0  0  0  0  0  0  0  0
  147.4405  136.1465  152.4260 H   0  0  0  0  0  0  0  0  0  0  0  0
  147.0521  138.2432  152.0666 H   0  0  0  0  0  0  0  0  0  0  0  0
  145.4747  138.8660  152.4901 H   0  0  0  0  0  0  0  0  0  0  0  0
  147.9612  140.5714  152.2574 H   0  0  0  0  0  0  0  0  0  0  0  0
  146.3673  141.1484  152.6957 H   0  0  0  0  0  0  0  0  0  0  0  0
  148.0800  142.6994  153.5430 H   0  0  0  0  0  0  0  0  0  0  0  0
  147.1614  141.9944  154.8520 H   0  0  0  0  0  0  0  0  0  0  0  0
  149.9349  141.1375  153.9129 H   0  0  0  0  0  0  0  0  0  0  0  0
  149.2366  143.1085  155.7092 H   0  0  0  0  0  0  0  0  0  0  0  0
  153.2214  140.8366  160.5250 H   0  0  0  0  0  0  0  0  0  0  0  0
  153.2568  143.3009  161.6167 H   0  0  0  0  0  0  0  0  0  0  0  0
  149.8469  139.4455  155.7198 H   0  0  0  0  0  0  0  0  0  0  0  0
  148.2550  139.9844  156.1985 H   0  0  0  0  0  0  0  0  0  0  0  0
  148.0897  137.9566  154.8174 H   0  0  0  0  0  0  0  0  0  0  0  0
  148.9841  138.7060  153.5094 H   0  0  0  0  0  0  0  0  0  0  0  0
  1  2  1  0  0  0  0
  1 20  1  0  0  0  0
  1 21  1  0  0  0  0
  2  3  2  0  0  0  0
  2  4  1  0  0  0  0
  4  5  1  0  0  0  0
  4 22  1  0  0  0  0
  4 23  1  0  0  0  0
  5 19  1  0  0  0  0
  5  6  1  0  0  0  0
  6  7  1  0  0  0  0
  6 24  1  0  0  0  0
  6 25  1  0  0  0  0
  7  8  1  0  0  0  0
  7 26  1  0  0  0  0
  7 27  1  0  0  0  0
  8  9  1  0  0  0  0
  8 18  1  0  0  0  0
  8 28  1  0  0  0  0
  9 10  1  0  0  0  0
  9 29  1  0  0  0  0
 10 11  2  0  0  0  0
 10 12  1  0  0  0  0
 12 13  1  0  0  0  0
 13 17  1  0  0  0  0
 13 14  2  0  0  0  0
 14 15  1  0  0  0  0
 15 16  2  0  0  0  0
 15 30  1  0  0  0  0
 16 17  1  0  0  0  0
 16 31  1  0  0  0  0
 18 19  1  0  0  0  0
 18 32  1  0  0  0  0
 18 33  1  0  0  0  0
 19 34  1  0  0  0  0
 19 35  1  0  0  0  0
M  CHG  1  12  -1
M  END
> <s_m_source_file>
AV-unprocessed.smi

> <i_m_source_file_index>
1213

> <i_lp_mmshare_version>
43012

> <i_f3d_flags>
0

> <s_epik_input>
W05IMl1DKD1PKVtDSDJdTjFbQ0gyXVtDSDJdW0NIXShbQ0gyXVtDSDJdMSlbTkhdQyg9TylbTkhdYzJuW2NIXVtjSF1zMg==

> <s_epik_cmdline>
J2VwaWtfcHl0aG9uJywgJy1waCcsICc3LjAnLCAnLXRuJywgJzgnLCAnLW1hJywgJzIwMCcsICctbWV0YWxfYmluZGluZycsICctaW1hZScsICc8aW5maWxlLm1hZT4nLCAnLW9tYWUnLCAnPG91dGZpbGUubWFlPic=

> <r_lp_tautomer_probability>
0.999

> <r_epik_Ionization_Penalty>
7.12626

> <r_epik_Ionization_Penalty_Charging>
5.84953

> <r_epik_Ionization_Penalty_Neutral>
1.27674

> <r_epik_State_Penalty>
5.99619

> <r_epik_Charging_Adjusted_Penalty>
11.8457

> <i_epik_Tot_Q>
-1

> <i_epik_Tot_abs_Q>
1

> <r_epik_Metal_State_Penalty>
1.98285

> <b_epik_Metal_Only>
1

> <s_lp_Force_Field>
OPLS_2005

> <r_lp_Energy>
7.2689

> <b_lp_Chiralities_Consistent>
1

> <s_lp_Variant>
AV-unprocessed.smi:1213-4

> <Gold.Version>
5.8.1

> <Gold.Id.Protein>
6NUR|6NUR_protein|mol2

> <Gold.PLP.Fitness>
39.5648

> <Gold.PLP.PLP>
-34.0127

> <Gold.PLP.part.hbond>
-2.0000

> <Gold.PLP.part.metal>
0.0000

> <Gold.PLP.part.buried>
-6.3225

> <Gold.PLP.part.nonpolar>
-28.1418

> <Gold.PLP.part.repulsive>
0.5386

> <Gold.PLP.ligand.clash>
0.0000

> <Gold.PLP.ligand.torsion>
0.2386

> <Gold.PLP.Chemscore.Hbond>
2.0000

> <Gold.PLP.Chemscore.CHOScore>
0.0000

> <Gold.PLP.Chemscore.Metal>
0.0000

> <Gold.Chemscore.Hbonds>
donor molecule, donor type, donor heavy atom, donor atom, acceptor molecule, acceptor atom, score
      L1  H     1    21       P1  7948  1.00
      L1  H     9    29       P1  8028  1.00

> <Gold.PLP.Chemscore.Internal.Correction>
0.0292

> <Gold.Rescore>
     Score         DG    S(hbond)    S(metal)    S(lipo)     H(rot)  DE(clash)    DE(int)     intcor
     11.78     -15.13       1.96        0.00      70.44       2.01       0.05       3.30       ----

> <Gold.Chemscore.Fitness>
11.7832

> <Gold.Chemscore.DG>
-15.1269

> <Gold.Chemscore.ZeroCoef>
-5.4800

> <Gold.Chemscore.Hbond>
1.9619

> <Gold.Chemscore.Metal>
0.0000

> <Gold.Chemscore.Lipo>
70.4427

> <Gold.Chemscore.Internal_Hbond>
0.0000

> <Gold.Chemscore.DEClash>
0.0480

> <Gold.Chemscore.DEInternal>
3.2958

> <Gold.Chemscore.Rot>
2.0107

> <Gold.Chemscore.Internal.Correction>
   9.000000E+99

> <Gold.Chemscore.Hbonds>
donor molecule, donor type, donor heavy atom, donor atom, acceptor molecule, acceptor atom, score
      L1  H     1    21       P1  7948  0.96
      L1  H     9    29       P1  8028  1.00

> <Gold.Chemscore.Hbond.Weighted>
-6.5526

> <Gold.Chemscore.Metal.Weighted>
-0.0000

> <Gold.Chemscore.Lipo.Weighted>
-8.2418

> <Gold.Chemscore.Internal_Hbond.Weighted>
0.0000

> <Gold.Chemscore.DEClash.Weighted>
0.0480

> <Gold.Chemscore.DEInternal.Weighted>
3.2958

> <Gold.Chemscore.Rot.Weighted>
5.1474

> <Gold.Chemscore.Internal.Correction.Weighted>
   9.000000E+99

> <Gold.Protein.RotatedTorsions>
[ 6907 6896 6895 6894 ] final -106.75 input  -60.11 | X-H torsion
[ 7974 7965 7964 7962 ] final   28.61 input  175.53 | X-H torsion
[ 8008 7997 7996 7995 ] final -123.98 input   59.86 | X-H torsion
[ 10167 10162 10161 10158 ] final -166.04 input  -65.29 | X-H torsion
[ 10718 10713 10712 10709 ] final    4.38 input   66.30 | X-H torsion
[ 10763 10752 10751 10750 ] final    1.62 input  -60.55 | X-H torsion
[ 11005 11000 10999 10996 ] final   26.15 input  -57.11 | X-H torsion

> <Gold.Protein.ActiveResidues>
 VAL166  LYS551  ARG553  GLY616  TRP617  ASP618  TYR619  PRO620  LYS621  CYS622 
 ASP623  PHE694  ASN695  SER759  ASP760  ASP761  ALA762  ILE779  LEU786  VAL792 
 PHE793  MET794  SER795  GLU796  ALA797  LYS798  CYS799  TRP800  GLU811  SER814 

> <Gold.Protein.RotatedAtoms>
  150.7406  133.9930  159.3612 H   0  0  0  0  0  0  0  0  0  0  0  0  # atno 6907 bound_to 6896
  151.7879  135.0742  160.0392 H   0  0  0  0  0  0  0  0  0  0  0  0  # atno 6908 bound_to 6896
  152.3229  133.5836  159.5793 H   0  0  0  0  0  0  0  0  0  0  0  0  # atno 6909 bound_to 6896
  146.1719  139.7033  142.8961 H   0  0  0  0  0  0  0  0  0  0  0  0  # atno 7974 bound_to 7965
  155.1894  140.0412  157.2897 H   0  0  0  0  0  0  0  0  0  0  0  0  # atno 8008 bound_to 7997
  154.6149  140.2486  155.7594 H   0  0  0  0  0  0  0  0  0  0  0  0  # atno 8009 bound_to 7997
  156.2401  140.2907  156.0429 H   0  0  0  0  0  0  0  0  0  0  0  0  # atno 8010 bound_to 7997
  139.6141  144.0755  152.1871 H   0  0  0  0  0  0  0  0  0  0  0  0  # atno 10167 bound_to 10162
  156.8918  130.5690  149.5650 H   0  0  0  0  0  0  0  0  0  0  0  0  # atno 10718 bound_to 10713
  153.3058  135.6959  153.7161 H   0  0  0  0  0  0  0  0  0  0  0  0  # atno 10763 bound_to 10752
  153.6057  135.3454  155.2962 H   0  0  0  0  0  0  0  0  0  0  0  0  # atno 10764 bound_to 10752
  154.8562  135.4351  154.2182 H   0  0  0  0  0  0  0  0  0  0  0  0  # atno 10765 bound_to 10752
  140.3401  134.2342  155.7691 H   0  0  0  0  0  0  0  0  0  0  0  0  # atno 11005 bound_to 11000
  145.4317  141.0415  143.2907 LP  0  0  0  0  0  0  0  0  0  0  0  0  # atno 17320 bound_to 7965
  144.8176  139.5848  143.7001 LP  0  0  0  0  0  0  0  0  0  0  0  0  # atno 17321 bound_to 7965
  140.0381  144.6029  150.7433 LP  0  0  0  0  0  0  0  0  0  0  0  0  # atno 17342 bound_to 10162
  140.7339  143.2723  151.3851 LP  0  0  0  0  0  0  0  0  0  0  0  0  # atno 17343 bound_to 10162
  156.0625  130.5675  150.9222 LP  0  0  0  0  0  0  0  0  0  0  0  0  # atno 17370 bound_to 10713
  157.6079  131.0938  150.8847 LP  0  0  0  0  0  0  0  0  0  0  0  0  # atno 17371 bound_to 10713
  141.2041  133.7896  157.0306 LP  0  0  0  0  0  0  0  0  0  0  0  0  # atno 17394 bound_to 11000
  140.0788  134.9660  157.1590 LP  0  0  0  0  0  0  0  0  0  0  0  0  # atno 17395 bound_to 11000

$$$$
