AV-unprocessed.smi:2118|AV-procd|sdf|8628|dock7
  -GOLD-   2272011373D 1   1.00000     0.00000
 Structure written by MMmdl.
 40 41  0  0  0  0  0  0  0  0  1 V2000
  157.4712  138.7846  165.2346 C   0  0  0  0  0  0  0  0  0  0  0  0
  157.7006  138.7510  163.7171 C   0  0  0  0  0  0  0  0  0  0  0  0
  157.2378  140.0536  163.0433 C   0  0  0  0  0  0  0  0  0  0  0  0
  157.4444  140.0043  161.5186 C   0  0  0  0  0  0  0  0  0  0  0  0
  156.7912  138.8223  160.9219 N   0  0  0  0  0  0  0  0  0  0  0  0
  155.1853  138.9802  160.2721 S   0  0  0  0  0  0  0  0  0  0  0  0
  155.2083  138.6188  158.8463 O   0  0  0  0  0  0  0  0  0  0  0  0
  154.2294  138.3480  161.1943 O   0  0  0  0  0  0  0  0  0  0  0  0
  154.9870  140.6864  160.3867 N   0  0  0  0  0  0  0  0  0  0  0  0
  153.7759  141.2878  159.8371 C   0  0  0  0  0  0  0  0  0  0  0  0
  153.6480  142.7416  160.3087 C   0  0  0  0  0  0  0  0  0  0  0  0
  152.3789  143.3977  159.8019 C   0  0  0  0  0  0  0  0  0  0  0  0
  152.0960  144.7481  160.0934 C   0  0  0  0  0  0  0  0  0  0  0  0
  150.9049  145.3137  159.5989 C   0  0  0  0  0  0  0  0  0  0  0  0
  150.0456  144.5024  158.8312 C   0  0  0  0  0  0  0  0  0  0  0  0
  150.3069  143.2086  158.5447 N   0  0  0  0  0  0  0  0  0  0  0  0
  151.4514  142.6740  159.0228 C   0  0  0  0  0  0  0  0  0  0  0  0
  157.1976  137.5425  161.5356 C   0  0  0  0  0  0  0  0  0  0  0  0
  156.9890  137.5560  163.0611 C   0  0  0  0  0  0  0  0  0  0  0  0
  156.4122  138.8883  165.4738 H   0  0  0  0  0  0  0  0  0  0  0  0
  157.9994  139.6214  165.6925 H   0  0  0  0  0  0  0  0  0  0  0  0
  157.8314  137.8700  165.7065 H   0  0  0  0  0  0  0  0  0  0  0  0
  158.7726  138.6432  163.5449 H   0  0  0  0  0  0  0  0  0  0  0  0
  156.1883  140.2401  163.2710 H   0  0  0  0  0  0  0  0  0  0  0  0
  157.7902  140.8991  163.4547 H   0  0  0  0  0  0  0  0  0  0  0  0
  157.0731  140.9169  161.0529 H   0  0  0  0  0  0  0  0  0  0  0  0
  158.5112  139.9587  161.2967 H   0  0  0  0  0  0  0  0  0  0  0  0
  155.2129  141.0340  161.3181 H   0  0  0  0  0  0  0  0  0  0  0  0
  153.8173  141.2416  158.7482 H   0  0  0  0  0  0  0  0  0  0  0  0
  152.9117  140.7040  160.1564 H   0  0  0  0  0  0  0  0  0  0  0  0
  153.6576  142.7844  161.3988 H   0  0  0  0  0  0  0  0  0  0  0  0
  154.5078  143.3218  159.9704 H   0  0  0  0  0  0  0  0  0  0  0  0
  152.7783  145.3415  160.6843 H   0  0  0  0  0  0  0  0  0  0  0  0
  150.6558  146.3447  159.8026 H   0  0  0  0  0  0  0  0  0  0  0  0
  149.1241  144.9035  158.4358 H   0  0  0  0  0  0  0  0  0  0  0  0
  151.6323  141.6384  158.7749 H   0  0  0  0  0  0  0  0  0  0  0  0
  156.6520  136.7156  161.0818 H   0  0  0  0  0  0  0  0  0  0  0  0
  158.2518  137.3733  161.3133 H   0  0  0  0  0  0  0  0  0  0  0  0
  157.3657  136.6243  163.4843 H   0  0  0  0  0  0  0  0  0  0  0  0
  155.9240  137.5829  163.2915 H   0  0  0  0  0  0  0  0  0  0  0  0
  1  2  1  0  0  0  0
  1 20  1  0  0  0  0
  1 21  1  0  0  0  0
  1 22  1  0  0  0  0
  2 19  1  0  0  0  0
  2  3  1  0  0  0  0
  2 23  1  0  0  0  0
  3  4  1  0  0  0  0
  3 24  1  0  0  0  0
  3 25  1  0  0  0  0
  4  5  1  0  0  0  0
  4 26  1  0  0  0  0
  4 27  1  0  0  0  0
  5  6  1  0  0  0  0
  5 18  1  0  0  0  0
  6  7  2  0  0  0  0
  6  8  2  0  0  0  0
  6  9  1  0  0  0  0
  9 10  1  0  0  0  0
  9 28  1  0  0  0  0
 10 11  1  0  0  0  0
 10 29  1  0  0  0  0
 10 30  1  0  0  0  0
 11 12  1  0  0  0  0
 11 31  1  0  0  0  0
 11 32  1  0  0  0  0
 12 17  1  0  0  0  0
 12 13  2  0  0  0  0
 13 14  1  0  0  0  0
 13 33  1  0  0  0  0
 14 15  2  0  0  0  0
 14 34  1  0  0  0  0
 15 16  1  0  0  0  0
 15 35  1  0  0  0  0
 16 17  2  0  0  0  0
 17 36  1  0  0  0  0
 18 19  1  0  0  0  0
 18 37  1  0  0  0  0
 18 38  1  0  0  0  0
 19 39  1  0  0  0  0
 19 40  1  0  0  0  0
M  END
> <s_m_source_file>
AV-unprocessed.smi

> <i_m_source_file_index>
2118

> <i_lp_mmshare_version>
43012

> <i_f3d_flags>
0

> <s_epik_input>
W0NIM11bQ0hdMVtDSDJdW0NIMl1OKFtDSDJdW0NIMl0xKVMoPU8pKD1PKVtOSF1bQ0gyXVtDSDJdYzJbY0hdW2NIXVtjSF1uW2NIXTI=

> <s_epik_cmdline>
J2VwaWtfcHl0aG9uJywgJy1waCcsICc3LjAnLCAnLXRuJywgJzgnLCAnLW1hJywgJzIwMCcsICctbWV0YWxfYmluZGluZycsICctaW1hZScsICc8aW5maWxlLm1hZT4nLCAnLW9tYWUnLCAnPG91dGZpbGUubWFlPic=

> <r_epik_Ionization_Penalty>
0.0259724

> <r_epik_Ionization_Penalty_Charging>
0

> <r_epik_Ionization_Penalty_Neutral>
0.0259724

> <r_epik_State_Penalty>
0.0167858

> <r_epik_Charging_Adjusted_Penalty>
0.0167858

> <i_epik_Tot_Q>
0

> <i_epik_Tot_abs_Q>
0

> <r_epik_Metal_State_Penalty>
0.268382

> <b_epik_Metal_Only>
0

> <s_lp_Force_Field>
OPLS_2005

> <r_lp_Energy>
6.97296

> <b_lp_Chiralities_Consistent>
1

> <s_lp_Variant>
AV-unprocessed.smi:2118-1

> <Gold.Version>
5.8.1

> <Gold.Id.Protein>
6NUR|6NUR_protein|mol2

> <Gold.PLP.Fitness>
43.3022

> <Gold.PLP.PLP>
-37.9527

> <Gold.PLP.part.hbond>
-1.0000

> <Gold.PLP.part.metal>
0.0000

> <Gold.PLP.part.buried>
-4.3716

> <Gold.PLP.part.nonpolar>
-32.9704

> <Gold.PLP.part.repulsive>
0.1606

> <Gold.PLP.ligand.clash>
0.0000

> <Gold.PLP.ligand.torsion>
1.3510

> <Gold.PLP.Chemscore.Hbond>
1.0000

> <Gold.PLP.Chemscore.CHOScore>
0.9791

> <Gold.PLP.Chemscore.Metal>
0.0000

> <Gold.Chemscore.Hbonds>
donor molecule, donor type, donor heavy atom, donor atom, acceptor molecule, acceptor atom, score
      P1  H  7997  8010       L1     7  0.63
      L1  C    15    35       P1  8029  0.88

> <Gold.PLP.Chemscore.Internal.Correction>
2.1143

> <Gold.Rescore>
     Score         DG    S(hbond)    S(metal)    S(lipo)     H(rot)  DE(clash)    DE(int)     intcor
     15.60     -17.69       0.97        0.00     108.96       1.47       0.20       1.88       ----

> <Gold.Chemscore.Fitness>
15.5990

> <Gold.Chemscore.DG>
-17.6853

> <Gold.Chemscore.ZeroCoef>
-5.4800

> <Gold.Chemscore.Hbond>
0.9659

> <Gold.Chemscore.Metal>
0.0000

> <Gold.Chemscore.Lipo>
108.9639

> <Gold.Chemscore.Internal_Hbond>
0.0000

> <Gold.Chemscore.DEClash>
0.2047

> <Gold.Chemscore.DEInternal>
1.8816

> <Gold.Chemscore.Rot>
1.4725

> <Gold.Chemscore.Internal.Correction>
   9.000000E+99

> <Gold.Chemscore.Hbonds>
donor molecule, donor type, donor heavy atom, donor atom, acceptor molecule, acceptor atom, score
      P1  H  7997  8010       L1     7  0.61

> <Gold.Chemscore.Hbond.Weighted>
-3.2262

> <Gold.Chemscore.Metal.Weighted>
-0.0000

> <Gold.Chemscore.Lipo.Weighted>
-12.7488

> <Gold.Chemscore.Internal_Hbond.Weighted>
0.0000

> <Gold.Chemscore.DEClash.Weighted>
0.2047

> <Gold.Chemscore.DEInternal.Weighted>
1.8816

> <Gold.Chemscore.Rot.Weighted>
3.7697

> <Gold.Chemscore.Internal.Correction.Weighted>
   9.000000E+99

> <Gold.Protein.RotatedTorsions>
[ 6907 6896 6895 6894 ] final   -7.38 input  -60.11 | X-H torsion
[ 7974 7965 7964 7962 ] final  145.94 input  175.53 | X-H torsion
[ 8008 7997 7996 7995 ] final   15.88 input   59.86 | X-H torsion
[ 10167 10162 10161 10158 ] final  -36.41 input  -65.29 | X-H torsion
[ 10718 10713 10712 10709 ] final   85.67 input   66.30 | X-H torsion
[ 10763 10752 10751 10750 ] final  -34.34 input  -60.55 | X-H torsion
[ 11005 11000 10999 10996 ] final   40.43 input  -57.11 | X-H torsion

> <Gold.Protein.ActiveResidues>
 VAL166  LYS551  ARG553  GLY616  TRP617  ASP618  TYR619  PRO620  LYS621  CYS622 
 ASP623  PHE694  ASN695  SER759  ASP760  ASP761  ALA762  ILE779  LEU786  VAL792 
 PHE793  MET794  SER795  GLU796  ALA797  LYS798  CYS799  TRP800  GLU811  SER814 

> <Gold.Protein.RotatedAtoms>
  151.4505  135.1029  159.9696 H   0  0  0  0  0  0  0  0  0  0  0  0  # atno 6907 bound_to 6896
  152.4890  133.8444  159.7180 H   0  0  0  0  0  0  0  0  0  0  0  0  # atno 6908 bound_to 6896
  150.9025  133.7040  159.2902 H   0  0  0  0  0  0  0  0  0  0  0  0  # atno 6909 bound_to 6896
  144.8711  139.5844  143.5886 H   0  0  0  0  0  0  0  0  0  0  0  0  # atno 7974 bound_to 7965
  154.8689  140.2956  155.5493 H   0  0  0  0  0  0  0  0  0  0  0  0  # atno 8008 bound_to 7997
  156.3021  140.2464  156.3608 H   0  0  0  0  0  0  0  0  0  0  0  0  # atno 8009 bound_to 7997
  154.8838  140.0397  157.1787 H   0  0  0  0  0  0  0  0  0  0  0  0  # atno 8010 bound_to 7997
  140.7143  143.3411  151.2356 H   0  0  0  0  0  0  0  0  0  0  0  0  # atno 10167 bound_to 10162
  157.6918  131.0184  150.2858 H   0  0  0  0  0  0  0  0  0  0  0  0  # atno 10718 bound_to 10713
  153.8450  135.6854  153.4798 H   0  0  0  0  0  0  0  0  0  0  0  0  # atno 10763 bound_to 10752
  153.1431  135.4649  154.9523 H   0  0  0  0  0  0  0  0  0  0  0  0  # atno 10764 bound_to 10752
  154.7828  135.3274  154.7900 H   0  0  0  0  0  0  0  0  0  0  0  0  # atno 10765 bound_to 10752
  140.1931  134.3962  155.8135 H   0  0  0  0  0  0  0  0  0  0  0  0  # atno 11005 bound_to 11000
  146.2931  139.7197  142.9146 LP  0  0  0  0  0  0  0  0  0  0  0  0  # atno 17320 bound_to 7965
  145.4128  141.0398  143.3007 LP  0  0  0  0  0  0  0  0  0  0  0  0  # atno 17321 bound_to 7965
  139.6919  143.9678  152.2863 LP  0  0  0  0  0  0  0  0  0  0  0  0  # atno 17342 bound_to 10162
  139.9343  144.6722  150.8331 LP  0  0  0  0  0  0  0  0  0  0  0  0  # atno 17343 bound_to 10162
  156.3397  130.3813  149.7420 LP  0  0  0  0  0  0  0  0  0  0  0  0  # atno 17370 bound_to 10713
  156.4933  130.8095  151.3103 LP  0  0  0  0  0  0  0  0  0  0  0  0  # atno 17371 bound_to 10713
  141.2226  133.7056  156.8130 LP  0  0  0  0  0  0  0  0  0  0  0  0  # atno 17394 bound_to 11000
  140.2137  134.8809  157.3302 LP  0  0  0  0  0  0  0  0  0  0  0  0  # atno 17395 bound_to 11000

$$$$
