AV-unprocessed.smi:2001|AV-procd|sdf|8104|dock5
  -GOLD-   2272010333D 1   1.00000     0.00000
 Structure written by MMmdl.
 50 51  0  0  0  0  0  0  0  0  1 V2000
  152.9951  142.6445  159.5675 C   0  0  0  0  0  0  0  0  0  0  0  0
  151.7360  142.1314  159.1688 O   0  0  0  0  0  0  0  0  0  0  0  0
  151.7410  141.6606  157.8319 C   0  0  0  0  0  0  0  0  0  0  0  0
  150.8448  140.4167  157.7406 C   0  0  0  0  0  0  0  0  0  0  0  0
  150.7783  139.8994  156.3700 N   0  0  0  0  0  0  0  0  0  0  0  0
  149.4934  139.8135  155.8599 N   0  0  0  0  0  0  0  0  0  0  0  0
  149.2991  139.3745  154.6582 C   0  0  0  0  0  0  0  0  0  0  0  0
  147.9351  139.2748  154.0687 C   0  0  0  0  0  0  0  0  0  0  0  0
  146.9220  139.2847  154.7699 O   0  0  0  0  0  0  0  0  0  0  0  0
  147.8916  139.1702  152.7279 N   0  0  0  0  0  0  0  0  0  0  0  0
  146.6754  139.0308  151.9362 C   0  0  0  0  0  0  0  0  0  0  0  0
  146.6205  137.6709  151.2146 C   0  0  0  0  0  0  0  0  0  0  0  0
  145.4097  136.8927  151.4686 N   0  0  0  0  0  0  0  0  0  0  0  0
  145.1667  136.6768  152.8933 C   0  0  0  0  0  0  0  0  0  0  0  0
  143.9023  135.8347  153.1609 C   0  0  1  0  0  0  0  0  0  0  0  0
  142.5945  136.6108  152.9294 C   0  0  0  0  0  0  0  0  0  0  0  0
  143.9412  134.6240  152.4033 O   0  0  0  0  0  0  0  0  0  0  0  0
  144.1758  134.7884  151.0058 C   0  0  2  0  0  0  0  0  0  0  0  0
  144.2607  133.3974  150.3690 C   0  0  0  0  0  0  0  0  0  0  0  0
  145.4665  135.6006  150.7974 C   0  0  0  0  0  0  0  0  0  0  0  0
  150.4173  138.9607  153.8273 C   0  0  0  0  0  0  0  0  0  0  0  0
  151.6640  139.0442  154.3411 C   0  0  0  0  0  0  0  0  0  0  0  0
  151.9116  139.5366  155.6969 C   0  0  0  0  0  0  0  0  0  0  0  0
  153.0367  139.6154  156.1892 O   0  0  0  0  0  0  0  0  0  0  0  0
  152.9393  142.9924  160.5989 H   0  0  0  0  0  0  0  0  0  0  0  0
  153.2924  143.4885  158.9439 H   0  0  0  0  0  0  0  0  0  0  0  0
  153.7688  141.8776  159.5123 H   0  0  0  0  0  0  0  0  0  0  0  0
  151.3780  142.4418  157.1621 H   0  0  0  0  0  0  0  0  0  0  0  0
  152.7594  141.4124  157.5284 H   0  0  0  0  0  0  0  0  0  0  0  0
  151.2275  139.6448  158.4109 H   0  0  0  0  0  0  0  0  0  0  0  0
  149.8437  140.6490  158.1086 H   0  0  0  0  0  0  0  0  0  0  0  0
  148.7673  139.1713  152.2248 H   0  0  0  0  0  0  0  0  0  0  0  0
  145.8320  139.1415  152.6168 H   0  0  0  0  0  0  0  0  0  0  0  0
  146.6060  139.8481  151.2163 H   0  0  0  0  0  0  0  0  0  0  0  0
  146.6917  137.8577  150.1422 H   0  0  0  0  0  0  0  0  0  0  0  0
  147.5013  137.0812  151.4734 H   0  0  0  0  0  0  0  0  0  0  0  0
  146.0267  136.1693  153.3330 H   0  0  0  0  0  0  0  0  0  0  0  0
  145.0721  137.6283  153.4151 H   0  0  0  0  0  0  0  0  0  0  0  0
  143.9135  135.5385  154.2102 H   0  0  0  0  0  0  0  0  0  0  0  0
  142.5312  137.4705  153.5968 H   0  0  0  0  0  0  0  0  0  0  0  0
  141.7277  135.9786  153.1227 H   0  0  0  0  0  0  0  0  0  0  0  0
  142.5142  136.9851  151.9091 H   0  0  0  0  0  0  0  0  0  0  0  0
  143.3353  135.3189  150.5573 H   0  0  0  0  0  0  0  0  0  0  0  0
  144.4289  133.4683  149.2941 H   0  0  0  0  0  0  0  0  0  0  0  0
  143.3362  132.8407  150.5241 H   0  0  0  0  0  0  0  0  0  0  0  0
  145.0764  132.8157  150.7987 H   0  0  0  0  0  0  0  0  0  0  0  0
  145.6269  135.7475  149.7287 H   0  0  0  0  0  0  0  0  0  0  0  0
  146.3215  135.0311  151.1654 H   0  0  0  0  0  0  0  0  0  0  0  0
  150.2642  138.5930  152.8230 H   0  0  0  0  0  0  0  0  0  0  0  0
  152.5045  138.7389  153.7351 H   0  0  0  0  0  0  0  0  0  0  0  0
  1  2  1  0  0  0  0
  1 25  1  0  0  0  0
  1 26  1  0  0  0  0
  1 27  1  0  0  0  0
  2  3  1  0  0  0  0
  3  4  1  0  0  0  0
  3 28  1  0  0  0  0
  3 29  1  0  0  0  0
  4  5  1  0  0  0  0
  4 30  1  0  0  0  0
  4 31  1  0  0  0  0
  5 23  1  0  0  0  0
  5  6  1  0  0  0  0
  6  7  2  0  0  0  0
  7  8  1  0  0  0  0
  7 21  1  0  0  0  0
  8  9  2  0  0  0  0
  8 10  1  0  0  0  0
 10 11  1  0  0  0  0
 10 32  1  0  0  0  0
 11 12  1  0  0  0  0
 11 33  1  0  0  0  0
 11 34  1  0  0  0  0
 12 13  1  0  0  0  0
 12 35  1  0  0  0  0
 12 36  1  0  0  0  0
 13 20  1  0  0  0  0
 13 14  1  0  0  0  0
 14 15  1  0  0  0  0
 14 37  1  0  0  0  0
 14 38  1  0  0  0  0
 15 16  1  0  0  0  0
 15 17  1  0  0  0  0
 15 39  1  0  0  0  0
 16 40  1  0  0  0  0
 16 41  1  0  0  0  0
 16 42  1  0  0  0  0
 17 18  1  0  0  0  0
 18 19  1  0  0  0  0
 18 20  1  0  0  0  0
 18 43  1  0  0  0  0
 19 44  1  0  0  0  0
 19 45  1  0  0  0  0
 19 46  1  0  0  0  0
 20 47  1  0  0  0  0
 20 48  1  0  0  0  0
 21 22  2  0  0  0  0
 21 49  1  0  0  0  0
 22 23  1  0  0  0  0
 22 50  1  0  0  0  0
 23 24  2  0  0  0  0
M  END
> <s_m_source_file>
AV-unprocessed.smi

> <i_m_source_file_index>
2001

> <i_lp_mmshare_version>
43012

> <i_f3d_flags>
0

> <s_epik_input>
W0NIM11PW0NIMl1bQ0gyXW4xbmMoW2NIXVtjSF1jMT1PKUMoPU8pW05IXVtDSDJdW0NIMl1OMltDSDJdW0NAQEhdKFtDSDNdKU9bQ0BASF0oW0NIM10pW0NIMl0y

> <s_epik_cmdline>
J2VwaWtfcHl0aG9uJywgJy1waCcsICc3LjAnLCAnLXRuJywgJzgnLCAnLW1hJywgJzIwMCcsICctbWV0YWxfYmluZGluZycsICctaW1hZScsICc8aW5maWxlLm1hZT4nLCAnLW9tYWUnLCAnPG91dGZpbGUubWFlPic=

> <r_lp_tautomer_probability>
1

> <r_epik_Ionization_Penalty>
0.206669

> <r_epik_Ionization_Penalty_Charging>
5.55992e-09

> <r_epik_Ionization_Penalty_Neutral>
0.206669

> <r_epik_State_Penalty>
0.196651

> <r_epik_Charging_Adjusted_Penalty>
0.196651

> <i_epik_Tot_Q>
0

> <i_epik_Tot_abs_Q>
0

> <r_epik_Metal_State_Penalty>
0.198372

> <b_epik_Metal_Only>
0

> <s_lp_Force_Field>
OPLS_2005

> <r_lp_Energy>
41.2012

> <b_lp_Chiralities_Consistent>
1

> <s_lp_Variant>
AV-unprocessed.smi:2001-3

> <Gold.Version>
5.8.1

> <Gold.Id.Protein>
6NUR|6NUR_protein|mol2

> <Gold.PLP.Fitness>
42.6035

> <Gold.PLP.PLP>
-38.6619

> <Gold.PLP.part.hbond>
-2.5105

> <Gold.PLP.part.metal>
0.0000

> <Gold.PLP.part.buried>
-2.0407

> <Gold.PLP.part.nonpolar>
-35.0008

> <Gold.PLP.part.repulsive>
1.4768

> <Gold.PLP.ligand.clash>
0.0000

> <Gold.PLP.ligand.torsion>
0.7843

> <Gold.PLP.Chemscore.Hbond>
1.8000

> <Gold.PLP.Chemscore.CHOScore>
0.0000

> <Gold.PLP.Chemscore.Metal>
0.0000

> <Gold.Chemscore.Hbonds>
donor molecule, donor type, donor heavy atom, donor atom, acceptor molecule, acceptor atom, score
      L1  H    10    32       P1  7957  0.83
      P1  H  7997  8010       L1    24  0.70

> <Gold.PLP.Chemscore.Internal.Correction>
0.1103

> <Gold.Rescore>
     Score         DG    S(hbond)    S(metal)    S(lipo)     H(rot)  DE(clash)    DE(int)     intcor
     14.53     -17.11       1.87        0.00      89.95       2.00       1.43       1.15       ----

> <Gold.Chemscore.Fitness>
14.5291

> <Gold.Chemscore.DG>
-17.1106

> <Gold.Chemscore.ZeroCoef>
-5.4800

> <Gold.Chemscore.Hbond>
1.8658

> <Gold.Chemscore.Metal>
0.0000

> <Gold.Chemscore.Lipo>
89.9490

> <Gold.Chemscore.Internal_Hbond>
0.0000

> <Gold.Chemscore.DEClash>
1.4343

> <Gold.Chemscore.DEInternal>
1.1472

> <Gold.Chemscore.Rot>
2.0020

> <Gold.Chemscore.Internal.Correction>
   9.000000E+99

> <Gold.Chemscore.Hbonds>
donor molecule, donor type, donor heavy atom, donor atom, acceptor molecule, acceptor atom, score
      L1  H    10    32       P1  7957  0.81
      P1  H  7997  8010       L1    24  0.71

> <Gold.Chemscore.Hbond.Weighted>
-6.2318

> <Gold.Chemscore.Metal.Weighted>
-0.0000

> <Gold.Chemscore.Lipo.Weighted>
-10.5240

> <Gold.Chemscore.Internal_Hbond.Weighted>
0.0000

> <Gold.Chemscore.DEClash.Weighted>
1.4343

> <Gold.Chemscore.DEInternal.Weighted>
1.1472

> <Gold.Chemscore.Rot.Weighted>
5.1252

> <Gold.Chemscore.Internal.Correction.Weighted>
   9.000000E+99

> <Gold.Protein.RotatedTorsions>
[ 6907 6896 6895 6894 ] final  -86.78 input  -60.11 | X-H torsion
[ 7974 7965 7964 7962 ] final    9.38 input  175.53 | X-H torsion
[ 8008 7997 7996 7995 ] final   85.54 input   59.86 | X-H torsion
[ 10167 10162 10161 10158 ] final   11.66 input  -65.29 | X-H torsion
[ 10718 10713 10712 10709 ] final   62.07 input   66.30 | X-H torsion
[ 10763 10752 10751 10750 ] final -154.30 input  -60.55 | X-H torsion
[ 11005 11000 10999 10996 ] final  -90.60 input  -57.11 | X-H torsion

> <Gold.Protein.ActiveResidues>
 VAL166  LYS551  ARG553  GLY616  TRP617  ASP618  TYR619  PRO620  LYS621  CYS622 
 ASP623  PHE694  ASN695  SER759  ASP760  ASP761  ALA762  ILE779  LEU786  VAL792 
 PHE793  MET794  SER795  GLU796  ALA797  LYS798  CYS799  TRP800  GLU811  SER814 

> <Gold.Protein.RotatedAtoms>
  150.6866  134.2997  159.4700 H   0  0  0  0  0  0  0  0  0  0  0  0  # atno 6907 bound_to 6896
  152.0894  134.9415  160.0581 H   0  0  0  0  0  0  0  0  0  0  0  0  # atno 6908 bound_to 6896
  152.0737  133.4084  159.4507 H   0  0  0  0  0  0  0  0  0  0  0  0  # atno 6909 bound_to 6896
  146.2404  139.9792  142.8438 H   0  0  0  0  0  0  0  0  0  0  0  0  # atno 7974 bound_to 7965
  155.9513  140.3400  155.6410 H   0  0  0  0  0  0  0  0  0  0  0  0  # atno 8008 bound_to 7997
  155.6917  140.0749  157.2464 H   0  0  0  0  0  0  0  0  0  0  0  0  # atno 8009 bound_to 7997
  154.4122  140.1656  156.2081 H   0  0  0  0  0  0  0  0  0  0  0  0  # atno 8010 bound_to 7997
  140.6117  143.8393  150.7073 H   0  0  0  0  0  0  0  0  0  0  0  0  # atno 10167 bound_to 10162
  157.5874  130.9029  149.9541 H   0  0  0  0  0  0  0  0  0  0  0  0  # atno 10718 bound_to 10713
  154.7868  135.3193  154.7867 H   0  0  0  0  0  0  0  0  0  0  0  0  # atno 10763 bound_to 10752
  153.8566  135.6857  153.4791 H   0  0  0  0  0  0  0  0  0  0  0  0  # atno 10764 bound_to 10752
  153.1523  135.4694  154.9593 H   0  0  0  0  0  0  0  0  0  0  0  0  # atno 10765 bound_to 10752
  141.1562  133.7702  156.9760 H   0  0  0  0  0  0  0  0  0  0  0  0  # atno 11005 bound_to 11000
  145.1608  140.9672  143.4378 LP  0  0  0  0  0  0  0  0  0  0  0  0  # atno 17320 bound_to 7965
  145.0118  139.3503  143.6116 LP  0  0  0  0  0  0  0  0  0  0  0  0  # atno 17321 bound_to 7965
  140.1963  143.3995  152.1825 LP  0  0  0  0  0  0  0  0  0  0  0  0  # atno 17342 bound_to 10162
  139.5367  144.7216  151.4871 LP  0  0  0  0  0  0  0  0  0  0  0  0  # atno 17343 bound_to 10162
  156.0924  130.3662  150.0369 LP  0  0  0  0  0  0  0  0  0  0  0  0  # atno 17370 bound_to 10713
  156.8498  130.9455  151.3626 LP  0  0  0  0  0  0  0  0  0  0  0  0  # atno 17371 bound_to 10713
  140.1097  134.9484  157.2048 LP  0  0  0  0  0  0  0  0  0  0  0  0  # atno 17394 bound_to 11000
  140.3209  134.2917  155.7246 LP  0  0  0  0  0  0  0  0  0  0  0  0  # atno 17395 bound_to 11000

$$$$
