AV-unprocessed.smi:3349|AV-procd|sdf|12938|dock10
  -GOLD-   2272019373D 1   1.00000     0.00000
 Structure written by MMmdl.
 41 42  0  0  0  0  0  0  0  0  2 V2000
  147.9148  136.6311  156.4891 C   0  0  0  0  0  0  0  0  0  0  0  0
  148.2344  136.7953  154.9822 C   0  0  1  0  0  0  0  0  0  0  0  0
  149.5572  137.5839  154.7860 C   0  0  0  0  0  0  0  0  0  0  0  0
  149.4634  138.9740  155.2260 N   0  0  0  0  0  0  0  0  0  0  0  0
  150.4592  139.8745  155.1941 C   0  0  0  0  0  0  0  0  0  0  0  0
  151.5929  139.6107  154.7921 O   0  0  0  0  0  0  0  0  0  0  0  0
  150.1138  141.2840  155.7000 C   0  0  1  0  0  0  0  0  0  0  0  0
  148.6007  141.4959  155.8892 C   0  0  0  0  0  0  0  0  0  0  0  0
  150.8364  141.5793  156.9296 N   0  0  0  0  0  0  0  0  0  0  0  0
  150.9361  142.7055  157.6422 C   0  0  0  0  0  0  0  0  0  0  0  0
  151.7138  142.5983  158.7102 N   0  0  0  0  0  0  0  0  0  0  0  0
  152.0979  141.2938  158.5822 C   0  0  0  0  0  0  0  0  0  0  0  0
  151.6050  140.6397  157.5305 N   0  0  0  0  0  0  0  0  0  0  0  0
  148.2906  135.4880  154.2460 N   0  3  0  0  0  0  0  0  0  0  0  0
  149.3171  134.5239  154.7332 C   0  0  0  0  0  0  0  0  0  0  0  0
  149.3089  133.2292  153.9018 C   0  0  0  0  0  0  0  0  0  0  0  0
  148.0150  132.6467  153.9255 O   0  0  0  0  0  0  0  0  0  0  0  0
  147.0474  133.5128  153.3532 C   0  0  0  0  0  0  0  0  0  0  0  0
  146.9671  134.8079  154.1773 C   0  0  0  0  0  0  0  0  0  0  0  0
  147.8904  137.5892  157.0068 H   0  0  0  0  0  0  0  0  0  0  0  0
  148.6584  136.0088  156.9884 H   0  0  0  0  0  0  0  0  0  0  0  0
  146.9310  136.1929  156.6566 H   0  0  0  0  0  0  0  0  0  0  0  0
  147.4192  137.3800  154.5524 H   0  0  0  0  0  0  0  0  0  0  0  0
  150.3761  137.0665  155.2888 H   0  0  0  0  0  0  0  0  0  0  0  0
  149.8371  137.6320  153.7356 H   0  0  0  0  0  0  0  0  0  0  0  0
  148.5650  139.2813  155.5713 H   0  0  0  0  0  0  0  0  0  0  0  0
  150.4482  141.9890  154.9361 H   0  0  0  0  0  0  0  0  0  0  0  0
  148.0522  141.2780  154.9719 H   0  0  0  0  0  0  0  0  0  0  0  0
  148.3853  142.5298  156.1601 H   0  0  0  0  0  0  0  0  0  0  0  0
  148.1985  140.8592  156.6784 H   0  0  0  0  0  0  0  0  0  0  0  0
  150.4297  143.6213  157.3740 H   0  0  0  0  0  0  0  0  0  0  0  0
  152.7624  140.8118  159.2845 H   0  0  0  0  0  0  0  0  0  0  0  0
  150.3177  134.9478  154.6571 H   0  0  0  0  0  0  0  0  0  0  0  0
  149.1348  134.2952  155.7844 H   0  0  0  0  0  0  0  0  0  0  0  0
  149.6153  133.4248  152.8728 H   0  0  0  0  0  0  0  0  0  0  0  0
  150.0227  132.5157  154.3141 H   0  0  0  0  0  0  0  0  0  0  0  0
  147.2957  133.7252  152.3119 H   0  0  0  0  0  0  0  0  0  0  0  0
  146.0810  133.0081  153.3530 H   0  0  0  0  0  0  0  0  0  0  0  0
  146.6216  134.5805  155.1871 H   0  0  0  0  0  0  0  0  0  0  0  0
  146.2145  135.4489  153.7234 H   0  0  0  0  0  0  0  0  0  0  0  0
  148.5545  135.7114  153.2967 H   0  0  0  0  0  0  0  0  0  0  0  0
  1  2  1  0  0  0  0
  1 20  1  0  0  0  0
  1 21  1  0  0  0  0
  1 22  1  0  0  0  0
  2  3  1  0  0  0  0
  2 14  1  0  0  0  0
  2 23  1  0  0  0  0
  3  4  1  0  0  0  0
  3 24  1  0  0  0  0
  3 25  1  0  0  0  0
  4  5  1  0  0  0  0
  4 26  1  0  0  0  0
  5  6  2  0  0  0  0
  5  7  1  0  0  0  0
  7  8  1  0  0  0  0
  7  9  1  0  0  0  0
  7 27  1  0  0  0  0
  8 28  1  0  0  0  0
  8 29  1  0  0  0  0
  8 30  1  0  0  0  0
  9 13  1  0  0  0  0
  9 10  1  0  0  0  0
 10 11  2  0  0  0  0
 10 31  1  0  0  0  0
 11 12  1  0  0  0  0
 12 13  2  0  0  0  0
 12 32  1  0  0  0  0
 14 19  1  0  0  0  0
 14 15  1  0  0  0  0
 14 41  1  0  0  0  0
 15 16  1  0  0  0  0
 15 33  1  0  0  0  0
 15 34  1  0  0  0  0
 16 17  1  0  0  0  0
 16 35  1  0  0  0  0
 16 36  1  0  0  0  0
 17 18  1  0  0  0  0
 18 19  1  0  0  0  0
 18 37  1  0  0  0  0
 18 38  1  0  0  0  0
 19 39  1  0  0  0  0
 19 40  1  0  0  0  0
M  CHG  1  14   1
M  END
> <s_m_source_file>
AV-unprocessed.smi

> <i_m_source_file_index>
3349

> <i_lp_mmshare_version>
43012

> <i_f3d_flags>
0

> <s_epik_input>
W0NIMl0xW0NIMl1PW0NIMl1bQ0gyXU4xW0NASF0oW0NIM10pW0NIMl1bTkhdQyg9TylbQ0BIXShbQ0gzXSluMltjSF1uW2NIXW4y

> <s_epik_cmdline>
J2VwaWtfcHl0aG9uJywgJy1waCcsICc3LjAnLCAnLXRuJywgJzgnLCAnLW1hJywgJzIwMCcsICctbWV0YWxfYmluZGluZycsICctaW1hZScsICc8aW5maWxlLm1hZT4nLCAnLW9tYWUnLCAnPG91dGZpbGUubWFlPic=

> <r_lp_tautomer_probability>
1

> <r_epik_Ionization_Penalty>
0.71326

> <r_epik_Ionization_Penalty_Charging>
0.713252

> <r_epik_Ionization_Penalty_Neutral>
8.10337e-06

> <r_epik_State_Penalty>
0.737017

> <r_epik_Charging_Adjusted_Penalty>
1.45027

> <i_epik_Tot_Q>
1

> <i_epik_Tot_abs_Q>
1

> <r_epik_Metal_State_Penalty>
0.73702

> <b_epik_Metal_Only>
0

> <s_lp_Force_Field>
OPLS_2005

> <r_lp_Energy>
26.9228

> <b_lp_Chiralities_Consistent>
1

> <s_lp_Variant>
AV-unprocessed.smi:3349-8

> <Gold.Version>
5.8.1

> <Gold.Id.Protein>
6NUR|6NUR_protein|mol2

> <Gold.PLP.Fitness>
37.3037

> <Gold.PLP.PLP>
-25.9150

> <Gold.PLP.part.hbond>
-2.0000

> <Gold.PLP.part.metal>
0.0000

> <Gold.PLP.part.buried>
-3.7414

> <Gold.PLP.part.nonpolar>
-20.5413

> <Gold.PLP.part.repulsive>
0.2068

> <Gold.PLP.ligand.clash>
0.1223

> <Gold.PLP.ligand.torsion>
0.3045

> <Gold.PLP.Chemscore.Hbond>
3.0000

> <Gold.PLP.Chemscore.CHOScore>
1.0000

> <Gold.PLP.Chemscore.Metal>
0.0000

> <Gold.Chemscore.Hbonds>
donor molecule, donor type, donor heavy atom, donor atom, acceptor molecule, acceptor atom, score
      L1  H    14    41       P1  7948  2.00
      P1  H  7989  7998       L1     6  0.85
      L1  C    10    31       P1  8028  0.98

> <Gold.PLP.Chemscore.Internal.Correction>
0.1199

> <Gold.Rescore>
     Score         DG    S(hbond)    S(metal)    S(lipo)     H(rot)  DE(clash)    DE(int)     intcor
      8.02      -9.55       1.98        0.00      35.86       2.63       0.00       1.52       ----

> <Gold.Chemscore.Fitness>
8.0198

> <Gold.Chemscore.DG>
-9.5458

> <Gold.Chemscore.ZeroCoef>
-5.4800

> <Gold.Chemscore.Hbond>
1.9793

> <Gold.Chemscore.Metal>
0.0000

> <Gold.Chemscore.Lipo>
35.8552

> <Gold.Chemscore.Internal_Hbond>
0.0000

> <Gold.Chemscore.DEClash>
0.0029

> <Gold.Chemscore.DEInternal>
1.5231

> <Gold.Chemscore.Rot>
2.6329

> <Gold.Chemscore.Internal.Correction>
   9.000000E+99

> <Gold.Chemscore.Hbonds>
donor molecule, donor type, donor heavy atom, donor atom, acceptor molecule, acceptor atom, score
      L1  H    14    41       P1  7948  0.96
      P1  H  7989  7998       L1     6  0.15

> <Gold.Chemscore.Hbond.Weighted>
-6.6110

> <Gold.Chemscore.Metal.Weighted>
-0.0000

> <Gold.Chemscore.Lipo.Weighted>
-4.1951

> <Gold.Chemscore.Internal_Hbond.Weighted>
0.0000

> <Gold.Chemscore.DEClash.Weighted>
0.0029

> <Gold.Chemscore.DEInternal.Weighted>
1.5231

> <Gold.Chemscore.Rot.Weighted>
6.7403

> <Gold.Chemscore.Internal.Correction.Weighted>
   9.000000E+99

> <Gold.Protein.RotatedTorsions>
[ 6907 6896 6895 6894 ] final -147.40 input  -60.11 | X-H torsion
[ 7974 7965 7964 7962 ] final -147.56 input  175.53 | X-H torsion
[ 8008 7997 7996 7995 ] final  157.19 input   59.86 | X-H torsion
[ 10167 10162 10161 10158 ] final -153.64 input  -65.29 | X-H torsion
[ 10718 10713 10712 10709 ] final -127.86 input   66.30 | X-H torsion
[ 10763 10752 10751 10750 ] final  -44.92 input  -60.55 | X-H torsion
[ 11005 11000 10999 10996 ] final  159.29 input  -57.11 | X-H torsion

> <Gold.Protein.ActiveResidues>
 VAL166  LYS551  ARG553  GLY616  TRP617  ASP618  TYR619  PRO620  LYS621  CYS622 
 ASP623  PHE694  ASN695  SER759  ASP760  ASP761  ALA762  ILE779  LEU786  VAL792 
 PHE793  MET794  SER795  GLU796  ALA797  LYS798  CYS799  TRP800  GLU811  SER814 

> <Gold.Protein.RotatedAtoms>
  151.1551  133.4882  159.2594 H   0  0  0  0  0  0  0  0  0  0  0  0  # atno 6907 bound_to 6896
  151.1513  135.0228  159.8679 H   0  0  0  0  0  0  0  0  0  0  0  0  # atno 6908 bound_to 6896
  152.5463  134.1434  159.8542 H   0  0  0  0  0  0  0  0  0  0  0  0  # atno 6909 bound_to 6896
  144.8085  140.5310  143.5658 H   0  0  0  0  0  0  0  0  0  0  0  0  # atno 7974 bound_to 7965
  156.2378  140.1892  156.7071 H   0  0  0  0  0  0  0  0  0  0  0  0  # atno 8008 bound_to 7997
  154.6140  140.0618  156.9557 H   0  0  0  0  0  0  0  0  0  0  0  0  # atno 8009 bound_to 7997
  155.1970  140.3289  155.4352 H   0  0  0  0  0  0  0  0  0  0  0  0  # atno 8010 bound_to 7997
  139.7080  143.9155  152.2456 H   0  0  0  0  0  0  0  0  0  0  0  0  # atno 10167 bound_to 10162
  156.1896  130.6786  151.0408 H   0  0  0  0  0  0  0  0  0  0  0  0  # atno 10718 bound_to 10713
  154.0201  135.6670  153.4772 H   0  0  0  0  0  0  0  0  0  0  0  0  # atno 10763 bound_to 10752
  153.0584  135.5042  154.8031 H   0  0  0  0  0  0  0  0  0  0  0  0  # atno 10764 bound_to 10752
  154.6943  135.3067  154.9399 H   0  0  0  0  0  0  0  0  0  0  0  0  # atno 10765 bound_to 10752
  140.1947  134.8382  157.2951 H   0  0  0  0  0  0  0  0  0  0  0  0  # atno 11005 bound_to 11000
  145.5380  139.1475  143.3463 LP  0  0  0  0  0  0  0  0  0  0  0  0  # atno 17320 bound_to 7965
  146.2380  140.5520  142.8946 LP  0  0  0  0  0  0  0  0  0  0  0  0  # atno 17321 bound_to 7965
  139.9016  144.6908  150.8659 LP  0  0  0  0  0  0  0  0  0  0  0  0  # atno 17342 bound_to 10162
  140.7726  143.3510  151.2015 LP  0  0  0  0  0  0  0  0  0  0  0  0  # atno 17343 bound_to 10162
  157.6921  131.0806  150.7078 LP  0  0  0  0  0  0  0  0  0  0  0  0  # atno 17370 bound_to 10713
  156.7134  130.4659  149.5541 LP  0  0  0  0  0  0  0  0  0  0  0  0  # atno 17371 bound_to 10713
  140.2120  134.4126  155.7608 LP  0  0  0  0  0  0  0  0  0  0  0  0  # atno 17394 bound_to 11000
  141.2227  133.7123  156.8354 LP  0  0  0  0  0  0  0  0  0  0  0  0  # atno 17395 bound_to 11000

$$$$
