AV-unprocessed.smi:249|AV-procd|sdf|1908|dock6
  -GOLD-   2262020593D 1   1.00000     0.00000
 Structure written by MMmdl.
 64 67  0  0  0  0  0  0  0  0  2 V2000
  146.3911  129.0002  151.4135 C   0  0  0  0  0  0  0  0  0  0  0  0
  146.6596  129.7551  152.7257 C   0  0  0  0  0  0  0  0  0  0  0  0
  147.3562  131.0602  152.5332 N   0  3  2  0  0  0  0  0  0  0  0  0
  148.1892  131.4221  153.7161 C   0  0  0  0  0  0  0  0  0  0  0  0
  148.9709  132.7274  153.5007 C   0  0  0  0  0  0  0  0  0  0  0  0
  148.0291  133.9067  153.1805 C   0  0  2  0  0  0  0  0  0  0  0  0
  147.1535  134.2927  154.2999 N   0  0  0  0  0  0  0  0  0  0  0  0
  145.8058  134.7476  153.9748 C   0  0  0  0  0  0  0  0  0  0  0  0
  147.7071  135.0897  155.2407 C   0  0  0  0  0  0  0  0  0  0  0  0
  148.0413  134.5143  156.4218 N   0  0  0  0  0  0  0  0  0  0  0  0
  148.6131  135.2476  157.3817 C   0  0  0  0  0  0  0  0  0  0  0  0
  148.9357  136.5427  157.3624 N   0  0  0  0  0  0  0  0  0  0  0  0
  148.5912  137.1238  156.1774 C   0  0  0  0  0  0  0  0  0  0  0  0
  147.9664  136.4788  155.0743 C   0  0  0  0  0  0  0  0  0  0  0  0
  147.7542  137.3904  154.0474 N   0  0  0  0  0  0  0  0  0  0  0  0
  148.2396  138.5094  154.5116 C   0  0  0  0  0  0  0  0  0  0  0  0
  148.7890  138.4318  155.7721 N   0  0  0  0  0  0  0  0  0  0  0  0
  149.4083  139.5128  156.5168 C   0  0  0  0  0  0  0  0  0  0  0  0
  150.6600  140.1388  155.8387 C   0  0  2  0  0  0  0  0  0  0  0  0
  151.6975  139.0224  155.5652 C   0  0  0  0  0  0  0  0  0  0  0  0
  152.8635  139.5391  154.9569 O   0  0  0  0  0  0  0  0  0  0  0  0
  151.2809  141.3137  156.6556 C   0  0  1  0  0  0  0  0  0  0  0  0
  150.3111  142.4252  157.0304 C   0  0  0  0  0  0  0  0  0  0  0  0
  151.0466  143.1357  158.1570 C   0  0  0  0  0  0  0  0  0  0  0  0
  151.6662  142.0896  158.8872 O   0  0  0  0  0  0  0  0  0  0  0  0
  151.8234  140.9480  158.0496 C   0  0  0  0  0  0  0  0  0  0  0  0
  147.2291  133.4945  151.9314 C   0  0  0  0  0  0  0  0  0  0  0  0
  146.4404  132.1788  152.1321 C   0  0  1  0  0  0  0  0  0  0  0  0
  145.6499  131.8792  150.8415 C   0  0  0  0  0  0  0  0  0  0  0  0
  145.7394  128.1451  151.5943 H   0  0  0  0  0  0  0  0  0  0  0  0
  147.3039  128.6085  150.9657 H   0  0  0  0  0  0  0  0  0  0  0  0
  145.8968  129.6399  150.6817 H   0  0  0  0  0  0  0  0  0  0  0  0
  145.6847  129.9110  153.1816 H   0  0  0  0  0  0  0  0  0  0  0  0
  147.2281  129.1285  153.4142 H   0  0  0  0  0  0  0  0  0  0  0  0
  147.5532  131.5015  154.5987 H   0  0  0  0  0  0  0  0  0  0  0  0
  148.9159  130.6390  153.9244 H   0  0  0  0  0  0  0  0  0  0  0  0
  149.5988  132.9362  154.3672 H   0  0  0  0  0  0  0  0  0  0  0  0
  149.6666  132.5904  152.6716 H   0  0  0  0  0  0  0  0  0  0  0  0
  148.6349  134.7752  152.9207 H   0  0  0  0  0  0  0  0  0  0  0  0
  145.3301  135.2564  154.8152 H   0  0  0  0  0  0  0  0  0  0  0  0
  145.1745  133.8989  153.7120 H   0  0  0  0  0  0  0  0  0  0  0  0
  145.8253  135.4360  153.1292 H   0  0  0  0  0  0  0  0  0  0  0  0
  148.8519  134.7205  158.2937 H   0  0  0  0  0  0  0  0  0  0  0  0
  148.2277  139.4233  153.9354 H   0  0  0  0  0  0  0  0  0  0  0  0
  148.6581  140.2853  156.6902 H   0  0  0  0  0  0  0  0  0  0  0  0
  149.6639  139.1126  157.4981 H   0  0  0  0  0  0  0  0  0  0  0  0
  150.3637  140.5374  154.8674 H   0  0  0  0  0  0  0  0  0  0  0  0
  152.0216  138.5423  156.4873 H   0  0  0  0  0  0  0  0  0  0  0  0
  151.2727  138.2446  154.9299 H   0  0  0  0  0  0  0  0  0  0  0  0
  153.2342  138.8713  154.4001 H   0  0  0  0  0  0  0  0  0  0  0  0
  152.0886  141.7627  156.0752 H   0  0  0  0  0  0  0  0  0  0  0  0
  150.0853  143.0979  156.2025 H   0  0  0  0  0  0  0  0  0  0  0  0
  149.3740  142.0078  157.4024 H   0  0  0  0  0  0  0  0  0  0  0  0
  151.8178  143.7944  157.7556 H   0  0  0  0  0  0  0  0  0  0  0  0
  150.3831  143.7279  158.7874 H   0  0  0  0  0  0  0  0  0  0  0  0
  151.2569  140.1289  158.4935 H   0  0  0  0  0  0  0  0  0  0  0  0
  152.8725  140.6573  158.0217 H   0  0  0  0  0  0  0  0  0  0  0  0
  146.5581  134.2986  151.6286 H   0  0  0  0  0  0  0  0  0  0  0  0
  147.9200  133.3704  151.0960 H   0  0  0  0  0  0  0  0  0  0  0  0
  145.7201  132.3285  152.9381 H   0  0  0  0  0  0  0  0  0  0  0  0
  145.1205  132.7673  150.4944 H   0  0  0  0  0  0  0  0  0  0  0  0
  144.8868  131.1158  150.9881 H   0  0  0  0  0  0  0  0  0  0  0  0
  146.3096  131.5561  150.0356 H   0  0  0  0  0  0  0  0  0  0  0  0
  147.9951  130.9316  151.7615 H   0  0  0  0  0  0  0  0  0  0  0  0
  1  2  1  0  0  0  0
  1 30  1  0  0  0  0
  1 31  1  0  0  0  0
  1 32  1  0  0  0  0
  2  3  1  0  0  0  0
  2 33  1  0  0  0  0
  2 34  1  0  0  0  0
  3 28  1  0  0  0  0
  3  4  1  0  0  0  0
  3 64  1  0  0  0  0
  4  5  1  0  0  0  0
  4 35  1  0  0  0  0
  4 36  1  0  0  0  0
  5  6  1  0  0  0  0
  5 37  1  0  0  0  0
  5 38  1  0  0  0  0
  6  7  1  0  0  0  0
  6 27  1  0  0  0  0
  6 39  1  0  0  0  0
  7  8  1  0  0  0  0
  7  9  1  0  0  0  0
  8 40  1  0  0  0  0
  8 41  1  0  0  0  0
  8 42  1  0  0  0  0
  9 14  1  0  0  0  0
  9 10  2  0  0  0  0
 10 11  1  0  0  0  0
 11 12  2  0  0  0  0
 11 43  1  0  0  0  0
 12 13  1  0  0  0  0
 13 17  1  0  0  0  0
 13 14  2  0  0  0  0
 14 15  1  0  0  0  0
 15 16  2  0  0  0  0
 16 17  1  0  0  0  0
 16 44  1  0  0  0  0
 17 18  1  0  0  0  0
 18 19  1  0  0  0  0
 18 45  1  0  0  0  0
 18 46  1  0  0  0  0
 19 20  1  0  0  0  0
 19 22  1  0  0  0  0
 19 47  1  0  0  0  0
 20 21  1  0  0  0  0
 20 48  1  0  0  0  0
 20 49  1  0  0  0  0
 21 50  1  0  0  0  0
 22 26  1  0  0  0  0
 22 23  1  0  0  0  0
 22 51  1  0  0  0  0
 23 24  1  0  0  0  0
 23 52  1  0  0  0  0
 23 53  1  0  0  0  0
 24 25  1  0  0  0  0
 24 54  1  0  0  0  0
 24 55  1  0  0  0  0
 25 26  1  0  0  0  0
 26 56  1  0  0  0  0
 26 57  1  0  0  0  0
 27 28  1  0  0  0  0
 27 58  1  0  0  0  0
 27 59  1  0  0  0  0
 28 29  1  0  0  0  0
 28 60  1  0  0  0  0
 29 61  1  0  0  0  0
 29 62  1  0  0  0  0
 29 63  1  0  0  0  0
M  CHG  1   3   1
M  END
> <s_m_source_file>
AV-unprocessed.smi

> <i_m_source_file_index>
249

> <i_lp_mmshare_version>
43012

> <i_f3d_flags>
0

> <s_epik_input>
W0NIM11bQ0gyXU4xW0NIMl1bQ0gyXVtDQEhdKFtDSDJdW0NASF0xW0NIM10pTihbQ0gzXSljKG5bY0hdbjIpYyhjMjMpbltjSF1uM1tDSDJdW0NASF0oW0NIMl1bT0hdKVtDQEBIXTRbQ0gyXVtDSDJdT1tDSDJdNA==

> <s_epik_cmdline>
J2VwaWtfcHl0aG9uJywgJy1waCcsICc3LjAnLCAnLXRuJywgJzgnLCAnLW1hJywgJzIwMCcsICctbWV0YWxfYmluZGluZycsICctaW1hZScsICc8aW5maWxlLm1hZT4nLCAnLW9tYWUnLCAnPG91dGZpbGUubWFlPic=

> <r_lp_tautomer_probability>
1

> <r_epik_Ionization_Penalty>
0.00294688

> <r_epik_Ionization_Penalty_Charging>
0.00169971

> <r_epik_Ionization_Penalty_Neutral>
0.00124717

> <r_epik_State_Penalty>
-0

> <r_epik_Charging_Adjusted_Penalty>
0.00169971

> <i_epik_Tot_Q>
1

> <i_epik_Tot_abs_Q>
1

> <r_epik_Metal_State_Penalty>
-0

> <b_epik_Metal_Only>
0

> <s_lp_Force_Field>
OPLS_2005

> <r_lp_Energy>
57.0978

> <b_lp_Chiralities_Consistent>
1

> <s_lp_Variant>
AV-unprocessed.smi:249-11

> <Gold.Version>
5.8.1

> <Gold.Id.Protein>
6NUR|6NUR_protein|mol2

> <Gold.PLP.Fitness>
42.0297

> <Gold.PLP.PLP>
-36.8527

> <Gold.PLP.part.hbond>
-2.9487

> <Gold.PLP.part.metal>
0.0000

> <Gold.PLP.part.buried>
-4.6394

> <Gold.PLP.part.nonpolar>
-30.3927

> <Gold.PLP.part.repulsive>
1.2883

> <Gold.PLP.ligand.clash>
0.0000

> <Gold.PLP.ligand.torsion>
1.2161

> <Gold.PLP.Chemscore.Hbond>
2.3620

> <Gold.PLP.Chemscore.CHOScore>
0.0000

> <Gold.PLP.Chemscore.Metal>
0.0000

> <Gold.Chemscore.Hbonds>
donor molecule, donor type, donor heavy atom, donor atom, acceptor molecule, acceptor atom, score
      L1  H     3    64       P1 10747  1.00
      P1  H  7989  7998       L1    21  0.12
      P1  H  7997  8010       L1    21  1.00

> <Gold.PLP.Chemscore.Internal.Correction>
0.5231

> <Gold.Rescore>
     Score         DG    S(hbond)    S(metal)    S(lipo)     H(rot)  DE(clash)    DE(int)     intcor
     14.87     -16.41       1.97        0.00     100.51       2.90       0.34       1.20       ----

> <Gold.Chemscore.Fitness>
14.8686

> <Gold.Chemscore.DG>
-16.4057

> <Gold.Chemscore.ZeroCoef>
-5.4800

> <Gold.Chemscore.Hbond>
1.9734

> <Gold.Chemscore.Metal>
0.0000

> <Gold.Chemscore.Lipo>
100.5143

> <Gold.Chemscore.Internal_Hbond>
0.0000

> <Gold.Chemscore.DEClash>
0.3408

> <Gold.Chemscore.DEInternal>
1.1963

> <Gold.Chemscore.Rot>
2.9006

> <Gold.Chemscore.Internal.Correction>
   9.000000E+99

> <Gold.Chemscore.Hbonds>
donor molecule, donor type, donor heavy atom, donor atom, acceptor molecule, acceptor atom, score
      L1  H     3    64       P1 10747  1.00
      P1  H  7989  7998       L1    21  0.01
      P1  H  7997  8010       L1    21  0.30

> <Gold.Chemscore.Hbond.Weighted>
-6.5912

> <Gold.Chemscore.Metal.Weighted>
-0.0000

> <Gold.Chemscore.Lipo.Weighted>
-11.7602

> <Gold.Chemscore.Internal_Hbond.Weighted>
0.0000

> <Gold.Chemscore.DEClash.Weighted>
0.3408

> <Gold.Chemscore.DEInternal.Weighted>
1.1963

> <Gold.Chemscore.Rot.Weighted>
7.4256

> <Gold.Chemscore.Internal.Correction.Weighted>
   9.000000E+99

> <Gold.Protein.RotatedTorsions>
[ 6907 6896 6895 6894 ] final  148.40 input  -60.11 | X-H torsion
[ 7974 7965 7964 7962 ] final  124.28 input  175.53 | X-H torsion
[ 8008 7997 7996 7995 ] final  103.92 input   59.86 | X-H torsion
[ 10167 10162 10161 10158 ] final -116.22 input  -65.29 | X-H torsion
[ 10718 10713 10712 10709 ] final -116.22 input   66.30 | X-H torsion
[ 10763 10752 10751 10750 ] final  133.27 input  -60.55 | X-H torsion
[ 11005 11000 10999 10996 ] final   29.27 input  -57.11 | X-H torsion

> <Gold.Protein.ActiveResidues>
 VAL166  LYS551  ARG553  GLY616  TRP617  ASP618  TYR619  PRO620  LYS621  CYS622 
 ASP623  PHE694  ASN695  SER759  ASP760  ASP761  ALA762  ILE779  LEU786  VAL792 
 PHE793  MET794  SER795  GLU796  ALA797  LYS798  CYS799  TRP800  GLU811  SER814 

> <Gold.Protein.RotatedAtoms>
  152.1420  133.4470  159.4771 H   0  0  0  0  0  0  0  0  0  0  0  0  # atno 6907 bound_to 6896
  150.6887  134.2294  159.4437 H   0  0  0  0  0  0  0  0  0  0  0  0  # atno 6908 bound_to 6896
  152.0185  134.9836  160.0620 H   0  0  0  0  0  0  0  0  0  0  0  0  # atno 6909 bound_to 6896
  145.0863  139.3620  143.4883 H   0  0  0  0  0  0  0  0  0  0  0  0  # atno 7974 bound_to 7965
  156.1527  140.3156  155.8674 H   0  0  0  0  0  0  0  0  0  0  0  0  # atno 8008 bound_to 7997
  155.3940  140.0495  157.3056 H   0  0  0  0  0  0  0  0  0  0  0  0  # atno 8009 bound_to 7997
  154.5073  140.2151  155.9237 H   0  0  0  0  0  0  0  0  0  0  0  0  # atno 8010 bound_to 7997
  140.0815  143.4783  152.1923 H   0  0  0  0  0  0  0  0  0  0  0  0  # atno 10167 bound_to 10162
  156.0948  130.6123  150.9007 H   0  0  0  0  0  0  0  0  0  0  0  0  # atno 10718 bound_to 10713
  153.8044  135.3137  155.3394 H   0  0  0  0  0  0  0  0  0  0  0  0  # atno 10763 bound_to 10752
  154.8076  135.4688  154.0436 H   0  0  0  0  0  0  0  0  0  0  0  0  # atno 10764 bound_to 10752
  153.1794  135.6891  153.8586 H   0  0  0  0  0  0  0  0  0  0  0  0  # atno 10765 bound_to 10752
  140.3067  134.2695  155.7742 H   0  0  0  0  0  0  0  0  0  0  0  0  # atno 11005 bound_to 11000
  146.3531  140.0676  142.8625 LP  0  0  0  0  0  0  0  0  0  0  0  0  # atno 17320 bound_to 7965
  145.1119  140.9410  143.4651 LP  0  0  0  0  0  0  0  0  0  0  0  0  # atno 17321 bound_to 7965
  139.5777  144.7495  151.3722 LP  0  0  0  0  0  0  0  0  0  0  0  0  # atno 17342 bound_to 10162
  140.7075  143.7476  150.7508 LP  0  0  0  0  0  0  0  0  0  0  0  0  # atno 17343 bound_to 10162
  157.6107  131.0936  150.8801 LP  0  0  0  0  0  0  0  0  0  0  0  0  # atno 17370 bound_to 10713
  156.8941  130.5223  149.5285 LP  0  0  0  0  0  0  0  0  0  0  0  0  # atno 17371 bound_to 10713
  141.2117  133.7682  156.9848 LP  0  0  0  0  0  0  0  0  0  0  0  0  # atno 17394 bound_to 11000
  140.1060  134.9506  157.1995 LP  0  0  0  0  0  0  0  0  0  0  0  0  # atno 17395 bound_to 11000

$$$$
