AV-unprocessed.smi:2895|AV-procd|sdf|11134|dock10
  -GOLD-   2272016 13D 1   1.00000     0.00000
 Structure written by MMmdl.
 54 57  0  0  0  0  0  0  0  0  3 V2000
  149.8940  133.5482  154.3660 O   0  0  0  0  0  0  0  0  0  0  0  0
  149.0038  134.3663  154.6007 C   0  0  0  0  0  0  0  0  0  0  0  0
  147.7316  134.1638  154.2171 N   0  0  0  0  0  0  0  0  0  0  0  0
  147.2505  132.9968  153.4860 C   0  0  0  0  0  0  0  0  0  0  0  0
  147.4082  133.1722  151.9665 C   0  0  0  0  0  0  0  0  0  0  0  0
  146.0871  133.4788  151.2876 C   0  0  0  0  0  0  0  0  0  0  0  0
  145.6197  134.8091  151.2037 C   0  0  0  0  0  0  0  0  0  0  0  0
  144.3904  135.0676  150.5635 C   0  0  0  0  0  0  0  0  0  0  0  0
  143.6766  134.0465  150.0402 N   0  3  0  0  0  0  0  0  0  0  0  0
  144.0878  132.7606  150.0986 C   0  0  0  0  0  0  0  0  0  0  0  0
  145.3098  132.4418  150.7260 C   0  0  0  0  0  0  0  0  0  0  0  0
  149.2087  135.5024  155.3140 N   0  0  0  0  0  0  0  0  0  0  0  0
  148.1710  136.4572  155.7342 C   0  0  0  0  0  0  0  0  0  0  0  0
  148.3195  137.7657  154.9277 C   0  0  0  0  0  0  0  0  0  0  0  0
  149.6882  138.3538  155.0437 N   0  3  0  0  0  0  0  0  0  0  0  0
  149.9125  139.0841  156.3329 C   0  0  2  0  0  0  0  0  0  0  0  0
  148.9296  140.2725  156.5198 C   0  0  0  0  0  0  0  0  0  0  0  0
  149.8486  141.4667  156.8201 C   0  0  1  0  0  0  0  0  0  0  0  0
  150.5009  141.2863  158.2010 C   0  0  0  0  0  0  0  0  0  0  0  0
  151.5182  140.1610  157.9440 C   0  0  0  0  0  0  0  0  0  0  0  0
  151.2820  139.8134  156.4607 C   0  0  2  0  0  0  0  0  0  0  0  0
  151.0064  141.1923  155.8718 C   0  0  0  0  0  0  0  0  0  0  0  0
  150.7214  137.3321  154.7030 C   0  0  0  0  0  0  0  0  0  0  0  0
  150.5535  136.0455  155.5336 C   0  0  0  0  0  0  0  0  0  0  0  0
  147.0445  134.8605  154.4665 H   0  0  0  0  0  0  0  0  0  0  0  0
  147.7768  132.1030  153.8259 H   0  0  0  0  0  0  0  0  0  0  0  0
  146.1992  132.8508  153.7361 H   0  0  0  0  0  0  0  0  0  0  0  0
  148.1157  133.9749  151.7538 H   0  0  0  0  0  0  0  0  0  0  0  0
  147.8270  132.2689  151.5210 H   0  0  0  0  0  0  0  0  0  0  0  0
  146.1962  135.6217  151.6222 H   0  0  0  0  0  0  0  0  0  0  0  0
  143.9605  136.0527  150.4543 H   0  0  0  0  0  0  0  0  0  0  0  0
  143.4324  132.0318  149.6445 H   0  0  0  0  0  0  0  0  0  0  0  0
  145.6443  131.4155  150.7730 H   0  0  0  0  0  0  0  0  0  0  0  0
  147.1542  136.0839  155.6146 H   0  0  0  0  0  0  0  0  0  0  0  0
  148.2802  136.6508  156.8016 H   0  0  0  0  0  0  0  0  0  0  0  0
  148.1362  137.5529  153.8735 H   0  0  0  0  0  0  0  0  0  0  0  0
  147.5428  138.4702  155.2201 H   0  0  0  0  0  0  0  0  0  0  0  0
  149.8018  138.3761  157.1545 H   0  0  0  0  0  0  0  0  0  0  0  0
  148.3716  140.4897  155.6081 H   0  0  0  0  0  0  0  0  0  0  0  0
  148.2061  140.0924  157.3159 H   0  0  0  0  0  0  0  0  0  0  0  0
  149.3644  142.4347  156.6875 H   0  0  0  0  0  0  0  0  0  0  0  0
  151.0090  142.1987  158.5159 H   0  0  0  0  0  0  0  0  0  0  0  0
  149.7732  141.0239  158.9700 H   0  0  0  0  0  0  0  0  0  0  0  0
  152.5346  140.5260  158.0975 H   0  0  0  0  0  0  0  0  0  0  0  0
  151.3718  139.3055  158.6045 H   0  0  0  0  0  0  0  0  0  0  0  0
  152.1461  139.3101  156.0351 H   0  0  0  0  0  0  0  0  0  0  0  0
  150.7121  141.1638  154.8213 H   0  0  0  0  0  0  0  0  0  0  0  0
  151.8379  141.8893  155.9922 H   0  0  0  0  0  0  0  0  0  0  0  0
  150.6019  137.0833  153.6475 H   0  0  0  0  0  0  0  0  0  0  0  0
  151.7366  137.7098  154.7823 H   0  0  0  0  0  0  0  0  0  0  0  0
  150.6905  136.2528  156.5955 H   0  0  0  0  0  0  0  0  0  0  0  0
  151.3405  135.3361  155.2740 H   0  0  0  0  0  0  0  0  0  0  0  0
  149.7532  139.0641  154.3284 H   0  0  0  0  0  0  0  0  0  0  0  0
  142.7896  134.2555  149.5812 H   0  0  0  0  0  0  0  0  0  0  0  0
  1  2  2  0  0  0  0
  2  3  1  0  0  0  0
  2 12  1  0  0  0  0
  3  4  1  0  0  0  0
  3 25  1  0  0  0  0
  4  5  1  0  0  0  0
  4 26  1  0  0  0  0
  4 27  1  0  0  0  0
  5  6  1  0  0  0  0
  5 28  1  0  0  0  0
  5 29  1  0  0  0  0
  6 11  1  0  0  0  0
  6  7  2  0  0  0  0
  7  8  1  0  0  0  0
  7 30  1  0  0  0  0
  8  9  2  0  0  0  0
  8 31  1  0  0  0  0
  9 10  1  0  0  0  0
  9 54  1  0  0  0  0
 10 11  2  0  0  0  0
 10 32  1  0  0  0  0
 11 33  1  0  0  0  0
 12 24  1  0  0  0  0
 12 13  1  0  0  0  0
 13 14  1  0  0  0  0
 13 34  1  0  0  0  0
 13 35  1  0  0  0  0
 14 15  1  0  0  0  0
 14 36  1  0  0  0  0
 14 37  1  0  0  0  0
 15 16  1  0  0  0  0
 15 23  1  0  0  0  0
 15 53  1  0  0  0  0
 16 21  1  0  0  0  0
 16 17  1  0  0  0  0
 16 38  1  0  0  0  0
 17 18  1  0  0  0  0
 17 39  1  0  0  0  0
 17 40  1  0  0  0  0
 18 22  1  0  0  0  0
 18 19  1  0  0  0  0
 18 41  1  0  0  0  0
 19 20  1  0  0  0  0
 19 42  1  0  0  0  0
 19 43  1  0  0  0  0
 20 21  1  0  0  0  0
 20 44  1  0  0  0  0
 20 45  1  0  0  0  0
 21 22  1  0  0  0  0
 21 46  1  0  0  0  0
 22 47  1  0  0  0  0
 22 48  1  0  0  0  0
 23 24  1  0  0  0  0
 23 49  1  0  0  0  0
 23 50  1  0  0  0  0
 24 51  1  0  0  0  0
 24 52  1  0  0  0  0
M  CHG  1   9   1
M  CHG  1  15   1
M  END
> <s_m_source_file>
AV-unprocessed.smi

> <i_m_source_file_index>
2895

> <i_lp_mmshare_version>
43012

> <i_f3d_flags>
0

> <s_epik_input>
W0NIMl0xW0NIMl1bQ0BASF0oW0NIMl0yKVtDQEBIXShbQ0gyXVtDQEhdMTIpTihbQ0gyXVtDSDJdMylbQ0gyXVtDSDJdTjNDKD1PKVtOSF1bQ0gyXVtDSDJdYzRbY0hdW2NIXW5bY0hdW2NIXTQ=

> <s_epik_cmdline>
J2VwaWtfcHl0aG9uJywgJy1waCcsICc3LjAnLCAnLXRuJywgJzgnLCAnLW1hJywgJzIwMCcsICctbWV0YWxfYmluZGluZycsICctaW1hZScsICc8aW5maWxlLm1hZT4nLCAnLW9tYWUnLCAnPG91dGZpbGUubWFlPic=

> <r_epik_Ionization_Penalty>
1.44916

> <r_epik_Ionization_Penalty_Charging>
1.44913

> <r_epik_Ionization_Penalty_Neutral>
2.64641e-05

> <r_epik_State_Penalty>
1.53218

> <r_epik_Charging_Adjusted_Penalty>
2.98131

> <i_epik_Tot_Q>
2

> <i_epik_Tot_abs_Q>
2

> <r_epik_Metal_State_Penalty>
1.58241

> <b_epik_Metal_Only>
0

> <s_lp_Force_Field>
OPLS_2005

> <r_lp_Energy>
108.082

> <b_lp_Chiralities_Consistent>
1

> <s_lp_Variant>
AV-unprocessed.smi:2895-7

> <Gold.Version>
5.8.1

> <Gold.Id.Protein>
6NUR|6NUR_protein|mol2

> <Gold.PLP.Fitness>
41.1690

> <Gold.PLP.PLP>
-37.0032

> <Gold.PLP.part.hbond>
-1.0492

> <Gold.PLP.part.metal>
0.0000

> <Gold.PLP.part.buried>
-6.5061

> <Gold.PLP.part.nonpolar>
-29.9028

> <Gold.PLP.part.repulsive>
0.1791

> <Gold.PLP.ligand.clash>
0.0000

> <Gold.PLP.ligand.torsion>
0.9468

> <Gold.PLP.Chemscore.Hbond>
1.9840

> <Gold.PLP.Chemscore.CHOScore>
0.0000

> <Gold.PLP.Chemscore.Metal>
0.0000

> <Gold.Chemscore.Hbonds>
donor molecule, donor type, donor heavy atom, donor atom, acceptor molecule, acceptor atom, score
      L1  H     9    54       P1 10186  2.00

> <Gold.PLP.Chemscore.Internal.Correction>
0.1075

> <Gold.Rescore>
     Score         DG    S(hbond)    S(metal)    S(lipo)     H(rot)  DE(clash)    DE(int)     intcor
     15.19     -16.18       0.95        0.00      96.09       1.46       0.03       0.96       ----

> <Gold.Chemscore.Fitness>
15.1939

> <Gold.Chemscore.DG>
-16.1772

> <Gold.Chemscore.ZeroCoef>
-5.4800

> <Gold.Chemscore.Hbond>
0.9537

> <Gold.Chemscore.Metal>
0.0000

> <Gold.Chemscore.Lipo>
96.0881

> <Gold.Chemscore.Internal_Hbond>
0.0000

> <Gold.Chemscore.DEClash>
0.0282

> <Gold.Chemscore.DEInternal>
0.9551

> <Gold.Chemscore.Rot>
1.4572

> <Gold.Chemscore.Internal.Correction>
   9.000000E+99

> <Gold.Chemscore.Hbonds>
donor molecule, donor type, donor heavy atom, donor atom, acceptor molecule, acceptor atom, score
      L1  H     9    54       P1 10186  0.97

> <Gold.Chemscore.Hbond.Weighted>
-3.1854

> <Gold.Chemscore.Metal.Weighted>
-0.0000

> <Gold.Chemscore.Lipo.Weighted>
-11.2423

> <Gold.Chemscore.Internal_Hbond.Weighted>
0.0000

> <Gold.Chemscore.DEClash.Weighted>
0.0282

> <Gold.Chemscore.DEInternal.Weighted>
0.9551

> <Gold.Chemscore.Rot.Weighted>
3.7305

> <Gold.Chemscore.Internal.Correction.Weighted>
   9.000000E+99

> <Gold.Protein.RotatedTorsions>
[ 6907 6896 6895 6894 ] final -129.59 input  -60.11 | X-H torsion
[ 7974 7965 7964 7962 ] final -133.40 input  175.53 | X-H torsion
[ 8008 7997 7996 7995 ] final  -44.86 input   59.86 | X-H torsion
[ 10167 10162 10161 10158 ] final   43.60 input  -65.29 | X-H torsion
[ 10718 10713 10712 10709 ] final   57.56 input   66.30 | X-H torsion
[ 10763 10752 10751 10750 ] final  155.42 input  -60.55 | X-H torsion
[ 11005 11000 10999 10996 ] final  -78.64 input  -57.11 | X-H torsion

> <Gold.Protein.ActiveResidues>
 VAL166  LYS551  ARG553  GLY616  TRP617  ASP618  TYR619  PRO620  LYS621  CYS622 
 ASP623  PHE694  ASN695  SER759  ASP760  ASP761  ALA762  ILE779  LEU786  VAL792 
 PHE793  MET794  SER795  GLU796  ALA797  LYS798  CYS799  TRP800  GLU811  SER814 

> <Gold.Protein.RotatedAtoms>
  150.9304  133.6774  159.2811 H   0  0  0  0  0  0  0  0  0  0  0  0  # atno 6907 bound_to 6896
  151.4198  135.0995  159.9620 H   0  0  0  0  0  0  0  0  0  0  0  0  # atno 6908 bound_to 6896
  152.5023  133.8758  159.7376 H   0  0  0  0  0  0  0  0  0  0  0  0  # atno 6909 bound_to 6896
  144.9197  140.6999  143.4973 H   0  0  0  0  0  0  0  0  0  0  0  0  # atno 7974 bound_to 7965
  154.3998  140.1411  156.3753 H   0  0  0  0  0  0  0  0  0  0  0  0  # atno 8008 bound_to 7997
  155.8055  140.3474  155.5406 H   0  0  0  0  0  0  0  0  0  0  0  0  # atno 8009 bound_to 7997
  155.8440  140.0931  157.1707 H   0  0  0  0  0  0  0  0  0  0  0  0  # atno 8010 bound_to 7997
  140.3427  144.2449  150.6154 H   0  0  0  0  0  0  0  0  0  0  0  0  # atno 10167 bound_to 10162
  157.5525  130.8776  149.8984 H   0  0  0  0  0  0  0  0  0  0  0  0  # atno 10718 bound_to 10713
  154.1682  135.2806  155.3089 H   0  0  0  0  0  0  0  0  0  0  0  0  # atno 10763 bound_to 10752
  154.6096  135.5503  153.7462 H   0  0  0  0  0  0  0  0  0  0  0  0  # atno 10764 bound_to 10752
  153.0172  135.6412  154.1822 H   0  0  0  0  0  0  0  0  0  0  0  0  # atno 10765 bound_to 10752
  141.1665  133.7072  156.8003 H   0  0  0  0  0  0  0  0  0  0  0  0  # atno 11005 bound_to 11000
  145.3317  139.1758  143.4533 LP  0  0  0  0  0  0  0  0  0  0  0  0  # atno 17320 bound_to 7965
  146.3199  140.3347  142.8643 LP  0  0  0  0  0  0  0  0  0  0  0  0  # atno 17321 bound_to 7965
  140.5293  143.2247  151.8264 LP  0  0  0  0  0  0  0  0  0  0  0  0  # atno 17342 bound_to 10162
  139.4838  144.4740  151.9390 LP  0  0  0  0  0  0  0  0  0  0  0  0  # atno 17343 bound_to 10162
  156.0589  130.3703  150.1028 LP  0  0  0  0  0  0  0  0  0  0  0  0  # atno 17370 bound_to 10713
  156.9199  130.9679  151.3550 LP  0  0  0  0  0  0  0  0  0  0  0  0  # atno 17371 bound_to 10713
  140.2261  134.8720  157.3428 LP  0  0  0  0  0  0  0  0  0  0  0  0  # atno 17394 bound_to 11000
  140.1938  134.4339  155.7701 LP  0  0  0  0  0  0  0  0  0  0  0  0  # atno 17395 bound_to 11000

$$$$
