#       Name:                AV-unprocessed.smi:1577
#       Creating user name   scv26
#       Creation time:       Fri Mar 27 06:56:54 2020


#       File generated by GOLD software.
#

@<TRIPOS>MOLECULE
AV-unprocessed.smi:1577
    45    46     1
SMALL
NO_CHARGES


@<TRIPOS>ATOM
      1 ****        -3.6089   1.9259   3.2038 C.3            1 S1                 0.0000
      2 ****        -3.3083   1.5768   1.7403 C.3            1 S1                 0.0000
      3 ****        -2.2075   0.6275   1.6279 N.am           1 S1                 0.0000
      4 ****        -0.9076   0.9442   1.7068 C.2            1 S1                 0.0000
      5 ****        -0.4838   2.0843   1.8976 O.2            1 S1                 0.0000
      6 ****        -0.1254  -0.1311   1.5435 N.am           1 S1                 0.0000
      7 ****         1.3337  -0.1150   1.5349 C.3            1 S1                 0.0000
      8 ****         1.9419   0.5502   0.3035 C.ar           1 S1                 0.0000
      9 ****         2.7710   1.6803   0.4679 C.ar           1 S1                 0.0000
     10 ****         3.3365   2.2899  -0.6665 C.ar           1 S1                 0.0000
     11 ****         3.0505   1.7419  -1.9301 C.ar           1 S1                 0.0000
     12 ****         2.2611   0.6621  -2.1055 N.ar           1 S1                 0.0000
     13 ****         1.7146   0.0729  -1.0142 C.ar           1 S1                 0.0000
     14 ****         0.8936  -1.0448  -1.2321 N.3            1 S1                 0.0000
     15 ****        -0.3749  -0.7158  -1.8695 C.3            1 S1                 0.0000
     16 ****        -1.2770  -1.9607  -1.9055 C.3            1 S1                 0.0000
     17 ****        -0.5970  -3.0231  -2.5689 O.3            1 S1                 0.0000
     18 ****         0.6132  -3.3838  -1.9078 C.3            1 S1                 0.0000
     19 ****         1.5621  -2.1732  -1.8668 C.3            1 S1                 0.0000
     20 ****        -4.4580   2.6061   3.2720 H              1 S1                 0.0000
     21 ****        -2.7570   2.4136   3.6787 H              1 S1                 0.0000
     22 ****        -3.8500   1.0329   3.7812 H              1 S1                 0.0000
     23 ****        -4.1901   1.1303   1.2804 H              1 S1                 0.0000
     24 ****        -3.0862   2.4812   1.1716 H              1 S1                 0.0000
     25 ****        -2.4532  -0.3385   1.4686 H              1 S1                 0.0000
     26 ****        -0.5697  -1.0250   1.3942 H              1 S1                 0.0000
     27 ****         1.6940   0.3694   2.4441 H              1 S1                 0.0000
     28 ****         1.6867  -1.1454   1.5798 H              1 S1                 0.0000
     29 ****         2.9715   2.0798   1.4512 H              1 S1                 0.0000
     30 ****         3.9734   3.1567  -0.5700 H              1 S1                 0.0000
     31 ****         3.4665   2.1825  -2.8241 H              1 S1                 0.0000
     32 ****        -0.8683   0.0909  -1.3262 H              1 S1                 0.0000
     33 ****        -0.1949  -0.3582  -2.8843 H              1 S1                 0.0000
     34 ****        -1.5560  -2.2666  -0.8958 H              1 S1                 0.0000
     35 ****        -2.2016  -1.7406  -2.4390 H              1 S1                 0.0000
     36 ****         0.3956  -3.7415  -0.9001 H              1 S1                 0.0000
     37 ****         1.0796  -4.2094  -2.4454 H              1 S1                 0.0000
     38 ****         1.8622  -1.9038  -2.8806 H              1 S1                 0.0000
     39 ****         2.4690  -2.4238  -1.3154 H              1 S1                 0.0000
     40 ****        -1.1246   2.8446   2.0046 LP             1 S1                 0.0000
     41 ****         0.5012   2.2501   1.9456 LP             1 S1                 0.0000
     42 ****         2.0828   0.3038  -3.0219 LP             1 S1                 0.0000
     43 ****         0.6712  -1.3626  -0.3104 LP             1 S1                 0.0000
     44 ****        -0.3808  -2.7343  -3.5015 LP             1 S1                 0.0000
     45 ****        -1.1983  -3.8216  -2.5982 LP             1 S1                 0.0000
@<TRIPOS>BOND
    1    1    2 1     
    2    1   20 1     
    3    1   21 1     
    4    1   22 1     
    5    2    3 1     
    6    2   23 1     
    7    2   24 1     
    8    3    4 am    
    9    3   25 1     
   10    4    5 2     
   11    4    6 am    
   12    6    7 1     
   13    6   26 1     
   14    7    8 1     
   15    7   27 1     
   16    7   28 1     
   17    8   13 ar    
   18    8    9 ar    
   19    9   10 ar    
   20    9   29 1     
   21   10   11 ar    
   22   10   30 1     
   23   11   12 ar    
   24   11   31 1     
   25   12   13 ar    
   26   13   14 1     
   27   14   19 1     
   28   14   15 1     
   29   15   16 1     
   30   15   32 1     
   31   15   33 1     
   32   16   17 1     
   33   16   34 1     
   34   16   35 1     
   35   17   18 1     
   36   18   19 1     
   37   18   36 1     
   38   18   37 1     
   39   19   38 1     
   40   19   39 1     
   41    5   40 1     
   42    5   41 1     
   43   12   42 1     
   44   14   43 1     
   45   17   44 1     
   46   17   45 1     
@<TRIPOS>SUBSTRUCTURE
      1 S1             1
@<TRIPOS>SET
LONE_PAIRS      STATIC     ATOMS    <user>   **** ""
6 40 41 42 43 44 45
DONOR_HYDROGENS      STATIC     ATOMS    <user>   **** ""
2 25 26
ATOM$BLUE        STATIC     ATOMS    COLORGROUP SYSTEM
6 40 41 42 43 44 45
ATOM$RED        STATIC     ATOMS    COLORGROUP SYSTEM
2 25 26
