AV-unprocessed.smi:3150|AV-procd|sdf|12012|dock4
  -GOLD-   2272017423D 1   1.00000     0.00000
 Structure written by MMmdl.
 32 33  0  0  0  0  0  0  0  0  2 V2000
  151.4230  139.5314  155.6118 C   0  0  0  0  0  0  0  0  0  0  0  0
  150.7550  140.9046  155.7644 C   0  0  1  0  0  0  0  0  0  0  0  0
  149.3560  140.7357  155.5477 O   0  0  0  0  0  0  0  0  0  0  0  0
  148.8306  141.4461  154.4331 C   0  0  0  0  0  0  0  0  0  0  0  0
  147.3193  141.3999  154.4954 C   0  0  0  0  0  0  0  0  0  0  0  0
  146.4931  142.4954  153.8606 C   0  0  0  0  0  0  0  0  0  0  0  0
  146.5559  142.3753  155.3620 C   0  0  0  0  0  0  0  0  0  0  0  0
  151.0176  141.4837  157.1649 C   0  0  0  0  0  0  0  0  0  0  0  0
  150.3194  142.4237  157.5553 O   0  0  0  0  0  0  0  0  0  0  0  0
  152.0596  140.8250  157.8124 N   0  0  0  0  0  0  0  0  0  0  0  0
  152.5053  141.1637  158.9917 C   0  0  0  0  0  0  0  0  0  0  0  0
  151.9825  142.2348  159.7371 N   0  0  0  0  0  0  0  0  0  0  0  0
  152.4604  142.5903  160.9806 C   0  0  0  0  0  0  0  0  0  0  0  0
  153.4623  141.9261  161.5590 C   0  0  0  0  0  0  0  0  0  0  0  0
  154.0563  140.8065  160.8579 C   0  0  0  0  0  0  0  0  0  0  0  0
  153.6138  140.4005  159.5934 C   0  0  0  0  0  0  0  0  0  0  0  0
  154.1585  139.4267  159.0233 O   0  5  0  0  0  0  0  0  0  0  0  0
  152.5018  139.5981  155.7576 H   0  0  0  0  0  0  0  0  0  0  0  0
  151.2504  139.1263  154.6144 H   0  0  0  0  0  0  0  0  0  0  0  0
  151.0303  138.8134  156.3328 H   0  0  0  0  0  0  0  0  0  0  0  0
  151.1560  141.5697  154.9965 H   0  0  0  0  0  0  0  0  0  0  0  0
  149.1616  142.4855  154.4254 H   0  0  0  0  0  0  0  0  0  0  0  0
  149.1600  140.9840  153.5017 H   0  0  0  0  0  0  0  0  0  0  0  0
  146.9070  140.3949  154.4272 H   0  0  0  0  0  0  0  0  0  0  0  0
  147.0217  143.3287  153.4014 H   0  0  0  0  0  0  0  0  0  0  0  0
  145.5660  142.2047  153.3707 H   0  0  0  0  0  0  0  0  0  0  0  0
  145.6715  142.0038  155.8755 H   0  0  0  0  0  0  0  0  0  0  0  0
  147.1288  143.1253  155.9039 H   0  0  0  0  0  0  0  0  0  0  0  0
  151.9630  143.4352  161.4331 H   0  0  0  0  0  0  0  0  0  0  0  0
  153.8251  142.2180  162.5335 H   0  0  0  0  0  0  0  0  0  0  0  0
  154.8670  140.2759  161.3364 H   0  0  0  0  0  0  0  0  0  0  0  0
  151.2228  142.7920  159.3751 H   0  0  0  0  0  0  0  0  0  0  0  0
  1  2  1  0  0  0  0
  1 18  1  0  0  0  0
  1 19  1  0  0  0  0
  1 20  1  0  0  0  0
  2  3  1  0  0  0  0
  2  8  1  0  0  0  0
  2 21  1  0  0  0  0
  3  4  1  0  0  0  0
  4  5  1  0  0  0  0
  4 22  1  0  0  0  0
  4 23  1  0  0  0  0
  5  7  1  0  0  0  0
  5  6  1  0  0  0  0
  5 24  1  0  0  0  0
  6  7  1  0  0  0  0
  6 25  1  0  0  0  0
  6 26  1  0  0  0  0
  7 27  1  0  0  0  0
  7 28  1  0  0  0  0
  8  9  2  0  0  0  0
  8 10  1  0  0  0  0
 10 11  2  0  0  0  0
 11 16  1  0  0  0  0
 11 12  1  0  0  0  0
 12 32  1  0  0  0  0
 12 13  1  0  0  0  0
 13 29  1  0  0  0  0
 13 14  2  0  0  0  0
 14 30  1  0  0  0  0
 14 15  1  0  0  0  0
 15 16  2  0  0  0  0
 15 31  1  0  0  0  0
 16 17  1  0  0  0  0
M  CHG  1  17  -1
M  END
> <s_m_source_file>
AV-unprocessed.smi

> <i_m_source_file_index>
3150

> <i_lp_mmshare_version>
43012

> <i_f3d_flags>
0

> <s_epik_input>
W0NIMl0xW0NIMl1bQ0hdMVtDSDJdT1tDQEBIXShbQ0gzXSlDKD1PKVtOSF1jMm5bY0hdW2NIXVtjSF1jMltPSF0=

> <s_epik_cmdline>
J2VwaWtfcHl0aG9uJywgJy1waCcsICc3LjAnLCAnLXRuJywgJzgnLCAnLW1hJywgJzIwMCcsICctbWV0YWxfYmluZGluZycsICctaW1hZScsICc8aW5maWxlLm1hZT4nLCAnLW9tYWUnLCAnPG91dGZpbGUubWFlPic=

> <r_epik_Ionization_Penalty>
0.784632

> <r_epik_Ionization_Penalty_Charging>
0.784632

> <r_epik_Ionization_Penalty_Neutral>
7.02258e-13

> <r_epik_State_Penalty>
1.43154

> <r_epik_Charging_Adjusted_Penalty>
2.21617

> <i_epik_Tot_Q>
-1

> <i_epik_Tot_abs_Q>
1

> <r_epik_Metal_State_Penalty>
1.39244

> <b_epik_Metal_Only>
0

> <s_lp_Force_Field>
OPLS_2005

> <r_lp_Energy>
45.381

> <b_lp_Chiralities_Consistent>
1

> <s_lp_Variant>
AV-unprocessed.smi:3150-6

> <Gold.Version>
5.8.1

> <Gold.Id.Protein>
6NUR|6NUR_protein|mol2

> <Gold.PLP.Fitness>
39.9342

> <Gold.PLP.PLP>
-36.2726

> <Gold.PLP.part.hbond>
-1.0000

> <Gold.PLP.part.metal>
0.0000

> <Gold.PLP.part.buried>
-4.0916

> <Gold.PLP.part.nonpolar>
-30.9569

> <Gold.PLP.part.repulsive>
0.3053

> <Gold.PLP.ligand.clash>
0.0000

> <Gold.PLP.ligand.torsion>
1.4507

> <Gold.PLP.Chemscore.Hbond>
2.0000

> <Gold.PLP.Chemscore.CHOScore>
0.0000

> <Gold.PLP.Chemscore.Metal>
0.0000

> <Gold.Chemscore.Hbonds>
donor molecule, donor type, donor heavy atom, donor atom, acceptor molecule, acceptor atom, score
      P1  H  7997  8008       L1    17  2.00

> <Gold.PLP.Chemscore.Internal.Correction>
0.5631

> <Gold.Rescore>
     Score         DG    S(hbond)    S(metal)    S(lipo)     H(rot)  DE(clash)    DE(int)     intcor
     12.65     -14.08       0.98        0.00      81.48       1.64       0.01       1.42       ----

> <Gold.Chemscore.Fitness>
12.6504

> <Gold.Chemscore.DG>
-14.0825

> <Gold.Chemscore.ZeroCoef>
-5.4800

> <Gold.Chemscore.Hbond>
0.9774

> <Gold.Chemscore.Metal>
0.0000

> <Gold.Chemscore.Lipo>
81.4795

> <Gold.Chemscore.Internal_Hbond>
0.0000

> <Gold.Chemscore.DEClash>
0.0115

> <Gold.Chemscore.DEInternal>
1.4206

> <Gold.Chemscore.Rot>
1.6387

> <Gold.Chemscore.Internal.Correction>
   9.000000E+99

> <Gold.Chemscore.Hbonds>
donor molecule, donor type, donor heavy atom, donor atom, acceptor molecule, acceptor atom, score
      P1  H  7997  8008       L1    17  0.74

> <Gold.Chemscore.Hbond.Weighted>
-3.2645

> <Gold.Chemscore.Metal.Weighted>
-0.0000

> <Gold.Chemscore.Lipo.Weighted>
-9.5331

> <Gold.Chemscore.Internal_Hbond.Weighted>
0.0000

> <Gold.Chemscore.DEClash.Weighted>
0.0115

> <Gold.Chemscore.DEInternal.Weighted>
1.4206

> <Gold.Chemscore.Rot.Weighted>
4.1950

> <Gold.Chemscore.Internal.Correction.Weighted>
   9.000000E+99

> <Gold.Protein.RotatedTorsions>
[ 6907 6896 6895 6894 ] final   57.91 input  -60.11 | X-H torsion
[ 7974 7965 7964 7962 ] final -144.04 input  175.53 | X-H torsion
[ 8008 7997 7996 7995 ] final -120.17 input   59.86 | X-H torsion
[ 10167 10162 10161 10158 ] final -132.72 input  -65.29 | X-H torsion
[ 10718 10713 10712 10709 ] final  -43.68 input   66.30 | X-H torsion
[ 10763 10752 10751 10750 ] final  -88.55 input  -60.55 | X-H torsion
[ 11005 11000 10999 10996 ] final -135.61 input  -57.11 | X-H torsion

> <Gold.Protein.ActiveResidues>
 VAL166  LYS551  ARG553  GLY616  TRP617  ASP618  TYR619  PRO620  LYS621  CYS622 
 ASP623  PHE694  ASN695  SER759  ASP760  ASP761  ALA762  ILE779  LEU786  VAL792 
 PHE793  MET794  SER795  GLU796  ALA797  LYS798  CYS799  TRP800  GLU811  SER814 

> <Gold.Protein.RotatedAtoms>
  152.3776  134.6640  160.0154 H   0  0  0  0  0  0  0  0  0  0  0  0  # atno 6907 bound_to 6896
  151.6913  133.3305  159.3251 H   0  0  0  0  0  0  0  0  0  0  0  0  # atno 6908 bound_to 6896
  150.7721  134.6631  159.6395 H   0  0  0  0  0  0  0  0  0  0  0  0  # atno 6909 bound_to 6896
  144.8326  140.5760  143.5505 H   0  0  0  0  0  0  0  0  0  0  0  0  # atno 7974 bound_to 7965
  155.1276  140.0399  157.2766 H   0  0  0  0  0  0  0  0  0  0  0  0  # atno 8008 bound_to 7997
  154.6567  140.2581  155.7128 H   0  0  0  0  0  0  0  0  0  0  0  0  # atno 8009 bound_to 7997
  156.2601  140.2825  156.1022 H   0  0  0  0  0  0  0  0  0  0  0  0  # atno 8010 bound_to 7997
  139.9057  143.6554  152.2586 H   0  0  0  0  0  0  0  0  0  0  0  0  # atno 10167 bound_to 10162
  156.2464  130.4184  149.8700 H   0  0  0  0  0  0  0  0  0  0  0  0  # atno 10718 bound_to 10713
  154.6458  135.5373  153.7842 H   0  0  0  0  0  0  0  0  0  0  0  0  # atno 10763 bound_to 10752
  153.0358  135.6470  154.1092 H   0  0  0  0  0  0  0  0  0  0  0  0  # atno 10764 bound_to 10752
  154.1013  135.2933  155.3231 H   0  0  0  0  0  0  0  0  0  0  0  0  # atno 10765 bound_to 10752
  140.8882  134.1845  157.4546 H   0  0  0  0  0  0  0  0  0  0  0  0  # atno 11005 bound_to 11000
  145.4863  139.1492  143.3734 LP  0  0  0  0  0  0  0  0  0  0  0  0  # atno 17320 bound_to 7965
  146.2628  140.5000  142.8846 LP  0  0  0  0  0  0  0  0  0  0  0  0  # atno 17321 bound_to 7965
  139.6986  144.7638  151.1312 LP  0  0  0  0  0  0  0  0  0  0  0  0  # atno 17342 bound_to 10162
  140.7697  143.5489  150.9227 LP  0  0  0  0  0  0  0  0  0  0  0  0  # atno 17343 bound_to 10162
  156.6264  130.8647  151.3486 LP  0  0  0  0  0  0  0  0  0  0  0  0  # atno 17370 bound_to 10713
  157.7197  130.9542  150.1389 LP  0  0  0  0  0  0  0  0  0  0  0  0  # atno 17371 bound_to 10713
  139.8726  134.9847  156.5250 LP  0  0  0  0  0  0  0  0  0  0  0  0  # atno 17394 bound_to 11000
  140.8379  133.8228  155.9046 LP  0  0  0  0  0  0  0  0  0  0  0  0  # atno 17395 bound_to 11000

$$$$
