AV-unprocessed.smi:188|AV-procd|sdf|1473|dock6
  -GOLD-   2262019293D 1   1.00000     0.00000
 Structure written by MMmdl.
 48 52  0  0  0  0  0  0  0  0  2 V2000
  143.3708  132.0800  148.3101 O   0  0  0  0  0  0  0  0  0  0  0  0
  143.9747  132.6405  149.2220 C   0  0  0  0  0  0  0  0  0  0  0  0
  145.1389  132.2783  149.7940 N   0  5  0  0  0  0  0  0  0  0  0  0
  145.4877  133.1470  150.7677 C   0  0  0  0  0  0  0  0  0  0  0  0
  146.4753  133.1494  151.5013 O   0  0  0  0  0  0  0  0  0  0  0  0
  144.3902  134.2228  150.8392 C   0  0  0  0  0  0  0  0  0  0  0  0
  143.6433  134.2367  152.1937 C   0  0  0  0  0  0  0  0  0  0  0  0
  144.4700  134.8930  153.3145 C   0  0  0  0  0  0  0  0  0  0  0  0
  144.9339  136.2233  152.9154 N   0  0  0  0  0  0  0  0  0  0  0  0
  145.4035  137.0409  153.8921 C   0  0  0  0  0  0  0  0  0  0  0  0
  145.1230  136.7733  155.1960 N   0  0  0  0  0  0  0  0  0  0  0  0
  145.5945  137.5629  156.1648 C   0  0  0  0  0  0  0  0  0  0  0  0
  146.3489  138.6576  156.0552 N   0  0  0  0  0  0  0  0  0  0  0  0
  146.6232  138.9414  154.7503 C   0  0  0  0  0  0  0  0  0  0  0  0
  146.1963  138.1913  153.6175 C   0  0  0  0  0  0  0  0  0  0  0  0
  146.6647  138.7882  152.4528 N   0  0  0  0  0  0  0  0  0  0  0  0
  147.3393  139.8229  152.8733 C   0  0  0  0  0  0  0  0  0  0  0  0
  147.3577  139.9975  154.2390 N   0  0  0  0  0  0  0  0  0  0  0  0
  148.0274  141.0653  154.9668 C   0  0  0  0  0  0  0  0  0  0  0  0
  149.1113  140.5802  155.9527 C   0  0  0  0  0  0  0  0  0  0  0  0
  149.9956  139.4973  155.3093 C   0  0  0  0  0  0  0  0  0  0  0  0
  150.3357  139.8308  153.9785 O   0  0  0  0  0  0  0  0  0  0  0  0
  149.8937  141.6786  156.6877 C   0  0  0  0  0  0  0  0  0  0  0  0
  149.6472  141.0705  157.9727 O   0  0  0  0  0  0  0  0  0  0  0  0
  148.6224  140.2522  157.3703 C   0  0  0  0  0  0  0  0  0  0  0  0
  145.7022  136.2669  151.6713 C   0  0  0  0  0  0  0  0  0  0  0  0
  144.9090  135.6422  150.5081 C   0  0  0  0  0  0  0  0  0  0  0  0
  143.5111  133.7524  149.7892 N   0  0  0  0  0  0  0  0  0  0  0  0
  142.7062  134.7841  152.0823 H   0  0  0  0  0  0  0  0  0  0  0  0
  143.3673  133.2238  152.4907 H   0  0  0  0  0  0  0  0  0  0  0  0
  143.8565  134.9676  154.2133 H   0  0  0  0  0  0  0  0  0  0  0  0
  145.3285  134.2704  153.5678 H   0  0  0  0  0  0  0  0  0  0  0  0
  145.3288  137.2757  157.1715 H   0  0  0  0  0  0  0  0  0  0  0  0
  147.8379  140.4981  152.1929 H   0  0  0  0  0  0  0  0  0  0  0  0
  148.4551  141.7500  154.2334 H   0  0  0  0  0  0  0  0  0  0  0  0
  147.2682  141.6443  155.4941 H   0  0  0  0  0  0  0  0  0  0  0  0
  150.9076  139.3281  155.8821 H   0  0  0  0  0  0  0  0  0  0  0  0
  149.4734  138.5401  155.2890 H   0  0  0  0  0  0  0  0  0  0  0  0
  150.5565  139.0357  153.5174 H   0  0  0  0  0  0  0  0  0  0  0  0
  150.9536  141.7172  156.4338 H   0  0  0  0  0  0  0  0  0  0  0  0
  149.4426  142.6696  156.6254 H   0  0  0  0  0  0  0  0  0  0  0  0
  147.6220  140.6280  157.5916 H   0  0  0  0  0  0  0  0  0  0  0  0
  148.7114  139.1995  157.6413 H   0  0  0  0  0  0  0  0  0  0  0  0
  145.9715  137.2889  151.4071 H   0  0  0  0  0  0  0  0  0  0  0  0
  146.6417  135.7341  151.8206 H   0  0  0  0  0  0  0  0  0  0  0  0
  145.5310  135.6235  149.6119 H   0  0  0  0  0  0  0  0  0  0  0  0
  144.0629  136.2896  150.2731 H   0  0  0  0  0  0  0  0  0  0  0  0
  142.6542  134.2181  149.5302 H   0  0  0  0  0  0  0  0  0  0  0  0
  1  2  2  0  0  0  0
  2 28  1  0  0  0  0
  2  3  1  0  0  0  0
  3  4  1  0  0  0  0
  4  5  2  0  0  0  0
  4  6  1  0  0  0  0
  6 27  1  0  0  0  0
  6  7  1  0  0  0  0
  6 28  1  0  0  0  0
  7  8  1  0  0  0  0
  7 29  1  0  0  0  0
  7 30  1  0  0  0  0
  8  9  1  0  0  0  0
  8 31  1  0  0  0  0
  8 32  1  0  0  0  0
  9 10  1  0  0  0  0
  9 26  1  0  0  0  0
 10 15  1  0  0  0  0
 10 11  2  0  0  0  0
 11 12  1  0  0  0  0
 12 13  2  0  0  0  0
 12 33  1  0  0  0  0
 13 14  1  0  0  0  0
 14 18  1  0  0  0  0
 14 15  2  0  0  0  0
 15 16  1  0  0  0  0
 16 17  2  0  0  0  0
 17 18  1  0  0  0  0
 17 34  1  0  0  0  0
 18 19  1  0  0  0  0
 19 20  1  0  0  0  0
 19 35  1  0  0  0  0
 19 36  1  0  0  0  0
 20 25  1  0  0  0  0
 20 21  1  0  0  0  0
 20 23  1  0  0  0  0
 21 22  1  0  0  0  0
 21 37  1  0  0  0  0
 21 38  1  0  0  0  0
 22 39  1  0  0  0  0
 23 24  1  0  0  0  0
 23 40  1  0  0  0  0
 23 41  1  0  0  0  0
 24 25  1  0  0  0  0
 25 42  1  0  0  0  0
 25 43  1  0  0  0  0
 26 27  1  0  0  0  0
 26 44  1  0  0  0  0
 26 45  1  0  0  0  0
 27 46  1  0  0  0  0
 27 47  1  0  0  0  0
 28 48  1  0  0  0  0
M  CHG  1   3  -1
M  END
> <s_m_source_file>
AV-unprocessed.smi

> <i_m_source_file_index>
188

> <i_lp_mmshare_version>
43012

> <i_f3d_flags>
0

> <s_epik_input>
Tz1DKFtOSF0xKVtOSF1DKD1PKUMxMltDSDJdW0NIMl1OKFtDSDJdW0NIMl0yKWMobltjSF1uMyljKGMzNCluW2NIXW40W0NIMl1DNShbQ0gyXVtPSF0pW0NIMl1PW0NIMl01

> <s_epik_cmdline>
J2VwaWtfcHl0aG9uJywgJy1waCcsICc3LjAnLCAnLXRuJywgJzgnLCAnLW1hJywgJzIwMCcsICctbWV0YWxfYmluZGluZycsICctaW1hZScsICc8aW5maWxlLm1hZT4nLCAnLW9tYWUnLCAnPG91dGZpbGUubWFlPic=

> <r_lp_tautomer_probability>
1

> <r_epik_Ionization_Penalty>
2.63631

> <r_epik_Ionization_Penalty_Charging>
2.63472

> <r_epik_Ionization_Penalty_Neutral>
0.0015918

> <r_epik_State_Penalty>
2.63293

> <r_epik_Charging_Adjusted_Penalty>
5.26764

> <i_epik_Tot_Q>
-1

> <i_epik_Tot_abs_Q>
1

> <r_epik_Metal_State_Penalty>
0.446503

> <b_epik_Metal_Only>
1

> <s_lp_Force_Field>
OPLS_2005

> <r_lp_Energy>
37.7824

> <b_lp_Chiralities_Consistent>
1

> <s_lp_Variant>
AV-unprocessed.smi:188-2

> <Gold.Version>
5.8.1

> <Gold.Id.Protein>
6NUR|6NUR_protein|mol2

> <Gold.PLP.Fitness>
42.3822

> <Gold.PLP.PLP>
-33.3882

> <Gold.PLP.part.hbond>
-4.0000

> <Gold.PLP.part.metal>
0.0000

> <Gold.PLP.part.buried>
-5.1531

> <Gold.PLP.part.nonpolar>
-25.3537

> <Gold.PLP.part.repulsive>
1.1761

> <Gold.PLP.ligand.clash>
0.0000

> <Gold.PLP.ligand.torsion>
1.0631

> <Gold.PLP.Chemscore.Hbond>
2.6480

> <Gold.PLP.Chemscore.CHOScore>
0.8234

> <Gold.PLP.Chemscore.Metal>
0.0000

> <Gold.Chemscore.Hbonds>
donor molecule, donor type, donor heavy atom, donor atom, acceptor molecule, acceptor atom, score
      L1  H    28    48       P1 10186  1.00
      P1  H  7989  7998       L1    22  1.00
      P1  H 10785 10796       L1     1  0.67
      L1  C    17    34       P1  7957  0.90

> <Gold.PLP.Chemscore.Internal.Correction>
0.7061

> <Gold.Rescore>
     Score         DG    S(hbond)    S(metal)    S(lipo)     H(rot)  DE(clash)    DE(int)     intcor
      8.14     -13.35       2.70        0.00      52.53       2.84       1.59       3.62       ----

> <Gold.Chemscore.Fitness>
8.1350

> <Gold.Chemscore.DG>
-13.3469

> <Gold.Chemscore.ZeroCoef>
-5.4800

> <Gold.Chemscore.Hbond>
2.6959

> <Gold.Chemscore.Metal>
0.0000

> <Gold.Chemscore.Lipo>
52.5284

> <Gold.Chemscore.Internal_Hbond>
0.0000

> <Gold.Chemscore.DEClash>
1.5913

> <Gold.Chemscore.DEInternal>
3.6206

> <Gold.Chemscore.Rot>
2.8450

> <Gold.Chemscore.Internal.Correction>
   9.000000E+99

> <Gold.Chemscore.Hbonds>
donor molecule, donor type, donor heavy atom, donor atom, acceptor molecule, acceptor atom, score
      L1  H    28    48       P1 10186  0.98
      P1  H  7989  7998       L1    22  0.29
      P1  H 10785 10796       L1     1  0.48

> <Gold.Chemscore.Hbond.Weighted>
-9.0041

> <Gold.Chemscore.Metal.Weighted>
-0.0000

> <Gold.Chemscore.Lipo.Weighted>
-6.1458

> <Gold.Chemscore.Internal_Hbond.Weighted>
0.0000

> <Gold.Chemscore.DEClash.Weighted>
1.5913

> <Gold.Chemscore.DEInternal.Weighted>
3.6206

> <Gold.Chemscore.Rot.Weighted>
7.2831

> <Gold.Chemscore.Internal.Correction.Weighted>
   9.000000E+99

> <Gold.Protein.RotatedTorsions>
[ 6907 6896 6895 6894 ] final -138.68 input  -60.11 | X-H torsion
[ 7974 7965 7964 7962 ] final  137.90 input  175.53 | X-H torsion
[ 8008 7997 7996 7995 ] final -121.86 input   59.86 | X-H torsion
[ 10167 10162 10161 10158 ] final   30.48 input  -65.29 | X-H torsion
[ 10718 10713 10712 10709 ] final -115.09 input   66.30 | X-H torsion
[ 10763 10752 10751 10750 ] final  -28.00 input  -60.55 | X-H torsion
[ 11005 11000 10999 10996 ] final    8.18 input  -57.11 | X-H torsion

> <Gold.Protein.ActiveResidues>
 VAL166  LYS551  ARG553  GLY616  TRP617  ASP618  TYR619  PRO620  LYS621  CYS622 
 ASP623  PHE694  ASN695  SER759  ASP760  ASP761  ALA762  ILE779  LEU786  VAL792 
 PHE793  MET794  SER795  GLU796  ALA797  LYS798  CYS799  TRP800  GLU811  SER814 

> <Gold.Protein.RotatedAtoms>
  151.0381  133.5730  159.2653 H   0  0  0  0  0  0  0  0  0  0  0  0  # atno 6907 bound_to 6896
  151.2786  135.0706  159.9171 H   0  0  0  0  0  0  0  0  0  0  0  0  # atno 6908 bound_to 6896
  152.5359  134.0100  159.7988 H   0  0  0  0  0  0  0  0  0  0  0  0  # atno 6909 bound_to 6896
  144.9424  139.4915  143.5565 H   0  0  0  0  0  0  0  0  0  0  0  0  # atno 7974 bound_to 7965
  155.1548  140.0404  157.2829 H   0  0  0  0  0  0  0  0  0  0  0  0  # atno 8008 bound_to 7997
  154.6378  140.2540  155.7330 H   0  0  0  0  0  0  0  0  0  0  0  0  # atno 8009 bound_to 7997
  156.2517  140.2862  156.0759 H   0  0  0  0  0  0  0  0  0  0  0  0  # atno 8010 bound_to 7997
  140.4674  144.0814  150.6228 H   0  0  0  0  0  0  0  0  0  0  0  0  # atno 10167 bound_to 10162
  156.0872  130.6062  150.8860 H   0  0  0  0  0  0  0  0  0  0  0  0  # atno 10718 bound_to 10713
  153.7413  135.6932  153.4966 H   0  0  0  0  0  0  0  0  0  0  0  0  # atno 10763 bound_to 10752
  153.2067  135.4417  155.0330 H   0  0  0  0  0  0  0  0  0  0  0  0  # atno 10764 bound_to 10752
  154.8220  135.3426  154.6938 H   0  0  0  0  0  0  0  0  0  0  0  0  # atno 10765 bound_to 10752
  140.5399  134.0384  155.7901 H   0  0  0  0  0  0  0  0  0  0  0  0  # atno 11005 bound_to 11000
  146.3290  139.8452  142.8883 LP  0  0  0  0  0  0  0  0  0  0  0  0  # atno 17320 bound_to 7965
  145.2971  141.0184  143.3630 LP  0  0  0  0  0  0  0  0  0  0  0  0  # atno 17321 bound_to 7965
  140.4019  143.2699  151.9937 LP  0  0  0  0  0  0  0  0  0  0  0  0  # atno 17342 bound_to 10162
  139.4814  144.5990  151.7639 LP  0  0  0  0  0  0  0  0  0  0  0  0  # atno 17343 bound_to 10162
  157.6011  131.0941  150.8959 LP  0  0  0  0  0  0  0  0  0  0  0  0  # atno 17370 bound_to 10713
  156.9116  130.5283  149.5280 LP  0  0  0  0  0  0  0  0  0  0  0  0  # atno 17371 bound_to 10713
  141.1233  133.9425  157.2686 LP  0  0  0  0  0  0  0  0  0  0  0  0  # atno 17394 bound_to 11000
  139.9509  135.0175  156.8991 LP  0  0  0  0  0  0  0  0  0  0  0  0  # atno 17395 bound_to 11000

$$$$
