AV-unprocessed.smi:3031|AV-procd|sdf|11541|dock3
  -GOLD-   2272016493D 1   1.00000     0.00000
 Structure written by MMmdl.
 47 48  0  0  0  0  0  0  0  0  2 V2000
  143.7630  131.3211  150.3202 C   0  0  0  0  0  0  0  0  0  0  0  0
  144.5618  132.5727  150.5438 C   0  0  0  0  0  0  0  0  0  0  0  0
  145.9387  132.6829  150.8905 C   0  0  0  0  0  0  0  0  0  0  0  0
  146.3380  133.9380  151.0158 N   0  0  0  0  0  0  0  0  0  0  0  0
  145.2349  134.6704  150.7540 N   0  0  0  0  0  0  0  0  0  0  0  0
  145.3003  136.1191  150.8118 C   0  0  0  0  0  0  0  0  0  0  0  0
  145.3814  136.6586  152.2554 C   0  0  2  0  0  0  0  0  0  0  0  0
  144.0787  137.3718  152.6417 C   0  0  0  0  0  0  0  0  0  0  0  0
  146.5188  137.5932  152.4155 N   0  3  0  0  0  0  0  0  0  0  0  0
  146.4259  138.5015  153.5794 C   0  0  0  0  0  0  0  0  0  0  0  0
  147.1947  139.8124  153.3317 C   0  0  2  0  0  0  0  0  0  0  0  0
  146.8719  140.2496  152.0256 O   0  0  0  0  0  0  0  0  0  0  0  0
  148.7363  139.7023  153.3812 C   0  0  0  0  0  0  0  0  0  0  0  0
  149.3484  139.7798  154.7110 N   0  0  0  0  0  0  0  0  0  0  0  0
  150.6460  139.1056  154.7758 C   0  0  0  0  0  0  0  0  0  0  0  0
  151.2815  139.2121  156.1733 C   0  0  0  0  0  0  0  0  0  0  0  0
  151.4212  140.5828  156.5297 O   0  0  0  0  0  0  0  0  0  0  0  0
  150.1814  141.2815  156.5136 C   0  0  0  0  0  0  0  0  0  0  0  0
  149.5455  141.1699  155.1168 C   0  0  0  0  0  0  0  0  0  0  0  0
  144.1488  133.8724  150.4643 C   0  0  0  0  0  0  0  0  0  0  0  0
  144.3934  130.4316  150.3197 H   0  0  0  0  0  0  0  0  0  0  0  0
  143.2400  131.3433  149.3638 H   0  0  0  0  0  0  0  0  0  0  0  0
  143.0106  131.1808  151.0963 H   0  0  0  0  0  0  0  0  0  0  0  0
  146.6554  131.8917  151.0554 H   0  0  0  0  0  0  0  0  0  0  0  0
  146.1539  136.4620  150.2241 H   0  0  0  0  0  0  0  0  0  0  0  0
  144.4099  136.5097  150.3176 H   0  0  0  0  0  0  0  0  0  0  0  0
  145.5059  135.8193  152.9421 H   0  0  0  0  0  0  0  0  0  0  0  0
  143.2246  136.6983  152.5643 H   0  0  0  0  0  0  0  0  0  0  0  0
  143.8858  138.2283  151.9945 H   0  0  0  0  0  0  0  0  0  0  0  0
  144.1180  137.7326  153.6701 H   0  0  0  0  0  0  0  0  0  0  0  0
  147.3699  137.0538  152.4930 H   0  0  0  0  0  0  0  0  0  0  0  0
  145.3676  138.7037  153.7260 H   0  0  0  0  0  0  0  0  0  0  0  0
  146.7951  138.0107  154.4799 H   0  0  0  0  0  0  0  0  0  0  0  0
  146.8618  140.5781  154.0336 H   0  0  0  0  0  0  0  0  0  0  0  0
  147.6718  140.3293  151.5280 H   0  0  0  0  0  0  0  0  0  0  0  0
  149.0767  138.8084  152.8562 H   0  0  0  0  0  0  0  0  0  0  0  0
  149.1146  140.5372  152.7884 H   0  0  0  0  0  0  0  0  0  0  0  0
  150.5580  138.0548  154.5180 H   0  0  0  0  0  0  0  0  0  0  0  0
  151.3260  139.5432  154.0431 H   0  0  0  0  0  0  0  0  0  0  0  0
  150.6723  138.6945  156.9159 H   0  0  0  0  0  0  0  0  0  0  0  0
  152.2648  138.7410  156.1801 H   0  0  0  0  0  0  0  0  0  0  0  0
  149.5154  140.8730  157.2752 H   0  0  0  0  0  0  0  0  0  0  0  0
  150.3574  142.3267  156.7685 H   0  0  0  0  0  0  0  0  0  0  0  0
  150.1776  141.6827  154.3897 H   0  0  0  0  0  0  0  0  0  0  0  0
  148.5891  141.6939  155.1228 H   0  0  0  0  0  0  0  0  0  0  0  0
  143.1808  134.2911  150.2314 H   0  0  0  0  0  0  0  0  0  0  0  0
  146.5781  138.1670  151.5867 H   0  0  0  0  0  0  0  0  0  0  0  0
  1  2  1  0  0  0  0
  1 21  1  0  0  0  0
  1 22  1  0  0  0  0
  1 23  1  0  0  0  0
  2 20  2  0  0  0  0
  2  3  1  0  0  0  0
  3  4  2  0  0  0  0
  3 24  1  0  0  0  0
  4  5  1  0  0  0  0
  5  6  1  0  0  0  0
  5 20  1  0  0  0  0
  6  7  1  0  0  0  0
  6 25  1  0  0  0  0
  6 26  1  0  0  0  0
  7  8  1  0  0  0  0
  7  9  1  0  0  0  0
  7 27  1  0  0  0  0
  8 28  1  0  0  0  0
  8 29  1  0  0  0  0
  8 30  1  0  0  0  0
  9 10  1  0  0  0  0
  9 31  1  0  0  0  0
  9 47  1  0  0  0  0
 10 11  1  0  0  0  0
 10 32  1  0  0  0  0
 10 33  1  0  0  0  0
 11 12  1  0  0  0  0
 11 13  1  0  0  0  0
 11 34  1  0  0  0  0
 12 35  1  0  0  0  0
 13 14  1  0  0  0  0
 13 36  1  0  0  0  0
 13 37  1  0  0  0  0
 14 19  1  0  0  0  0
 14 15  1  0  0  0  0
 15 16  1  0  0  0  0
 15 38  1  0  0  0  0
 15 39  1  0  0  0  0
 16 17  1  0  0  0  0
 16 40  1  0  0  0  0
 16 41  1  0  0  0  0
 17 18  1  0  0  0  0
 18 19  1  0  0  0  0
 18 42  1  0  0  0  0
 18 43  1  0  0  0  0
 19 44  1  0  0  0  0
 19 45  1  0  0  0  0
 20 46  1  0  0  0  0
M  CHG  1   9   1
M  END
> <s_m_source_file>
AV-unprocessed.smi

> <i_m_source_file_index>
3031

> <i_lp_mmshare_version>
43012

> <i_f3d_flags>
0

> <s_epik_input>
W0NIM11jMVtjSF1ubihbY0hdMSlbQ0gyXVtDQEhdKFtDSDNdKVtOSF1bQ0gyXVtDQEhdKFtPSF0pW0NIMl1OMltDSDJdW0NIMl1PW0NIMl1bQ0gyXTI=

> <s_epik_cmdline>
J2VwaWtfcHl0aG9uJywgJy1waCcsICc3LjAnLCAnLXRuJywgJzgnLCAnLW1hJywgJzIwMCcsICctbWV0YWxfYmluZGluZycsICctaW1hZScsICc8aW5maWxlLm1hZT4nLCAnLW9tYWUnLCAnPG91dGZpbGUubWFlPic=

> <r_lp_tautomer_probability>
1

> <r_epik_Ionization_Penalty>
0.108564

> <r_epik_Ionization_Penalty_Charging>
0.01811

> <r_epik_Ionization_Penalty_Neutral>
0.0904541

> <r_epik_State_Penalty>
0.141043

> <r_epik_Charging_Adjusted_Penalty>
0.159153

> <i_epik_Tot_Q>
1

> <i_epik_Tot_abs_Q>
1

> <r_epik_Metal_State_Penalty>
0.141052

> <b_epik_Metal_Only>
0

> <s_lp_Force_Field>
OPLS_2005

> <r_lp_Energy>
31.5788

> <b_lp_Chiralities_Consistent>
1

> <s_lp_Variant>
AV-unprocessed.smi:3031-1

> <Gold.Version>
5.8.1

> <Gold.Id.Protein>
6NUR|6NUR_protein|mol2

> <Gold.PLP.Fitness>
44.6373

> <Gold.PLP.PLP>
-33.1555

> <Gold.PLP.part.hbond>
-2.6114

> <Gold.PLP.part.metal>
0.0000

> <Gold.PLP.part.buried>
2.9059

> <Gold.PLP.part.nonpolar>
-33.1410

> <Gold.PLP.part.repulsive>
0.3769

> <Gold.PLP.ligand.clash>
0.0000

> <Gold.PLP.ligand.torsion>
1.8720

> <Gold.PLP.Chemscore.Hbond>
3.0000

> <Gold.PLP.Chemscore.CHOScore>
2.0000

> <Gold.PLP.Chemscore.Metal>
0.0000

> <Gold.Chemscore.Hbonds>
donor molecule, donor type, donor heavy atom, donor atom, acceptor molecule, acceptor atom, score
      L1  H     9    31       P1  7948  2.00
      L1  H    12    35       P1  7957  1.00
      L1  C     3    24       P1 10747  0.68
      L1  C    20    46       P1 10186  1.00

> <Gold.PLP.Chemscore.Internal.Correction>
0.2257

> <Gold.Rescore>
     Score         DG    S(hbond)    S(metal)    S(lipo)     H(rot)  DE(clash)    DE(int)     intcor
     12.72     -16.41       1.95        0.00      95.20       2.63       1.72       1.97       ----

> <Gold.Chemscore.Fitness>
12.7188

> <Gold.Chemscore.DG>
-16.4053

> <Gold.Chemscore.ZeroCoef>
-5.4800

> <Gold.Chemscore.Hbond>
1.9498

> <Gold.Chemscore.Metal>
0.0000

> <Gold.Chemscore.Lipo>
95.1980

> <Gold.Chemscore.Internal_Hbond>
0.0000

> <Gold.Chemscore.DEClash>
1.7197

> <Gold.Chemscore.DEInternal>
1.9668

> <Gold.Chemscore.Rot>
2.6270

> <Gold.Chemscore.Internal.Correction>
   9.000000E+99

> <Gold.Chemscore.Hbonds>
donor molecule, donor type, donor heavy atom, donor atom, acceptor molecule, acceptor atom, score
      L1  H     9    31       P1  7948  0.98
      L1  H    12    35       P1  7957  0.98

> <Gold.Chemscore.Hbond.Weighted>
-6.5123

> <Gold.Chemscore.Metal.Weighted>
-0.0000

> <Gold.Chemscore.Lipo.Weighted>
-11.1382

> <Gold.Chemscore.Internal_Hbond.Weighted>
0.0000

> <Gold.Chemscore.DEClash.Weighted>
1.7197

> <Gold.Chemscore.DEInternal.Weighted>
1.9668

> <Gold.Chemscore.Rot.Weighted>
6.7251

> <Gold.Chemscore.Internal.Correction.Weighted>
   9.000000E+99

> <Gold.Protein.RotatedTorsions>
[ 6907 6896 6895 6894 ] final   66.74 input  -60.11 | X-H torsion
[ 7974 7965 7964 7962 ] final -136.75 input  175.53 | X-H torsion
[ 8008 7997 7996 7995 ] final -140.09 input   59.86 | X-H torsion
[ 10167 10162 10161 10158 ] final -149.48 input  -65.29 | X-H torsion
[ 10718 10713 10712 10709 ] final  106.97 input   66.30 | X-H torsion
[ 10763 10752 10751 10750 ] final  -68.19 input  -60.55 | X-H torsion
[ 11005 11000 10999 10996 ] final -102.19 input  -57.11 | X-H torsion

> <Gold.Protein.ActiveResidues>
 VAL166  LYS551  ARG553  GLY616  TRP617  ASP618  TYR619  PRO620  LYS621  CYS622 
 ASP623  PHE694  ASN695  SER759  ASP760  ASP761  ALA762  ILE779  LEU786  VAL792 
 PHE793  MET794  SER795  GLU796  ALA797  LYS798  CYS799  TRP800  GLU811  SER814 

> <Gold.Protein.RotatedAtoms>
  152.4503  134.5409  159.9838 H   0  0  0  0  0  0  0  0  0  0  0  0  # atno 6907 bound_to 6896
  151.5483  133.3416  159.2956 H   0  0  0  0  0  0  0  0  0  0  0  0  # atno 6908 bound_to 6896
  150.8429  134.7760  159.7010 H   0  0  0  0  0  0  0  0  0  0  0  0  # atno 6909 bound_to 6896
  144.8900  140.6629  143.5151 H   0  0  0  0  0  0  0  0  0  0  0  0  # atno 7974 bound_to 7965
  155.4555  140.0542  157.2996 H   0  0  0  0  0  0  0  0  0  0  0  0  # atno 8008 bound_to 7997
  154.4759  140.2060  155.9835 H   0  0  0  0  0  0  0  0  0  0  0  0  # atno 8009 bound_to 7997
  156.1131  140.3201  155.8105 H   0  0  0  0  0  0  0  0  0  0  0  0  # atno 8010 bound_to 7997
  139.7438  143.8621  152.2569 H   0  0  0  0  0  0  0  0  0  0  0  0  # atno 10167 bound_to 10162
  157.6647  131.0862  150.6087 H   0  0  0  0  0  0  0  0  0  0  0  0  # atno 10718 bound_to 10713
  154.3854  135.6064  153.5814 H   0  0  0  0  0  0  0  0  0  0  0  0  # atno 10763 bound_to 10752
  152.9788  135.5871  154.4360 H   0  0  0  0  0  0  0  0  0  0  0  0  # atno 10764 bound_to 10752
  154.4136  135.2844  155.1999 H   0  0  0  0  0  0  0  0  0  0  0  0  # atno 10765 bound_to 10752
  141.1199  133.8539  157.1328 H   0  0  0  0  0  0  0  0  0  0  0  0  # atno 11005 bound_to 11000
  145.3800  139.1639  143.4286 LP  0  0  0  0  0  0  0  0  0  0  0  0  # atno 17320 bound_to 7965
  146.3048  140.3880  142.8691 LP  0  0  0  0  0  0  0  0  0  0  0  0  # atno 17321 bound_to 7965
  139.8579  144.7132  150.9134 LP  0  0  0  0  0  0  0  0  0  0  0  0  # atno 17342 bound_to 10162
  140.7789  143.3842  151.1422 LP  0  0  0  0  0  0  0  0  0  0  0  0  # atno 17343 bound_to 10162
  156.6388  130.4452  149.5760 LP  0  0  0  0  0  0  0  0  0  0  0  0  # atno 17370 bound_to 10713
  156.2225  130.6746  151.1383 LP  0  0  0  0  0  0  0  0  0  0  0  0  # atno 17371 bound_to 10713
  140.0149  134.9972  157.0472 LP  0  0  0  0  0  0  0  0  0  0  0  0  # atno 17394 bound_to 11000
  140.4537  134.1556  155.7184 LP  0  0  0  0  0  0  0  0  0  0  0  0  # atno 17395 bound_to 11000

$$$$
