AV-unprocessed.smi:1908|AV-procd|sdf|7734|dock3
  -GOLD-   22720 9473D 1   1.00000     0.00000
 Structure written by MMmdl.
 27 27  0  0  0  0  0  0  0  0  2 V2000
  152.7990  144.5416  158.4193 C   0  0  0  0  0  0  0  0  0  0  0  0
  151.2874  144.7804  158.3099 C   0  0  0  0  0  0  0  0  0  0  0  0
  150.6454  145.0032  159.6878 C   0  0  0  0  0  0  0  0  0  0  0  0
  150.6640  143.6461  157.6350 N   0  0  0  0  0  0  0  0  0  0  0  0
  150.5249  142.4145  158.1497 C   0  0  0  0  0  0  0  0  0  0  0  0
  150.9398  142.0963  159.2650 O   0  0  0  0  0  0  0  0  0  0  0  0
  149.8397  141.3786  157.2486 C   0  0  0  0  0  0  0  0  0  0  0  0
  150.6458  140.1601  157.0714 N   0  0  0  0  0  0  0  0  0  0  0  0
  150.9766  139.4199  158.2203 C   0  0  0  0  0  0  0  0  0  0  0  0
  151.7041  138.2888  158.1514 C   0  0  0  0  0  0  0  0  0  0  0  0
  152.1516  137.8346  156.8407 C   0  0  0  0  0  0  0  0  0  0  0  0
  152.8199  136.8056  156.7595 O   0  0  0  0  0  0  0  0  0  0  0  0
  151.8019  138.5851  155.7553 N   0  5  0  0  0  0  0  0  0  0  0  0
  151.0600  139.7330  155.8403 C   0  0  0  0  0  0  0  0  0  0  0  0
  150.7534  140.3944  154.8474 O   0  0  0  0  0  0  0  0  0  0  0  0
  153.2957  145.3889  158.8930 H   0  0  0  0  0  0  0  0  0  0  0  0
  153.2469  144.4072  157.4342 H   0  0  0  0  0  0  0  0  0  0  0  0
  153.0204  143.6528  159.0110 H   0  0  0  0  0  0  0  0  0  0  0  0
  151.1387  145.6789  157.7085 H   0  0  0  0  0  0  0  0  0  0  0  0
  151.0986  145.8539  160.1973 H   0  0  0  0  0  0  0  0  0  0  0  0
  150.7669  144.1289  160.3281 H   0  0  0  0  0  0  0  0  0  0  0  0
  149.5777  145.2066  159.5986 H   0  0  0  0  0  0  0  0  0  0  0  0
  150.2930  143.8135  156.7111 H   0  0  0  0  0  0  0  0  0  0  0  0
  148.8567  141.1243  157.6500 H   0  0  0  0  0  0  0  0  0  0  0  0
  149.6418  141.8480  156.2843 H   0  0  0  0  0  0  0  0  0  0  0  0
  150.5999  139.8205  159.1498 H   0  0  0  0  0  0  0  0  0  0  0  0
  151.9471  137.7295  159.0428 H   0  0  0  0  0  0  0  0  0  0  0  0
  1  2  1  0  0  0  0
  1 16  1  0  0  0  0
  1 17  1  0  0  0  0
  1 18  1  0  0  0  0
  2  3  1  0  0  0  0
  2  4  1  0  0  0  0
  2 19  1  0  0  0  0
  3 20  1  0  0  0  0
  3 21  1  0  0  0  0
  3 22  1  0  0  0  0
  4  5  1  0  0  0  0
  4 23  1  0  0  0  0
  5  6  2  0  0  0  0
  5  7  1  0  0  0  0
  7  8  1  0  0  0  0
  7 24  1  0  0  0  0
  7 25  1  0  0  0  0
  8 14  1  0  0  0  0
  8  9  1  0  0  0  0
  9 10  2  0  0  0  0
  9 26  1  0  0  0  0
 10 11  1  0  0  0  0
 10 27  1  0  0  0  0
 11 12  2  0  0  0  0
 11 13  1  0  0  0  0
 13 14  1  0  0  0  0
 14 15  2  0  0  0  0
M  CHG  1  13  -1
M  END
> <s_m_source_file>
AV-unprocessed.smi

> <i_m_source_file_index>
1908

> <i_lp_mmshare_version>
43012

> <i_f3d_flags>
0

> <s_epik_input>
W0NIM11bQ0hdKFtDSDNdKVtOSF1DKD1PKVtDSDJdbjFbY0hdW2NIXWMoPU8pW25IXWMxPU8=

> <s_epik_cmdline>
J2VwaWtfcHl0aG9uJywgJy1waCcsICc3LjAnLCAnLXRuJywgJzgnLCAnLW1hJywgJzIwMCcsICctbWV0YWxfYmluZGluZycsICctaW1hZScsICc8aW5maWxlLm1hZT4nLCAnLW9tYWUnLCAnPG91dGZpbGUubWFlPic=

> <r_lp_tautomer_probability>
0.999537

> <r_epik_Ionization_Penalty>
3.07884

> <r_epik_Ionization_Penalty_Charging>
2.69291e-08

> <r_epik_Ionization_Penalty_Neutral>
3.07884

> <r_epik_State_Penalty>
3.07787

> <r_epik_Charging_Adjusted_Penalty>
3.07787

> <i_epik_Tot_Q>
-1

> <i_epik_Tot_abs_Q>
1

> <r_epik_Metal_State_Penalty>
0.459857

> <b_epik_Metal_Only>
1

> <s_lp_Force_Field>
OPLS_2005

> <r_lp_Energy>
10.6939

> <b_lp_Chiralities_Consistent>
1

> <s_lp_Variant>
AV-unprocessed.smi:1908-2

> <Gold.Version>
5.8.1

> <Gold.Id.Protein>
6NUR|6NUR_protein|mol2

> <Gold.PLP.Fitness>
36.2466

> <Gold.PLP.PLP>
-27.9777

> <Gold.PLP.part.hbond>
-3.3119

> <Gold.PLP.part.metal>
0.0000

> <Gold.PLP.part.buried>
-5.7167

> <Gold.PLP.part.nonpolar>
-19.3931

> <Gold.PLP.part.repulsive>
0.0871

> <Gold.PLP.ligand.clash>
0.0000

> <Gold.PLP.ligand.torsion>
0.1179

> <Gold.PLP.Chemscore.Hbond>
2.8320

> <Gold.PLP.Chemscore.CHOScore>
0.0000

> <Gold.PLP.Chemscore.Metal>
0.0000

> <Gold.Chemscore.Hbonds>
donor molecule, donor type, donor heavy atom, donor atom, acceptor molecule, acceptor atom, score
      L1  H     4    23       P1  8028  0.90
      P1  H  7989  7998       L1    15  1.00
      P1  H 10752 10764       L1    12  0.76

> <Gold.PLP.Chemscore.Internal.Correction>
0.0087

> <Gold.Rescore>
     Score         DG    S(hbond)    S(metal)    S(lipo)     H(rot)  DE(clash)    DE(int)     intcor
     14.46     -16.80       2.89        0.00      51.94       1.72       0.02       2.32       ----

> <Gold.Chemscore.Fitness>
14.4635

> <Gold.Chemscore.DG>
-16.7980

> <Gold.Chemscore.ZeroCoef>
-5.4800

> <Gold.Chemscore.Hbond>
2.8902

> <Gold.Chemscore.Metal>
0.0000

> <Gold.Chemscore.Lipo>
51.9428

> <Gold.Chemscore.Internal_Hbond>
0.0000

> <Gold.Chemscore.DEClash>
0.0178

> <Gold.Chemscore.DEInternal>
2.3168

> <Gold.Chemscore.Rot>
1.7236

> <Gold.Chemscore.Internal.Correction>
   9.000000E+99

> <Gold.Chemscore.Hbonds>
donor molecule, donor type, donor heavy atom, donor atom, acceptor molecule, acceptor atom, score
      L1  H     4    23       P1  8028  0.87
      P1  H  7989  7998       L1    15  0.98
      P1  H 10752 10764       L1    12  0.72

> <Gold.Chemscore.Hbond.Weighted>
-9.6531

> <Gold.Chemscore.Metal.Weighted>
-0.0000

> <Gold.Chemscore.Lipo.Weighted>
-6.0773

> <Gold.Chemscore.Internal_Hbond.Weighted>
0.0000

> <Gold.Chemscore.DEClash.Weighted>
0.0178

> <Gold.Chemscore.DEInternal.Weighted>
2.3168

> <Gold.Chemscore.Rot.Weighted>
4.4124

> <Gold.Chemscore.Internal.Correction.Weighted>
   9.000000E+99

> <Gold.Protein.RotatedTorsions>
[ 6907 6896 6895 6894 ] final  178.70 input  -60.11 | X-H torsion
[ 7974 7965 7964 7962 ] final  -84.54 input  175.53 | X-H torsion
[ 8008 7997 7996 7995 ] final   21.71 input   59.86 | X-H torsion
[ 10167 10162 10161 10158 ] final   56.60 input  -65.29 | X-H torsion
[ 10718 10713 10712 10709 ] final    0.43 input   66.30 | X-H torsion
[ 10763 10752 10751 10750 ] final   -4.38 input  -60.55 | X-H torsion
[ 11005 11000 10999 10996 ] final -156.71 input  -57.11 | X-H torsion

> <Gold.Protein.ActiveResidues>
 VAL166  LYS551  ARG553  GLY616  TRP617  ASP618  TYR619  PRO620  LYS621  CYS622 
 ASP623  PHE694  ASN695  SER759  ASP760  ASP761  ALA762  ILE779  LEU786  VAL792 
 PHE793  MET794  SER795  GLU796  ALA797  LYS798  CYS799  TRP800  GLU811  SER814 

> <Gold.Protein.RotatedAtoms>
  151.6836  133.3311  159.3225 H   0  0  0  0  0  0  0  0  0  0  0  0  # atno 6907 bound_to 6896
  150.7811  134.6760  159.6427 H   0  0  0  0  0  0  0  0  0  0  0  0  # atno 6908 bound_to 6896
  152.3869  134.6506  160.0174 H   0  0  0  0  0  0  0  0  0  0  0  0  # atno 6909 bound_to 6896
  145.5052  140.9544  143.1738 H   0  0  0  0  0  0  0  0  0  0  0  0  # atno 7974 bound_to 7965
  154.9546  140.3070  155.5059 H   0  0  0  0  0  0  0  0  0  0  0  0  # atno 8008 bound_to 7997
  156.2983  140.2312  156.4565 H   0  0  0  0  0  0  0  0  0  0  0  0  # atno 8009 bound_to 7997
  154.8022  140.0433  157.1269 H   0  0  0  0  0  0  0  0  0  0  0  0  # atno 8010 bound_to 7997
  140.2070  144.3929  150.6505 H   0  0  0  0  0  0  0  0  0  0  0  0  # atno 10167 bound_to 10162
  156.8332  130.5495  149.5685 H   0  0  0  0  0  0  0  0  0  0  0  0  # atno 10718 bound_to 10713
  153.3840  135.6999  153.6544 H   0  0  0  0  0  0  0  0  0  0  0  0  # atno 10763 bound_to 10752
  153.5143  135.3625  155.2602 H   0  0  0  0  0  0  0  0  0  0  0  0  # atno 10764 bound_to 10752
  154.8695  135.4142  154.3144 H   0  0  0  0  0  0  0  0  0  0  0  0  # atno 10765 bound_to 10752
  140.6726  134.4231  157.5231 H   0  0  0  0  0  0  0  0  0  0  0  0  # atno 11005 bound_to 11000
  144.7758  139.6634  143.7175 LP  0  0  0  0  0  0  0  0  0  0  0  0  # atno 17320 bound_to 7965
  146.2201  139.5620  142.9624 LP  0  0  0  0  0  0  0  0  0  0  0  0  # atno 17321 bound_to 7965
  140.6350  143.2193  151.6413 LP  0  0  0  0  0  0  0  0  0  0  0  0  # atno 17342 bound_to 10162
  139.5195  144.3252  152.0875 LP  0  0  0  0  0  0  0  0  0  0  0  0  # atno 17343 bound_to 10162
  156.0922  130.5905  150.9753 LP  0  0  0  0  0  0  0  0  0  0  0  0  # atno 17370 bound_to 10713
  157.6395  131.0912  150.8279 LP  0  0  0  0  0  0  0  0  0  0  0  0  # atno 17371 bound_to 10713
  139.8977  134.8631  156.2034 LP  0  0  0  0  0  0  0  0  0  0  0  0  # atno 17394 bound_to 11000
  141.0380  133.6953  156.1548 LP  0  0  0  0  0  0  0  0  0  0  0  0  # atno 17395 bound_to 11000

$$$$
