AV-unprocessed.smi:232|AV-procd|sdf|1767|dock1
  -GOLD-   2262020303D 1   1.00000     0.00000
 Structure written by MMmdl.
 52 55  0  0  0  0  0  0  0  0  1 V2000
  151.8764  145.4651  159.8554 C   0  0  0  0  0  0  0  0  0  0  0  0
  151.8718  144.4079  158.7427 C   0  0  0  0  0  0  0  0  0  0  0  0
  151.7416  142.9422  159.2168 C   0  0  2  0  0  0  0  0  0  0  0  0
  153.0718  142.4055  159.7523 C   0  0  0  0  0  0  0  0  0  0  0  0
  152.9144  140.8965  159.6139 C   0  0  0  0  0  0  0  0  0  0  0  0
  152.0943  140.7299  158.3276 C   0  0  1  0  0  0  0  0  0  0  0  0
  151.2130  139.4630  158.3734 C   0  0  0  0  0  0  0  0  0  0  0  0
  151.3811  142.0012  158.1558 N   0  0  0  0  0  0  0  0  0  0  0  0
  150.1385  141.9895  157.6179 C   0  0  0  0  0  0  0  0  0  0  0  0
  149.0919  142.5005  158.3173 N   0  0  0  0  0  0  0  0  0  0  0  0
  147.8613  142.4688  157.7971 C   0  0  0  0  0  0  0  0  0  0  0  0
  147.4637  141.9746  156.6226 N   0  0  0  0  0  0  0  0  0  0  0  0
  148.5134  141.4570  155.9218 C   0  0  0  0  0  0  0  0  0  0  0  0
  149.8719  141.4268  156.3416 C   0  0  0  0  0  0  0  0  0  0  0  0
  150.6605  140.8291  155.3671 N   0  0  0  0  0  0  0  0  0  0  0  0
  149.8141  140.5189  154.4234 C   0  0  0  0  0  0  0  0  0  0  0  0
  148.5000  140.8391  154.6836 N   0  0  0  0  0  0  0  0  0  0  0  0
  147.3599  140.6024  153.8154 C   0  0  0  0  0  0  0  0  0  0  0  0
  147.1959  139.1240  153.3929 C   0  0  2  0  0  0  0  0  0  0  0  0
  146.2246  139.1267  152.3664 O   0  0  0  0  0  0  0  0  0  0  0  0
  146.6892  138.1671  154.4977 C   0  0  2  0  0  0  0  0  0  0  0  0
  146.3712  136.7333  154.0599 C   0  0  0  0  0  0  0  0  0  0  0  0
  145.3107  136.2658  155.0441 C   0  0  0  0  0  0  0  0  0  0  0  0
  144.8526  137.5530  155.7287 C   0  0  0  0  0  0  0  0  0  0  0  0
  145.4087  138.5944  154.9408 O   0  0  0  0  0  0  0  0  0  0  0  0
  152.1198  146.4469  159.4496 H   0  0  0  0  0  0  0  0  0  0  0  0
  152.6159  145.2302  160.6211 H   0  0  0  0  0  0  0  0  0  0  0  0
  150.9027  145.5504  160.3361 H   0  0  0  0  0  0  0  0  0  0  0  0
  151.0861  144.6383  158.0221 H   0  0  0  0  0  0  0  0  0  0  0  0
  152.8123  144.5050  158.1990 H   0  0  0  0  0  0  0  0  0  0  0  0
  151.0030  142.8778  160.0172 H   0  0  0  0  0  0  0  0  0  0  0  0
  153.8998  142.7426  159.1265 H   0  0  0  0  0  0  0  0  0  0  0  0
  153.2736  142.7198  160.7766 H   0  0  0  0  0  0  0  0  0  0  0  0
  153.8690  140.3709  159.5767 H   0  0  0  0  0  0  0  0  0  0  0  0
  152.3575  140.5168  160.4720 H   0  0  0  0  0  0  0  0  0  0  0  0
  152.7828  140.6467  157.4861 H   0  0  0  0  0  0  0  0  0  0  0  0
  151.8197  138.5808  158.5785 H   0  0  0  0  0  0  0  0  0  0  0  0
  150.7040  139.2851  157.4263 H   0  0  0  0  0  0  0  0  0  0  0  0
  150.4560  139.5310  159.1555 H   0  0  0  0  0  0  0  0  0  0  0  0
  147.0836  142.8969  158.4120 H   0  0  0  0  0  0  0  0  0  0  0  0
  150.1260  140.0343  153.5095 H   0  0  0  0  0  0  0  0  0  0  0  0
  146.4533  140.9595  154.3058 H   0  0  0  0  0  0  0  0  0  0  0  0
  147.4994  141.2286  152.9327 H   0  0  0  0  0  0  0  0  0  0  0  0
  148.1308  138.7509  152.9734 H   0  0  0  0  0  0  0  0  0  0  0  0
  145.4487  139.5596  152.6882 H   0  0  0  0  0  0  0  0  0  0  0  0
  147.3814  138.1475  155.3423 H   0  0  0  0  0  0  0  0  0  0  0  0
  145.9510  136.7286  153.0536 H   0  0  0  0  0  0  0  0  0  0  0  0
  147.2491  136.0879  154.0651 H   0  0  0  0  0  0  0  0  0  0  0  0
  144.4893  135.7739  154.5219 H   0  0  0  0  0  0  0  0  0  0  0  0
  145.7162  135.5628  155.7726 H   0  0  0  0  0  0  0  0  0  0  0  0
  143.7669  137.6367  155.7846 H   0  0  0  0  0  0  0  0  0  0  0  0
  145.2533  137.6146  156.7416 H   0  0  0  0  0  0  0  0  0  0  0  0
  1  2  1  0  0  0  0
  1 26  1  0  0  0  0
  1 27  1  0  0  0  0
  1 28  1  0  0  0  0
  2  3  1  0  0  0  0
  2 29  1  0  0  0  0
  2 30  1  0  0  0  0
  3  8  1  0  0  0  0
  3  4  1  0  0  0  0
  3 31  1  0  0  0  0
  4  5  1  0  0  0  0
  4 32  1  0  0  0  0
  4 33  1  0  0  0  0
  5  6  1  0  0  0  0
  5 34  1  0  0  0  0
  5 35  1  0  0  0  0
  6  7  1  0  0  0  0
  6  8  1  0  0  0  0
  6 36  1  0  0  0  0
  7 37  1  0  0  0  0
  7 38  1  0  0  0  0
  7 39  1  0  0  0  0
  8  9  1  0  0  0  0
  9 14  1  0  0  0  0
  9 10  2  0  0  0  0
 10 11  1  0  0  0  0
 11 12  2  0  0  0  0
 11 40  1  0  0  0  0
 12 13  1  0  0  0  0
 13 17  1  0  0  0  0
 13 14  2  0  0  0  0
 14 15  1  0  0  0  0
 15 16  2  0  0  0  0
 16 17  1  0  0  0  0
 16 41  1  0  0  0  0
 17 18  1  0  0  0  0
 18 19  1  0  0  0  0
 18 42  1  0  0  0  0
 18 43  1  0  0  0  0
 19 20  1  0  0  0  0
 19 21  1  0  0  0  0
 19 44  1  0  0  0  0
 20 45  1  0  0  0  0
 21 25  1  0  0  0  0
 21 22  1  0  0  0  0
 21 46  1  0  0  0  0
 22 23  1  0  0  0  0
 22 47  1  0  0  0  0
 22 48  1  0  0  0  0
 23 24  1  0  0  0  0
 23 49  1  0  0  0  0
 23 50  1  0  0  0  0
 24 25  1  0  0  0  0
 24 51  1  0  0  0  0
 24 52  1  0  0  0  0
M  END
> <s_m_source_file>
AV-unprocessed.smi

> <i_m_source_file_index>
232

> <i_lp_mmshare_version>
43012

> <i_f3d_flags>
0

> <s_epik_input>
W0NIM11bQ0gyXVtDQEBIXTFbQ0gyXVtDSDJdW0NAQEhdKFtDSDNdKU4xYyhuW2NIXW4yKWMoYzIzKW5bY0hdbjNbQ0gyXVtDQEhdKFtPSF0pW0NAQEhdNFtDSDJdW0NIMl1bQ0gyXU80

> <s_epik_cmdline>
J2VwaWtfcHl0aG9uJywgJy1waCcsICc3LjAnLCAnLXRuJywgJzgnLCAnLW1hJywgJzIwMCcsICctbWV0YWxfYmluZGluZycsICctaW1hZScsICc8aW5maWxlLm1hZT4nLCAnLW9tYWUnLCAnPG91dGZpbGUubWFlPic=

> <r_lp_tautomer_probability>
1

> <r_epik_Ionization_Penalty>
0.00258048

> <r_epik_Ionization_Penalty_Charging>
0

> <r_epik_Ionization_Penalty_Neutral>
0.00258048

> <r_epik_State_Penalty>
0.00168551

> <r_epik_Charging_Adjusted_Penalty>
0.00168551

> <i_epik_Tot_Q>
0

> <i_epik_Tot_abs_Q>
0

> <r_epik_Metal_State_Penalty>
-0

> <b_epik_Metal_Only>
0

> <s_lp_Force_Field>
OPLS_2005

> <r_lp_Energy>
58.3797

> <b_lp_Chiralities_Consistent>
1

> <s_lp_Variant>
AV-unprocessed.smi:232-1

> <Gold.Version>
5.8.1

> <Gold.Id.Protein>
6NUR|6NUR_protein|mol2

> <Gold.PLP.Fitness>
46.1108

> <Gold.PLP.PLP>
-41.3081

> <Gold.PLP.part.hbond>
-2.0000

> <Gold.PLP.part.metal>
0.0000

> <Gold.PLP.part.buried>
-2.2184

> <Gold.PLP.part.nonpolar>
-37.1497

> <Gold.PLP.part.repulsive>
0.5255

> <Gold.PLP.ligand.clash>
0.0000

> <Gold.PLP.ligand.torsion>
0.8897

> <Gold.PLP.Chemscore.Hbond>
1.0000

> <Gold.PLP.Chemscore.CHOScore>
1.0000

> <Gold.PLP.Chemscore.Metal>
0.0000

> <Gold.Chemscore.Hbonds>
donor molecule, donor type, donor heavy atom, donor atom, acceptor molecule, acceptor atom, score
      L1  H    20    45       P1 10175  1.00
      L1  C    16    41       P1  7957  1.00

> <Gold.PLP.Chemscore.Internal.Correction>
0.5821

> <Gold.Rescore>
     Score         DG    S(hbond)    S(metal)    S(lipo)     H(rot)  DE(clash)    DE(int)     intcor
     11.68     -13.83       0.96        0.00      91.52       2.18       1.28       0.87       ----

> <Gold.Chemscore.Fitness>
11.6825

> <Gold.Chemscore.DG>
-13.8320

> <Gold.Chemscore.ZeroCoef>
-5.4800

> <Gold.Chemscore.Hbond>
0.9636

> <Gold.Chemscore.Metal>
0.0000

> <Gold.Chemscore.Lipo>
91.5213

> <Gold.Chemscore.Internal_Hbond>
0.0000

> <Gold.Chemscore.DEClash>
1.2827

> <Gold.Chemscore.DEInternal>
0.8667

> <Gold.Chemscore.Rot>
2.1775

> <Gold.Chemscore.Internal.Correction>
   9.000000E+99

> <Gold.Chemscore.Hbonds>
donor molecule, donor type, donor heavy atom, donor atom, acceptor molecule, acceptor atom, score
      L1  H    20    45       P1 10175  0.93

> <Gold.Chemscore.Hbond.Weighted>
-3.2184

> <Gold.Chemscore.Metal.Weighted>
-0.0000

> <Gold.Chemscore.Lipo.Weighted>
-10.7080

> <Gold.Chemscore.Internal_Hbond.Weighted>
0.0000

> <Gold.Chemscore.DEClash.Weighted>
1.2827

> <Gold.Chemscore.DEInternal.Weighted>
0.8667

> <Gold.Chemscore.Rot.Weighted>
5.5744

> <Gold.Chemscore.Internal.Correction.Weighted>
   9.000000E+99

> <Gold.Protein.RotatedTorsions>
[ 6907 6896 6895 6894 ] final   44.33 input  -60.11 | X-H torsion
[ 7974 7965 7964 7962 ] final   21.02 input  175.53 | X-H torsion
[ 8008 7997 7996 7995 ] final  -43.18 input   59.86 | X-H torsion
[ 10167 10162 10161 10158 ] final  -25.48 input  -65.29 | X-H torsion
[ 10718 10713 10712 10709 ] final  -24.98 input   66.30 | X-H torsion
[ 10763 10752 10751 10750 ] final   83.89 input  -60.55 | X-H torsion
[ 11005 11000 10999 10996 ] final   45.03 input  -57.11 | X-H torsion

> <Gold.Protein.ActiveResidues>
 VAL166  LYS551  ARG553  GLY616  TRP617  ASP618  TYR619  PRO620  LYS621  CYS622 
 ASP623  PHE694  ASN695  SER759  ASP760  ASP761  ALA762  ILE779  LEU786  VAL792 
 PHE793  MET794  SER795  GLU796  ALA797  LYS798  CYS799  TRP800  GLU811  SER814 

> <Gold.Protein.RotatedAtoms>
  152.2312  134.8320  160.0473 H   0  0  0  0  0  0  0  0  0  0  0  0  # atno 6907 bound_to 6896
  151.9069  133.3546  159.3858 H   0  0  0  0  0  0  0  0  0  0  0  0  # atno 6908 bound_to 6896
  150.7026  134.4697  159.5464 H   0  0  0  0  0  0  0  0  0  0  0  0  # atno 6909 bound_to 6896
  146.2088  139.8086  142.8705 H   0  0  0  0  0  0  0  0  0  0  0  0  # atno 7974 bound_to 7965
  154.3997  140.1454  156.3476 H   0  0  0  0  0  0  0  0  0  0  0  0  # atno 8008 bound_to 7997
  155.8299  140.3466  155.5544 H   0  0  0  0  0  0  0  0  0  0  0  0  # atno 8009 bound_to 7997
  155.8199  140.0896  157.1845 H   0  0  0  0  0  0  0  0  0  0  0  0  # atno 8010 bound_to 7997
  140.7286  143.4261  151.0874 H   0  0  0  0  0  0  0  0  0  0  0  0  # atno 10167 bound_to 10162
  156.4704  130.4523  149.6872 H   0  0  0  0  0  0  0  0  0  0  0  0  # atno 10718 bound_to 10713
  153.1332  135.4674  154.9381 H   0  0  0  0  0  0  0  0  0  0  0  0  # atno 10763 bound_to 10752
  154.7682  135.3151  154.8245 H   0  0  0  0  0  0  0  0  0  0  0  0  # atno 10764 bound_to 10752
  153.8783  135.6897  153.4823 H   0  0  0  0  0  0  0  0  0  0  0  0  # atno 10765 bound_to 10752
  140.1497  134.4477  155.8390 H   0  0  0  0  0  0  0  0  0  0  0  0  # atno 11005 bound_to 11000
  145.3220  141.0246  143.3495 LP  0  0  0  0  0  0  0  0  0  0  0  0  # atno 17320 bound_to 7965
  144.8860  139.4839  143.6700 LP  0  0  0  0  0  0  0  0  0  0  0  0  # atno 17321 bound_to 7965
  139.7913  143.8214  152.3152 LP  0  0  0  0  0  0  0  0  0  0  0  0  # atno 17342 bound_to 10162
  139.8199  144.7300  150.9586 LP  0  0  0  0  0  0  0  0  0  0  0  0  # atno 17343 bound_to 10162
  156.3624  130.7488  151.2462 LP  0  0  0  0  0  0  0  0  0  0  0  0  # atno 17370 bound_to 10713
  157.7491  131.0346  150.4327 LP  0  0  0  0  0  0  0  0  0  0  0  0  # atno 17371 bound_to 10713
  141.2197  133.6867  156.7399 LP  0  0  0  0  0  0  0  0  0  0  0  0  # atno 17394 bound_to 11000
  140.2620  134.8459  157.3767 LP  0  0  0  0  0  0  0  0  0  0  0  0  # atno 17395 bound_to 11000

$$$$
