#       Name:                AV-unprocessed.smi:1761
#       Creating user name   scv26
#       Creation time:       Fri Mar 27 08:31:35 2020


#       File generated by GOLD software.
#

@<TRIPOS>MOLECULE
AV-unprocessed.smi:1761
    39    40     1
SMALL
NO_CHARGES


@<TRIPOS>ATOM
      1 ****        -0.1168   1.7750   0.2340 O.2            1 S1                 0.0000
      2 ****        -0.6249   0.6566   0.3187 C.2            1 S1                 0.0000
      3 ****        -1.9435   0.4041   0.3959 N.am           1 S1                 0.0000
      4 ****        -3.0192   1.3319   0.3714 C.ar           1 S1                 0.0000
      5 ****        -4.3067   0.7580   0.4734 C.ar           1 S1                 0.0000
      6 ****        -5.4412   1.5923   0.4535 C.ar           1 S1                 0.0000
      7 ****        -5.2591   2.9813   0.3314 C.ar           1 S1                 0.0000
      8 ****        -3.9437   3.4713   0.2360 C.ar           1 S1                 0.0000
      9 ****        -2.8549   2.6735   0.2552 N.ar           1 S1                 0.0000
     10 ****         0.0882  -0.4790   0.3427 N.am           1 S1                 0.0000
     11 ****         1.5456  -0.5641   0.2680 C.3            1 S1                 0.0000
     12 ****         2.0383  -1.8950   0.8690 C.3            1 S1                 0.0000
     13 ****         3.5709  -2.0005   0.8071 C.3            1 S1                 0.0000
     14 ****         4.0874  -1.8223  -0.6294 C.3            1 S1                 0.0000
     15 ****         3.5931  -0.5017  -1.2475 C.3            1 S1                 0.0000
     16 ****         2.0597  -0.3636  -1.1793 C.3            1 S1                 0.0000
     17 ****         1.4723  -1.3054  -2.0588 O.3            1 S1                 0.0000
     18 ****        -2.2098  -0.5663   0.4707 H              1 S1                 0.0000
     19 ****        -4.4290  -0.3115   0.5648 H              1 S1                 0.0000
     20 ****        -6.4334   1.1727   0.5294 H              1 S1                 0.0000
     21 ****        -6.1046   3.6529   0.3114 H              1 S1                 0.0000
     22 ****        -3.7600   4.5313   0.1412 H              1 S1                 0.0000
     23 ****        -0.4115  -1.3531   0.4140 H              1 S1                 0.0000
     24 ****         1.9581   0.2369   0.8849 H              1 S1                 0.0000
     25 ****         1.7099  -1.9809   1.9054 H              1 S1                 0.0000
     26 ****         1.5933  -2.7354   0.3346 H              1 S1                 0.0000
     27 ****         4.0155  -1.2410   1.4514 H              1 S1                 0.0000
     28 ****         3.8926  -2.9655   1.1996 H              1 S1                 0.0000
     29 ****         5.1773  -1.8489  -0.6372 H              1 S1                 0.0000
     30 ****         3.7564  -2.6616  -1.2423 H              1 S1                 0.0000
     31 ****         4.0485   0.3322  -0.7118 H              1 S1                 0.0000
     32 ****         3.9341  -0.4210  -2.2805 H              1 S1                 0.0000
     33 ****         1.7809   0.6291  -1.5346 H              1 S1                 0.0000
     34 ****         0.5355  -1.1837  -2.0418 H              1 S1                 0.0000
     35 ****        -0.6982   2.5885   0.2183 LP             1 S1                 0.0000
     36 ****         0.8773   1.8699   0.1809 LP             1 S1                 0.0000
     37 ****        -1.9382   3.0668   0.1846 LP             1 S1                 0.0000
     38 ****         1.6982  -2.2328  -1.7608 LP             1 S1                 0.0000
     39 ****         1.8152  -1.1607  -2.9870 LP             1 S1                 0.0000
@<TRIPOS>BOND
    1    1    2 2     
    2    2    3 am    
    3    2   10 am    
    4    3    4 1     
    5    3   18 1     
    6    4    9 ar    
    7    4    5 ar    
    8    5    6 ar    
    9    5   19 1     
   10    6    7 ar    
   11    6   20 1     
   12    7    8 ar    
   13    7   21 1     
   14    8    9 ar    
   15    8   22 1     
   16   10   11 1     
   17   10   23 1     
   18   11   16 1     
   19   11   12 1     
   20   11   24 1     
   21   12   13 1     
   22   12   25 1     
   23   12   26 1     
   24   13   14 1     
   25   13   27 1     
   26   13   28 1     
   27   14   15 1     
   28   14   29 1     
   29   14   30 1     
   30   15   16 1     
   31   15   31 1     
   32   15   32 1     
   33   16   17 1     
   34   16   33 1     
   35   17   34 1     
   36    1   35 1     
   37    1   36 1     
   38    9   37 1     
   39   17   38 1     
   40   17   39 1     
@<TRIPOS>SUBSTRUCTURE
      1 S1             1
@<TRIPOS>SET
LONE_PAIRS      STATIC     ATOMS    <user>   **** ""
5 35 36 37 38 39
DONOR_HYDROGENS      STATIC     ATOMS    <user>   **** ""
3 18 23 34
ATOM$BLUE        STATIC     ATOMS    COLORGROUP SYSTEM
5 35 36 37 38 39
ATOM$RED        STATIC     ATOMS    COLORGROUP SYSTEM
3 18 23 34
