AV-unprocessed.smi:193|AV-procd|sdf|1503|dock3
  -GOLD-   2262019333D 1   1.00000     0.00000
 Structure written by MMmdl.
 62 66  0  0  0  0  0  0  0  0  2 V2000
  146.5903  137.6761  163.3895 C   0  0  0  0  0  0  0  0  0  0  0  0
  146.5256  136.5143  162.3879 C   0  0  1  0  0  0  0  0  0  0  0  0
  147.9548  136.0901  161.9819 C   0  0  0  0  0  0  0  0  0  0  0  0
  147.9862  134.9661  161.0457 N   0  0  0  0  0  0  0  0  0  0  0  0
  147.7538  135.1380  159.7078 C   0  0  0  0  0  0  0  0  0  0  0  0
  146.5813  134.6650  159.2038 N   0  0  0  0  0  0  0  0  0  0  0  0
  146.2716  134.8108  157.9141 C   0  0  0  0  0  0  0  0  0  0  0  0
  146.9811  135.3954  156.9515 N   0  0  0  0  0  0  0  0  0  0  0  0
  148.1640  135.8701  157.4322 C   0  0  0  0  0  0  0  0  0  0  0  0
  148.6298  135.7863  158.7788 C   0  0  0  0  0  0  0  0  0  0  0  0
  149.8792  136.3943  158.8626 N   0  0  0  0  0  0  0  0  0  0  0  0
  150.1339  136.8049  157.6518 C   0  0  0  0  0  0  0  0  0  0  0  0
  149.1573  136.5257  156.7265 N   0  0  0  0  0  0  0  0  0  0  0  0
  149.1771  136.8617  155.3106 C   0  0  0  0  0  0  0  0  0  0  0  0
  150.1295  138.0312  154.9577 C   0  0  0  0  0  0  0  0  0  0  0  0
  149.8587  138.4159  153.6205 O   0  0  0  0  0  0  0  0  0  0  0  0
  149.9272  139.2609  155.8705 C   0  0  0  0  0  0  0  0  0  0  0  0
  151.0099  140.3320  155.6486 C   0  0  0  0  0  0  0  0  0  0  0  0
  152.3031  139.7639  155.8160 O   0  0  0  0  0  0  0  0  0  0  0  0
  152.5833  138.7433  154.8657 C   0  0  0  0  0  0  0  0  0  0  0  0
  151.5994  137.5734  155.0436 C   0  0  0  0  0  0  0  0  0  0  0  0
  147.7755  133.6438  161.6455 C   0  0  0  0  0  0  0  0  0  0  0  0
  146.2895  133.2384  161.7744 C   0  0  0  0  0  0  0  0  0  0  0  0
  145.3488  134.3840  161.8758 N   0  3  1  0  0  0  0  0  0  0  0  0
  143.9374  133.9384  161.9076 C   0  0  1  0  0  0  0  0  0  0  0  0
  142.9836  134.9567  162.4924 C   0  0  0  0  0  0  0  0  0  0  0  0
  143.0063  134.7220  160.9984 C   0  0  1  0  0  0  0  0  0  0  0  0
  143.4754  135.8261  160.0671 C   0  0  0  0  0  0  0  0  0  0  0  0
  145.6894  135.3471  162.9534 C   0  0  0  0  0  0  0  0  0  0  0  0
  147.0808  137.3750  164.3158 H   0  0  0  0  0  0  0  0  0  0  0  0
  145.5926  138.0357  163.6424 H   0  0  0  0  0  0  0  0  0  0  0  0
  147.1461  138.5186  162.9764 H   0  0  0  0  0  0  0  0  0  0  0  0
  146.0089  136.8905  161.5044 H   0  0  0  0  0  0  0  0  0  0  0  0
  148.5216  136.9316  161.5875 H   0  0  0  0  0  0  0  0  0  0  0  0
  148.5016  135.7984  162.8794 H   0  0  0  0  0  0  0  0  0  0  0  0
  145.3176  134.4045  157.6116 H   0  0  0  0  0  0  0  0  0  0  0  0
  151.0484  137.3212  157.3969 H   0  0  0  0  0  0  0  0  0  0  0  0
  149.4625  135.9675  154.7548 H   0  0  0  0  0  0  0  0  0  0  0  0
  148.1572  137.0954  155.0013 H   0  0  0  0  0  0  0  0  0  0  0  0
  149.3776  137.7197  153.1997 H   0  0  0  0  0  0  0  0  0  0  0  0
  148.9412  139.7016  155.7183 H   0  0  0  0  0  0  0  0  0  0  0  0
  149.9633  138.9445  156.9137 H   0  0  0  0  0  0  0  0  0  0  0  0
  150.9229  140.7799  154.6576 H   0  0  0  0  0  0  0  0  0  0  0  0
  150.8865  141.1398  156.3702 H   0  0  0  0  0  0  0  0  0  0  0  0
  152.5360  139.1484  153.8537 H   0  0  0  0  0  0  0  0  0  0  0  0
  153.6055  138.3956  155.0172 H   0  0  0  0  0  0  0  0  0  0  0  0
  151.7788  137.1189  156.0190 H   0  0  0  0  0  0  0  0  0  0  0  0
  151.8034  136.7976  154.3043 H   0  0  0  0  0  0  0  0  0  0  0  0
  148.3371  132.8767  161.1111 H   0  0  0  0  0  0  0  0  0  0  0  0
  148.2127  133.6573  162.6444 H   0  0  0  0  0  0  0  0  0  0  0  0
  146.0121  132.6597  160.8932 H   0  0  0  0  0  0  0  0  0  0  0  0
  146.1618  132.5701  162.6270 H   0  0  0  0  0  0  0  0  0  0  0  0
  143.7754  132.8784  162.0948 H   0  0  0  0  0  0  0  0  0  0  0  0
  142.1219  134.5814  163.0405 H   0  0  0  0  0  0  0  0  0  0  0  0
  143.3954  135.8934  162.8643 H   0  0  0  0  0  0  0  0  0  0  0  0
  142.1710  134.1527  160.5950 H   0  0  0  0  0  0  0  0  0  0  0  0
  144.2298  136.4545  160.5412 H   0  0  0  0  0  0  0  0  0  0  0  0
  142.6331  136.4601  159.7903 H   0  0  0  0  0  0  0  0  0  0  0  0
  143.8971  135.3989  159.1574 H   0  0  0  0  0  0  0  0  0  0  0  0
  146.1988  134.8501  163.7805 H   0  0  0  0  0  0  0  0  0  0  0  0
  144.7698  135.7561  163.3743 H   0  0  0  0  0  0  0  0  0  0  0  0
  145.4427  134.9021  161.0139 H   0  0  0  0  0  0  0  0  0  0  0  0
  1  2  1  0  0  0  0
  1 30  1  0  0  0  0
  1 31  1  0  0  0  0
  1 32  1  0  0  0  0
  2 29  1  0  0  0  0
  2  3  1  0  0  0  0
  2 33  1  0  0  0  0
  3  4  1  0  0  0  0
  3 34  1  0  0  0  0
  3 35  1  0  0  0  0
  4  5  1  0  0  0  0
  4 22  1  0  0  0  0
  5 10  1  0  0  0  0
  5  6  2  0  0  0  0
  6  7  1  0  0  0  0
  7  8  2  0  0  0  0
  7 36  1  0  0  0  0
  8  9  1  0  0  0  0
  9 13  1  0  0  0  0
  9 10  2  0  0  0  0
 10 11  1  0  0  0  0
 11 12  2  0  0  0  0
 12 13  1  0  0  0  0
 12 37  1  0  0  0  0
 13 14  1  0  0  0  0
 14 15  1  0  0  0  0
 14 38  1  0  0  0  0
 14 39  1  0  0  0  0
 15 21  1  0  0  0  0
 15 16  1  0  0  0  0
 15 17  1  0  0  0  0
 16 40  1  0  0  0  0
 17 18  1  0  0  0  0
 17 41  1  0  0  0  0
 17 42  1  0  0  0  0
 18 19  1  0  0  0  0
 18 43  1  0  0  0  0
 18 44  1  0  0  0  0
 19 20  1  0  0  0  0
 20 21  1  0  0  0  0
 20 45  1  0  0  0  0
 20 46  1  0  0  0  0
 21 47  1  0  0  0  0
 21 48  1  0  0  0  0
 22 23  1  0  0  0  0
 22 49  1  0  0  0  0
 22 50  1  0  0  0  0
 23 24  1  0  0  0  0
 23 51  1  0  0  0  0
 23 52  1  0  0  0  0
 24 25  1  0  0  0  0
 24 29  1  0  0  0  0
 24 62  1  0  0  0  0
 25 27  1  0  0  0  0
 25 26  1  0  0  0  0
 25 53  1  0  0  0  0
 26 27  1  0  0  0  0
 26 54  1  0  0  0  0
 26 55  1  0  0  0  0
 27 28  1  0  0  0  0
 27 56  1  0  0  0  0
 28 57  1  0  0  0  0
 28 58  1  0  0  0  0
 28 59  1  0  0  0  0
 29 60  1  0  0  0  0
 29 61  1  0  0  0  0
M  CHG  1  24   1
M  END
> <s_m_source_file>
AV-unprocessed.smi

> <i_m_source_file_index>
193

> <i_lp_mmshare_version>
43012

> <i_f3d_flags>
0

> <s_epik_input>
W0NIM11bQ0BASF0xW0NIMl1bQ0BIXTFOKFtDSDJdMilbQ0gyXVtDSDJdTihbQ0gyXVtDQEhdMltDSDNdKWMobltjSF1uMyljKGMzNCluW2NIXW40W0NIMl1DNShbT0hdKVtDSDJdW0NIMl1PW0NIMl1bQ0gyXTU=

> <s_epik_cmdline>
J2VwaWtfcHl0aG9uJywgJy1waCcsICc3LjAnLCAnLXRuJywgJzgnLCAnLW1hJywgJzIwMCcsICctbWV0YWxfYmluZGluZycsICctaW1hZScsICc8aW5maWxlLm1hZT4nLCAnLW9tYWUnLCAnPG91dGZpbGUubWFlPic=

> <r_lp_tautomer_probability>
1

> <r_epik_Ionization_Penalty>
0.0540825

> <r_epik_Ionization_Penalty_Charging>
0.0538476

> <r_epik_Ionization_Penalty_Neutral>
0.000234891

> <r_epik_State_Penalty>
0.0200719

> <r_epik_Charging_Adjusted_Penalty>
0.0739194

> <i_epik_Tot_Q>
1

> <i_epik_Tot_abs_Q>
1

> <r_epik_Metal_State_Penalty>
0.0199414

> <b_epik_Metal_Only>
0

> <s_lp_Force_Field>
OPLS_2005

> <r_lp_Energy>
52.5482

> <b_lp_Chiralities_Consistent>
1

> <s_lp_Variant>
AV-unprocessed.smi:193-8

> <Gold.Version>
5.8.1

> <Gold.Id.Protein>
6NUR|6NUR_protein|mol2

> <Gold.PLP.Fitness>
43.9410

> <Gold.PLP.PLP>
-38.2606

> <Gold.PLP.part.hbond>
-4.0000

> <Gold.PLP.part.metal>
0.0000

> <Gold.PLP.part.buried>
-5.6839

> <Gold.PLP.part.nonpolar>
-28.6958

> <Gold.PLP.part.repulsive>
0.0372

> <Gold.PLP.ligand.clash>
0.0000

> <Gold.PLP.ligand.torsion>
2.3651

> <Gold.PLP.Chemscore.Hbond>
3.0000

> <Gold.PLP.Chemscore.CHOScore>
0.0000

> <Gold.PLP.Chemscore.Metal>
0.0000

> <Gold.Chemscore.Hbonds>
donor molecule, donor type, donor heavy atom, donor atom, acceptor molecule, acceptor atom, score
      L1  H    16    40       P1  7948  1.00
      P1  H  6896  6908       L1    11  1.00
      P1  H  7997  8008       L1    19  0.46

> <Gold.PLP.Chemscore.Internal.Correction>
1.4106

> <Gold.Rescore>
     Score         DG    S(hbond)    S(metal)    S(lipo)     H(rot)  DE(clash)    DE(int)     intcor
     15.59     -21.54       2.52        0.00     107.52       1.93       1.35       4.60       ----

> <Gold.Chemscore.Fitness>
15.5872

> <Gold.Chemscore.DG>
-21.5368

> <Gold.Chemscore.ZeroCoef>
-5.4800

> <Gold.Chemscore.Hbond>
2.5195

> <Gold.Chemscore.Metal>
0.0000

> <Gold.Chemscore.Lipo>
107.5196

> <Gold.Chemscore.Internal_Hbond>
0.0000

> <Gold.Chemscore.DEClash>
1.3530

> <Gold.Chemscore.DEInternal>
4.5966

> <Gold.Chemscore.Rot>
1.9290

> <Gold.Chemscore.Internal.Correction>
   9.000000E+99

> <Gold.Chemscore.Hbonds>
donor molecule, donor type, donor heavy atom, donor atom, acceptor molecule, acceptor atom, score
      L1  H    16    40       P1  7948  0.90
      P1  H  6896  6908       L1    11  0.25
      P1  H  7997  8008       L1    19  0.03

> <Gold.Chemscore.Hbond.Weighted>
-8.4153

> <Gold.Chemscore.Metal.Weighted>
-0.0000

> <Gold.Chemscore.Lipo.Weighted>
-12.5798

> <Gold.Chemscore.Internal_Hbond.Weighted>
0.0000

> <Gold.Chemscore.DEClash.Weighted>
1.3530

> <Gold.Chemscore.DEInternal.Weighted>
4.5966

> <Gold.Chemscore.Rot.Weighted>
4.9383

> <Gold.Chemscore.Internal.Correction.Weighted>
   9.000000E+99

> <Gold.Protein.RotatedTorsions>
[ 6907 6896 6895 6894 ] final -163.41 input  -60.11 | X-H torsion
[ 7974 7965 7964 7962 ] final  160.51 input  175.53 | X-H torsion
[ 8008 7997 7996 7995 ] final  -26.53 input   59.86 | X-H torsion
[ 10167 10162 10161 10158 ] final -110.06 input  -65.29 | X-H torsion
[ 10718 10713 10712 10709 ] final  -82.35 input   66.30 | X-H torsion
[ 10763 10752 10751 10750 ] final   96.23 input  -60.55 | X-H torsion
[ 11005 11000 10999 10996 ] final   18.77 input  -57.11 | X-H torsion

> <Gold.Protein.ActiveResidues>
 VAL166  LYS551  ARG553  GLY616  TRP617  ASP618  TYR619  PRO620  LYS621  CYS622 
 ASP623  PHE694  ASN695  SER759  ASP760  ASP761  ALA762  ILE779  LEU786  VAL792 
 PHE793  MET794  SER795  GLU796  ALA797  LYS798  CYS799  TRP800  GLU811  SER814 

> <Gold.Protein.RotatedAtoms>
  151.3956  133.3774  159.2725 H   0  0  0  0  0  0  0  0  0  0  0  0  # atno 6907 bound_to 6896
  150.9472  134.8877  159.7660 H   0  0  0  0  0  0  0  0  0  0  0  0  # atno 6908 bound_to 6896
  152.5097  134.3909  159.9436 H   0  0  0  0  0  0  0  0  0  0  0  0  # atno 6909 bound_to 6896
  144.7733  139.7768  143.6288 H   0  0  0  0  0  0  0  0  0  0  0  0  # atno 7974 bound_to 7965
  154.4420  140.1897  156.0790 H   0  0  0  0  0  0  0  0  0  0  0  0  # atno 8008 bound_to 7997
  156.0453  140.3315  155.7263 H   0  0  0  0  0  0  0  0  0  0  0  0  # atno 8009 bound_to 7997
  155.5639  140.0606  157.2813 H   0  0  0  0  0  0  0  0  0  0  0  0  # atno 8010 bound_to 7997
  140.1485  143.4219  152.1511 H   0  0  0  0  0  0  0  0  0  0  0  0  # atno 10167 bound_to 10162
  156.0034  130.4631  150.4092 H   0  0  0  0  0  0  0  0  0  0  0  0  # atno 10718 bound_to 10713
  153.2625  135.4226  155.0908 H   0  0  0  0  0  0  0  0  0  0  0  0  # atno 10763 bound_to 10752
  154.8425  135.3452  154.6357 H   0  0  0  0  0  0  0  0  0  0  0  0  # atno 10764 bound_to 10752
  153.6777  135.7040  153.5184 H   0  0  0  0  0  0  0  0  0  0  0  0  # atno 10765 bound_to 10752
  140.4212  134.1517  155.7673 H   0  0  0  0  0  0  0  0  0  0  0  0  # atno 11005 bound_to 11000
  146.1895  139.5128  142.9814 LP  0  0  0  0  0  0  0  0  0  0  0  0  # atno 17320 bound_to 7965
  145.6260  141.0313  143.1889 LP  0  0  0  0  0  0  0  0  0  0  0  0  # atno 17321 bound_to 7965
  139.5437  144.7279  151.4651 LP  0  0  0  0  0  0  0  0  0  0  0  0  # atno 17342 bound_to 10162
  140.6717  143.8279  150.7007 LP  0  0  0  0  0  0  0  0  0  0  0  0  # atno 17343 bound_to 10162
  157.2156  131.0470  151.2575 LP  0  0  0  0  0  0  0  0  0  0  0  0  # atno 17370 bound_to 10713
  157.3848  130.7251  149.6656 LP  0  0  0  0  0  0  0  0  0  0  0  0  # atno 17371 bound_to 10713
  141.1783  133.8467  157.1345 LP  0  0  0  0  0  0  0  0  0  0  0  0  # atno 17394 bound_to 11000
  140.0199  134.9950  157.0570 LP  0  0  0  0  0  0  0  0  0  0  0  0  # atno 17395 bound_to 11000

$$$$
