AV-unprocessed.smi:2252|AV-procd|sdf|9104|dock3
  -GOLD-   2272012303D 1   1.00000     0.00000
 Structure written by MMmdl.
 46 48  0  0  0  0  0  0  0  0  3 V2000
  152.2057  144.1659  161.7037 C   0  0  0  0  0  0  0  0  0  0  0  0
  152.8971  143.0568  161.0428 N   0  0  0  0  0  0  0  0  0  0  0  0
  153.4531  141.9638  161.6567 C   0  0  0  0  0  0  0  0  0  0  0  0
  153.9958  141.1897  160.6650 C   0  0  0  0  0  0  0  0  0  0  0  0
  153.7476  141.8406  159.4874 N   0  3  0  0  0  0  0  0  0  0  0  0
  153.0772  142.9767  159.7132 C   0  0  0  0  0  0  0  0  0  0  0  0
  152.6465  143.9507  158.6560 C   0  0  0  0  0  0  0  0  0  0  0  0
  151.1240  144.0021  158.4484 C   0  0  0  0  0  0  0  0  0  0  0  0
  150.7240  143.3193  157.2213 N   0  0  0  0  0  0  0  0  0  0  0  0
  150.5607  141.9930  157.0960 C   0  0  0  0  0  0  0  0  0  0  0  0
  150.7368  141.2006  158.0217 O   0  0  0  0  0  0  0  0  0  0  0  0
  150.1576  141.4755  155.7058 C   0  0  1  0  0  0  0  0  0  0  0  0
  150.2442  139.9332  155.7143 C   0  0  0  0  0  0  0  0  0  0  0  0
  151.5162  139.2239  155.3003 C   0  0  0  0  0  0  0  0  0  0  0  0
  150.2915  139.1364  154.4281 C   0  0  0  0  0  0  0  0  0  0  0  0
  148.7947  141.9377  155.3146 N   0  3  0  0  0  0  0  0  0  0  0  0
  148.3453  141.5279  153.9659 C   0  0  0  0  0  0  0  0  0  0  0  0
  146.8358  141.7378  153.9799 C   0  0  0  0  0  0  0  0  0  0  0  0
  146.4361  141.3595  155.4037 C   0  0  0  0  0  0  0  0  0  0  0  0
  147.7033  141.5638  156.2474 C   0  0  0  0  0  0  0  0  0  0  0  0
  152.3092  144.0679  162.7850 H   0  0  0  0  0  0  0  0  0  0  0  0
  151.1487  144.1398  161.4373 H   0  0  0  0  0  0  0  0  0  0  0  0
  152.6459  145.1117  161.3866 H   0  0  0  0  0  0  0  0  0  0  0  0
  153.4238  141.8205  162.7273 H   0  0  0  0  0  0  0  0  0  0  0  0
  154.5258  140.2491  160.7079 H   0  0  0  0  0  0  0  0  0  0  0  0
  153.0210  144.9287  158.9598 H   0  0  0  0  0  0  0  0  0  0  0  0
  153.1551  143.6937  157.7269 H   0  0  0  0  0  0  0  0  0  0  0  0
  150.6340  143.5510  159.3131 H   0  0  0  0  0  0  0  0  0  0  0  0
  150.7880  145.0384  158.4025 H   0  0  0  0  0  0  0  0  0  0  0  0
  150.5567  143.8979  156.4107 H   0  0  0  0  0  0  0  0  0  0  0  0
  150.8665  141.8668  154.9732 H   0  0  0  0  0  0  0  0  0  0  0  0
  149.7071  139.4711  156.5414 H   0  0  0  0  0  0  0  0  0  0  0  0
  152.3415  139.8280  154.9321 H   0  0  0  0  0  0  0  0  0  0  0  0
  151.8019  138.3357  155.8604 H   0  0  0  0  0  0  0  0  0  0  0  0
  149.7564  138.1893  154.4052 H   0  0  0  0  0  0  0  0  0  0  0  0
  150.3105  139.6833  153.4872 H   0  0  0  0  0  0  0  0  0  0  0  0
  148.8290  142.1025  153.1752 H   0  0  0  0  0  0  0  0  0  0  0  0
  148.5710  140.4720  153.8062 H   0  0  0  0  0  0  0  0  0  0  0  0
  146.6088  142.7896  153.8000 H   0  0  0  0  0  0  0  0  0  0  0  0
  146.3185  141.1484  153.2221 H   0  0  0  0  0  0  0  0  0  0  0  0
  145.5972  141.9566  155.7630 H   0  0  0  0  0  0  0  0  0  0  0  0
  146.1340  140.3121  155.4398 H   0  0  0  0  0  0  0  0  0  0  0  0
  147.9370  140.6361  156.7712 H   0  0  0  0  0  0  0  0  0  0  0  0
  147.5702  142.3454  156.9962 H   0  0  0  0  0  0  0  0  0  0  0  0
  148.8177  142.9478  155.3029 H   0  0  0  0  0  0  0  0  0  0  0  0
  154.0292  141.5102  158.5726 H   0  0  0  0  0  0  0  0  0  0  0  0
  1  2  1  0  0  0  0
  1 21  1  0  0  0  0
  1 22  1  0  0  0  0
  1 23  1  0  0  0  0
  2  6  1  0  0  0  0
  2  3  1  0  0  0  0
  3  4  2  0  0  0  0
  3 24  1  0  0  0  0
  4  5  1  0  0  0  0
  4 25  1  0  0  0  0
  5  6  2  0  0  0  0
  5 46  1  0  0  0  0
  6  7  1  0  0  0  0
  7  8  1  0  0  0  0
  7 26  1  0  0  0  0
  7 27  1  0  0  0  0
  8  9  1  0  0  0  0
  8 28  1  0  0  0  0
  8 29  1  0  0  0  0
  9 10  1  0  0  0  0
  9 30  1  0  0  0  0
 10 11  2  0  0  0  0
 10 12  1  0  0  0  0
 12 13  1  0  0  0  0
 12 16  1  0  0  0  0
 12 31  1  0  0  0  0
 13 15  1  0  0  0  0
 13 14  1  0  0  0  0
 13 32  1  0  0  0  0
 14 15  1  0  0  0  0
 14 33  1  0  0  0  0
 14 34  1  0  0  0  0
 15 35  1  0  0  0  0
 15 36  1  0  0  0  0
 16 20  1  0  0  0  0
 16 17  1  0  0  0  0
 16 45  1  0  0  0  0
 17 18  1  0  0  0  0
 17 37  1  0  0  0  0
 17 38  1  0  0  0  0
 18 19  1  0  0  0  0
 18 39  1  0  0  0  0
 18 40  1  0  0  0  0
 19 20  1  0  0  0  0
 19 41  1  0  0  0  0
 19 42  1  0  0  0  0
 20 43  1  0  0  0  0
 20 44  1  0  0  0  0
M  CHG  1   5   1
M  CHG  1  16   1
M  END
> <s_m_source_file>
AV-unprocessed.smi

> <i_m_source_file_index>
2252

> <i_lp_mmshare_version>
43012

> <i_f3d_flags>
0

> <s_epik_input>
W0NIM11uMVtjSF1bY0hdbmMxW0NIMl1bQ0gyXVtOSF1DKD1PKVtDQEhdKFtDSF0yW0NIMl1bQ0gyXTIpTjNbQ0gyXVtDSDJdW0NIMl1bQ0gyXTM=

> <s_epik_cmdline>
J2VwaWtfcHl0aG9uJywgJy1waCcsICc3LjAnLCAnLXRuJywgJzgnLCAnLW1hJywgJzIwMCcsICctbWV0YWxfYmluZGluZycsICctaW1hZScsICc8aW5maWxlLm1hZT4nLCAnLW9tYWUnLCAnPG91dGZpbGUubWFlPic=

> <r_lp_tautomer_probability>
1

> <r_epik_Ionization_Penalty>
0.116886

> <r_epik_Ionization_Penalty_Charging>
0.00955009

> <r_epik_Ionization_Penalty_Neutral>
0.107336

> <r_epik_State_Penalty>
0.0956868

> <r_epik_Charging_Adjusted_Penalty>
0.105237

> <i_epik_Tot_Q>
2

> <i_epik_Tot_abs_Q>
2

> <r_epik_Metal_State_Penalty>
0.438836

> <b_epik_Metal_Only>
0

> <s_lp_Force_Field>
OPLS_2005

> <r_lp_Energy>
43.7014

> <b_lp_Chiralities_Consistent>
1

> <s_lp_Variant>
AV-unprocessed.smi:2252-2

> <Gold.Version>
5.8.1

> <Gold.Id.Protein>
6NUR|6NUR_protein|mol2

> <Gold.PLP.Fitness>
57.2778

> <Gold.PLP.PLP>
-50.5600

> <Gold.PLP.part.hbond>
-2.0000

> <Gold.PLP.part.metal>
0.0000

> <Gold.PLP.part.buried>
-5.1815

> <Gold.PLP.part.nonpolar>
-44.2556

> <Gold.PLP.part.repulsive>
0.2426

> <Gold.PLP.ligand.clash>
0.0000

> <Gold.PLP.ligand.torsion>
1.2192

> <Gold.PLP.Chemscore.Hbond>
2.6720

> <Gold.PLP.Chemscore.CHOScore>
0.0000

> <Gold.PLP.Chemscore.Metal>
0.0000

> <Gold.Chemscore.Hbonds>
donor molecule, donor type, donor heavy atom, donor atom, acceptor molecule, acceptor atom, score
      L1  H     9    30       P1  8028  0.66
      L1  H    16    45       P1  8028  2.00

> <Gold.PLP.Chemscore.Internal.Correction>
1.1402

> <Gold.Rescore>
     Score         DG    S(hbond)    S(metal)    S(lipo)     H(rot)  DE(clash)    DE(int)     intcor
     17.33     -18.80       1.83        0.00     106.38       2.05       0.09       1.38       ----

> <Gold.Chemscore.Fitness>
17.3294

> <Gold.Chemscore.DG>
-18.8002

> <Gold.Chemscore.ZeroCoef>
-5.4800

> <Gold.Chemscore.Hbond>
1.8295

> <Gold.Chemscore.Metal>
0.0000

> <Gold.Chemscore.Lipo>
106.3802

> <Gold.Chemscore.Internal_Hbond>
0.0000

> <Gold.Chemscore.DEClash>
0.0913

> <Gold.Chemscore.DEInternal>
1.3796

> <Gold.Chemscore.Rot>
2.0456

> <Gold.Chemscore.Internal.Correction>
   9.000000E+99

> <Gold.Chemscore.Hbonds>
donor molecule, donor type, donor heavy atom, donor atom, acceptor molecule, acceptor atom, score
      L1  H     9    30       P1  8028  0.64
      L1  H    16    45       P1  8028  1.00

> <Gold.Chemscore.Hbond.Weighted>
-6.1105

> <Gold.Chemscore.Metal.Weighted>
-0.0000

> <Gold.Chemscore.Lipo.Weighted>
-12.4465

> <Gold.Chemscore.Internal_Hbond.Weighted>
0.0000

> <Gold.Chemscore.DEClash.Weighted>
0.0913

> <Gold.Chemscore.DEInternal.Weighted>
1.3796

> <Gold.Chemscore.Rot.Weighted>
5.2368

> <Gold.Chemscore.Internal.Correction.Weighted>
   9.000000E+99

> <Gold.Protein.RotatedTorsions>
[ 6907 6896 6895 6894 ] final  -17.42 input  -60.11 | X-H torsion
[ 7974 7965 7964 7962 ] final   50.38 input  175.53 | X-H torsion
[ 8008 7997 7996 7995 ] final  -58.66 input   59.86 | X-H torsion
[ 10167 10162 10161 10158 ] final  -94.86 input  -65.29 | X-H torsion
[ 10718 10713 10712 10709 ] final  127.08 input   66.30 | X-H torsion
[ 10763 10752 10751 10750 ] final  110.16 input  -60.55 | X-H torsion
[ 11005 11000 10999 10996 ] final  -93.56 input  -57.11 | X-H torsion

> <Gold.Protein.ActiveResidues>
 VAL166  LYS551  ARG553  GLY616  TRP617  ASP618  TYR619  PRO620  LYS621  CYS622 
 ASP623  PHE694  ASN695  SER759  ASP760  ASP761  ALA762  ILE779  LEU786  VAL792 
 PHE793  MET794  SER795  GLU796  ALA797  LYS798  CYS799  TRP800  GLU811  SER814 

> <Gold.Protein.RotatedAtoms>
  151.2936  135.0749  159.9212 H   0  0  0  0  0  0  0  0  0  0  0  0  # atno 6907 bound_to 6896
  152.5311  133.9906  159.7859 H   0  0  0  0  0  0  0  0  0  0  0  0  # atno 6908 bound_to 6896
  151.0180  133.5851  159.2705 H   0  0  0  0  0  0  0  0  0  0  0  0  # atno 6909 bound_to 6896
  146.0017  139.4447  143.0011 H   0  0  0  0  0  0  0  0  0  0  0  0  # atno 7974 bound_to 7965
  154.4318  140.1079  156.5993 H   0  0  0  0  0  0  0  0  0  0  0  0  # atno 8008 bound_to 7997
  155.5928  140.3492  155.4552 H   0  0  0  0  0  0  0  0  0  0  0  0  # atno 8009 bound_to 7997
  156.0233  140.1244  157.0324 H   0  0  0  0  0  0  0  0  0  0  0  0  # atno 8010 bound_to 7997
  140.3101  143.3110  152.0157 H   0  0  0  0  0  0  0  0  0  0  0  0  # atno 10167 bound_to 10162
  157.5364  131.1097  150.8929 H   0  0  0  0  0  0  0  0  0  0  0  0  # atno 10718 bound_to 10713
  153.4450  135.3757  155.2250 H   0  0  0  0  0  0  0  0  0  0  0  0  # atno 10763 bound_to 10752
  154.8755  135.3872  154.4107 H   0  0  0  0  0  0  0  0  0  0  0  0  # atno 10764 bound_to 10752
  153.4658  135.7087  153.6086 H   0  0  0  0  0  0  0  0  0  0  0  0  # atno 10765 bound_to 10752
  141.1494  133.7896  157.0176 H   0  0  0  0  0  0  0  0  0  0  0  0  # atno 11005 bound_to 11000
  145.7477  140.9984  143.1267 LP  0  0  0  0  0  0  0  0  0  0  0  0  # atno 17320 bound_to 7965
  144.6922  139.9176  143.7466 LP  0  0  0  0  0  0  0  0  0  0  0  0  # atno 17321 bound_to 7965
  139.4896  144.6391  151.6914 LP  0  0  0  0  0  0  0  0  0  0  0  0  # atno 17342 bound_to 10162
  140.5576  144.0323  150.6154 LP  0  0  0  0  0  0  0  0  0  0  0  0  # atno 17343 bound_to 10162
  156.9495  130.5414  149.5282 LP  0  0  0  0  0  0  0  0  0  0  0  0  # atno 17370 bound_to 10713
  156.0462  130.5538  150.8885 LP  0  0  0  0  0  0  0  0  0  0  0  0  # atno 17371 bound_to 10713
  140.0837  134.9633  157.1665 LP  0  0  0  0  0  0  0  0  0  0  0  0  # atno 17394 bound_to 11000
  140.3541  134.2566  155.7195 LP  0  0  0  0  0  0  0  0  0  0  0  0  # atno 17395 bound_to 11000

$$$$
