#       Name:                AV-unprocessed.smi:949
#       Creating user name   scv26
#       Creation time:       Fri Mar 27 02:15:15 2020


#       File generated by GOLD software.
#

@<TRIPOS>MOLECULE
AV-unprocessed.smi:949
    35    36     1
SMALL
NO_CHARGES


@<TRIPOS>ATOM
      1 ****        -1.4204  -1.0610  -1.6199 C.3            1 S1                 0.0000
      2 ****        -0.9143  -0.4158  -0.3172 C.3            1 S1                 0.0000
      3 ****         0.5430  -0.3424  -0.3161 N.pl3          1 S1                 0.0000
      4 ****         1.2654   0.6496  -1.0033 C.ar           1 S1                 0.0000
      5 ****         0.6323   1.6722  -1.7547 C.ar           1 S1                 0.0000
      6 ****         1.4152   2.6377  -2.4184 C.ar           1 S1                 0.0000
      7 ****         2.7605   2.5859  -2.3360 N.pl3          1 S1                 1.0000
      8 ****         3.4112   1.6348  -1.6343 C.ar           1 S1                 0.0000
      9 ****         2.6841   0.6397  -0.9473 C.ar           1 S1                 0.0000
     10 ****         3.3823  -0.3328  -0.2270 N.pl3          1 S1                 0.0000
     11 ****        -1.4081  -1.1976   0.9160 C.3            1 S1                 0.0000
     12 ****        -0.9873  -0.5940   2.2586 C.3            1 S1                 0.0000
     13 ****        -2.0614  -1.1178   3.1830 C.3            1 S1                 0.0000
     14 ****        -3.2978  -1.0246   2.2964 C.3            1 S1                 0.0000
     15 ****        -2.8343  -1.2071   0.9610 O.3            1 S1                 0.0000
     16 ****        -2.5099  -1.0916  -1.6476 H              1 S1                 0.0000
     17 ****        -1.0593  -2.0853  -1.7194 H              1 S1                 0.0000
     18 ****        -1.0918  -0.5094  -2.5005 H              1 S1                 0.0000
     19 ****        -1.3188   0.5935  -0.2406 H              1 S1                 0.0000
     20 ****         1.0502  -1.0362   0.2141 H              1 S1                 0.0000
     21 ****        -0.4418   1.7348  -1.8381 H              1 S1                 0.0000
     22 ****         1.0066   3.4441  -3.0099 H              1 S1                 0.0000
     23 ****         4.4896   1.6999  -1.6444 H              1 S1                 0.0000
     24 ****         2.9025  -1.0633   0.2794 H              1 S1                 0.0000
     25 ****         4.3871  -0.2982  -0.1309 H              1 S1                 0.0000
     26 ****        -1.0716  -2.2349   0.8696 H              1 S1                 0.0000
     27 ****         0.0173  -0.8898   2.5625 H              1 S1                 0.0000
     28 ****        -1.0272   0.4959   2.2221 H              1 S1                 0.0000
     29 ****        -1.8592  -2.1583   3.4412 H              1 S1                 0.0000
     30 ****        -2.1532  -0.5456   4.1065 H              1 S1                 0.0000
     31 ****        -4.0563  -1.7618   2.5606 H              1 S1                 0.0000
     32 ****        -3.7470  -0.0337   2.3731 H              1 S1                 0.0000
     33 ****         3.3087   3.2948  -2.8239 H              1 S1                 0.0000
     34 ****        -3.1678  -2.0840   0.6148 LP             1 S1                 0.0000
     35 ****        -3.1857  -0.4670   0.3876 LP             1 S1                 0.0000
@<TRIPOS>BOND
    1    1    2 1     
    2    1   16 1     
    3    1   17 1     
    4    1   18 1     
    5    2    3 1     
    6    2   11 1     
    7    2   19 1     
    8    3    4 1     
    9    3   20 1     
   10    4    9 ar    
   11    4    5 ar    
   12    5    6 ar    
   13    5   21 1     
   14    6    7 ar    
   15    6   22 1     
   16    7    8 ar    
   17    7   33 1     
   18    8    9 ar    
   19    8   23 1     
   20    9   10 1     
   21   10   24 1     
   22   10   25 1     
   23   11   15 1     
   24   11   12 1     
   25   11   26 1     
   26   12   13 1     
   27   12   27 1     
   28   12   28 1     
   29   13   14 1     
   30   13   29 1     
   31   13   30 1     
   32   14   15 1     
   33   14   31 1     
   34   14   32 1     
   35   15   34 1     
   36   15   35 1     
@<TRIPOS>SUBSTRUCTURE
      1 S1             1
@<TRIPOS>SET
LONE_PAIRS      STATIC     ATOMS    <user>   **** ""
2 34 35
DONOR_HYDROGENS      STATIC     ATOMS    <user>   **** ""
4 20 33 24 25
ATOM$BLUE        STATIC     ATOMS    COLORGROUP SYSTEM
2 34 35
ATOM$RED        STATIC     ATOMS    COLORGROUP SYSTEM
4 20 33 24 25
