AV-unprocessed.smi:2855|AV-procd|sdf|10977|dock7
  -GOLD-   2272015433D 1   1.00000     0.00000
 Structure written by MMmdl.
 47 48  0  0  0  0  0  0  0  0  1 V2000
  147.6431  141.7177  153.9877 C   0  0  0  0  0  0  0  0  0  0  0  0
  147.5746  140.2330  153.6024 C   0  0  2  0  0  0  0  0  0  0  0  0
  146.6476  140.0058  152.3982 C   0  0  0  0  0  0  0  0  0  0  0  0
  146.5734  138.5213  152.0076 C   0  0  0  0  0  0  0  0  0  0  0  0
  146.1127  137.6202  153.1813 C   0  0  1  0  0  0  0  0  0  0  0  0
  146.0091  136.1170  152.7724 C   0  0  0  0  0  0  0  0  0  0  0  0
  145.3096  135.9206  151.4136 C   0  0  0  0  0  0  0  0  0  0  0  0
  145.2859  135.2583  153.8285 C   0  0  0  0  0  0  0  0  0  0  0  0
  147.0155  137.8693  154.4234 C   0  0  1  0  0  0  0  0  0  0  0  0
  148.3469  137.2970  154.2244 N   0  0  0  0  0  0  0  0  0  0  0  0
  149.3266  137.2488  155.1388 C   0  0  0  0  0  0  0  0  0  0  0  0
  149.2388  137.7577  156.2567 O   0  0  0  0  0  0  0  0  0  0  0  0
  150.6075  136.5168  154.7203 C   0  0  0  0  0  0  0  0  0  0  0  0
  150.5205  135.0703  154.9642 N   0  0  0  0  0  0  0  0  0  0  0  0
  149.5874  134.2976  154.2876 C   0  0  0  0  0  0  0  0  0  0  0  0
  149.4634  132.9599  154.4580 C   0  0  0  0  0  0  0  0  0  0  0  0
  150.3336  132.2497  155.3893 C   0  0  0  0  0  0  0  0  0  0  0  0
  150.2977  131.0419  155.6124 O   0  0  0  0  0  0  0  0  0  0  0  0
  151.2604  133.0613  156.0492 N   0  0  0  0  0  0  0  0  0  0  0  0
  151.3943  134.4399  155.8780 C   0  0  0  0  0  0  0  0  0  0  0  0
  152.2493  135.0615  156.5085 O   0  0  0  0  0  0  0  0  0  0  0  0
  147.1151  139.3646  154.7870 C   0  0  0  0  0  0  0  0  0  0  0  0
  151.8863  132.6128  156.7022 H   0  0  0  0  0  0  0  0  0  0  0  0
  146.6637  142.0978  154.2796 H   0  0  0  0  0  0  0  0  0  0  0  0
  148.0003  142.3232  153.1544 H   0  0  0  0  0  0  0  0  0  0  0  0
  148.3238  141.8752  154.8247 H   0  0  0  0  0  0  0  0  0  0  0  0
  148.5814  139.9233  153.3189 H   0  0  0  0  0  0  0  0  0  0  0  0
  145.6454  140.3697  152.6291 H   0  0  0  0  0  0  0  0  0  0  0  0
  146.9973  140.5886  151.5453 H   0  0  0  0  0  0  0  0  0  0  0  0
  145.8889  138.4370  151.1652 H   0  0  0  0  0  0  0  0  0  0  0  0
  147.5472  138.1899  151.6446 H   0  0  0  0  0  0  0  0  0  0  0  0
  145.1080  137.9459  153.4553 H   0  0  0  0  0  0  0  0  0  0  0  0
  147.0181  135.7156  152.6698 H   0  0  0  0  0  0  0  0  0  0  0  0
  144.3244  136.3879  151.4032 H   0  0  0  0  0  0  0  0  0  0  0  0
  145.1742  134.8618  151.1909 H   0  0  0  0  0  0  0  0  0  0  0  0
  145.8898  136.3349  150.5901 H   0  0  0  0  0  0  0  0  0  0  0  0
  144.2891  135.6462  154.0400 H   0  0  0  0  0  0  0  0  0  0  0  0
  145.8367  135.2126  154.7674 H   0  0  0  0  0  0  0  0  0  0  0  0
  145.1749  134.2286  153.4883 H   0  0  0  0  0  0  0  0  0  0  0  0
  146.5461  137.3806  155.2781 H   0  0  0  0  0  0  0  0  0  0  0  0
  148.5188  136.8605  153.3301 H   0  0  0  0  0  0  0  0  0  0  0  0
  150.8311  136.7031  153.6675 H   0  0  0  0  0  0  0  0  0  0  0  0
  151.4409  136.9517  155.2738 H   0  0  0  0  0  0  0  0  0  0  0  0
  148.9241  134.7799  153.5836 H   0  0  0  0  0  0  0  0  0  0  0  0
  148.7173  132.4118  153.9009 H   0  0  0  0  0  0  0  0  0  0  0  0
  147.7910  139.4972  155.6329 H   0  0  0  0  0  0  0  0  0  0  0  0
  146.1379  139.7105  155.1265 H   0  0  0  0  0  0  0  0  0  0  0  0
  1  2  1  0  0  0  0
  1 24  1  0  0  0  0
  1 25  1  0  0  0  0
  1 26  1  0  0  0  0
  2 22  1  0  0  0  0
  2  3  1  0  0  0  0
  2 27  1  0  0  0  0
  3  4  1  0  0  0  0
  3 28  1  0  0  0  0
  3 29  1  0  0  0  0
  4  5  1  0  0  0  0
  4 30  1  0  0  0  0
  4 31  1  0  0  0  0
  5  6  1  0  0  0  0
  5  9  1  0  0  0  0
  5 32  1  0  0  0  0
  6  7  1  0  0  0  0
  6  8  1  0  0  0  0
  6 33  1  0  0  0  0
  7 34  1  0  0  0  0
  7 35  1  0  0  0  0
  7 36  1  0  0  0  0
  8 37  1  0  0  0  0
  8 38  1  0  0  0  0
  8 39  1  0  0  0  0
  9 10  1  0  0  0  0
  9 22  1  0  0  0  0
  9 40  1  0  0  0  0
 10 11  1  0  0  0  0
 10 41  1  0  0  0  0
 11 12  2  0  0  0  0
 11 13  1  0  0  0  0
 13 14  1  0  0  0  0
 13 42  1  0  0  0  0
 13 43  1  0  0  0  0
 14 20  1  0  0  0  0
 14 15  1  0  0  0  0
 15 16  2  0  0  0  0
 15 44  1  0  0  0  0
 16 17  1  0  0  0  0
 16 45  1  0  0  0  0
 17 18  2  0  0  0  0
 17 19  1  0  0  0  0
 19 23  1  0  0  0  0
 19 20  1  0  0  0  0
 20 21  2  0  0  0  0
 22 46  1  0  0  0  0
 22 47  1  0  0  0  0
M  END
> <s_m_source_file>
AV-unprocessed.smi

> <i_m_source_file_index>
2855

> <i_lp_mmshare_version>
43012

> <i_f3d_flags>
0

> <s_epik_input>
W0NIM11bQ0BASF0xW0NIMl1bQ0gyXVtDQEBIXShbQ0hdKFtDSDNdKVtDSDNdKVtDQEhdKFtDSDJdMSlbTkhdQyg9TylbQ0gyXW4yW2NIXVtjSF1jKD1PKVtuSF1jMj1P

> <s_epik_cmdline>
J2VwaWtfcHl0aG9uJywgJy1waCcsICc3LjAnLCAnLXRuJywgJzgnLCAnLW1hJywgJzIwMCcsICctbWV0YWxfYmluZGluZycsICctaW1hZScsICc8aW5maWxlLm1hZT4nLCAnLW9tYWUnLCAnPG91dGZpbGUubWFlPic=

> <r_lp_tautomer_probability>
0.999537

> <r_epik_Ionization_Penalty>
0.00306256

> <r_epik_Ionization_Penalty_Charging>
0.00306254

> <r_epik_Ionization_Penalty_Neutral>
2.0223e-08

> <r_epik_State_Penalty>
0.0021533

> <r_epik_Charging_Adjusted_Penalty>
0.00521583

> <i_epik_Tot_Q>
0

> <i_epik_Tot_abs_Q>
0

> <r_epik_Metal_State_Penalty>
0.362116

> <b_epik_Metal_Only>
0

> <s_lp_Force_Field>
OPLS_2005

> <r_lp_Energy>
12.8991

> <b_lp_Chiralities_Consistent>
1

> <s_lp_Variant>
AV-unprocessed.smi:2855-1

> <Gold.Version>
5.8.1

> <Gold.Id.Protein>
6NUR|6NUR_protein|mol2

> <Gold.PLP.Fitness>
38.4562

> <Gold.PLP.PLP>
-30.4151

> <Gold.PLP.part.hbond>
-2.0000

> <Gold.PLP.part.metal>
0.0000

> <Gold.PLP.part.buried>
0.0896

> <Gold.PLP.part.nonpolar>
-28.9301

> <Gold.PLP.part.repulsive>
0.1203

> <Gold.PLP.ligand.clash>
0.0000

> <Gold.PLP.ligand.torsion>
0.5028

> <Gold.PLP.Chemscore.Hbond>
2.0000

> <Gold.PLP.Chemscore.CHOScore>
1.0000

> <Gold.PLP.Chemscore.Metal>
0.0000

> <Gold.Chemscore.Hbonds>
donor molecule, donor type, donor heavy atom, donor atom, acceptor molecule, acceptor atom, score
      L1  H    10    41       P1  7948  1.00
      P1  H 10752 10765       L1    21  0.90
      L1  C    15    44       P1  7948  1.00

> <Gold.PLP.Chemscore.Internal.Correction>
0.0468

> <Gold.Rescore>
     Score         DG    S(hbond)    S(metal)    S(lipo)     H(rot)  DE(clash)    DE(int)     intcor
     13.19     -14.26       1.66        0.00      68.16       1.85       0.21       0.86       ----

> <Gold.Chemscore.Fitness>
13.1902

> <Gold.Chemscore.DG>
-14.2595

> <Gold.Chemscore.ZeroCoef>
-5.4800

> <Gold.Chemscore.Hbond>
1.6621

> <Gold.Chemscore.Metal>
0.0000

> <Gold.Chemscore.Lipo>
68.1562

> <Gold.Chemscore.Internal_Hbond>
0.0000

> <Gold.Chemscore.DEClash>
0.2093

> <Gold.Chemscore.DEInternal>
0.8601

> <Gold.Chemscore.Rot>
1.8539

> <Gold.Chemscore.Internal.Correction>
   9.000000E+99

> <Gold.Chemscore.Hbonds>
donor molecule, donor type, donor heavy atom, donor atom, acceptor molecule, acceptor atom, score
      L1  H    10    41       P1  7948  1.00
      P1  H 10752 10765       L1    21  0.17

> <Gold.Chemscore.Hbond.Weighted>
-5.5513

> <Gold.Chemscore.Metal.Weighted>
-0.0000

> <Gold.Chemscore.Lipo.Weighted>
-7.9743

> <Gold.Chemscore.Internal_Hbond.Weighted>
0.0000

> <Gold.Chemscore.DEClash.Weighted>
0.2093

> <Gold.Chemscore.DEInternal.Weighted>
0.8601

> <Gold.Chemscore.Rot.Weighted>
4.7460

> <Gold.Chemscore.Internal.Correction.Weighted>
   9.000000E+99

> <Gold.Protein.RotatedTorsions>
[ 6907 6896 6895 6894 ] final -156.55 input  -60.11 | X-H torsion
[ 7974 7965 7964 7962 ] final   19.13 input  175.53 | X-H torsion
[ 8008 7997 7996 7995 ] final -161.83 input   59.86 | X-H torsion
[ 10167 10162 10161 10158 ] final  -24.17 input  -65.29 | X-H torsion
[ 10718 10713 10712 10709 ] final   97.99 input   66.30 | X-H torsion
[ 10763 10752 10751 10750 ] final -136.20 input  -60.55 | X-H torsion
[ 11005 11000 10999 10996 ] final  -51.29 input  -57.11 | X-H torsion

> <Gold.Protein.ActiveResidues>
 VAL166  LYS551  ARG553  GLY616  TRP617  ASP618  TYR619  PRO620  LYS621  CYS622 
 ASP623  PHE694  ASN695  SER759  ASP760  ASP761  ALA762  ILE779  LEU786  VAL792 
 PHE793  MET794  SER795  GLU796  ALA797  LYS798  CYS799  TRP800  GLU811  SER814 

> <Gold.Protein.RotatedAtoms>
  151.2893  133.4173  159.2631 H   0  0  0  0  0  0  0  0  0  0  0  0  # atno 6907 bound_to 6896
  151.0292  134.9527  159.8112 H   0  0  0  0  0  0  0  0  0  0  0  0  # atno 6908 bound_to 6896
  152.5342  134.2854  159.9076 H   0  0  0  0  0  0  0  0  0  0  0  0  # atno 6909 bound_to 6896
  146.2160  139.8357  142.8651 H   0  0  0  0  0  0  0  0  0  0  0  0  # atno 7974 bound_to 7965
  155.7979  140.0887  157.1973 H   0  0  0  0  0  0  0  0  0  0  0  0  # atno 8008 bound_to 7997
  154.3983  140.1478  156.3298 H   0  0  0  0  0  0  0  0  0  0  0  0  # atno 8009 bound_to 7997
  155.8493  140.3435  155.5685 H   0  0  0  0  0  0  0  0  0  0  0  0  # atno 8010 bound_to 7997
  140.7288  143.4377  151.0704 H   0  0  0  0  0  0  0  0  0  0  0  0  # atno 10167 bound_to 10162
  157.6903  131.0626  150.4727 H   0  0  0  0  0  0  0  0  0  0  0  0  # atno 10718 bound_to 10713
  154.8688  135.3680  154.5022 H   0  0  0  0  0  0  0  0  0  0  0  0  # atno 10763 bound_to 10752
  153.5662  135.7022  153.5530 H   0  0  0  0  0  0  0  0  0  0  0  0  # atno 10764 bound_to 10752
  153.3583  135.4053  155.1662 H   0  0  0  0  0  0  0  0  0  0  0  0  # atno 10765 bound_to 10752
  141.0863  133.6642  156.3856 H   0  0  0  0  0  0  0  0  0  0  0  0  # atno 11005 bound_to 11000
  145.2951  141.0178  143.3641 LP  0  0  0  0  0  0  0  0  0  0  0  0  # atno 17320 bound_to 7965
  144.9048  139.4603  143.6615 LP  0  0  0  0  0  0  0  0  0  0  0  0  # atno 17321 bound_to 7965
  139.8041  143.8043  152.3165 LP  0  0  0  0  0  0  0  0  0  0  0  0  # atno 17342 bound_to 10162
  139.8069  144.7351  150.9749 LP  0  0  0  0  0  0  0  0  0  0  0  0  # atno 17343 bound_to 10162
  156.5064  130.4129  149.6325 LP  0  0  0  0  0  0  0  0  0  0  0  0  # atno 17370 bound_to 10713
  156.3280  130.7316  151.2241 LP  0  0  0  0  0  0  0  0  0  0  0  0  # atno 17371 bound_to 10713
  140.5355  134.6171  157.5363 LP  0  0  0  0  0  0  0  0  0  0  0  0  # atno 17394 bound_to 11000
  139.9682  134.7338  156.0096 LP  0  0  0  0  0  0  0  0  0  0  0  0  # atno 17395 bound_to 11000

$$$$
