AV-unprocessed.smi:3061|AV-procd|sdf|11681|dock8
  -GOLD-   2272017 83D 1   1.00000     0.00000
 Structure written by MMmdl.
 35 36  0  0  0  0  0  0  0  0  1 V2000
  151.5764  138.4746  159.0667 C   0  0  0  0  0  0  0  0  0  0  0  0
  151.4473  139.6445  158.0823 C   0  0  2  0  0  0  0  0  0  0  0  0
  152.2112  139.3636  156.7707 C   0  0  0  0  0  0  0  0  0  0  0  0
  151.3603  138.8029  155.7356 N   0  0  0  0  0  0  0  0  0  0  0  0
  150.8838  137.5668  155.5784 C   0  0  0  0  0  0  0  0  0  0  0  0
  150.1134  137.4221  154.5091 N   0  0  0  0  0  0  0  0  0  0  0  0
  150.1628  138.6962  154.0181 C   0  0  0  0  0  0  0  0  0  0  0  0
  150.8999  139.5622  154.7135 N   0  0  0  0  0  0  0  0  0  0  0  0
  151.9431  140.8627  158.7220 N   0  0  0  0  0  0  0  0  0  0  0  0
  153.1838  141.0439  159.2022 C   0  0  0  0  0  0  0  0  0  0  0  0
  154.0752  140.1989  159.1119 O   0  0  0  0  0  0  0  0  0  0  0  0
  153.4539  142.3771  159.9154 C   0  0  1  0  0  0  0  0  0  0  0  0
  153.4594  143.5513  158.9150 C   0  0  0  0  0  0  0  0  0  0  0  0
  152.2242  144.3552  159.2849 C   0  0  0  0  0  0  0  0  0  0  0  0
  151.8380  145.3248  158.6337 O   0  0  0  0  0  0  0  0  0  0  0  0
  151.6410  143.8589  160.3795 N   0  0  0  0  0  0  0  0  0  0  0  0
  150.4298  144.3707  161.0057 C   0  0  0  0  0  0  0  0  0  0  0  0
  152.3589  142.7300  160.9458 C   0  0  0  0  0  0  0  0  0  0  0  0
  151.1897  137.5523  158.6323 H   0  0  0  0  0  0  0  0  0  0  0  0
  151.0148  138.6674  159.9813 H   0  0  0  0  0  0  0  0  0  0  0  0
  152.6167  138.3006  159.3442 H   0  0  0  0  0  0  0  0  0  0  0  0
  150.3861  139.7522  157.8500 H   0  0  0  0  0  0  0  0  0  0  0  0
  152.6768  140.2767  156.3953 H   0  0  0  0  0  0  0  0  0  0  0  0
  153.0201  138.6556  156.9544 H   0  0  0  0  0  0  0  0  0  0  0  0
  151.0967  136.7601  156.2643 H   0  0  0  0  0  0  0  0  0  0  0  0
  149.6410  138.9942  153.1206 H   0  0  0  0  0  0  0  0  0  0  0  0
  151.2778  141.6126  158.8439 H   0  0  0  0  0  0  0  0  0  0  0  0
  154.4198  142.3207  160.4202 H   0  0  0  0  0  0  0  0  0  0  0  0
  154.3477  144.1707  159.0405 H   0  0  0  0  0  0  0  0  0  0  0  0
  153.4122  143.2392  157.8702 H   0  0  0  0  0  0  0  0  0  0  0  0
  150.5324  145.4327  161.2313 H   0  0  0  0  0  0  0  0  0  0  0  0
  150.2183  143.8467  161.9380 H   0  0  0  0  0  0  0  0  0  0  0  0
  149.5744  144.2404  160.3418 H   0  0  0  0  0  0  0  0  0  0  0  0
  151.6749  141.9029  161.1451 H   0  0  0  0  0  0  0  0  0  0  0  0
  152.8035  143.0250  161.8970 H   0  0  0  0  0  0  0  0  0  0  0  0
  1  2  1  0  0  0  0
  1 19  1  0  0  0  0
  1 20  1  0  0  0  0
  1 21  1  0  0  0  0
  2  3  1  0  0  0  0
  2  9  1  0  0  0  0
  2 22  1  0  0  0  0
  3  4  1  0  0  0  0
  3 23  1  0  0  0  0
  3 24  1  0  0  0  0
  4  8  1  0  0  0  0
  4  5  1  0  0  0  0
  5  6  2  0  0  0  0
  5 25  1  0  0  0  0
  6  7  1  0  0  0  0
  7  8  2  0  0  0  0
  7 26  1  0  0  0  0
  9 10  1  0  0  0  0
  9 27  1  0  0  0  0
 10 11  2  0  0  0  0
 10 12  1  0  0  0  0
 12 18  1  0  0  0  0
 12 13  1  0  0  0  0
 12 28  1  0  0  0  0
 13 14  1  0  0  0  0
 13 29  1  0  0  0  0
 13 30  1  0  0  0  0
 14 15  2  0  0  0  0
 14 16  1  0  0  0  0
 16 17  1  0  0  0  0
 16 18  1  0  0  0  0
 17 31  1  0  0  0  0
 17 32  1  0  0  0  0
 17 33  1  0  0  0  0
 18 34  1  0  0  0  0
 18 35  1  0  0  0  0
M  END
> <s_m_source_file>
AV-unprocessed.smi

> <i_m_source_file_index>
3061

> <i_lp_mmshare_version>
43012

> <i_f3d_flags>
0

> <s_epik_input>
bjFbY0hdbltjSF1uMVtDSDJdW0NAQEhdKFtDSDNdKVtOSF1DKD1PKVtDQEBIXTJbQ0gyXUMoPU8pTihbQ0gzXSlbQ0gyXTI=

> <s_epik_cmdline>
J2VwaWtfcHl0aG9uJywgJy1waCcsICc3LjAnLCAnLXRuJywgJzgnLCAnLW1hJywgJzIwMCcsICctbWV0YWxfYmluZGluZycsICctaW1hZScsICc8aW5maWxlLm1hZT4nLCAnLW9tYWUnLCAnPG91dGZpbGUubWFlPic=

> <r_lp_tautomer_probability>
1

> <r_epik_Ionization_Penalty>
4.97611e-05

> <r_epik_Ionization_Penalty_Charging>
0

> <r_epik_Ionization_Penalty_Neutral>
4.97611e-05

> <r_epik_State_Penalty>
-0

> <r_epik_Charging_Adjusted_Penalty>
0

> <i_epik_Tot_Q>
0

> <i_epik_Tot_abs_Q>
0

> <r_epik_Metal_State_Penalty>
-0

> <b_epik_Metal_Only>
0

> <s_lp_Force_Field>
OPLS_2005

> <r_lp_Energy>
12.1986

> <b_lp_Chiralities_Consistent>
1

> <s_lp_Variant>
AV-unprocessed.smi:3061-3

> <Gold.Version>
5.8.1

> <Gold.Id.Protein>
6NUR|6NUR_protein|mol2

> <Gold.PLP.Fitness>
38.0831

> <Gold.PLP.PLP>
-31.1113

> <Gold.PLP.part.hbond>
-2.2204

> <Gold.PLP.part.metal>
0.0000

> <Gold.PLP.part.buried>
-1.7063

> <Gold.PLP.part.nonpolar>
-27.7568

> <Gold.PLP.part.repulsive>
0.8039

> <Gold.PLP.ligand.clash>
0.0000

> <Gold.PLP.ligand.torsion>
0.9298

> <Gold.PLP.Chemscore.Hbond>
1.9357

> <Gold.PLP.Chemscore.CHOScore>
1.0000

> <Gold.PLP.Chemscore.Metal>
0.0000

> <Gold.Chemscore.Hbonds>
donor molecule, donor type, donor heavy atom, donor atom, acceptor molecule, acceptor atom, score
      P1  H  7989  7998       L1     8  1.00
      P1  H  7997  8009       L1    11  0.94
      L1  C     7    26       P1  7957  1.00

> <Gold.PLP.Chemscore.Internal.Correction>
0.0242

> <Gold.Rescore>
     Score         DG    S(hbond)    S(metal)    S(lipo)     H(rot)  DE(clash)    DE(int)     intcor
     10.14     -11.99       1.68        0.00      60.72       2.42       0.18       1.67       ----

> <Gold.Chemscore.Fitness>
10.1401

> <Gold.Chemscore.DG>
-11.9881

> <Gold.Chemscore.ZeroCoef>
-5.4800

> <Gold.Chemscore.Hbond>
1.6763

> <Gold.Chemscore.Metal>
0.0000

> <Gold.Chemscore.Lipo>
60.7165

> <Gold.Chemscore.Internal_Hbond>
0.0000

> <Gold.Chemscore.DEClash>
0.1830

> <Gold.Chemscore.DEInternal>
1.6650

> <Gold.Chemscore.Rot>
2.4197

> <Gold.Chemscore.Internal.Correction>
   9.000000E+99

> <Gold.Chemscore.Hbonds>
donor molecule, donor type, donor heavy atom, donor atom, acceptor molecule, acceptor atom, score
      P1  H  7989  7998       L1     8  0.65
      P1  H  7997  8009       L1    11  0.77

> <Gold.Chemscore.Hbond.Weighted>
-5.5988

> <Gold.Chemscore.Metal.Weighted>
-0.0000

> <Gold.Chemscore.Lipo.Weighted>
-7.1038

> <Gold.Chemscore.Internal_Hbond.Weighted>
0.0000

> <Gold.Chemscore.DEClash.Weighted>
0.1830

> <Gold.Chemscore.DEInternal.Weighted>
1.6650

> <Gold.Chemscore.Rot.Weighted>
6.1945

> <Gold.Chemscore.Internal.Correction.Weighted>
   9.000000E+99

> <Gold.Protein.RotatedTorsions>
[ 6907 6896 6895 6894 ] final  -52.92 input  -60.11 | X-H torsion
[ 7974 7965 7964 7962 ] final -132.07 input  175.53 | X-H torsion
[ 8008 7997 7996 7995 ] final  130.29 input   59.86 | X-H torsion
[ 10167 10162 10161 10158 ] final  151.39 input  -65.29 | X-H torsion
[ 10718 10713 10712 10709 ] final   32.95 input   66.30 | X-H torsion
[ 10763 10752 10751 10750 ] final  134.71 input  -60.55 | X-H torsion
[ 11005 11000 10999 10996 ] final  -82.35 input  -57.11 | X-H torsion

> <Gold.Protein.ActiveResidues>
 VAL166  LYS551  ARG553  GLY616  TRP617  ASP618  TYR619  PRO620  LYS621  CYS622 
 ASP623  PHE694  ASN695  SER759  ASP760  ASP761  ALA762  ILE779  LEU786  VAL792 
 PHE793  MET794  SER795  GLU796  ALA797  LYS798  CYS799  TRP800  GLU811  SER814 

> <Gold.Protein.RotatedAtoms>
  150.8473  134.7787  159.6980 H   0  0  0  0  0  0  0  0  0  0  0  0  # atno 6907 bound_to 6896
  152.4547  134.5314  159.9822 H   0  0  0  0  0  0  0  0  0  0  0  0  # atno 6908 bound_to 6896
  151.5442  133.3390  159.2977 H   0  0  0  0  0  0  0  0  0  0  0  0  # atno 6909 bound_to 6896
  144.9319  140.7139  143.4900 H   0  0  0  0  0  0  0  0  0  0  0  0  # atno 7974 bound_to 7965
  156.2952  140.2599  156.2738 H   0  0  0  0  0  0  0  0  0  0  0  0  # atno 8008 bound_to 7997
  154.9669  140.0391  157.2235 H   0  0  0  0  0  0  0  0  0  0  0  0  # atno 8009 bound_to 7997
  154.7895  140.2809  155.6007 H   0  0  0  0  0  0  0  0  0  0  0  0  # atno 8010 bound_to 7997
  139.4841  144.5445  151.7508 H   0  0  0  0  0  0  0  0  0  0  0  0  # atno 10167 bound_to 10162
  157.2917  130.7306  149.6614 H   0  0  0  0  0  0  0  0  0  0  0  0  # atno 10718 bound_to 10713
  153.8280  135.3107  155.3416 H   0  0  0  0  0  0  0  0  0  0  0  0  # atno 10763 bound_to 10752
  154.7985  135.4741  154.0221 H   0  0  0  0  0  0  0  0  0  0  0  0  # atno 10764 bound_to 10752
  153.1652  135.6868  153.8776 H   0  0  0  0  0  0  0  0  0  0  0  0  # atno 10765 bound_to 10752
  141.1663  133.7240  156.8558 H   0  0  0  0  0  0  0  0  0  0  0  0  # atno 11005 bound_to 11000
  145.3127  139.1813  143.4630 LP  0  0  0  0  0  0  0  0  0  0  0  0  # atno 17320 bound_to 7965
  146.3251  140.3134  142.8628 LP  0  0  0  0  0  0  0  0  0  0  0  0  # atno 17321 bound_to 7965
  140.4989  144.1199  150.5966 LP  0  0  0  0  0  0  0  0  0  0  0  0  # atno 17342 bound_to 10162
  140.4085  143.2668  151.9862 LP  0  0  0  0  0  0  0  0  0  0  0  0  # atno 17343 bound_to 10162
  155.9667  130.4307  150.4887 LP  0  0  0  0  0  0  0  0  0  0  0  0  # atno 17370 bound_to 10713
  157.2851  131.0615  151.2172 LP  0  0  0  0  0  0  0  0  0  0  0  0  # atno 17371 bound_to 10713
  140.1883  134.8984  157.3031 LP  0  0  0  0  0  0  0  0  0  0  0  0  # atno 17394 bound_to 11000
  140.2318  134.3900  155.7518 LP  0  0  0  0  0  0  0  0  0  0  0  0  # atno 17395 bound_to 11000

$$$$
