AV-unprocessed.smi:439|AV-procd|sdf|2579|dock4
  -GOLD-   2262022563D 1   1.00000     0.00000
 Structure written by MMmdl.
 46 47  0  0  0  0  0  0  0  0  1 V2000
  146.7999  129.2255  151.9789 C   0  0  0  0  0  0  0  0  0  0  0  0
  145.9323  130.4344  152.3538 C   0  0  0  0  0  0  0  0  0  0  0  0
  146.5528  131.3263  153.4405 C   0  0  0  0  0  0  0  0  0  0  0  0
  147.6600  132.2558  152.9112 C   0  0  0  0  0  0  0  0  0  0  0  0
  148.5256  132.7455  153.9656 N   0  0  0  0  0  0  0  0  0  0  0  0
  148.6378  134.0964  154.3089 C   0  0  0  0  0  0  0  0  0  0  0  0
  147.8809  135.0106  153.5932 N   0  0  0  0  0  0  0  0  0  0  0  0
  149.4497  134.5155  155.3259 C   0  0  0  0  0  0  0  0  0  0  0  0
  149.5852  135.8816  155.6604 N   0  0  0  0  0  0  0  0  0  0  0  0
  148.3714  136.5346  156.1849 C   0  0  0  0  0  0  0  0  0  0  0  0
  148.5338  137.0775  157.6167 C   0  0  0  0  0  0  0  0  0  0  0  0
  150.6829  136.6323  155.3428 C   0  0  0  0  0  0  0  0  0  0  0  0
  151.7550  136.0982  155.0499 O   0  0  0  0  0  0  0  0  0  0  0  0
  150.5147  138.0894  155.3372 C   0  0  0  0  0  0  0  0  0  0  0  0
  150.2064  138.7035  154.1716 C   0  0  0  0  0  0  0  0  0  0  0  0
  149.9708  140.0505  154.0550 O   0  0  0  0  0  0  0  0  0  0  0  0
  149.8204  140.7382  155.2910 C   0  0  0  0  0  0  0  0  0  0  0  0
  150.8313  140.2167  156.3212 C   0  0  0  0  0  0  0  0  0  0  0  0
  150.6644  138.8156  156.4976 O   0  0  0  0  0  0  0  0  0  0  0  0
  150.2744  133.5474  156.0656 C   0  0  0  0  0  0  0  0  0  0  0  0
  151.0532  133.8158  156.9795 O   0  0  0  0  0  0  0  0  0  0  0  0
  150.1370  132.2241  155.6561 N   0  0  0  0  0  0  0  0  0  0  0  0
  149.3074  131.7746  154.6358 C   0  0  0  0  0  0  0  0  0  0  0  0
  149.2893  130.5751  154.3579 O   0  0  0  0  0  0  0  0  0  0  0  0
  150.6943  131.5323  156.1363 H   0  0  0  0  0  0  0  0  0  0  0  0
  146.2887  128.5948  151.2513 H   0  0  0  0  0  0  0  0  0  0  0  0
  147.0197  128.6122  152.8529 H   0  0  0  0  0  0  0  0  0  0  0  0
  147.7471  129.5321  151.5357 H   0  0  0  0  0  0  0  0  0  0  0  0
  145.7217  131.0281  151.4637 H   0  0  0  0  0  0  0  0  0  0  0  0
  144.9679  130.0706  152.7098 H   0  0  0  0  0  0  0  0  0  0  0  0
  145.7617  131.9319  153.8842 H   0  0  0  0  0  0  0  0  0  0  0  0
  146.9424  130.7029  154.2461 H   0  0  0  0  0  0  0  0  0  0  0  0
  148.3021  131.7548  152.1883 H   0  0  0  0  0  0  0  0  0  0  0  0
  147.2535  133.1143  152.3739 H   0  0  0  0  0  0  0  0  0  0  0  0
  147.2653  134.7216  152.8465 H   0  0  0  0  0  0  0  0  0  0  0  0
  147.9252  136.0022  153.7797 H   0  0  0  0  0  0  0  0  0  0  0  0
  148.0759  137.3441  155.5153 H   0  0  0  0  0  0  0  0  0  0  0  0
  147.5360  135.8324  156.1723 H   0  0  0  0  0  0  0  0  0  0  0  0
  147.5998  137.5205  157.9628 H   0  0  0  0  0  0  0  0  0  0  0  0
  149.2994  137.8508  157.6766 H   0  0  0  0  0  0  0  0  0  0  0  0
  148.8002  136.2912  158.3211 H   0  0  0  0  0  0  0  0  0  0  0  0
  150.0818  138.1976  153.2247 H   0  0  0  0  0  0  0  0  0  0  0  0
  149.9610  141.8062  155.1246 H   0  0  0  0  0  0  0  0  0  0  0  0
  148.8016  140.6003  155.6553 H   0  0  0  0  0  0  0  0  0  0  0  0
  151.8527  140.4194  155.9957 H   0  0  0  0  0  0  0  0  0  0  0  0
  150.6938  140.7162  157.2803 H   0  0  0  0  0  0  0  0  0  0  0  0
  1  2  1  0  0  0  0
  1 26  1  0  0  0  0
  1 27  1  0  0  0  0
  1 28  1  0  0  0  0
  2  3  1  0  0  0  0
  2 29  1  0  0  0  0
  2 30  1  0  0  0  0
  3  4  1  0  0  0  0
  3 31  1  0  0  0  0
  3 32  1  0  0  0  0
  4  5  1  0  0  0  0
  4 33  1  0  0  0  0
  4 34  1  0  0  0  0
  5 23  1  0  0  0  0
  5  6  1  0  0  0  0
  6  7  1  0  0  0  0
  6  8  2  0  0  0  0
  7 35  1  0  0  0  0
  7 36  1  0  0  0  0
  8  9  1  0  0  0  0
  8 20  1  0  0  0  0
  9 10  1  0  0  0  0
  9 12  1  0  0  0  0
 10 11  1  0  0  0  0
 10 37  1  0  0  0  0
 10 38  1  0  0  0  0
 11 39  1  0  0  0  0
 11 40  1  0  0  0  0
 11 41  1  0  0  0  0
 12 13  2  0  0  0  0
 12 14  1  0  0  0  0
 14 19  1  0  0  0  0
 14 15  2  0  0  0  0
 15 16  1  0  0  0  0
 15 42  1  0  0  0  0
 16 17  1  0  0  0  0
 17 18  1  0  0  0  0
 17 43  1  0  0  0  0
 17 44  1  0  0  0  0
 18 19  1  0  0  0  0
 18 45  1  0  0  0  0
 18 46  1  0  0  0  0
 20 21  2  0  0  0  0
 20 22  1  0  0  0  0
 22 25  1  0  0  0  0
 22 23  1  0  0  0  0
 23 24  2  0  0  0  0
M  END
> <s_m_source_file>
AV-unprocessed.smi

> <i_m_source_file_index>
439

> <i_lp_mmshare_version>
43012

> <i_f3d_flags>
0

> <s_epik_input>
W0NIM11bQ0gyXVtDSDJdW0NIMl1uMWMoW05IMl0pYyhjKD1PKVtuSF1jMT1PKU4oW0NIMl1bQ0gzXSlDKD1PKUMyPVtDSF1PW0NIMl1bQ0gyXU8y

> <s_epik_cmdline>
J2VwaWtfcHl0aG9uJywgJy1waCcsICc3LjAnLCAnLXRuJywgJzgnLCAnLW1hJywgJzIwMCcsICctbWV0YWxfYmluZGluZycsICctaW1hZScsICc8aW5maWxlLm1hZT4nLCAnLW9tYWUnLCAnPG91dGZpbGUubWFlPic=

> <r_lp_tautomer_probability>
1

> <r_epik_Ionization_Penalty>
3.16361e-05

> <r_epik_Ionization_Penalty_Charging>
2.29435e-05

> <r_epik_Ionization_Penalty_Neutral>
8.69256e-06

> <r_epik_State_Penalty>
-0

> <r_epik_Charging_Adjusted_Penalty>
2.29435e-05

> <i_epik_Tot_Q>
0

> <i_epik_Tot_abs_Q>
0

> <r_epik_Metal_State_Penalty>
0.0222995

> <b_epik_Metal_Only>
0

> <s_epik_Chemistry_Notes>
This compound has an imine and may undergo hydrolysis.

> <s_lp_Force_Field>
OPLS_2005

> <r_lp_Energy>
28.4658

> <b_lp_Chiralities_Consistent>
1

> <s_lp_Variant>
AV-unprocessed.smi:439-1

> <Gold.Version>
5.8.1

> <Gold.Id.Protein>
6NUR|6NUR_protein|mol2

> <Gold.PLP.Fitness>
39.8861

> <Gold.PLP.PLP>
-33.0315

> <Gold.PLP.part.hbond>
-2.9338

> <Gold.PLP.part.metal>
0.0000

> <Gold.PLP.part.buried>
-4.3533

> <Gold.PLP.part.nonpolar>
-27.2157

> <Gold.PLP.part.repulsive>
1.5062

> <Gold.PLP.ligand.clash>
0.0000

> <Gold.PLP.ligand.torsion>
3.1244

> <Gold.PLP.Chemscore.Hbond>
2.0885

> <Gold.PLP.Chemscore.CHOScore>
1.1579

> <Gold.PLP.Chemscore.Metal>
0.0000

> <Gold.Chemscore.Hbonds>
donor molecule, donor type, donor heavy atom, donor atom, acceptor molecule, acceptor atom, score
      P1  H  6896  6908       L1    21  0.29
      P1  H  7989  7998       L1    16  0.87
      P1  H 10752 10764       L1    13  0.73
      L1  C    15    42       P1  7948  0.83
      L1  C    15    42       P1  7957  0.23

> <Gold.PLP.Chemscore.Internal.Correction>
3.3642

> <Gold.Rescore>
     Score         DG    S(hbond)    S(metal)    S(lipo)     H(rot)  DE(clash)    DE(int)     intcor
     12.22     -16.76       2.66        0.00      56.79       1.66       0.04       4.50       ----

> <Gold.Chemscore.Fitness>
12.2182

> <Gold.Chemscore.DG>
-16.7584

> <Gold.Chemscore.ZeroCoef>
-5.4800

> <Gold.Chemscore.Hbond>
2.6568

> <Gold.Chemscore.Metal>
0.0000

> <Gold.Chemscore.Lipo>
56.7917

> <Gold.Chemscore.Internal_Hbond>
0.0000

> <Gold.Chemscore.DEClash>
0.0431

> <Gold.Chemscore.DEInternal>
4.4971

> <Gold.Chemscore.Rot>
1.6562

> <Gold.Chemscore.Internal.Correction>
   9.000000E+99

> <Gold.Chemscore.Hbonds>
donor molecule, donor type, donor heavy atom, donor atom, acceptor molecule, acceptor atom, score
      P1  H  6896  6908       L1    21  0.29
      P1  H  7989  7998       L1    16  0.11
      P1  H 10752 10764       L1    13  0.71

> <Gold.Chemscore.Hbond.Weighted>
-8.8736

> <Gold.Chemscore.Metal.Weighted>
-0.0000

> <Gold.Chemscore.Lipo.Weighted>
-6.6446

> <Gold.Chemscore.Internal_Hbond.Weighted>
0.0000

> <Gold.Chemscore.DEClash.Weighted>
0.0431

> <Gold.Chemscore.DEInternal.Weighted>
4.4971

> <Gold.Chemscore.Rot.Weighted>
4.2398

> <Gold.Chemscore.Internal.Correction.Weighted>
   9.000000E+99

> <Gold.Protein.RotatedTorsions>
[ 6907 6896 6895 6894 ] final  104.61 input  -60.11 | X-H torsion
[ 7974 7965 7964 7962 ] final  -39.15 input  175.53 | X-H torsion
[ 8008 7997 7996 7995 ] final  114.51 input   59.86 | X-H torsion
[ 10167 10162 10161 10158 ] final   63.53 input  -65.29 | X-H torsion
[ 10718 10713 10712 10709 ] final   69.11 input   66.30 | X-H torsion
[ 10763 10752 10751 10750 ] final  -72.51 input  -60.55 | X-H torsion
[ 11005 11000 10999 10996 ] final  141.74 input  -57.11 | X-H torsion

> <Gold.Protein.ActiveResidues>
 VAL166  LYS551  ARG553  GLY616  TRP617  ASP618  TYR619  PRO620  LYS621  CYS622 
 ASP623  PHE694  ASN695  SER759  ASP760  ASP761  ALA762  ILE779  LEU786  VAL792 
 PHE793  MET794  SER795  GLU796  ALA797  LYS798  CYS799  TRP800  GLU811  SER814 

> <Gold.Protein.RotatedAtoms>
  152.5258  133.9651  159.7735 H   0  0  0  0  0  0  0  0  0  0  0  0  # atno 6907 bound_to 6896
  150.9934  133.6118  159.2712 H   0  0  0  0  0  0  0  0  0  0  0  0  # atno 6908 bound_to 6896
  151.3253  135.0835  159.9373 H   0  0  0  0  0  0  0  0  0  0  0  0  # atno 6909 bound_to 6896
  146.0422  140.6593  142.9081 H   0  0  0  0  0  0  0  0  0  0  0  0  # atno 7974 bound_to 7965
  156.2326  140.2957  156.0227 H   0  0  0  0  0  0  0  0  0  0  0  0  # atno 8008 bound_to 7997
  155.2183  140.0415  157.2961 H   0  0  0  0  0  0  0  0  0  0  0  0  # atno 8009 bound_to 7997
  154.6021  140.2430  155.7786 H   0  0  0  0  0  0  0  0  0  0  0  0  # atno 8010 bound_to 7997
  140.1320  144.4634  150.6859 H   0  0  0  0  0  0  0  0  0  0  0  0  # atno 10167 bound_to 10162
  157.6327  130.9409  150.0469 H   0  0  0  0  0  0  0  0  0  0  0  0  # atno 10718 bound_to 10713
  154.4466  135.5927  153.6164 H   0  0  0  0  0  0  0  0  0  0  0  0  # atno 10763 bound_to 10752
  152.9810  135.6011  154.3656 H   0  0  0  0  0  0  0  0  0  0  0  0  # atno 10764 bound_to 10752
  154.3513  135.2841  155.2349 H   0  0  0  0  0  0  0  0  0  0  0  0  # atno 10765 bound_to 10752
  140.0424  134.9298  157.0868 H   0  0  0  0  0  0  0  0  0  0  0  0  # atno 11005 bound_to 11000
  144.7080  140.3929  143.7103 LP  0  0  0  0  0  0  0  0  0  0  0  0  # atno 17320 bound_to 7965
  145.6865  139.1629  143.2671 LP  0  0  0  0  0  0  0  0  0  0  0  0  # atno 17321 bound_to 7965
  140.6811  143.2327  151.5381 LP  0  0  0  0  0  0  0  0  0  0  0  0  # atno 17342 bound_to 10162
  139.5515  144.2384  152.1538 LP  0  0  0  0  0  0  0  0  0  0  0  0  # atno 17343 bound_to 10162
  156.1543  130.3643  149.9392 LP  0  0  0  0  0  0  0  0  0  0  0  0  # atno 17370 bound_to 10713
  156.7404  130.9077  151.3632 LP  0  0  0  0  0  0  0  0  0  0  0  0  # atno 17371 bound_to 10713
  140.4048  134.2044  155.7163 LP  0  0  0  0  0  0  0  0  0  0  0  0  # atno 17394 bound_to 11000
  141.1890  133.8248  157.0974 LP  0  0  0  0  0  0  0  0  0  0  0  0  # atno 17395 bound_to 11000

$$$$
