AV-unprocessed.smi:375|AV-procd|sdf|2454|dock2
  -GOLD-   2262022393D 1   1.00000     0.00000
 Structure written by MMmdl.
 36 38  0  0  0  0  0  0  0  0  1 V2000
  152.0743  138.9985  154.5825 C   0  0  0  0  0  0  0  0  0  0  0  0
  151.2000  139.9804  155.2124 N   0  0  0  0  0  0  0  0  0  0  0  0
  151.4731  140.7376  156.3010 C   0  0  0  0  0  0  0  0  0  0  0  0
  152.5188  140.7220  156.9501 O   0  0  0  0  0  0  0  0  0  0  0  0
  150.3930  141.5146  156.5519 N   0  0  0  0  0  0  0  0  0  0  0  0
  150.2444  142.4738  157.6447 C   0  0  0  0  0  0  0  0  0  0  0  0
  151.3291  143.5681  157.5995 C   0  0  1  0  0  0  0  0  0  0  0  0
  150.9098  144.5840  156.7088 O   0  0  0  0  0  0  0  0  0  0  0  0
  151.5968  144.1204  158.9940 C   0  0  0  0  0  0  0  0  0  0  0  0
  151.1597  145.4177  159.3456 C   0  0  0  0  0  0  0  0  0  0  0  0
  151.3969  145.9243  160.6379 C   0  0  0  0  0  0  0  0  0  0  0  0
  152.0690  145.1358  161.5906 C   0  0  0  0  0  0  0  0  0  0  0  0
  152.4998  143.8396  161.2508 C   0  0  0  0  0  0  0  0  0  0  0  0
  152.2636  143.3305  159.9586 C   0  0  0  0  0  0  0  0  0  0  0  0
  152.6777  142.0768  159.6541 F   0  0  0  0  0  0  0  0  0  0  0  0
  149.3988  141.2405  155.6017 C   0  0  0  0  0  0  0  0  0  0  0  0
  148.1056  141.7661  155.4357 C   0  0  0  0  0  0  0  0  0  0  0  0
  147.3388  141.2664  154.3568 C   0  0  0  0  0  0  0  0  0  0  0  0
  147.8660  140.2767  153.4867 C   0  0  0  0  0  0  0  0  0  0  0  0
  149.1705  139.7637  153.6781 C   0  0  0  0  0  0  0  0  0  0  0  0
  149.9089  140.2767  154.7580 C   0  0  0  0  0  0  0  0  0  0  0  0
  153.0085  138.8690  155.1303 H   0  0  0  0  0  0  0  0  0  0  0  0
  152.3183  139.3101  153.5666 H   0  0  0  0  0  0  0  0  0  0  0  0
  151.5783  138.0288  154.5331 H   0  0  0  0  0  0  0  0  0  0  0  0
  149.2440  142.9104  157.6602 H   0  0  0  0  0  0  0  0  0  0  0  0
  150.3342  141.9117  158.5750 H   0  0  0  0  0  0  0  0  0  0  0  0
  152.2571  143.1554  157.2022 H   0  0  0  0  0  0  0  0  0  0  0  0
  150.0386  144.3770  156.4069 H   0  0  0  0  0  0  0  0  0  0  0  0
  150.6364  146.0296  158.6254 H   0  0  0  0  0  0  0  0  0  0  0  0
  151.0613  146.9173  160.8986 H   0  0  0  0  0  0  0  0  0  0  0  0
  152.2504  145.5233  162.5822 H   0  0  0  0  0  0  0  0  0  0  0  0
  153.0106  143.2325  161.9836 H   0  0  0  0  0  0  0  0  0  0  0  0
  147.7097  142.5184  156.1016 H   0  0  0  0  0  0  0  0  0  0  0  0
  146.3397  141.6430  154.1938 H   0  0  0  0  0  0  0  0  0  0  0  0
  147.2635  139.9093  152.6689 H   0  0  0  0  0  0  0  0  0  0  0  0
  149.5787  139.0093  153.0219 H   0  0  0  0  0  0  0  0  0  0  0  0
  1  2  1  0  0  0  0
  1 22  1  0  0  0  0
  1 23  1  0  0  0  0
  1 24  1  0  0  0  0
  2 21  1  0  0  0  0
  2  3  1  0  0  0  0
  3  4  2  0  0  0  0
  3  5  1  0  0  0  0
  5  6  1  0  0  0  0
  5 16  1  0  0  0  0
  6  7  1  0  0  0  0
  6 25  1  0  0  0  0
  6 26  1  0  0  0  0
  7  8  1  0  0  0  0
  7  9  1  0  0  0  0
  7 27  1  0  0  0  0
  8 28  1  0  0  0  0
  9 14  1  0  0  0  0
  9 10  2  0  0  0  0
 10 11  1  0  0  0  0
 10 29  1  0  0  0  0
 11 12  2  0  0  0  0
 11 30  1  0  0  0  0
 12 13  1  0  0  0  0
 12 31  1  0  0  0  0
 13 14  2  0  0  0  0
 13 32  1  0  0  0  0
 14 15  1  0  0  0  0
 16 21  2  0  0  0  0
 16 17  1  0  0  0  0
 17 18  2  0  0  0  0
 17 33  1  0  0  0  0
 18 19  1  0  0  0  0
 18 34  1  0  0  0  0
 19 20  2  0  0  0  0
 19 35  1  0  0  0  0
 20 21  1  0  0  0  0
 20 36  1  0  0  0  0
M  END
> <s_m_source_file>
AV-unprocessed.smi

> <i_m_source_file_index>
375

> <i_lp_mmshare_version>
43012

> <i_f3d_flags>
0

> <s_epik_input>
W2NIXTFbY0hdW2NIXVtjSF1jKGMxMiluKFtDSDNdKWMoPU8pbjJbQ0gyXVtDQEhdKFtPSF0pYzNbY0hdW2NIXVtjSF1bY0hdYzNG

> <s_epik_cmdline>
J2VwaWtfcHl0aG9uJywgJy1waCcsICc3LjAnLCAnLXRuJywgJzgnLCAnLW1hJywgJzIwMCcsICctbWV0YWxfYmluZGluZycsICctaW1hZScsICc8aW5maWxlLm1hZT4nLCAnLW9tYWUnLCAnPG91dGZpbGUubWFlPic=

> <r_lp_tautomer_probability>
1

> <r_epik_Ionization_Penalty>
1.34619e-06

> <r_epik_Ionization_Penalty_Charging>
2.57375e-09

> <r_epik_Ionization_Penalty_Neutral>
1.34362e-06

> <r_epik_State_Penalty>
-0

> <r_epik_Charging_Adjusted_Penalty>
2.57375e-09

> <i_epik_Tot_Q>
0

> <i_epik_Tot_abs_Q>
0

> <r_epik_Metal_State_Penalty>
-0

> <b_epik_Metal_Only>
0

> <s_lp_Force_Field>
OPLS_2005

> <r_lp_Energy>
44.2188

> <b_lp_Chiralities_Consistent>
1

> <s_lp_Variant>
AV-unprocessed.smi:375-2

> <Gold.Version>
5.8.1

> <Gold.Id.Protein>
6NUR|6NUR_protein|mol2

> <Gold.PLP.Fitness>
54.6977

> <Gold.PLP.PLP>
-49.7913

> <Gold.PLP.part.hbond>
-2.0000

> <Gold.PLP.part.metal>
0.0000

> <Gold.PLP.part.buried>
3.3123

> <Gold.PLP.part.nonpolar>
-49.4587

> <Gold.PLP.part.repulsive>
0.0000

> <Gold.PLP.ligand.clash>
0.0000

> <Gold.PLP.ligand.torsion>
0.5565

> <Gold.PLP.Chemscore.Hbond>
2.0000

> <Gold.PLP.Chemscore.CHOScore>
0.0000

> <Gold.PLP.Chemscore.Metal>
0.0000

> <Gold.Chemscore.Hbonds>
donor molecule, donor type, donor heavy atom, donor atom, acceptor molecule, acceptor atom, score
      L1  H     8    28       P1  8028  0.62
      P1  H  7997  8010       L1     4  0.77

> <Gold.PLP.Chemscore.Internal.Correction>
0.0194

> <Gold.Rescore>
     Score         DG    S(hbond)    S(metal)    S(lipo)     H(rot)  DE(clash)    DE(int)     intcor
     17.26     -19.98       1.21        0.00     129.83       1.85       1.61       1.11       ----

> <Gold.Chemscore.Fitness>
17.2621

> <Gold.Chemscore.DG>
-19.9823

> <Gold.Chemscore.ZeroCoef>
-5.4800

> <Gold.Chemscore.Hbond>
1.2093

> <Gold.Chemscore.Metal>
0.0000

> <Gold.Chemscore.Lipo>
129.8315

> <Gold.Chemscore.Internal_Hbond>
0.0000

> <Gold.Chemscore.DEClash>
1.6138

> <Gold.Chemscore.DEInternal>
1.1064

> <Gold.Chemscore.Rot>
1.8465

> <Gold.Chemscore.Internal.Correction>
   9.000000E+99

> <Gold.Chemscore.Hbonds>
donor molecule, donor type, donor heavy atom, donor atom, acceptor molecule, acceptor atom, score
      L1  H     8    28       P1  8028  0.59
      P1  H  7997  8010       L1     4  0.74

> <Gold.Chemscore.Hbond.Weighted>
-4.0390

> <Gold.Chemscore.Metal.Weighted>
-0.0000

> <Gold.Chemscore.Lipo.Weighted>
-15.1903

> <Gold.Chemscore.Internal_Hbond.Weighted>
0.0000

> <Gold.Chemscore.DEClash.Weighted>
1.6138

> <Gold.Chemscore.DEInternal.Weighted>
1.1064

> <Gold.Chemscore.Rot.Weighted>
4.7270

> <Gold.Chemscore.Internal.Correction.Weighted>
   9.000000E+99

> <Gold.Protein.RotatedTorsions>
[ 6907 6896 6895 6894 ] final -162.54 input  -60.11 | X-H torsion
[ 7974 7965 7964 7962 ] final  143.91 input  175.53 | X-H torsion
[ 8008 7997 7996 7995 ] final   62.94 input   59.86 | X-H torsion
[ 10167 10162 10161 10158 ] final -150.10 input  -65.29 | X-H torsion
[ 10718 10713 10712 10709 ] final    8.14 input   66.30 | X-H torsion
[ 10763 10752 10751 10750 ] final -156.66 input  -60.55 | X-H torsion
[ 11005 11000 10999 10996 ] final  -49.06 input  -57.11 | X-H torsion

> <Gold.Protein.ActiveResidues>
 VAL166  LYS551  ARG553  GLY616  TRP617  ASP618  TYR619  PRO620  LYS621  CYS622 
 ASP623  PHE694  ASN695  SER759  ASP760  ASP761  ALA762  ILE779  LEU786  VAL792 
 PHE793  MET794  SER795  GLU796  ALA797  LYS798  CYS799  TRP800  GLU811  SER814 

> <Gold.Protein.RotatedAtoms>
  151.3820  133.3818  159.2710 H   0  0  0  0  0  0  0  0  0  0  0  0  # atno 6907 bound_to 6896
  150.9570  134.8964  159.7718 H   0  0  0  0  0  0  0  0  0  0  0  0  # atno 6908 bound_to 6896
  152.5135  134.3777  159.9392 H   0  0  0  0  0  0  0  0  0  0  0  0  # atno 6909 bound_to 6896
  144.8880  139.5600  143.5812 H   0  0  0  0  0  0  0  0  0  0  0  0  # atno 7974 bound_to 7965
  155.6223  140.3496  155.4656 H   0  0  0  0  0  0  0  0  0  0  0  0  # atno 8008 bound_to 7997
  156.0069  140.1225  157.0516 H   0  0  0  0  0  0  0  0  0  0  0  0  # atno 8009 bound_to 7997
  154.4267  140.1089  156.5761 H   0  0  0  0  0  0  0  0  0  0  0  0  # atno 8010 bound_to 7997
  139.7384  143.8700  152.2555 H   0  0  0  0  0  0  0  0  0  0  0  0  # atno 10167 bound_to 10162
  156.9473  130.5883  149.5655 H   0  0  0  0  0  0  0  0  0  0  0  0  # atno 10718 bound_to 10713
  154.7696  135.3141  154.8216 H   0  0  0  0  0  0  0  0  0  0  0  0  # atno 10763 bound_to 10752
  153.8955  135.6821  153.4762 H   0  0  0  0  0  0  0  0  0  0  0  0  # atno 10764 bound_to 10752
  153.1307  135.4781  154.9279 H   0  0  0  0  0  0  0  0  0  0  0  0  # atno 10765 bound_to 10752
  141.0737  133.6672  156.3531 H   0  0  0  0  0  0  0  0  0  0  0  0  # atno 11005 bound_to 11000
  146.3036  139.7507  142.9073 LP  0  0  0  0  0  0  0  0  0  0  0  0  # atno 17320 bound_to 7965
  145.3834  141.0362  143.3164 LP  0  0  0  0  0  0  0  0  0  0  0  0  # atno 17321 bound_to 7965
  139.8643  144.7101  150.9062 LP  0  0  0  0  0  0  0  0  0  0  0  0  # atno 17342 bound_to 10162
  140.7782  143.3791  151.1509 LP  0  0  0  0  0  0  0  0  0  0  0  0  # atno 17343 bound_to 10162
  156.0378  130.5464  150.8697 LP  0  0  0  0  0  0  0  0  0  0  0  0  # atno 17370 bound_to 10713
  157.5745  131.0946  150.9366 LP  0  0  0  0  0  0  0  0  0  0  0  0  # atno 17371 bound_to 10713
  140.5619  134.5926  157.5435 LP  0  0  0  0  0  0  0  0  0  0  0  0  # atno 17394 bound_to 11000
  139.9550  134.7551  156.0363 LP  0  0  0  0  0  0  0  0  0  0  0  0  # atno 17395 bound_to 11000

$$$$
