#       Name:                AV-unprocessed.smi:1085
#       Creating user name   scv26
#       Creation time:       Fri Mar 27 03:24:58 2020


#       File generated by GOLD software.
#

@<TRIPOS>MOLECULE
AV-unprocessed.smi:1085
    38    39     1
SMALL
NO_CHARGES


@<TRIPOS>ATOM
      1 ****         0.7800   2.9398   0.5184 O.2            1 S1                 0.0000
      2 ****         1.4570   1.9123   0.5119 C.2            1 S1                 0.0000
      3 ****         2.9835   2.0037   0.4853 C.3            1 S1                 0.0000
      4 ****         3.5192   1.4592  -0.7487 N.pl3          1 S1                 0.0000
      5 ****         3.6247   1.9899  -1.9686 C.2            1 S1                 0.0000
      6 ****         4.1639   1.1377  -2.8271 N.2            1 S1                 0.0000
      7 ****         4.3961   0.0139  -2.0518 N.2            1 S1                 0.0000
      8 ****         4.0164   0.1990  -0.8174 N.2            1 S1                 0.0000
      9 ****         0.9299   0.6775   0.5259 N.am           1 S1                 0.0000
     10 ****        -0.4953   0.3636   0.5254 C.3            1 S1                 0.0000
     11 ****        -1.0829   0.5024  -0.8936 C.3            1 S1                 0.0000
     12 ****        -2.5627   0.0935  -0.9270 C.3            1 S1                 0.0000
     13 ****        -2.7594  -1.3317  -0.3880 C.3            1 S1                 0.0000
     14 ****        -2.1894  -1.4843   1.0379 C.3            1 S1                 0.0000
     15 ****        -2.3947  -2.9089   1.5929 C.3            1 S1                 0.0000
     16 ****        -1.7495  -3.8060   0.8467 F              1 S1                 0.0000
     17 ****        -1.9393  -2.9813   2.8435 F              1 S1                 0.0000
     18 ****        -3.6927  -3.2121   1.6052 F              1 S1                 0.0000
     19 ****        -0.7038  -1.0645   1.0639 C.3            1 S1                 0.0000
     20 ****         3.2991   3.0442   0.5736 H              1 S1                 0.0000
     21 ****         3.4037   1.4646   1.3358 H              1 S1                 0.0000
     22 ****         3.3036   2.9883  -2.2265 H              1 S1                 0.0000
     23 ****         1.5668  -0.1066   0.5197 H              1 S1                 0.0000
     24 ****        -1.0095   1.0584   1.1924 H              1 S1                 0.0000
     25 ****        -0.9820   1.5287  -1.2481 H              1 S1                 0.0000
     26 ****        -0.5199  -0.1209  -1.5898 H              1 S1                 0.0000
     27 ****        -3.1493   0.7947  -0.3321 H              1 S1                 0.0000
     28 ****        -2.9426   0.1607  -1.9470 H              1 S1                 0.0000
     29 ****        -3.8218  -1.5769  -0.3960 H              1 S1                 0.0000
     30 ****        -2.2746  -2.0423  -1.0585 H              1 S1                 0.0000
     31 ****        -2.7376  -0.8000   1.6877 H              1 S1                 0.0000
     32 ****        -0.1168  -1.7680   0.4714 H              1 S1                 0.0000
     33 ****        -0.3199  -1.1275   2.0827 H              1 S1                 0.0000
     34 ****         1.2279   3.8338   0.5063 LP             1 S1                 0.0000
     35 ****        -0.2181   2.8808   0.5358 LP             1 S1                 0.0000
     36 ****         4.3566   1.2728  -3.7990 LP             1 S1                 0.0000
     37 ****         4.8034  -0.8326  -2.3948 LP             1 S1                 0.0000
     38 ****         4.0796  -0.4599  -0.0678 LP             1 S1                 0.0000
@<TRIPOS>BOND
    1    1    2 2     
    2    2    3 1     
    3    2    9 am    
    4    3    4 1     
    5    3   20 1     
    6    3   21 1     
    7    4    8 1     
    8    4    5 1     
    9    5    6 2     
   10    5   22 1     
   11    6    7 1     
   12    7    8 2     
   13    9   10 1     
   14    9   23 1     
   15   10   19 1     
   16   10   11 1     
   17   10   24 1     
   18   11   12 1     
   19   11   25 1     
   20   11   26 1     
   21   12   13 1     
   22   12   27 1     
   23   12   28 1     
   24   13   14 1     
   25   13   29 1     
   26   13   30 1     
   27   14   15 1     
   28   14   19 1     
   29   14   31 1     
   30   15   16 1     
   31   15   17 1     
   32   15   18 1     
   33   19   32 1     
   34   19   33 1     
   35    1   34 1     
   36    1   35 1     
   37    6   36 1     
   38    7   37 1     
   39    8   38 1     
@<TRIPOS>SUBSTRUCTURE
      1 S1             1
@<TRIPOS>SET
LONE_PAIRS      STATIC     ATOMS    <user>   **** ""
5 34 35 36 37 38
DONOR_HYDROGENS      STATIC     ATOMS    <user>   **** ""
1 23
ATOM$BLUE        STATIC     ATOMS    COLORGROUP SYSTEM
5 34 35 36 37 38
ATOM$RED        STATIC     ATOMS    COLORGROUP SYSTEM
1 23
