AV-unprocessed.smi:1239|AV-procd|sdf|5187|dock7
  -GOLD-   22720 4273D 1   1.00000     0.00000
 Structure written by MMmdl.
 47 48  0  0  0  0  0  0  0  0  1 V2000
  147.3843  142.4475  153.8400 C   0  0  0  0  0  0  0  0  0  0  0  0
  147.8045  140.9768  154.0630 C   0  0  2  0  0  0  0  0  0  0  0  0
  146.6802  140.2734  154.8644 C   0  0  0  0  0  0  0  0  0  0  0  0
  145.8127  139.4796  153.9966 N   0  0  0  0  0  0  0  0  0  0  0  0
  145.9044  138.1567  153.8022 C   0  0  0  0  0  0  0  0  0  0  0  0
  146.7435  137.4443  154.3526 O   0  0  0  0  0  0  0  0  0  0  0  0
  144.9814  137.7310  152.9225 N   0  0  0  0  0  0  0  0  0  0  0  0
  144.7421  136.4080  152.4600 C   0  0  0  0  0  0  0  0  0  0  0  0
  145.4589  135.3564  153.0617 C   0  0  0  0  0  0  0  0  0  0  0  0
  145.2558  134.0368  152.6152 C   0  0  0  0  0  0  0  0  0  0  0  0
  144.3386  133.7960  151.5624 C   0  0  0  0  0  0  0  0  0  0  0  0
  144.0944  132.4897  151.0799 N   0  0  0  0  0  0  0  0  0  0  0  0
  143.5254  132.3016  149.7491 C   0  0  0  0  0  0  0  0  0  0  0  0
  144.3922  131.3317  151.9130 C   0  0  0  0  0  0  0  0  0  0  0  0
  143.6621  134.8128  150.9745 N   0  0  0  0  0  0  0  0  0  0  0  0
  143.8589  136.0764  151.4058 C   0  0  0  0  0  0  0  0  0  0  0  0
  149.1531  140.8305  154.6541 N   0  0  0  0  0  0  0  0  0  0  0  0
  149.2630  141.4695  155.9692 C   0  0  0  0  0  0  0  0  0  0  0  0
  150.6578  141.2983  156.5958 C   0  0  0  0  0  0  0  0  0  0  0  0
  150.9724  139.9157  156.6936 O   0  0  0  0  0  0  0  0  0  0  0  0
  150.9458  139.2684  155.4285 C   0  0  0  0  0  0  0  0  0  0  0  0
  149.5528  139.4270  154.7952 C   0  0  0  0  0  0  0  0  0  0  0  0
  146.3462  142.5166  153.5137 H   0  0  0  0  0  0  0  0  0  0  0  0
  147.9779  142.9309  153.0648 H   0  0  0  0  0  0  0  0  0  0  0  0
  147.4805  143.0346  154.7540 H   0  0  0  0  0  0  0  0  0  0  0  0
  147.8188  140.5059  153.0787 H   0  0  0  0  0  0  0  0  0  0  0  0
  147.1331  139.6502  155.6372 H   0  0  0  0  0  0  0  0  0  0  0  0
  146.0690  140.9894  155.4122 H   0  0  0  0  0  0  0  0  0  0  0  0
  145.0980  139.9853  153.4940 H   0  0  0  0  0  0  0  0  0  0  0  0
  144.4138  138.4477  152.4945 H   0  0  0  0  0  0  0  0  0  0  0  0
  146.1566  135.5538  153.8625 H   0  0  0  0  0  0  0  0  0  0  0  0
  145.8063  133.2385  153.0893 H   0  0  0  0  0  0  0  0  0  0  0  0
  144.1865  132.7169  148.9879 H   0  0  0  0  0  0  0  0  0  0  0  0
  142.5562  132.7956  149.6736 H   0  0  0  0  0  0  0  0  0  0  0  0
  143.3792  131.2454  149.5234 H   0  0  0  0  0  0  0  0  0  0  0  0
  143.8050  131.3591  152.8312 H   0  0  0  0  0  0  0  0  0  0  0  0
  145.4504  131.3096  152.1748 H   0  0  0  0  0  0  0  0  0  0  0  0
  144.1589  130.4005  151.3967 H   0  0  0  0  0  0  0  0  0  0  0  0
  143.3015  136.8257  150.8666 H   0  0  0  0  0  0  0  0  0  0  0  0
  149.0698  142.5382  155.8934 H   0  0  0  0  0  0  0  0  0  0  0  0
  148.5106  141.0588  156.6444 H   0  0  0  0  0  0  0  0  0  0  0  0
  151.4147  141.8108  156.0001 H   0  0  0  0  0  0  0  0  0  0  0  0
  150.6818  141.7399  157.5921 H   0  0  0  0  0  0  0  0  0  0  0  0
  151.7154  139.6880  154.7789 H   0  0  0  0  0  0  0  0  0  0  0  0
  151.1819  138.2128  155.5641 H   0  0  0  0  0  0  0  0  0  0  0  0
  148.8185  138.8921  155.3993 H   0  0  0  0  0  0  0  0  0  0  0  0
  149.5781  138.9372  153.8230 H   0  0  0  0  0  0  0  0  0  0  0  0
  1  2  1  0  0  0  0
  1 23  1  0  0  0  0
  1 24  1  0  0  0  0
  1 25  1  0  0  0  0
  2  3  1  0  0  0  0
  2 17  1  0  0  0  0
  2 26  1  0  0  0  0
  3  4  1  0  0  0  0
  3 27  1  0  0  0  0
  3 28  1  0  0  0  0
  4  5  1  0  0  0  0
  4 29  1  0  0  0  0
  5  6  2  0  0  0  0
  5  7  1  0  0  0  0
  7  8  1  0  0  0  0
  7 30  1  0  0  0  0
  8 16  1  0  0  0  0
  8  9  2  0  0  0  0
  9 10  1  0  0  0  0
  9 31  1  0  0  0  0
 10 11  2  0  0  0  0
 10 32  1  0  0  0  0
 11 12  1  0  0  0  0
 11 15  1  0  0  0  0
 12 13  1  0  0  0  0
 12 14  1  0  0  0  0
 13 33  1  0  0  0  0
 13 34  1  0  0  0  0
 13 35  1  0  0  0  0
 14 36  1  0  0  0  0
 14 37  1  0  0  0  0
 14 38  1  0  0  0  0
 15 16  2  0  0  0  0
 16 39  1  0  0  0  0
 17 22  1  0  0  0  0
 17 18  1  0  0  0  0
 18 19  1  0  0  0  0
 18 40  1  0  0  0  0
 18 41  1  0  0  0  0
 19 20  1  0  0  0  0
 19 42  1  0  0  0  0
 19 43  1  0  0  0  0
 20 21  1  0  0  0  0
 21 22  1  0  0  0  0
 21 44  1  0  0  0  0
 21 45  1  0  0  0  0
 22 46  1  0  0  0  0
 22 47  1  0  0  0  0
M  END
> <s_m_source_file>
AV-unprocessed.smi

> <i_m_source_file_index>
1239

> <i_lp_mmshare_version>
43012

> <i_f3d_flags>
0

> <s_epik_input>
W0NIMl0xW0NIMl1PW0NIMl1bQ0gyXU4xW0NASF0oW0NIM10pW0NIMl1bTkhdQyg9TylbTkhdYzJbY0hdW2NIXWMoTihbQ0gzXSlbQ0gzXSluW2NIXTI=

> <s_epik_cmdline>
J2VwaWtfcHl0aG9uJywgJy1waCcsICc3LjAnLCAnLXRuJywgJzgnLCAnLW1hJywgJzIwMCcsICctbWV0YWxfYmluZGluZycsICctaW1hZScsICc8aW5maWxlLm1hZT4nLCAnLW9tYWUnLCAnPG91dGZpbGUubWFlPic=

> <r_lp_tautomer_probability>
1

> <r_epik_Ionization_Penalty>
0.87526

> <r_epik_Ionization_Penalty_Charging>
0

> <r_epik_Ionization_Penalty_Neutral>
0.87526

> <r_epik_State_Penalty>
0.859346

> <r_epik_Charging_Adjusted_Penalty>
0.859346

> <i_epik_Tot_Q>
0

> <i_epik_Tot_abs_Q>
0

> <r_epik_Metal_State_Penalty>
0.538105

> <b_epik_Metal_Only>
0

> <s_lp_Force_Field>
OPLS_2005

> <r_lp_Energy>
39.6376

> <b_lp_Chiralities_Consistent>
1

> <s_lp_Variant>
AV-unprocessed.smi:1239-3

> <Gold.Version>
5.8.1

> <Gold.Id.Protein>
6NUR|6NUR_protein|mol2

> <Gold.PLP.Fitness>
40.7634

> <Gold.PLP.PLP>
-35.2108

> <Gold.PLP.part.hbond>
-2.1201

> <Gold.PLP.part.metal>
0.0000

> <Gold.PLP.part.buried>
-2.8304

> <Gold.PLP.part.nonpolar>
-31.1234

> <Gold.PLP.part.repulsive>
0.7120

> <Gold.PLP.ligand.clash>
0.0000

> <Gold.PLP.ligand.torsion>
0.9839

> <Gold.PLP.Chemscore.Hbond>
1.4875

> <Gold.PLP.Chemscore.CHOScore>
1.0000

> <Gold.PLP.Chemscore.Metal>
0.0000

> <Gold.Chemscore.Hbonds>
donor molecule, donor type, donor heavy atom, donor atom, acceptor molecule, acceptor atom, score
      L1  H     4    29       P1 10175  1.00
      L1  H     7    30       P1 10175  0.75
      L1  C    16    39       P1 10171  1.00

> <Gold.PLP.Chemscore.Internal.Correction>
0.0580

> <Gold.Rescore>
     Score         DG    S(hbond)    S(metal)    S(lipo)     H(rot)  DE(clash)    DE(int)     intcor
     12.44     -15.91       1.45        0.00      79.31       1.44       1.14       2.33       ----

> <Gold.Chemscore.Fitness>
12.4407

> <Gold.Chemscore.DG>
-15.9096

> <Gold.Chemscore.ZeroCoef>
-5.4800

> <Gold.Chemscore.Hbond>
1.4458

> <Gold.Chemscore.Metal>
0.0000

> <Gold.Chemscore.Lipo>
79.3089

> <Gold.Chemscore.Internal_Hbond>
0.0000

> <Gold.Chemscore.DEClash>
1.1398

> <Gold.Chemscore.DEInternal>
2.3292

> <Gold.Chemscore.Rot>
1.4370

> <Gold.Chemscore.Internal.Correction>
   9.000000E+99

> <Gold.Chemscore.Hbonds>
donor molecule, donor type, donor heavy atom, donor atom, acceptor molecule, acceptor atom, score
      L1  H     4    29       P1 10175  1.00
      L1  H     7    30       P1 10175  0.71

> <Gold.Chemscore.Hbond.Weighted>
-4.8291

> <Gold.Chemscore.Metal.Weighted>
-0.0000

> <Gold.Chemscore.Lipo.Weighted>
-9.2791

> <Gold.Chemscore.Internal_Hbond.Weighted>
0.0000

> <Gold.Chemscore.DEClash.Weighted>
1.1398

> <Gold.Chemscore.DEInternal.Weighted>
2.3292

> <Gold.Chemscore.Rot.Weighted>
3.6786

> <Gold.Chemscore.Internal.Correction.Weighted>
   9.000000E+99

> <Gold.Protein.RotatedTorsions>
[ 6907 6896 6895 6894 ] final -130.16 input  -60.11 | X-H torsion
[ 7974 7965 7964 7962 ] final -170.49 input  175.53 | X-H torsion
[ 8008 7997 7996 7995 ] final -122.40 input   59.86 | X-H torsion
[ 10167 10162 10161 10158 ] final  -81.64 input  -65.29 | X-H torsion
[ 10718 10713 10712 10709 ] final  172.56 input   66.30 | X-H torsion
[ 10763 10752 10751 10750 ] final  -32.96 input  -60.55 | X-H torsion
[ 11005 11000 10999 10996 ] final   47.13 input  -57.11 | X-H torsion

> <Gold.Protein.ActiveResidues>
 VAL166  LYS551  ARG553  GLY616  TRP617  ASP618  TYR619  PRO620  LYS621  CYS622 
 ASP623  PHE694  ASN695  SER759  ASP760  ASP761  ALA762  ILE779  LEU786  VAL792 
 PHE793  MET794  SER795  GLU796  ALA797  LYS798  CYS799  TRP800  GLU811  SER814 

> <Gold.Protein.RotatedAtoms>
  150.9367  133.6703  159.2798 H   0  0  0  0  0  0  0  0  0  0  0  0  # atno 6907 bound_to 6896
  151.4107  135.0983  159.9594 H   0  0  0  0  0  0  0  0  0  0  0  0  # atno 6908 bound_to 6896
  152.5051  133.8841  159.7416 H   0  0  0  0  0  0  0  0  0  0  0  0  # atno 6909 bound_to 6896
  144.7169  140.2064  143.6332 H   0  0  0  0  0  0  0  0  0  0  0  0  # atno 7974 bound_to 7965
  155.1636  140.0406  157.2848 H   0  0  0  0  0  0  0  0  0  0  0  0  # atno 8008 bound_to 7997
  154.6319  140.2526  155.7397 H   0  0  0  0  0  0  0  0  0  0  0  0  # atno 8009 bound_to 7997
  156.2489  140.2873  156.0674 H   0  0  0  0  0  0  0  0  0  0  0  0  # atno 8010 bound_to 7997
  140.4393  143.2520  151.8648 H   0  0  0  0  0  0  0  0  0  0  0  0  # atno 10167 bound_to 10162
  156.9771  131.0107  151.2891 H   0  0  0  0  0  0  0  0  0  0  0  0  # atno 10718 bound_to 10713
  153.8223  135.6873  153.4825 H   0  0  0  0  0  0  0  0  0  0  0  0  # atno 10763 bound_to 10752
  153.1561  135.4598  154.9705 H   0  0  0  0  0  0  0  0  0  0  0  0  # atno 10764 bound_to 10752
  154.7922  135.3306  154.7694 H   0  0  0  0  0  0  0  0  0  0  0  0  # atno 10765 bound_to 10752
  140.1307  134.4710  155.8524 H   0  0  0  0  0  0  0  0  0  0  0  0  # atno 11005 bound_to 11000
  145.8632  139.2233  143.1704 LP  0  0  0  0  0  0  0  0  0  0  0  0  # atno 17320 bound_to 7965
  146.0154  140.8397  142.9950 LP  0  0  0  0  0  0  0  0  0  0  0  0  # atno 17321 bound_to 7965
  139.4788  144.5246  151.8752 LP  0  0  0  0  0  0  0  0  0  0  0  0  # atno 17342 bound_to 10162
  140.4336  144.2082  150.5888 LP  0  0  0  0  0  0  0  0  0  0  0  0  # atno 17343 bound_to 10162
  157.5552  130.8209  149.8195 LP  0  0  0  0  0  0  0  0  0  0  0  0  # atno 17370 bound_to 10713
  156.0259  130.3779  150.1824 LP  0  0  0  0  0  0  0  0  0  0  0  0  # atno 17371 bound_to 10713
  141.2169  133.6794  156.7063 LP  0  0  0  0  0  0  0  0  0  0  0  0  # atno 17394 bound_to 11000
  140.2846  134.8289  157.3964 LP  0  0  0  0  0  0  0  0  0  0  0  0  # atno 17395 bound_to 11000

$$$$
