AV-unprocessed.smi:3078|AV-procd|sdf|11733|dock2
  -GOLD-   2272017133D 1   1.00000     0.00000
 Structure written by MMmdl.
 23 23  0  0  0  0  0  0  0  0  2 V2000
  142.5064  138.1610  154.2643 C   0  0  0  0  0  0  0  0  0  0  0  0
  142.8950  136.9760  153.5299 N   0  0  0  0  0  0  0  0  0  0  0  0
  143.6538  136.8848  152.3834 C   0  0  0  0  0  0  0  0  0  0  0  0
  143.7470  135.5599  152.0542 C   0  0  0  0  0  0  0  0  0  0  0  0
  144.4576  134.9084  150.8936 C   0  0  2  0  0  0  0  0  0  0  0  0
  143.9373  135.4538  149.6292 N   0  3  0  0  0  0  0  0  0  0  0  0
  144.3375  133.3725  150.9021 C   0  0  0  0  0  0  0  0  0  0  0  0
  142.9717  132.9586  150.6417 N   0  0  0  0  0  0  0  0  0  0  0  0
  142.9993  134.9159  153.0820 C   0  0  0  0  0  0  0  0  0  0  0  0
  142.4935  135.7637  153.9621 N   0  0  0  0  0  0  0  0  0  0  0  0
  143.0709  139.0234  153.9085 H   0  0  0  0  0  0  0  0  0  0  0  0
  142.7059  138.0225  155.3275 H   0  0  0  0  0  0  0  0  0  0  0  0
  141.4421  138.3493  154.1204 H   0  0  0  0  0  0  0  0  0  0  0  0
  144.0568  137.7623  151.8992 H   0  0  0  0  0  0  0  0  0  0  0  0
  145.5175  135.1663  150.9166 H   0  0  0  0  0  0  0  0  0  0  0  0
  144.0296  136.4595  149.6340 H   0  0  0  0  0  0  0  0  0  0  0  0
  142.9634  135.2060  149.5313 H   0  0  0  0  0  0  0  0  0  0  0  0
  145.0008  132.9217  150.1633 H   0  0  0  0  0  0  0  0  0  0  0  0
  144.6273  132.9783  151.8766 H   0  0  0  0  0  0  0  0  0  0  0  0
  142.5761  132.5364  151.4700 H   0  0  0  0  0  0  0  0  0  0  0  0
  142.3995  133.7636  150.4285 H   0  0  0  0  0  0  0  0  0  0  0  0
  142.8096  133.8606  153.2131 H   0  0  0  0  0  0  0  0  0  0  0  0
  144.4619  135.0712  148.8557 H   0  0  0  0  0  0  0  0  0  0  0  0
  1  2  1  0  0  0  0
  1 11  1  0  0  0  0
  1 12  1  0  0  0  0
  1 13  1  0  0  0  0
  2 10  1  0  0  0  0
  2  3  1  0  0  0  0
  3  4  2  0  0  0  0
  3 14  1  0  0  0  0
  4  5  1  0  0  0  0
  4  9  1  0  0  0  0
  5  6  1  0  0  0  0
  5  7  1  0  0  0  0
  5 15  1  0  0  0  0
  6 16  1  0  0  0  0
  6 17  1  0  0  0  0
  6 23  1  0  0  0  0
  7  8  1  0  0  0  0
  7 18  1  0  0  0  0
  7 19  1  0  0  0  0
  8 20  1  0  0  0  0
  8 21  1  0  0  0  0
  9 10  2  0  0  0  0
  9 22  1  0  0  0  0
M  CHG  1   6   1
M  END
> <s_m_source_file>
AV-unprocessed.smi

> <i_m_source_file_index>
3078

> <i_lp_mmshare_version>
43012

> <i_f3d_flags>
0

> <s_epik_input>
W0NIM11uMVtjSF1jKFtjSF1uMSlbQ0BIXShbTkgyXSlbQ0gyXVtOSDJd

> <s_epik_cmdline>
J2VwaWtfcHl0aG9uJywgJy1waCcsICc3LjAnLCAnLXRuJywgJzgnLCAnLW1hJywgJzIwMCcsICctbWV0YWxfYmluZGluZycsICctaW1hZScsICc8aW5maWxlLm1hZT4nLCAnLW9tYWUnLCAnPG91dGZpbGUubWFlPic=

> <r_epik_Ionization_Penalty>
0.19937

> <r_epik_Ionization_Penalty_Charging>
0.0290541

> <r_epik_Ionization_Penalty_Neutral>
0.170316

> <r_epik_State_Penalty>
1.07715

> <r_epik_Charging_Adjusted_Penalty>
1.1062

> <i_epik_Tot_Q>
1

> <i_epik_Tot_abs_Q>
1

> <r_epik_Metal_State_Penalty>
1.07718

> <b_epik_Metal_Only>
0

> <s_lp_Force_Field>
OPLS_2005

> <r_lp_Energy>
0.880803

> <b_lp_Chiralities_Consistent>
1

> <s_lp_Variant>
AV-unprocessed.smi:3078-3

> <Gold.Version>
5.8.1

> <Gold.Id.Protein>
6NUR|6NUR_protein|mol2

> <Gold.PLP.Fitness>
36.5676

> <Gold.PLP.PLP>
-15.7413

> <Gold.PLP.part.hbond>
-3.5950

> <Gold.PLP.part.metal>
0.0000

> <Gold.PLP.part.buried>
-1.8228

> <Gold.PLP.part.nonpolar>
-11.8257

> <Gold.PLP.part.repulsive>
0.2197

> <Gold.PLP.ligand.clash>
0.0000

> <Gold.PLP.ligand.torsion>
0.0297

> <Gold.PLP.Chemscore.Hbond>
4.4938

> <Gold.PLP.Chemscore.CHOScore>
2.4637

> <Gold.PLP.Chemscore.Metal>
0.0000

> <Gold.Chemscore.Hbonds>
donor molecule, donor type, donor heavy atom, donor atom, acceptor molecule, acceptor atom, score
      L1  H     6    16       P1 10171  0.81
      L1  H     6    17       P1 10186  1.72
      L1  H     6    23       P1  7921  0.88
      L1  H     8    21       P1 10186  0.96
      L1  C     3    14       P1 10171  1.00
      L1  C     3    14       P1 10175  0.44
      L1  C     9    22       P1 10957  0.79

> <Gold.PLP.Chemscore.Internal.Correction>
0.0134

> <Gold.Rescore>
     Score         DG    S(hbond)    S(metal)    S(lipo)     H(rot)  DE(clash)    DE(int)     intcor
     16.18     -16.36       3.32        0.00      28.81       1.40       0.16       0.02       ----

> <Gold.Chemscore.Fitness>
16.1770

> <Gold.Chemscore.DG>
-16.3601

> <Gold.Chemscore.ZeroCoef>
-5.4800

> <Gold.Chemscore.Hbond>
3.3249

> <Gold.Chemscore.Metal>
0.0000

> <Gold.Chemscore.Lipo>
28.8078

> <Gold.Chemscore.Internal_Hbond>
0.0000

> <Gold.Chemscore.DEClash>
0.1596

> <Gold.Chemscore.DEInternal>
0.0235

> <Gold.Chemscore.Rot>
1.4045

> <Gold.Chemscore.Internal.Correction>
   9.000000E+99

> <Gold.Chemscore.Hbonds>
donor molecule, donor type, donor heavy atom, donor atom, acceptor molecule, acceptor atom, score
      L1  H     6    16       P1 10171  0.80
      L1  H     6    17       P1 10186  0.38
      L1  H     6    23       P1  7921  0.84
      L1  H     8    21       P1 10186  0.89

> <Gold.Chemscore.Hbond.Weighted>
-11.1052

> <Gold.Chemscore.Metal.Weighted>
-0.0000

> <Gold.Chemscore.Lipo.Weighted>
-3.3705

> <Gold.Chemscore.Internal_Hbond.Weighted>
0.0000

> <Gold.Chemscore.DEClash.Weighted>
0.1596

> <Gold.Chemscore.DEInternal.Weighted>
0.0235

> <Gold.Chemscore.Rot.Weighted>
3.5956

> <Gold.Chemscore.Internal.Correction.Weighted>
   9.000000E+99

> <Gold.Protein.RotatedTorsions>
[ 6907 6896 6895 6894 ] final -177.47 input  -60.11 | X-H torsion
[ 7974 7965 7964 7962 ] final  115.93 input  175.53 | X-H torsion
[ 8008 7997 7996 7995 ] final  -89.14 input   59.86 | X-H torsion
[ 10167 10162 10161 10158 ] final  154.05 input  -65.29 | X-H torsion
[ 10718 10713 10712 10709 ] final -138.27 input   66.30 | X-H torsion
[ 10763 10752 10751 10750 ] final -162.95 input  -60.55 | X-H torsion
[ 11005 11000 10999 10996 ] final  115.85 input  -57.11 | X-H torsion

> <Gold.Protein.ActiveResidues>
 VAL166  LYS551  ARG553  GLY616  TRP617  ASP618  TYR619  PRO620  LYS621  CYS622 
 ASP623  PHE694  ASN695  SER759  ASP760  ASP761  ALA762  ILE779  LEU786  VAL792 
 PHE793  MET794  SER795  GLU796  ALA797  LYS798  CYS799  TRP800  GLU811  SER814 

> <Gold.Protein.RotatedAtoms>
  151.6216  133.3339  159.3088 H   0  0  0  0  0  0  0  0  0  0  0  0  # atno 6907 bound_to 6896
  150.8103  134.7257  159.6693 H   0  0  0  0  0  0  0  0  0  0  0  0  # atno 6908 bound_to 6896
  152.4199  134.5978  160.0043 H   0  0  0  0  0  0  0  0  0  0  0  0  # atno 6909 bound_to 6896
  145.1858  139.3026  143.4394 H   0  0  0  0  0  0  0  0  0  0  0  0  # atno 7974 bound_to 7965
  154.6831  140.0545  157.0287 H   0  0  0  0  0  0  0  0  0  0  0  0  # atno 8008 bound_to 7997
  155.0923  140.3220  155.4551 H   0  0  0  0  0  0  0  0  0  0  0  0  # atno 8009 bound_to 7997
  156.2701  140.2046  156.6050 H   0  0  0  0  0  0  0  0  0  0  0  0  # atno 8010 bound_to 7997
  139.4824  144.5220  151.7861 H   0  0  0  0  0  0  0  0  0  0  0  0  # atno 10167 bound_to 10162
  156.2975  130.7410  151.1453 H   0  0  0  0  0  0  0  0  0  0  0  0  # atno 10718 bound_to 10713
  154.7167  135.3017  154.9112 H   0  0  0  0  0  0  0  0  0  0  0  0  # atno 10763 bound_to 10752
  153.9997  135.6708  153.4762 H   0  0  0  0  0  0  0  0  0  0  0  0  # atno 10764 bound_to 10752
  153.0799  135.5014  154.8398 H   0  0  0  0  0  0  0  0  0  0  0  0  # atno 10765 bound_to 10752
  139.9023  134.9590  156.7108 H   0  0  0  0  0  0  0  0  0  0  0  0  # atno 11005 bound_to 11000
  146.3445  140.2054  142.8589 LP  0  0  0  0  0  0  0  0  0  0  0  0  # atno 17320 bound_to 7965
  145.0090  140.8698  143.5235 LP  0  0  0  0  0  0  0  0  0  0  0  0  # atno 17321 bound_to 7965
  140.4735  144.1552  150.5921 LP  0  0  0  0  0  0  0  0  0  0  0  0  # atno 17342 bound_to 10162
  140.4356  143.2549  151.9539 LP  0  0  0  0  0  0  0  0  0  0  0  0  # atno 17343 bound_to 10162
  157.7359  131.0567  150.5443 LP  0  0  0  0  0  0  0  0  0  0  0  0  # atno 17370 bound_to 10713
  156.5567  130.4245  149.6082 LP  0  0  0  0  0  0  0  0  0  0  0  0  # atno 17371 bound_to 10713
  140.7077  133.9251  155.8064 LP  0  0  0  0  0  0  0  0  0  0  0  0  # atno 17394 bound_to 11000
  141.0324  134.0737  157.3999 LP  0  0  0  0  0  0  0  0  0  0  0  0  # atno 17395 bound_to 11000

$$$$
