AV-unprocessed.smi:1527|AV-procd|sdf|6148|dock1
  -GOLD-   22720 6293D 1   1.00000     0.00000
 Structure written by MMmdl.
 30 30  0  0  0  0  0  0  0  0  2 V2000
  152.5523  144.7445  157.9409 C   0  0  0  0  0  0  0  0  0  0  0  0
  152.5744  144.1220  159.3445 C   0  0  0  0  0  0  0  0  0  0  0  0
  152.7867  142.5961  159.3425 C   0  0  1  0  0  0  0  0  0  0  0  0
  152.7803  142.0191  160.7651 C   0  0  0  0  0  0  0  0  0  0  0  0
  151.7493  141.9385  158.5499 N   0  0  0  0  0  0  0  0  0  0  0  0
  151.8521  140.7432  157.9476 C   0  0  0  0  0  0  0  0  0  0  0  0
  152.8662  140.0452  157.9980 O   0  0  0  0  0  0  0  0  0  0  0  0
  150.6054  140.2887  157.1718 C   0  0  0  0  0  0  0  0  0  0  0  0
  150.6923  138.9234  156.6330 N   0  0  0  0  0  0  0  0  0  0  0  0
  150.5290  137.8809  157.6425 N   0  5  0  0  0  0  0  0  0  0  0  0
  150.5672  136.5770  157.2603 C   0  0  0  0  0  0  0  0  0  0  0  0
  150.4213  135.6468  158.0498 O   0  0  0  0  0  0  0  0  0  0  0  0
  150.7951  136.2819  155.8553 C   0  0  0  0  0  0  0  0  0  0  0  0
  150.9669  137.2644  154.9490 C   0  0  0  0  0  0  0  0  0  0  0  0
  150.9301  138.6757  155.3129 C   0  0  0  0  0  0  0  0  0  0  0  0
  151.0964  139.5785  154.4924 O   0  0  0  0  0  0  0  0  0  0  0  0
  152.4513  145.8282  157.9997 H   0  0  0  0  0  0  0  0  0  0  0  0
  151.7180  144.3686  157.3479 H   0  0  0  0  0  0  0  0  0  0  0  0
  153.4730  144.5252  157.3995 H   0  0  0  0  0  0  0  0  0  0  0  0
  153.3733  144.5922  159.9190 H   0  0  0  0  0  0  0  0  0  0  0  0
  151.6454  144.3659  159.8615 H   0  0  0  0  0  0  0  0  0  0  0  0
  153.7709  142.3996  158.9139 H   0  0  0  0  0  0  0  0  0  0  0  0
  153.5608  142.4734  161.3760 H   0  0  0  0  0  0  0  0  0  0  0  0
  152.9575  140.9431  160.7526 H   0  0  0  0  0  0  0  0  0  0  0  0
  151.8250  142.1942  161.2614 H   0  0  0  0  0  0  0  0  0  0  0  0
  150.8783  142.4379  158.4446 H   0  0  0  0  0  0  0  0  0  0  0  0
  149.7357  140.3714  157.8259 H   0  0  0  0  0  0  0  0  0  0  0  0
  150.4297  141.0007  156.3631 H   0  0  0  0  0  0  0  0  0  0  0  0
  150.8296  135.2519  155.5319 H   0  0  0  0  0  0  0  0  0  0  0  0
  151.1345  136.9988  153.9160 H   0  0  0  0  0  0  0  0  0  0  0  0
  1  2  1  0  0  0  0
  1 17  1  0  0  0  0
  1 18  1  0  0  0  0
  1 19  1  0  0  0  0
  2  3  1  0  0  0  0
  2 20  1  0  0  0  0
  2 21  1  0  0  0  0
  3  4  1  0  0  0  0
  3  5  1  0  0  0  0
  3 22  1  0  0  0  0
  4 23  1  0  0  0  0
  4 24  1  0  0  0  0
  4 25  1  0  0  0  0
  5  6  1  0  0  0  0
  5 26  1  0  0  0  0
  6  7  2  0  0  0  0
  6  8  1  0  0  0  0
  8 27  1  0  0  0  0
  8 28  1  0  0  0  0
  8  9  1  0  0  0  0
  9 10  1  0  0  0  0
  9 15  1  0  0  0  0
 10 11  1  0  0  0  0
 11 12  2  0  0  0  0
 11 13  1  0  0  0  0
 13 29  1  0  0  0  0
 13 14  2  0  0  0  0
 14 30  1  0  0  0  0
 14 15  1  0  0  0  0
 15 16  2  0  0  0  0
M  CHG  1  10  -1
M  END
> <s_m_source_file>
AV-unprocessed.smi

> <i_m_source_file_index>
1527

> <i_lp_mmshare_version>
43012

> <i_f3d_flags>
0

> <s_epik_input>
W0NIM11bQ0gyXVtDQEhdKFtDSDNdKVtOSF1DKD1PKVtDSDJdbjFbbkhdYyg9TylbY0hdW2NIXWMxPU8=

> <s_epik_cmdline>
J2VwaWtfcHl0aG9uJywgJy1waCcsICc3LjAnLCAnLXRuJywgJzgnLCAnLW1hJywgJzIwMCcsICctbWV0YWxfYmluZGluZycsICctaW1hZScsICc8aW5maWxlLm1hZT4nLCAnLW9tYWUnLCAnPG91dGZpbGUubWFlPic=

> <r_lp_tautomer_probability>
1

> <r_epik_Ionization_Penalty>
0.0984334

> <r_epik_Ionization_Penalty_Charging>
0.0984334

> <r_epik_Ionization_Penalty_Neutral>
1.93017e-08

> <r_epik_State_Penalty>
0.0346952

> <r_epik_Charging_Adjusted_Penalty>
0.133129

> <i_epik_Tot_Q>
-1

> <i_epik_Tot_abs_Q>
1

> <r_epik_Metal_State_Penalty>
0.0346952

> <b_epik_Metal_Only>
0

> <s_lp_Force_Field>
OPLS_2005

> <r_lp_Energy>
18.954

> <b_lp_Chiralities_Consistent>
1

> <s_lp_Variant>
AV-unprocessed.smi:1527-2

> <Gold.Version>
5.8.1

> <Gold.Id.Protein>
6NUR|6NUR_protein|mol2

> <Gold.PLP.Fitness>
37.6853

> <Gold.PLP.PLP>
-30.7243

> <Gold.PLP.part.hbond>
-3.0000

> <Gold.PLP.part.metal>
0.0000

> <Gold.PLP.part.buried>
-4.1326

> <Gold.PLP.part.nonpolar>
-23.8841

> <Gold.PLP.part.repulsive>
0.1924

> <Gold.PLP.ligand.clash>
0.0000

> <Gold.PLP.ligand.torsion>
0.5629

> <Gold.PLP.Chemscore.Hbond>
2.6880

> <Gold.PLP.Chemscore.CHOScore>
0.0000

> <Gold.PLP.Chemscore.Metal>
0.0000

> <Gold.Chemscore.Hbonds>
donor molecule, donor type, donor heavy atom, donor atom, acceptor molecule, acceptor atom, score
      P1  H  6896  6908       L1    12  0.69
      P1  H  7989  7998       L1    16  1.00
      P1  H  7997  8009       L1     7  1.00

> <Gold.PLP.Chemscore.Internal.Correction>
0.0228

> <Gold.Rescore>
     Score         DG    S(hbond)    S(metal)    S(lipo)     H(rot)  DE(clash)    DE(int)     intcor
     17.18     -17.96       2.92        0.00      65.89       1.94       0.07       0.71       ----

> <Gold.Chemscore.Fitness>
17.1761

> <Gold.Chemscore.DG>
-17.9641

> <Gold.Chemscore.ZeroCoef>
-5.4800

> <Gold.Chemscore.Hbond>
2.9204

> <Gold.Chemscore.Metal>
0.0000

> <Gold.Chemscore.Lipo>
65.8904

> <Gold.Chemscore.Internal_Hbond>
0.0000

> <Gold.Chemscore.DEClash>
0.0742

> <Gold.Chemscore.DEInternal>
0.7138

> <Gold.Chemscore.Rot>
1.9449

> <Gold.Chemscore.Internal.Correction>
   9.000000E+99

> <Gold.Chemscore.Hbonds>
donor molecule, donor type, donor heavy atom, donor atom, acceptor molecule, acceptor atom, score
      P1  H  6896  6908       L1    12  0.70
      P1  H  7989  7998       L1    16  1.00
      P1  H  7997  8009       L1     7  0.96

> <Gold.Chemscore.Hbond.Weighted>
-9.7540

> <Gold.Chemscore.Metal.Weighted>
-0.0000

> <Gold.Chemscore.Lipo.Weighted>
-7.7092

> <Gold.Chemscore.Internal_Hbond.Weighted>
0.0000

> <Gold.Chemscore.DEClash.Weighted>
0.0742

> <Gold.Chemscore.DEInternal.Weighted>
0.7138

> <Gold.Chemscore.Rot.Weighted>
4.9791

> <Gold.Chemscore.Internal.Correction.Weighted>
   9.000000E+99

> <Gold.Protein.RotatedTorsions>
[ 6907 6896 6895 6894 ] final  177.43 input  -60.11 | X-H torsion
[ 7974 7965 7964 7962 ] final -177.95 input  175.53 | X-H torsion
[ 8008 7997 7996 7995 ] final  163.96 input   59.86 | X-H torsion
[ 10167 10162 10161 10158 ] final  164.62 input  -65.29 | X-H torsion
[ 10718 10713 10712 10709 ] final   -9.66 input   66.30 | X-H torsion
[ 10763 10752 10751 10750 ] final -160.63 input  -60.55 | X-H torsion
[ 11005 11000 10999 10996 ] final  152.22 input  -57.11 | X-H torsion

> <Gold.Protein.ActiveResidues>
 VAL166  LYS551  ARG553  GLY616  TRP617  ASP618  TYR619  PRO620  LYS621  CYS622 
 ASP623  PHE694  ASN695  SER759  ASP760  ASP761  ALA762  ILE779  LEU786  VAL792 
 PHE793  MET794  SER795  GLU796  ALA797  LYS798  CYS799  TRP800  GLU811  SER814 

> <Gold.Protein.RotatedAtoms>
  151.7042  133.3311  159.3273 H   0  0  0  0  0  0  0  0  0  0  0  0  # atno 6907 bound_to 6896
  150.7722  134.6589  159.6338 H   0  0  0  0  0  0  0  0  0  0  0  0  # atno 6908 bound_to 6896
  152.3751  134.6678  160.0214 H   0  0  0  0  0  0  0  0  0  0  0  0  # atno 6909 bound_to 6896
  144.7129  140.0942  143.6420 H   0  0  0  0  0  0  0  0  0  0  0  0  # atno 7974 bound_to 7965
  156.1917  140.1709  156.8079 H   0  0  0  0  0  0  0  0  0  0  0  0  # atno 8008 bound_to 7997
  154.5479  140.0723  156.8651 H   0  0  0  0  0  0  0  0  0  0  0  0  # atno 8009 bound_to 7997
  155.3085  140.3366  155.4247 H   0  0  0  0  0  0  0  0  0  0  0  0  # atno 8010 bound_to 7997
  139.4892  144.4216  151.9180 H   0  0  0  0  0  0  0  0  0  0  0  0  # atno 10167 bound_to 10162
  156.6848  130.5047  149.5960 H   0  0  0  0  0  0  0  0  0  0  0  0  # atno 10718 bound_to 10713
  154.7373  135.3060  154.8789 H   0  0  0  0  0  0  0  0  0  0  0  0  # atno 10763 bound_to 10752
  153.9614  135.6752  153.4749 H   0  0  0  0  0  0  0  0  0  0  0  0  # atno 10764 bound_to 10752
  153.0975  135.4928  154.8729 H   0  0  0  0  0  0  0  0  0  0  0  0  # atno 10765 bound_to 10752
  140.1288  134.8815  157.2175 H   0  0  0  0  0  0  0  0  0  0  0  0  # atno 11005 bound_to 11000
  145.9594  139.2789  143.1165 LP  0  0  0  0  0  0  0  0  0  0  0  0  # atno 17320 bound_to 7965
  145.9237  140.9097  143.0392 LP  0  0  0  0  0  0  0  0  0  0  0  0  # atno 17321 bound_to 7965
  140.3660  144.2914  150.5926 LP  0  0  0  0  0  0  0  0  0  0  0  0  # atno 17342 bound_to 10162
  140.5361  143.2233  151.8161 LP  0  0  0  0  0  0  0  0  0  0  0  0  # atno 17343 bound_to 10162
  156.1841  130.6518  151.0985 LP  0  0  0  0  0  0  0  0  0  0  0  0  # atno 17370 bound_to 10713
  157.7030  131.0768  150.6758 LP  0  0  0  0  0  0  0  0  0  0  0  0  # atno 17371 bound_to 10713
  140.2868  134.3286  155.7326 LP  0  0  0  0  0  0  0  0  0  0  0  0  # atno 17394 bound_to 11000
  141.2166  133.7511  156.9445 LP  0  0  0  0  0  0  0  0  0  0  0  0  # atno 17395 bound_to 11000

$$$$
