AV-unprocessed.smi:1225|AV-procd|sdf|5142|dock4
  -GOLD-   22720 4213D 1   1.00000     0.00000
 Structure written by MMmdl.
 49 51  0  0  0  0  0  0  0  0  2 V2000
  145.4314  133.9899  153.9078 C   0  0  0  0  0  0  0  0  0  0  0  0
  145.6157  135.3953  153.4469 C   0  0  0  0  0  0  0  0  0  0  0  0
  144.7260  136.0504  152.6979 N   0  0  0  0  0  0  0  0  0  0  0  0
  145.1352  137.3510  152.3976 C   0  0  0  0  0  0  0  0  0  0  0  0
  146.3514  137.6891  152.9382 C   0  0  0  0  0  0  0  0  0  0  0  0
  147.0690  138.9935  152.8102 C   0  0  0  0  0  0  0  0  0  0  0  0
  146.4443  140.0599  153.6346 N   0  3  1  0  0  0  0  0  0  0  0  0
  145.9091  139.5462  154.9173 C   0  0  0  0  0  0  0  0  0  0  0  0
  147.3259  141.2385  153.8311 C   0  0  0  0  0  0  0  0  0  0  0  0
  148.7263  140.8411  154.3507 C   0  0  1  0  0  0  0  0  0  0  0  0
  149.6476  140.9105  153.2812 O   0  0  0  0  0  0  0  0  0  0  0  0
  149.2485  141.7501  155.4802 C   0  0  0  0  0  0  0  0  0  0  0  0
  150.3029  141.1239  156.2564 N   0  0  0  0  0  0  0  0  0  0  0  0
  150.8494  139.9105  156.0480 C   0  0  0  0  0  0  0  0  0  0  0  0
  151.8045  139.5212  156.8871 N   0  0  0  0  0  0  0  0  0  0  0  0
  151.8947  140.6124  157.7342 C   0  0  0  0  0  0  0  0  0  0  0  0
  152.7271  140.8393  158.8518 C   0  0  0  0  0  0  0  0  0  0  0  0
  152.6464  142.0460  159.5826 C   0  0  0  0  0  0  0  0  0  0  0  0
  153.5622  142.2484  160.7770 C   0  0  0  0  0  0  0  0  0  0  0  0
  151.7209  143.0492  159.1980 C   0  0  0  0  0  0  0  0  0  0  0  0
  151.6192  144.3550  159.9664 C   0  0  0  0  0  0  0  0  0  0  0  0
  150.8799  142.8379  158.0855 C   0  0  0  0  0  0  0  0  0  0  0  0
  150.9705  141.6333  157.3654 C   0  0  0  0  0  0  0  0  0  0  0  0
  147.0360  136.3580  153.8359 S   0  0  0  0  0  0  0  0  0  0  0  0
  144.4219  133.6411  153.6868 H   0  0  0  0  0  0  0  0  0  0  0  0
  145.5943  133.9255  154.9837 H   0  0  0  0  0  0  0  0  0  0  0  0
  146.1451  133.3372  153.4053 H   0  0  0  0  0  0  0  0  0  0  0  0
  144.4931  137.9742  151.7928 H   0  0  0  0  0  0  0  0  0  0  0  0
  148.1185  138.8830  153.0874 H   0  0  0  0  0  0  0  0  0  0  0  0
  147.0692  139.2780  151.7586 H   0  0  0  0  0  0  0  0  0  0  0  0
  146.7120  139.1681  155.5513 H   0  0  0  0  0  0  0  0  0  0  0  0
  145.1944  138.7399  154.7535 H   0  0  0  0  0  0  0  0  0  0  0  0
  145.3861  140.3334  155.4610 H   0  0  0  0  0  0  0  0  0  0  0  0
  147.4491  141.7764  152.8896 H   0  0  0  0  0  0  0  0  0  0  0  0
  146.8305  141.9321  154.5120 H   0  0  0  0  0  0  0  0  0  0  0  0
  148.7190  139.8139  154.7139 H   0  0  0  0  0  0  0  0  0  0  0  0
  149.3432  140.3532  152.5807 H   0  0  0  0  0  0  0  0  0  0  0  0
  149.6382  142.6816  155.0669 H   0  0  0  0  0  0  0  0  0  0  0  0
  148.4370  142.0255  156.1548 H   0  0  0  0  0  0  0  0  0  0  0  0
  150.5239  139.2751  155.2370 H   0  0  0  0  0  0  0  0  0  0  0  0
  153.4328  140.0756  159.1440 H   0  0  0  0  0  0  0  0  0  0  0  0
  154.2109  143.1103  160.6194 H   0  0  0  0  0  0  0  0  0  0  0  0
  154.1973  141.3782  160.9443 H   0  0  0  0  0  0  0  0  0  0  0  0
  152.9787  142.4146  161.6830 H   0  0  0  0  0  0  0  0  0  0  0  0
  150.8749  145.0192  159.5269 H   0  0  0  0  0  0  0  0  0  0  0  0
  152.5763  144.8770  159.9617 H   0  0  0  0  0  0  0  0  0  0  0  0
  151.3320  144.1677  161.0011 H   0  0  0  0  0  0  0  0  0  0  0  0
  150.1711  143.5946  157.7838 H   0  0  0  0  0  0  0  0  0  0  0  0
  145.6484  140.4006  153.1138 H   0  0  0  0  0  0  0  0  0  0  0  0
  1  2  1  0  0  0  0
  1 25  1  0  0  0  0
  1 26  1  0  0  0  0
  1 27  1  0  0  0  0
  2 24  1  0  0  0  0
  2  3  2  0  0  0  0
  3  4  1  0  0  0  0
  4  5  2  0  0  0  0
  4 28  1  0  0  0  0
  5  6  1  0  0  0  0
  5 24  1  0  0  0  0
  6  7  1  0  0  0  0
  6 29  1  0  0  0  0
  6 30  1  0  0  0  0
  7  8  1  0  0  0  0
  7  9  1  0  0  0  0
  7 49  1  0  0  0  0
  8 31  1  0  0  0  0
  8 32  1  0  0  0  0
  8 33  1  0  0  0  0
  9 10  1  0  0  0  0
  9 34  1  0  0  0  0
  9 35  1  0  0  0  0
 10 11  1  0  0  0  0
 10 12  1  0  0  0  0
 10 36  1  0  0  0  0
 11 37  1  0  0  0  0
 12 13  1  0  0  0  0
 12 38  1  0  0  0  0
 12 39  1  0  0  0  0
 13 23  1  0  0  0  0
 13 14  1  0  0  0  0
 14 15  2  0  0  0  0
 14 40  1  0  0  0  0
 15 16  1  0  0  0  0
 16 23  2  0  0  0  0
 16 17  1  0  0  0  0
 17 18  2  0  0  0  0
 17 41  1  0  0  0  0
 18 19  1  0  0  0  0
 18 20  1  0  0  0  0
 19 42  1  0  0  0  0
 19 43  1  0  0  0  0
 19 44  1  0  0  0  0
 20 21  1  0  0  0  0
 20 22  2  0  0  0  0
 21 45  1  0  0  0  0
 21 46  1  0  0  0  0
 21 47  1  0  0  0  0
 22 23  1  0  0  0  0
 22 48  1  0  0  0  0
M  CHG  1   7   1
M  END
> <s_m_source_file>
AV-unprocessed.smi

> <i_m_source_file_index>
1225

> <i_lp_mmshare_version>
43012

> <i_f3d_flags>
0

> <s_epik_input>
W0NIM11jMW5bY0hdYyhzMSlbQ0gyXU4oW0NIM10pW0NIMl1bQ0BIXShbT0hdKVtDSDJdbihbY0hdbjIpYyhjMjMpW2NIXWMoW0NIM10pYyhbY0hdMylbQ0gzXQ==

> <s_epik_cmdline>
J2VwaWtfcHl0aG9uJywgJy1waCcsICc3LjAnLCAnLXRuJywgJzgnLCAnLW1hJywgJzIwMCcsICctbWV0YWxfYmluZGluZycsICctaW1hZScsICc8aW5maWxlLm1hZT4nLCAnLW9tYWUnLCAnPG91dGZpbGUubWFlPic=

> <r_epik_Ionization_Penalty>
1.62543

> <r_epik_Ionization_Penalty_Charging>
1.53932

> <r_epik_Ionization_Penalty_Neutral>
0.0861152

> <r_epik_State_Penalty>
1.73127

> <r_epik_Charging_Adjusted_Penalty>
3.27059

> <i_epik_Tot_Q>
1

> <i_epik_Tot_abs_Q>
1

> <r_epik_Metal_State_Penalty>
1.71387

> <b_epik_Metal_Only>
0

> <s_lp_Force_Field>
OPLS_2005

> <r_lp_Energy>
12.5973

> <b_lp_Chiralities_Consistent>
1

> <s_lp_Variant>
AV-unprocessed.smi:1225-7

> <Gold.Version>
5.8.1

> <Gold.Id.Protein>
6NUR|6NUR_protein|mol2

> <Gold.PLP.Fitness>
57.5475

> <Gold.PLP.PLP>
-42.1622

> <Gold.PLP.part.hbond>
-3.1545

> <Gold.PLP.part.metal>
0.0000

> <Gold.PLP.part.buried>
-2.1078

> <Gold.PLP.part.nonpolar>
-37.3135

> <Gold.PLP.part.repulsive>
0.1015

> <Gold.PLP.ligand.clash>
0.0093

> <Gold.PLP.ligand.torsion>
1.2419

> <Gold.PLP.Chemscore.Hbond>
3.9221

> <Gold.PLP.Chemscore.CHOScore>
1.9365

> <Gold.PLP.Chemscore.Metal>
0.0000

> <Gold.Chemscore.Hbonds>
donor molecule, donor type, donor heavy atom, donor atom, acceptor molecule, acceptor atom, score
      L1  H     7    49       P1 10175  1.82
      L1  H    11    37       P1  7957  0.70
      P1  H  7989  7998       L1    11  0.21
      P1  H  8011  8017       L1    11  0.85
      L1  C     4    28       P1 10171  1.00
      L1  C     4    28       P1 10175  0.57

> <Gold.PLP.Chemscore.Internal.Correction>
0.3027

> <Gold.Rescore>
     Score         DG    S(hbond)    S(metal)    S(lipo)     H(rot)  DE(clash)    DE(int)     intcor
     19.33     -20.61       2.36        0.00     113.92       2.37       0.07       1.22       ----

> <Gold.Chemscore.Fitness>
19.3271

> <Gold.Chemscore.DG>
-20.6090

> <Gold.Chemscore.ZeroCoef>
-5.4800

> <Gold.Chemscore.Hbond>
2.3592

> <Gold.Chemscore.Metal>
0.0000

> <Gold.Chemscore.Lipo>
113.9248

> <Gold.Chemscore.Internal_Hbond>
0.0000

> <Gold.Chemscore.DEClash>
0.0667

> <Gold.Chemscore.DEInternal>
1.2152

> <Gold.Chemscore.Rot>
2.3750

> <Gold.Chemscore.Internal.Correction>
   9.000000E+99

> <Gold.Chemscore.Hbonds>
donor molecule, donor type, donor heavy atom, donor atom, acceptor molecule, acceptor atom, score
      L1  H     7    49       P1 10175  0.83
      L1  H    11    37       P1  7957  0.68
      P1  H  7989  7998       L1    11  0.18
      P1  H  8011  8017       L1    11  0.14

> <Gold.Chemscore.Hbond.Weighted>
-7.8798

> <Gold.Chemscore.Metal.Weighted>
-0.0000

> <Gold.Chemscore.Lipo.Weighted>
-13.3292

> <Gold.Chemscore.Internal_Hbond.Weighted>
0.0000

> <Gold.Chemscore.DEClash.Weighted>
0.0667

> <Gold.Chemscore.DEInternal.Weighted>
1.2152

> <Gold.Chemscore.Rot.Weighted>
6.0800

> <Gold.Chemscore.Internal.Correction.Weighted>
   9.000000E+99

> <Gold.Protein.RotatedTorsions>
[ 6907 6896 6895 6894 ] final  128.22 input  -60.11 | X-H torsion
[ 7974 7965 7964 7962 ] final -139.22 input  175.53 | X-H torsion
[ 8008 7997 7996 7995 ] final  -40.98 input   59.86 | X-H torsion
[ 10167 10162 10161 10158 ] final  -29.36 input  -65.29 | X-H torsion
[ 10718 10713 10712 10709 ] final -171.59 input   66.30 | X-H torsion
[ 10763 10752 10751 10750 ] final  140.87 input  -60.55 | X-H torsion
[ 11005 11000 10999 10996 ] final  108.89 input  -57.11 | X-H torsion

> <Gold.Protein.ActiveResidues>
 VAL166  LYS551  ARG553  GLY616  TRP617  ASP618  TYR619  PRO620  LYS621  CYS622 
 ASP623  PHE694  ASN695  SER759  ASP760  ASP761  ALA762  ILE779  LEU786  VAL792 
 PHE793  MET794  SER795  GLU796  ALA797  LYS798  CYS799  TRP800  GLU811  SER814 

> <Gold.Protein.RotatedAtoms>
  152.3740  133.6456  159.6108 H   0  0  0  0  0  0  0  0  0  0  0  0  # atno 6907 bound_to 6896
  150.7690  133.9224  159.3411 H   0  0  0  0  0  0  0  0  0  0  0  0  # atno 6908 bound_to 6896
  151.7042  135.0926  160.0307 H   0  0  0  0  0  0  0  0  0  0  0  0  # atno 6909 bound_to 6896
  144.8694  140.6344  143.5276 H   0  0  0  0  0  0  0  0  0  0  0  0  # atno 7974 bound_to 7965
  154.4007  140.1511  156.3116 H   0  0  0  0  0  0  0  0  0  0  0  0  # atno 8008 bound_to 7997
  155.8610  140.3453  155.5735 H   0  0  0  0  0  0  0  0  0  0  0  0  # atno 8009 bound_to 7997
  155.7880  140.0852  157.2015 H   0  0  0  0  0  0  0  0  0  0  0  0  # atno 8010 bound_to 7997
  140.7261  143.3934  151.1389 H   0  0  0  0  0  0  0  0  0  0  0  0  # atno 10167 bound_to 10162
  156.7432  130.9350  151.3111 H   0  0  0  0  0  0  0  0  0  0  0  0  # atno 10718 bound_to 10713
  153.9299  135.2991  155.3446 H   0  0  0  0  0  0  0  0  0  0  0  0  # atno 10763 bound_to 10752
  154.7532  135.4970  153.9330 H   0  0  0  0  0  0  0  0  0  0  0  0  # atno 10764 bound_to 10752
  153.1097  135.6756  153.9627 H   0  0  0  0  0  0  0  0  0  0  0  0  # atno 10765 bound_to 10752
  139.8852  134.9443  156.6041 H   0  0  0  0  0  0  0  0  0  0  0  0  # atno 11005 bound_to 11000
  145.4159  139.1572  143.4100 LP  0  0  0  0  0  0  0  0  0  0  0  0  # atno 17320 bound_to 7965
  146.2919  140.4266  142.8736 LP  0  0  0  0  0  0  0  0  0  0  0  0  # atno 17321 bound_to 7965
  139.7543  143.8731  152.3085 LP  0  0  0  0  0  0  0  0  0  0  0  0  # atno 17342 bound_to 10162
  139.8595  144.7124  150.9116 LP  0  0  0  0  0  0  0  0  0  0  0  0  # atno 17343 bound_to 10162
  157.6809  130.9139  150.0266 LP  0  0  0  0  0  0  0  0  0  0  0  0  # atno 17370 bound_to 10713
  156.1451  130.3642  149.9523 LP  0  0  0  0  0  0  0  0  0  0  0  0  # atno 17371 bound_to 10713
  140.7861  133.8620  155.8607 LP  0  0  0  0  0  0  0  0  0  0  0  0  # atno 17394 bound_to 11000
  140.9718  134.1521  157.4570 LP  0  0  0  0  0  0  0  0  0  0  0  0  # atno 17395 bound_to 11000

$$$$
