AV-unprocessed.smi:2774|AV-procd|sdf|10683|dock3
  -GOLD-   2272015123D 1   1.00000     0.00000
 Structure written by MMmdl.
 35 36  0  0  0  0  0  0  0  0  2 V2000
  148.5859  140.5762  153.9717 O   0  0  0  0  0  0  0  0  0  0  0  0
  149.7970  140.8488  154.6487 C   0  0  1  0  0  0  0  0  0  0  0  0
  149.4770  141.6262  155.9378 C   0  0  0  0  0  0  0  0  0  0  0  0
  150.5278  142.6212  156.2437 N   0  3  0  0  0  0  0  0  0  0  0  0
  150.9131  142.7155  157.6693 C   0  0  1  0  0  0  0  0  0  0  0  0
  151.5784  141.3954  158.1057 C   0  0  0  0  0  0  0  0  0  0  0  0
  151.9333  141.3702  159.6018 C   0  0  0  0  0  0  0  0  0  0  0  0
  152.9298  142.4718  159.9863 C   0  0  0  0  0  0  0  0  0  0  0  0
  152.2366  144.1168  159.6719 S   0  0  0  0  0  0  0  0  0  0  0  0
  151.8489  143.9180  157.9114 C   0  0  0  0  0  0  0  0  0  0  0  0
  150.5661  139.5724  154.9501 C   0  0  0  0  0  0  0  0  0  0  0  0
  150.1009  138.3261  154.4806 C   0  0  0  0  0  0  0  0  0  0  0  0
  150.8504  137.1707  154.7807 C   0  0  0  0  0  0  0  0  0  0  0  0
  151.9959  137.1947  155.4948 N   0  0  0  0  0  0  0  0  0  0  0  0
  152.4370  138.3898  155.9417 C   0  0  0  0  0  0  0  0  0  0  0  0
  151.7632  139.6032  155.6979 C   0  0  0  0  0  0  0  0  0  0  0  0
  148.7913  140.2940  153.0927 H   0  0  0  0  0  0  0  0  0  0  0  0
  150.4048  141.4742  153.9929 H   0  0  0  0  0  0  0  0  0  0  0  0
  148.5074  142.1160  155.8481 H   0  0  0  0  0  0  0  0  0  0  0  0
  149.4059  140.9302  156.7749 H   0  0  0  0  0  0  0  0  0  0  0  0
  151.3495  142.3591  155.7185 H   0  0  0  0  0  0  0  0  0  0  0  0
  150.0028  142.8448  158.2570 H   0  0  0  0  0  0  0  0  0  0  0  0
  150.9073  140.5625  157.8919 H   0  0  0  0  0  0  0  0  0  0  0  0
  152.4789  141.2193  157.5156 H   0  0  0  0  0  0  0  0  0  0  0  0
  151.0261  141.4695  160.1992 H   0  0  0  0  0  0  0  0  0  0  0  0
  152.3588  140.3984  159.8540 H   0  0  0  0  0  0  0  0  0  0  0  0
  153.1870  142.3967  161.0431 H   0  0  0  0  0  0  0  0  0  0  0  0
  153.8568  142.3616  159.4227 H   0  0  0  0  0  0  0  0  0  0  0  0
  152.7801  143.7971  157.3564 H   0  0  0  0  0  0  0  0  0  0  0  0
  151.3953  144.8479  157.5704 H   0  0  0  0  0  0  0  0  0  0  0  0
  149.1908  138.2495  153.9040 H   0  0  0  0  0  0  0  0  0  0  0  0
  150.5213  136.2014  154.4363 H   0  0  0  0  0  0  0  0  0  0  0  0
  153.3556  138.3797  156.5096 H   0  0  0  0  0  0  0  0  0  0  0  0
  152.1605  140.5334  156.0769 H   0  0  0  0  0  0  0  0  0  0  0  0
  150.2229  143.5303  155.9256 H   0  0  0  0  0  0  0  0  0  0  0  0
  1  2  1  0  0  0  0
  1 17  1  0  0  0  0
  2  3  1  0  0  0  0
  2 11  1  0  0  0  0
  2 18  1  0  0  0  0
  3  4  1  0  0  0  0
  3 19  1  0  0  0  0
  3 20  1  0  0  0  0
  4  5  1  0  0  0  0
  4 21  1  0  0  0  0
  4 35  1  0  0  0  0
  5 10  1  0  0  0  0
  5  6  1  0  0  0  0
  5 22  1  0  0  0  0
  6  7  1  0  0  0  0
  6 23  1  0  0  0  0
  6 24  1  0  0  0  0
  7  8  1  0  0  0  0
  7 25  1  0  0  0  0
  7 26  1  0  0  0  0
  8  9  1  0  0  0  0
  8 27  1  0  0  0  0
  8 28  1  0  0  0  0
  9 10  1  0  0  0  0
 10 29  1  0  0  0  0
 10 30  1  0  0  0  0
 11 16  1  0  0  0  0
 11 12  2  0  0  0  0
 12 13  1  0  0  0  0
 12 31  1  0  0  0  0
 13 14  2  0  0  0  0
 13 32  1  0  0  0  0
 14 15  1  0  0  0  0
 15 16  2  0  0  0  0
 15 33  1  0  0  0  0
 16 34  1  0  0  0  0
M  CHG  1   4   1
M  END
> <s_m_source_file>
AV-unprocessed.smi

> <i_m_source_file_index>
2774

> <i_lp_mmshare_version>
43012

> <i_f3d_flags>
0

> <s_epik_input>
W2NIXTFbY0hdbltjSF1bY0hdYzFbQ0BIXShbT0hdKVtDSDJdW05IXVtDQEBIXTJbQ0gyXVtDSDJdW0NIMl1TW0NIMl0y

> <s_epik_cmdline>
J2VwaWtfcHl0aG9uJywgJy1waCcsICc3LjAnLCAnLXRuJywgJzgnLCAnLW1hJywgJzIwMCcsICctbWV0YWxfYmluZGluZycsICctaW1hZScsICc8aW5maWxlLm1hZT4nLCAnLW9tYWUnLCAnPG91dGZpbGUubWFlPic=

> <r_epik_Ionization_Penalty>
0.0205977

> <r_epik_Ionization_Penalty_Charging>
0.0185619

> <r_epik_Ionization_Penalty_Neutral>
0.00203589

> <r_epik_State_Penalty>
0.0147768

> <r_epik_Charging_Adjusted_Penalty>
0.0333386

> <i_epik_Tot_Q>
1

> <i_epik_Tot_abs_Q>
1

> <r_epik_Metal_State_Penalty>
0.0152254

> <b_epik_Metal_Only>
0

> <s_lp_Force_Field>
OPLS_2005

> <r_lp_Energy>
9.96731

> <b_lp_Chiralities_Consistent>
1

> <s_lp_Variant>
AV-unprocessed.smi:2774-4

> <Gold.Version>
5.8.1

> <Gold.Id.Protein>
6NUR|6NUR_protein|mol2

> <Gold.PLP.Fitness>
50.0514

> <Gold.PLP.PLP>
-38.3872

> <Gold.PLP.part.hbond>
-3.0000

> <Gold.PLP.part.metal>
0.0000

> <Gold.PLP.part.buried>
0.4730

> <Gold.PLP.part.nonpolar>
-36.1313

> <Gold.PLP.part.repulsive>
0.1743

> <Gold.PLP.ligand.clash>
0.0000

> <Gold.PLP.ligand.torsion>
0.8205

> <Gold.PLP.Chemscore.Hbond>
3.8000

> <Gold.PLP.Chemscore.CHOScore>
0.6284

> <Gold.PLP.Chemscore.Metal>
0.0000

> <Gold.Chemscore.Hbonds>
donor molecule, donor type, donor heavy atom, donor atom, acceptor molecule, acceptor atom, score
      L1  H     1    17       P1  7957  0.80
      L1  H     4    35       P1  8028  2.00
      P1  H 10752 10764       L1    14  0.73

> <Gold.PLP.Chemscore.Internal.Correction>
0.0199

> <Gold.Rescore>
     Score         DG    S(hbond)    S(metal)    S(lipo)     H(rot)  DE(clash)    DE(int)     intcor
     20.40     -21.64       2.51        0.00     109.64       1.97       0.33       0.91       ----

> <Gold.Chemscore.Fitness>
20.4004

> <Gold.Chemscore.DG>
-21.6419

> <Gold.Chemscore.ZeroCoef>
-5.4800

> <Gold.Chemscore.Hbond>
2.5071

> <Gold.Chemscore.Metal>
0.0000

> <Gold.Chemscore.Lipo>
109.6401

> <Gold.Chemscore.Internal_Hbond>
0.0000

> <Gold.Chemscore.DEClash>
0.3315

> <Gold.Chemscore.DEInternal>
0.9100

> <Gold.Chemscore.Rot>
1.9686

> <Gold.Chemscore.Internal.Correction>
   9.000000E+99

> <Gold.Chemscore.Hbonds>
donor molecule, donor type, donor heavy atom, donor atom, acceptor molecule, acceptor atom, score
      L1  H     1    17       P1  7957  0.79
      L1  H     4    35       P1  8028  0.94
      P1  H 10752 10764       L1    14  0.14

> <Gold.Chemscore.Hbond.Weighted>
-8.3736

> <Gold.Chemscore.Metal.Weighted>
-0.0000

> <Gold.Chemscore.Lipo.Weighted>
-12.8279

> <Gold.Chemscore.Internal_Hbond.Weighted>
0.0000

> <Gold.Chemscore.DEClash.Weighted>
0.3315

> <Gold.Chemscore.DEInternal.Weighted>
0.9100

> <Gold.Chemscore.Rot.Weighted>
5.0396

> <Gold.Chemscore.Internal.Correction.Weighted>
   9.000000E+99

> <Gold.Protein.RotatedTorsions>
[ 6907 6896 6895 6894 ] final  178.85 input  -60.11 | X-H torsion
[ 7974 7965 7964 7962 ] final  -66.72 input  175.53 | X-H torsion
[ 8008 7997 7996 7995 ] final -124.19 input   59.86 | X-H torsion
[ 10167 10162 10161 10158 ] final  139.13 input  -65.29 | X-H torsion
[ 10718 10713 10712 10709 ] final  -51.49 input   66.30 | X-H torsion
[ 10763 10752 10751 10750 ] final  -61.15 input  -60.55 | X-H torsion
[ 11005 11000 10999 10996 ] final  -43.49 input  -57.11 | X-H torsion

> <Gold.Protein.ActiveResidues>
 VAL166  LYS551  ARG553  GLY616  TRP617  ASP618  TYR619  PRO620  LYS621  CYS622 
 ASP623  PHE694  ASN695  SER759  ASP760  ASP761  ALA762  ILE779  LEU786  VAL792 
 PHE793  MET794  SER795  GLU796  ALA797  LYS798  CYS799  TRP800  GLU811  SER814 

> <Gold.Protein.RotatedAtoms>
  151.6812  133.3312  159.3219 H   0  0  0  0  0  0  0  0  0  0  0  0  # atno 6907 bound_to 6896
  150.7822  134.6779  159.6437 H   0  0  0  0  0  0  0  0  0  0  0  0  # atno 6908 bound_to 6896
  152.3882  134.6487  160.0169 H   0  0  0  0  0  0  0  0  0  0  0  0  # atno 6909 bound_to 6896
  145.7382  140.8965  143.0544 H   0  0  0  0  0  0  0  0  0  0  0  0  # atno 7974 bound_to 7965
  155.1929  140.0413  157.2903 H   0  0  0  0  0  0  0  0  0  0  0  0  # atno 8008 bound_to 7997
  154.6126  140.2480  155.7621 H   0  0  0  0  0  0  0  0  0  0  0  0  # atno 8009 bound_to 7997
  156.2388  140.2911  156.0396 H   0  0  0  0  0  0  0  0  0  0  0  0  # atno 8010 bound_to 7997
  139.5088  144.6313  151.5811 H   0  0  0  0  0  0  0  0  0  0  0  0  # atno 10167 bound_to 10162
  156.1705  130.4149  149.9654 H   0  0  0  0  0  0  0  0  0  0  0  0  # atno 10718 bound_to 10713
  154.2802  135.6273  153.5344 H   0  0  0  0  0  0  0  0  0  0  0  0  # atno 10763 bound_to 10752
  152.9867  135.5631  154.5504 H   0  0  0  0  0  0  0  0  0  0  0  0  # atno 10764 bound_to 10752
  154.5093  135.2876  155.1332 H   0  0  0  0  0  0  0  0  0  0  0  0  # atno 10765 bound_to 10752
  141.0387  133.6789  156.2740 H   0  0  0  0  0  0  0  0  0  0  0  0  # atno 11005 bound_to 11000
  144.6876  139.9425  143.7475 LP  0  0  0  0  0  0  0  0  0  0  0  0  # atno 17320 bound_to 7965
  146.0473  139.3477  143.0661 LP  0  0  0  0  0  0  0  0  0  0  0  0  # atno 17321 bound_to 7965
  140.6046  143.9547  150.6410 LP  0  0  0  0  0  0  0  0  0  0  0  0  # atno 17342 bound_to 10162
  140.2770  143.3416  152.1186 LP  0  0  0  0  0  0  0  0  0  0  0  0  # atno 17343 bound_to 10162
  156.7455  130.9096  151.3634 LP  0  0  0  0  0  0  0  0  0  0  0  0  # atno 17370 bound_to 10713
  157.6799  130.9130  150.0242 LP  0  0  0  0  0  0  0  0  0  0  0  0  # atno 17371 bound_to 10713
  140.6274  134.5299  157.5555 LP  0  0  0  0  0  0  0  0  0  0  0  0  # atno 17394 bound_to 11000
  139.9260  134.8056  156.1069 LP  0  0  0  0  0  0  0  0  0  0  0  0  # atno 17395 bound_to 11000

$$$$
