AV-unprocessed.smi:1572|AV-procd|sdf|6330|dock7
  -GOLD-   22720 6543D 1   1.00000     0.00000
 Structure written by MMmdl.
 42 43  0  0  0  0  0  0  0  0  3 V2000
  153.1977  143.2879  157.0011 C   0  0  0  0  0  0  0  0  0  0  0  0
  152.4311  142.6825  158.1143 N   0  3  0  0  0  0  0  0  0  0  0  0
  152.7185  141.2449  158.3267 C   0  0  0  0  0  0  0  0  0  0  0  0
  152.0136  140.3583  157.2785 C   0  0  0  0  0  0  0  0  0  0  0  0
  150.5609  140.5810  157.3363 N   0  0  0  0  0  0  0  0  0  0  0  0
  149.7162  139.6030  156.6025 C   0  0  0  0  0  0  0  0  0  0  0  0
  148.2388  140.0582  156.5534 C   0  0  0  0  0  0  0  0  0  0  0  0
  150.2253  139.4319  155.1481 C   0  0  0  0  0  0  0  0  0  0  0  0
  149.8074  138.2105  157.2969 C   0  0  0  0  0  0  0  0  0  0  0  0
  149.3057  138.2329  158.6723 N   0  0  0  0  0  0  0  0  0  0  0  0
  149.0177  137.1690  159.4361 C   0  0  0  0  0  0  0  0  0  0  0  0
  149.2493  136.0295  159.0259 O   0  0  0  0  0  0  0  0  0  0  0  0
  148.4595  137.4895  160.6250 N   0  5  0  0  0  0  0  0  0  0  0  0
  147.9895  136.5195  161.4263 C   0  0  0  0  0  0  0  0  0  0  0  0
  147.5393  135.3475  160.9510 N   0  0  0  0  0  0  0  0  0  0  0  0
  147.1021  134.4861  161.9481 N   0  0  0  0  0  0  0  0  0  0  0  0
  147.2424  135.0305  163.1564 C   0  0  0  0  0  0  0  0  0  0  0  0
  147.9183  136.6455  163.1865 S   0  0  0  0  0  0  0  0  0  0  0  0
  150.3224  141.9883  156.9789 C   0  0  0  0  0  0  0  0  0  0  0  0
  150.9699  142.9095  158.0300 C   0  0  0  0  0  0  0  0  0  0  0  0
  152.9400  142.8434  156.0397 H   0  0  0  0  0  0  0  0  0  0  0  0
  154.2685  143.1547  157.1589 H   0  0  0  0  0  0  0  0  0  0  0  0
  153.0036  144.3592  156.9424 H   0  0  0  0  0  0  0  0  0  0  0  0
  153.7952  141.0731  158.3120 H   0  0  0  0  0  0  0  0  0  0  0  0
  152.3774  140.9676  159.3253 H   0  0  0  0  0  0  0  0  0  0  0  0
  152.3957  140.5526  156.2761 H   0  0  0  0  0  0  0  0  0  0  0  0
  152.2682  139.3286  157.5201 H   0  0  0  0  0  0  0  0  0  0  0  0
  147.6417  139.3660  155.9588 H   0  0  0  0  0  0  0  0  0  0  0  0
  148.1294  141.0437  156.1006 H   0  0  0  0  0  0  0  0  0  0  0  0
  147.7827  140.0920  157.5429 H   0  0  0  0  0  0  0  0  0  0  0  0
  149.7551  138.5740  154.6663 H   0  0  0  0  0  0  0  0  0  0  0  0
  151.3039  139.2725  155.1095 H   0  0  0  0  0  0  0  0  0  0  0  0
  149.9906  140.2930  154.5223 H   0  0  0  0  0  0  0  0  0  0  0  0
  149.3286  137.4247  156.7127 H   0  0  0  0  0  0  0  0  0  0  0  0
  150.8524  137.9034  157.3506 H   0  0  0  0  0  0  0  0  0  0  0  0
  149.1034  139.1421  159.0618 H   0  0  0  0  0  0  0  0  0  0  0  0
  146.9462  134.4773  164.0352 H   0  0  0  0  0  0  0  0  0  0  0  0
  150.7158  142.2053  155.9855 H   0  0  0  0  0  0  0  0  0  0  0  0
  149.2608  142.2184  156.9425 H   0  0  0  0  0  0  0  0  0  0  0  0
  150.5269  142.7174  159.0087 H   0  0  0  0  0  0  0  0  0  0  0  0
  150.7663  143.9559  157.8005 H   0  0  0  0  0  0  0  0  0  0  0  0
  152.7439  143.1609  158.9471 H   0  0  0  0  0  0  0  0  0  0  0  0
  1  2  1  0  0  0  0
  1 21  1  0  0  0  0
  1 22  1  0  0  0  0
  1 23  1  0  0  0  0
  2 20  1  0  0  0  0
  2  3  1  0  0  0  0
  2 42  1  0  0  0  0
  3  4  1  0  0  0  0
  3 24  1  0  0  0  0
  3 25  1  0  0  0  0
  4  5  1  0  0  0  0
  4 26  1  0  0  0  0
  4 27  1  0  0  0  0
  5  6  1  0  0  0  0
  5 19  1  0  0  0  0
  6  7  1  0  0  0  0
  6  8  1  0  0  0  0
  6  9  1  0  0  0  0
  7 28  1  0  0  0  0
  7 29  1  0  0  0  0
  7 30  1  0  0  0  0
  8 31  1  0  0  0  0
  8 32  1  0  0  0  0
  8 33  1  0  0  0  0
  9 10  1  0  0  0  0
  9 34  1  0  0  0  0
  9 35  1  0  0  0  0
 10 11  1  0  0  0  0
 10 36  1  0  0  0  0
 11 12  2  0  0  0  0
 11 13  1  0  0  0  0
 13 14  1  0  0  0  0
 14 18  1  0  0  0  0
 14 15  2  0  0  0  0
 15 16  1  0  0  0  0
 16 17  2  0  0  0  0
 17 18  1  0  0  0  0
 17 37  1  0  0  0  0
 19 20  1  0  0  0  0
 19 38  1  0  0  0  0
 19 39  1  0  0  0  0
 20 40  1  0  0  0  0
 20 41  1  0  0  0  0
M  CHG  1   2   1
M  CHG  1  13  -1
M  END
> <s_m_source_file>
AV-unprocessed.smi

> <i_m_source_file_index>
1572

> <i_lp_mmshare_version>
43012

> <i_f3d_flags>
0

> <s_epik_input>
W0NIM11OMVtDSDJdW0NIMl1OKFtDSDJdW0NIMl0xKUMoW0NIM10pKFtDSDNdKVtDSDJdW05IXUMoPU8pW05IXWMybm5bY0hdczI=

> <s_epik_cmdline>
J2VwaWtfcHl0aG9uJywgJy1waCcsICc3LjAnLCAnLXRuJywgJzgnLCAnLW1hJywgJzIwMCcsICctbWV0YWxfYmluZGluZycsICctaW1hZScsICc8aW5maWxlLm1hZT4nLCAnLW9tYWUnLCAnPG91dGZpbGUubWFlPic=

> <r_lp_tautomer_probability>
1

> <r_epik_Ionization_Penalty>
3.56565

> <r_epik_Ionization_Penalty_Charging>
3.52353

> <r_epik_Ionization_Penalty_Neutral>
0.0421115

> <r_epik_State_Penalty>
3.62656

> <r_epik_Charging_Adjusted_Penalty>
7.1501

> <i_epik_Tot_Q>
0

> <i_epik_Tot_abs_Q>
2

> <r_epik_Metal_State_Penalty>
0.645945

> <b_epik_Metal_Only>
1

> <s_lp_Force_Field>
OPLS_2005

> <r_lp_Energy>
17.8403

> <b_lp_Chiralities_Consistent>
1

> <s_lp_Variant>
AV-unprocessed.smi:1572-4

> <Gold.Version>
5.8.1

> <Gold.Id.Protein>
6NUR|6NUR_protein|mol2

> <Gold.PLP.Fitness>
42.0854

> <Gold.PLP.PLP>
-31.9652

> <Gold.PLP.part.hbond>
-3.0000

> <Gold.PLP.part.metal>
0.0000

> <Gold.PLP.part.buried>
-4.5682

> <Gold.PLP.part.nonpolar>
-25.5856

> <Gold.PLP.part.repulsive>
0.2846

> <Gold.PLP.ligand.clash>
0.0000

> <Gold.PLP.ligand.torsion>
0.4746

> <Gold.PLP.Chemscore.Hbond>
3.6698

> <Gold.PLP.Chemscore.CHOScore>
0.0000

> <Gold.PLP.Chemscore.Metal>
0.0000

> <Gold.Chemscore.Hbonds>
donor molecule, donor type, donor heavy atom, donor atom, acceptor molecule, acceptor atom, score
      P1  H  6896  6908       L1    12  0.91
      P1  H  6931  6943       L1    13  0.70
      P1  H  6934  6947       L1    13  0.93

> <Gold.PLP.Chemscore.Internal.Correction>
0.0600

> <Gold.Rescore>
     Score         DG    S(hbond)    S(metal)    S(lipo)     H(rot)  DE(clash)    DE(int)     intcor
     13.03     -15.41       1.91        0.00      66.89       1.67       0.15       2.24       ----

> <Gold.Chemscore.Fitness>
13.0269

> <Gold.Chemscore.DG>
-15.4122

> <Gold.Chemscore.ZeroCoef>
-5.4800

> <Gold.Chemscore.Hbond>
1.9101

> <Gold.Chemscore.Metal>
0.0000

> <Gold.Chemscore.Lipo>
66.8899

> <Gold.Chemscore.Internal_Hbond>
0.0000

> <Gold.Chemscore.DEClash>
0.1490

> <Gold.Chemscore.DEInternal>
2.2363

> <Gold.Chemscore.Rot>
1.6694

> <Gold.Chemscore.Internal.Correction>
   9.000000E+99

> <Gold.Chemscore.Hbonds>
donor molecule, donor type, donor heavy atom, donor atom, acceptor molecule, acceptor atom, score
      P1  H  6896  6908       L1    12  0.87
      P1  H  6931  6943       L1    13  0.02
      P1  H  6934  6947       L1    13  0.22

> <Gold.Chemscore.Hbond.Weighted>
-6.3799

> <Gold.Chemscore.Metal.Weighted>
-0.0000

> <Gold.Chemscore.Lipo.Weighted>
-7.8261

> <Gold.Chemscore.Internal_Hbond.Weighted>
0.0000

> <Gold.Chemscore.DEClash.Weighted>
0.1490

> <Gold.Chemscore.DEInternal.Weighted>
2.2363

> <Gold.Chemscore.Rot.Weighted>
4.2738

> <Gold.Chemscore.Internal.Correction.Weighted>
   9.000000E+99

> <Gold.Protein.RotatedTorsions>
[ 6907 6896 6895 6894 ] final -174.60 input  -60.11 | X-H torsion
[ 7974 7965 7964 7962 ] final    8.54 input  175.53 | X-H torsion
[ 8008 7997 7996 7995 ] final   58.09 input   59.86 | X-H torsion
[ 10167 10162 10161 10158 ] final  101.62 input  -65.29 | X-H torsion
[ 10718 10713 10712 10709 ] final  -90.83 input   66.30 | X-H torsion
[ 10763 10752 10751 10750 ] final -172.84 input  -60.55 | X-H torsion
[ 11005 11000 10999 10996 ] final   81.94 input  -57.11 | X-H torsion

> <Gold.Protein.ActiveResidues>
 VAL166  LYS551  ARG553  GLY616  TRP617  ASP618  TYR619  PRO620  LYS621  CYS622 
 ASP623  PHE694  ASN695  SER759  ASP760  ASP761  ALA762  ILE779  LEU786  VAL792 
 PHE793  MET794  SER795  GLU796  ALA797  LYS798  CYS799  TRP800  GLU811  SER814 

> <Gold.Protein.RotatedAtoms>
  151.5750  133.3385  159.2996 H   0  0  0  0  0  0  0  0  0  0  0  0  # atno 6907 bound_to 6896
  150.8346  134.7616  159.6893 H   0  0  0  0  0  0  0  0  0  0  0  0  # atno 6908 bound_to 6896
  152.4424  134.5570  159.9935 H   0  0  0  0  0  0  0  0  0  0  0  0  # atno 6909 bound_to 6896
  146.2415  139.9918  142.8425 H   0  0  0  0  0  0  0  0  0  0  0  0  # atno 7974 bound_to 7965
  155.5444  140.3485  155.4454 H   0  0  0  0  0  0  0  0  0  0  0  0  # atno 8008 bound_to 7997
  156.0628  140.1344  156.9947 H   0  0  0  0  0  0  0  0  0  0  0  0  # atno 8009 bound_to 7997
  154.4488  140.0981  156.6527 H   0  0  0  0  0  0  0  0  0  0  0  0  # atno 8010 bound_to 7997
  139.7422  144.7008  151.0558 H   0  0  0  0  0  0  0  0  0  0  0  0  # atno 10167 bound_to 10162
  155.9990  130.4925  150.5383 H   0  0  0  0  0  0  0  0  0  0  0  0  # atno 10718 bound_to 10713
  154.6147  135.2868  155.0393 H   0  0  0  0  0  0  0  0  0  0  0  0  # atno 10763 bound_to 10752
  154.1609  135.6488  153.4989 H   0  0  0  0  0  0  0  0  0  0  0  0  # atno 10764 bound_to 10752
  153.0210  135.5378  154.6914 H   0  0  0  0  0  0  0  0  0  0  0  0  # atno 10765 bound_to 10752
  139.9080  134.8034  156.2109 H   0  0  0  0  0  0  0  0  0  0  0  0  # atno 11005 bound_to 11000
  145.1496  140.9615  143.4441 LP  0  0  0  0  0  0  0  0  0  0  0  0  # atno 17320 bound_to 7965
  145.0218  139.3417  143.6068 LP  0  0  0  0  0  0  0  0  0  0  0  0  # atno 17321 bound_to 7965
  140.7787  143.4910  150.9893 LP  0  0  0  0  0  0  0  0  0  0  0  0  # atno 17342 bound_to 10162
  139.8598  143.7329  152.3174 LP  0  0  0  0  0  0  0  0  0  0  0  0  # atno 17343 bound_to 10162
  157.3322  131.0701  151.1852 LP  0  0  0  0  0  0  0  0  0  0  0  0  # atno 17370 bound_to 10713
  157.2728  130.6712  149.6028 LP  0  0  0  0  0  0  0  0  0  0  0  0  # atno 17371 bound_to 10713
  141.0466  133.6910  156.1695 LP  0  0  0  0  0  0  0  0  0  0  0  0  # atno 17394 bound_to 11000
  140.6874  134.4702  157.5589 LP  0  0  0  0  0  0  0  0  0  0  0  0  # atno 17395 bound_to 11000

$$$$
