AV-unprocessed.smi:1101|AV-procd|sdf|4765|dock7
  -GOLD-   22720 3303D 1   1.00000     0.00000
 Structure written by MMmdl.
 41 42  0  0  0  0  0  0  0  0  1 V2000
  146.6324  141.8915  153.8414 C   0  0  0  0  0  0  0  0  0  0  0  0
  146.5194  142.2551  155.3271 C   0  0  0  0  0  0  0  0  0  0  0  0
  147.6602  141.6716  156.1755 C   0  0  2  0  0  0  0  0  0  0  0  0
  149.0298  141.8093  155.4787 C   0  0  0  0  0  0  0  0  0  0  0  0
  150.0499  141.1931  156.3400 N   0  0  0  0  0  0  0  0  0  0  0  0
  151.0102  141.8371  157.0489 C   0  0  0  0  0  0  0  0  0  0  0  0
  151.8938  141.2532  157.6780 O   0  0  0  0  0  0  0  0  0  0  0  0
  150.9481  143.1757  156.9842 N   0  0  0  0  0  0  0  0  0  0  0  0
  151.8923  144.0896  157.6143 C   0  0  0  0  0  0  0  0  0  0  0  0
  151.4245  144.4883  159.0235 C   0  0  0  0  0  0  0  0  0  0  0  0
  152.1592  143.7431  160.1069 C   0  0  0  0  0  0  0  0  0  0  0  0
  152.9189  142.5451  159.9822 C   0  0  0  0  0  0  0  0  0  0  0  0
  153.4531  142.1528  161.1273 N   0  0  0  0  0  0  0  0  0  0  0  0
  153.0536  143.0817  162.0198 N   0  0  0  0  0  0  0  0  0  0  0  0
  153.4640  142.9645  163.4026 C   0  0  0  0  0  0  0  0  0  0  0  0
  152.2699  144.0521  161.4335 C   0  0  0  0  0  0  0  0  0  0  0  0
  149.7614  139.7687  156.5195 C   0  0  0  0  0  0  0  0  0  0  0  0
  148.3862  139.6383  157.1966 C   0  0  0  0  0  0  0  0  0  0  0  0
  147.3980  140.2852  156.3976 O   0  0  0  0  0  0  0  0  0  0  0  0
  145.8022  142.3138  153.2750 H   0  0  0  0  0  0  0  0  0  0  0  0
  146.6177  140.8110  153.6977 H   0  0  0  0  0  0  0  0  0  0  0  0
  147.5568  142.2749  153.4090 H   0  0  0  0  0  0  0  0  0  0  0  0
  146.4970  143.3399  155.4365 H   0  0  0  0  0  0  0  0  0  0  0  0
  145.5640  141.8888  155.7044 H   0  0  0  0  0  0  0  0  0  0  0  0
  147.6886  142.1904  157.1358 H   0  0  0  0  0  0  0  0  0  0  0  0
  149.0160  141.2942  154.5170 H   0  0  0  0  0  0  0  0  0  0  0  0
  149.2229  142.8565  155.2455 H   0  0  0  0  0  0  0  0  0  0  0  0
  150.2054  143.5904  156.4403 H   0  0  0  0  0  0  0  0  0  0  0  0
  152.8782  143.6250  157.6637 H   0  0  0  0  0  0  0  0  0  0  0  0
  151.9895  144.9817  156.9933 H   0  0  0  0  0  0  0  0  0  0  0  0
  151.5568  145.5639  159.1465 H   0  0  0  0  0  0  0  0  0  0  0  0
  150.3506  144.3161  159.1016 H   0  0  0  0  0  0  0  0  0  0  0  0
  153.1006  141.9555  159.0956 H   0  0  0  0  0  0  0  0  0  0  0  0
  153.1169  143.8282  163.9707 H   0  0  0  0  0  0  0  0  0  0  0  0
  154.5517  142.9151  163.4627 H   0  0  0  0  0  0  0  0  0  0  0  0
  153.0389  142.0591  163.8375 H   0  0  0  0  0  0  0  0  0  0  0  0
  151.8637  144.8767  162.0009 H   0  0  0  0  0  0  0  0  0  0  0  0
  149.7508  139.2747  155.5469 H   0  0  0  0  0  0  0  0  0  0  0  0
  150.5195  139.2528  157.1105 H   0  0  0  0  0  0  0  0  0  0  0  0
  148.1178  138.5876  157.3086 H   0  0  0  0  0  0  0  0  0  0  0  0
  148.4010  140.0739  158.1969 H   0  0  0  0  0  0  0  0  0  0  0  0
  1  2  1  0  0  0  0
  1 20  1  0  0  0  0
  1 21  1  0  0  0  0
  1 22  1  0  0  0  0
  2  3  1  0  0  0  0
  2 23  1  0  0  0  0
  2 24  1  0  0  0  0
  3 19  1  0  0  0  0
  3  4  1  0  0  0  0
  3 25  1  0  0  0  0
  4  5  1  0  0  0  0
  4 26  1  0  0  0  0
  4 27  1  0  0  0  0
  5  6  1  0  0  0  0
  5 17  1  0  0  0  0
  6  7  2  0  0  0  0
  6  8  1  0  0  0  0
  8  9  1  0  0  0  0
  8 28  1  0  0  0  0
  9 10  1  0  0  0  0
  9 29  1  0  0  0  0
  9 30  1  0  0  0  0
 10 11  1  0  0  0  0
 10 31  1  0  0  0  0
 10 32  1  0  0  0  0
 11 16  2  0  0  0  0
 11 12  1  0  0  0  0
 12 13  2  0  0  0  0
 12 33  1  0  0  0  0
 13 14  1  0  0  0  0
 14 15  1  0  0  0  0
 14 16  1  0  0  0  0
 15 34  1  0  0  0  0
 15 35  1  0  0  0  0
 15 36  1  0  0  0  0
 16 37  1  0  0  0  0
 17 18  1  0  0  0  0
 17 38  1  0  0  0  0
 17 39  1  0  0  0  0
 18 19  1  0  0  0  0
 18 40  1  0  0  0  0
 18 41  1  0  0  0  0
M  END
> <s_m_source_file>
AV-unprocessed.smi

> <i_m_source_file_index>
1101

> <i_lp_mmshare_version>
43012

> <i_f3d_flags>
0

> <s_epik_input>
W0NIM11bQ0gyXVtDQEBIXTFbQ0gyXU4oW0NIMl1bQ0gyXU8xKUMoPU8pW05IXVtDSDJdW0NIMl1jMltjSF1ubihbQ0gzXSlbY0hdMg==

> <s_epik_cmdline>
J2VwaWtfcHl0aG9uJywgJy1waCcsICc3LjAnLCAnLXRuJywgJzgnLCAnLW1hJywgJzIwMCcsICctbWV0YWxfYmluZGluZycsICctaW1hZScsICc8aW5maWxlLm1hZT4nLCAnLW9tYWUnLCAnPG91dGZpbGUubWFlPic=

> <r_lp_tautomer_probability>
1

> <r_epik_Ionization_Penalty>
0.000536373

> <r_epik_Ionization_Penalty_Charging>
0

> <r_epik_Ionization_Penalty_Neutral>
0.000536373

> <r_epik_State_Penalty>
-0

> <r_epik_Charging_Adjusted_Penalty>
0

> <i_epik_Tot_Q>
0

> <i_epik_Tot_abs_Q>
0

> <r_epik_Metal_State_Penalty>
-0

> <b_epik_Metal_Only>
0

> <s_lp_Force_Field>
OPLS_2005

> <r_lp_Energy>
25.5817

> <b_lp_Chiralities_Consistent>
1

> <s_lp_Variant>
AV-unprocessed.smi:1101-1

> <Gold.Version>
5.8.1

> <Gold.Id.Protein>
6NUR|6NUR_protein|mol2

> <Gold.PLP.Fitness>
44.7777

> <Gold.PLP.PLP>
-43.5610

> <Gold.PLP.part.hbond>
-1.0000

> <Gold.PLP.part.metal>
0.0000

> <Gold.PLP.part.buried>
-4.0960

> <Gold.PLP.part.nonpolar>
-37.5404

> <Gold.PLP.part.repulsive>
0.0416

> <Gold.PLP.ligand.clash>
0.0000

> <Gold.PLP.ligand.torsion>
0.9280

> <Gold.PLP.Chemscore.Hbond>
1.0000

> <Gold.PLP.Chemscore.CHOScore>
0.0000

> <Gold.PLP.Chemscore.Metal>
0.0000

> <Gold.Chemscore.Hbonds>
donor molecule, donor type, donor heavy atom, donor atom, acceptor molecule, acceptor atom, score
      L1  H     8    28       P1  8028  1.00

> <Gold.PLP.Chemscore.Internal.Correction>
0.0728

> <Gold.Rescore>
     Score         DG    S(hbond)    S(metal)    S(lipo)     H(rot)  DE(clash)    DE(int)     intcor
     14.50     -16.68       1.00        0.00     100.11       1.51       1.19       0.99       ----

> <Gold.Chemscore.Fitness>
14.5045

> <Gold.Chemscore.DG>
-16.6771

> <Gold.Chemscore.ZeroCoef>
-5.4800

> <Gold.Chemscore.Hbond>
0.9998

> <Gold.Chemscore.Metal>
0.0000

> <Gold.Chemscore.Lipo>
100.1148

> <Gold.Chemscore.Internal_Hbond>
0.0000

> <Gold.Chemscore.DEClash>
1.1866

> <Gold.Chemscore.DEInternal>
0.9860

> <Gold.Chemscore.Rot>
1.5062

> <Gold.Chemscore.Internal.Correction>
   9.000000E+99

> <Gold.Chemscore.Hbonds>
donor molecule, donor type, donor heavy atom, donor atom, acceptor molecule, acceptor atom, score
      L1  H     8    28       P1  8028  1.00

> <Gold.Chemscore.Hbond.Weighted>
-3.3395

> <Gold.Chemscore.Metal.Weighted>
-0.0000

> <Gold.Chemscore.Lipo.Weighted>
-11.7134

> <Gold.Chemscore.Internal_Hbond.Weighted>
0.0000

> <Gold.Chemscore.DEClash.Weighted>
1.1866

> <Gold.Chemscore.DEInternal.Weighted>
0.9860

> <Gold.Chemscore.Rot.Weighted>
3.8558

> <Gold.Chemscore.Internal.Correction.Weighted>
   9.000000E+99

> <Gold.Protein.RotatedTorsions>
[ 6907 6896 6895 6894 ] final  -16.83 input  -60.11 | X-H torsion
[ 7974 7965 7964 7962 ] final -109.01 input  175.53 | X-H torsion
[ 8008 7997 7996 7995 ] final   54.23 input   59.86 | X-H torsion
[ 10167 10162 10161 10158 ] final   12.73 input  -65.29 | X-H torsion
[ 10718 10713 10712 10709 ] final -174.55 input   66.30 | X-H torsion
[ 10763 10752 10751 10750 ] final   41.01 input  -60.55 | X-H torsion
[ 11005 11000 10999 10996 ] final   26.90 input  -57.11 | X-H torsion

> <Gold.Protein.ActiveResidues>
 VAL166  LYS551  ARG553  GLY616  TRP617  ASP618  TYR619  PRO620  LYS621  CYS622 
 ASP623  PHE694  ASN695  SER759  ASP760  ASP761  ALA762  ILE779  LEU786  VAL792 
 PHE793  MET794  SER795  GLU796  ALA797  LYS798  CYS799  TRP800  GLU811  SER814 

> <Gold.Protein.RotatedAtoms>
  151.3026  135.0773  159.9243 H   0  0  0  0  0  0  0  0  0  0  0  0  # atno 6907 bound_to 6896
  152.5294  133.9818  159.7820 H   0  0  0  0  0  0  0  0  0  0  0  0  # atno 6908 bound_to 6896
  151.0107  133.5917  159.2713 H   0  0  0  0  0  0  0  0  0  0  0  0  # atno 6909 bound_to 6896
  145.1858  140.8992  143.3453 H   0  0  0  0  0  0  0  0  0  0  0  0  # atno 7974 bound_to 7965
  155.4813  140.3468  155.4340 H   0  0  0  0  0  0  0  0  0  0  0  0  # atno 8008 bound_to 7997
  156.1037  140.1442  156.9461 H   0  0  0  0  0  0  0  0  0  0  0  0  # atno 8009 bound_to 7997
  154.4710  140.0901  156.7123 H   0  0  0  0  0  0  0  0  0  0  0  0  # atno 8010 bound_to 7997
  140.6049  143.8528  150.7003 H   0  0  0  0  0  0  0  0  0  0  0  0  # atno 10167 bound_to 10162
  156.7868  130.9503  151.3120 H   0  0  0  0  0  0  0  0  0  0  0  0  # atno 10718 bound_to 10713
  152.9920  135.6174  154.2718 H   0  0  0  0  0  0  0  0  0  0  0  0  # atno 10763 bound_to 10752
  154.2451  135.2787  155.2840 H   0  0  0  0  0  0  0  0  0  0  0  0  # atno 10764 bound_to 10752
  154.5336  135.5781  153.6837 H   0  0  0  0  0  0  0  0  0  0  0  0  # atno 10765 bound_to 10752
  140.3321  134.2427  155.7701 H   0  0  0  0  0  0  0  0  0  0  0  0  # atno 11005 bound_to 11000
  145.0090  139.3527  143.6129 LP  0  0  0  0  0  0  0  0  0  0  0  0  # atno 17320 bound_to 7965
  146.3445  139.9345  142.8749 LP  0  0  0  0  0  0  0  0  0  0  0  0  # atno 17321 bound_to 7965
  140.2083  143.3904  152.1738 LP  0  0  0  0  0  0  0  0  0  0  0  0  # atno 17342 bound_to 10162
  139.5318  144.7167  151.5031 LP  0  0  0  0  0  0  0  0  0  0  0  0  # atno 17343 bound_to 10162
  157.6620  130.8974  149.9850 LP  0  0  0  0  0  0  0  0  0  0  0  0  # atno 17370 bound_to 10713
  156.1184  130.3647  149.9929 LP  0  0  0  0  0  0  0  0  0  0  0  0  # atno 17371 bound_to 10713
  141.2061  133.7843  157.0197 LP  0  0  0  0  0  0  0  0  0  0  0  0  # atno 17394 bound_to 11000
  140.0852  134.9625  157.1689 LP  0  0  0  0  0  0  0  0  0  0  0  0  # atno 17395 bound_to 11000

$$$$
