AV-unprocessed.smi:2936|AV-procd|sdf|11257|dock8
  -GOLD-   2272016153D 1   1.00000     0.00000
 Structure written by MMmdl.
 23 24  0  0  0  0  0  0  0  0  2 V2000
  153.4026  139.0199  157.1296 O   0  0  0  0  0  0  0  0  0  0  0  0
  152.6477  138.7438  156.1986 C   0  0  0  0  0  0  0  0  0  0  0  0
  152.9833  137.8308  155.2365 N   0  5  0  0  0  0  0  0  0  0  0  0
  152.0628  137.5372  154.1600 N   0  0  0  0  0  0  0  0  0  0  0  0
  150.9318  138.1199  154.0882 C   0  0  0  0  0  0  0  0  0  0  0  0
  150.4913  139.1192  155.0847 C   0  0  0  0  0  0  0  0  0  0  0  0
  149.2483  139.7195  154.9510 N   0  0  0  0  0  0  0  0  0  0  0  0
  148.0278  138.9809  154.6646 C   0  0  0  0  0  0  0  0  0  0  0  0
  147.3343  139.5621  153.4197 C   0  0  0  0  0  0  0  0  0  0  0  0
  147.1049  140.9563  153.6081 O   0  0  0  0  0  0  0  0  0  0  0  0
  148.3172  141.6802  153.8031 C   0  0  0  0  0  0  0  0  0  0  0  0
  149.0349  141.1547  155.0589 C   0  0  0  0  0  0  0  0  0  0  0  0
  151.3415  139.4075  156.1036 C   0  0  0  0  0  0  0  0  0  0  0  0
  150.9168  140.5622  157.3237 Cl  0  0  0  0  0  0  0  0  0  0  0  0
  150.2249  137.9099  153.2812 H   0  0  0  0  0  0  0  0  0  0  0  0
  148.2563  137.9255  154.5112 H   0  0  0  0  0  0  0  0  0  0  0  0
  147.3665  139.0424  155.5295 H   0  0  0  0  0  0  0  0  0  0  0  0
  147.9353  139.3996  152.5242 H   0  0  0  0  0  0  0  0  0  0  0  0
  146.3791  139.0640  153.2552 H   0  0  0  0  0  0  0  0  0  0  0  0
  148.9531  141.5895  152.9217 H   0  0  0  0  0  0  0  0  0  0  0  0
  148.0841  142.7385  153.9189 H   0  0  0  0  0  0  0  0  0  0  0  0
  148.4384  141.3576  155.9490 H   0  0  0  0  0  0  0  0  0  0  0  0
  149.9891  141.6662  155.1899 H   0  0  0  0  0  0  0  0  0  0  0  0
  1  2  2  0  0  0  0
  2 13  1  0  0  0  0
  2  3  1  0  0  0  0
  3  4  1  0  0  0  0
  4  5  2  0  0  0  0
  5  6  1  0  0  0  0
  5 15  1  0  0  0  0
  6  7  1  0  0  0  0
  6 13  2  0  0  0  0
  7 12  1  0  0  0  0
  7  8  1  0  0  0  0
  8  9  1  0  0  0  0
  8 16  1  0  0  0  0
  8 17  1  0  0  0  0
  9 10  1  0  0  0  0
  9 18  1  0  0  0  0
  9 19  1  0  0  0  0
 10 11  1  0  0  0  0
 11 12  1  0  0  0  0
 11 20  1  0  0  0  0
 11 21  1  0  0  0  0
 12 22  1  0  0  0  0
 12 23  1  0  0  0  0
 13 14  1  0  0  0  0
M  CHG  1   3  -1
M  END
> <s_m_source_file>
AV-unprocessed.smi

> <i_m_source_file_index>
2936

> <i_lp_mmshare_version>
43012

> <i_f3d_flags>
0

> <s_epik_input>
Tz1jMVtuSF1uW2NIXWMoYzFDbClOMltDSDJdW0NIMl1PW0NIMl1bQ0gyXTI=

> <s_epik_cmdline>
J2VwaWtfcHl0aG9uJywgJy1waCcsICc3LjAnLCAnLXRuJywgJzgnLCAnLW1hJywgJzIwMCcsICctbWV0YWxfYmluZGluZycsICctaW1hZScsICc8aW5maWxlLm1hZT4nLCAnLW9tYWUnLCAnPG91dGZpbGUubWFlPic=

> <r_lp_tautomer_probability>
1

> <r_epik_Ionization_Penalty>
2.40826

> <r_epik_Ionization_Penalty_Charging>
0.00182709

> <r_epik_Ionization_Penalty_Neutral>
2.40643

> <r_epik_State_Penalty>
0.0371983

> <r_epik_Charging_Adjusted_Penalty>
0.0390254

> <i_epik_Tot_Q>
-1

> <i_epik_Tot_abs_Q>
1

> <r_epik_Metal_State_Penalty>
0.000698467

> <b_epik_Metal_Only>
0

> <s_lp_Force_Field>
OPLS_2005

> <r_lp_Energy>
40.7518

> <b_lp_Chiralities_Consistent>
1

> <s_lp_Variant>
AV-unprocessed.smi:2936-1

> <Gold.Version>
5.8.1

> <Gold.Id.Protein>
6NUR|6NUR_protein|mol2

> <Gold.PLP.Fitness>
29.6110

> <Gold.PLP.PLP>
-22.8545

> <Gold.PLP.part.hbond>
-2.8805

> <Gold.PLP.part.metal>
0.0000

> <Gold.PLP.part.buried>
-1.9894

> <Gold.PLP.part.nonpolar>
-18.1030

> <Gold.PLP.part.repulsive>
0.3536

> <Gold.PLP.ligand.clash>
0.0000

> <Gold.PLP.ligand.torsion>
0.8069

> <Gold.PLP.Chemscore.Hbond>
1.1922

> <Gold.PLP.Chemscore.CHOScore>
1.0634

> <Gold.PLP.Chemscore.Metal>
0.0000

> <Gold.Chemscore.Hbonds>
donor molecule, donor type, donor heavy atom, donor atom, acceptor molecule, acceptor atom, score
      P1  H  7997  8009       L1     1  0.98
      P1  H 10752 10764       L1     4  0.19
      L1  C     5    15       P1  7948  0.98
      L1  C     5    15       P1  7949  0.07

> <Gold.PLP.Chemscore.Internal.Correction>
1.6033

> <Gold.Rescore>
     Score         DG    S(hbond)    S(metal)    S(lipo)     H(rot)  DE(clash)    DE(int)     intcor
     12.37     -14.24       0.94        0.00      48.06       0.00       0.01       1.86       ----

> <Gold.Chemscore.Fitness>
12.3663

> <Gold.Chemscore.DG>
-14.2401

> <Gold.Chemscore.ZeroCoef>
-5.4800

> <Gold.Chemscore.Hbond>
0.9392

> <Gold.Chemscore.Metal>
0.0000

> <Gold.Chemscore.Lipo>
48.0607

> <Gold.Chemscore.Internal_Hbond>
0.0000

> <Gold.Chemscore.DEClash>
0.0106

> <Gold.Chemscore.DEInternal>
1.8632

> <Gold.Chemscore.Rot>
0.0000

> <Gold.Chemscore.Internal.Correction>
   9.000000E+99

> <Gold.Chemscore.Hbonds>
donor molecule, donor type, donor heavy atom, donor atom, acceptor molecule, acceptor atom, score
      P1  H  7997  8009       L1     1  0.88
      P1  H 10752 10764       L1     4  0.01

> <Gold.Chemscore.Hbond.Weighted>
-3.1370

> <Gold.Chemscore.Metal.Weighted>
-0.0000

> <Gold.Chemscore.Lipo.Weighted>
-5.6231

> <Gold.Chemscore.Internal_Hbond.Weighted>
0.0000

> <Gold.Chemscore.DEClash.Weighted>
0.0106

> <Gold.Chemscore.DEInternal.Weighted>
1.8632

> <Gold.Chemscore.Rot.Weighted>
0.0000

> <Gold.Chemscore.Internal.Correction.Weighted>
   9.000000E+99

> <Gold.Protein.RotatedTorsions>
[ 6907 6896 6895 6894 ] final  -48.67 input  -60.11 | X-H torsion
[ 7974 7965 7964 7962 ] final  130.15 input  175.53 | X-H torsion
[ 8008 7997 7996 7995 ] final  161.07 input   59.86 | X-H torsion
[ 10167 10162 10161 10158 ] final -119.73 input  -65.29 | X-H torsion
[ 10718 10713 10712 10709 ] final   30.44 input   66.30 | X-H torsion
[ 10763 10752 10751 10750 ] final -110.61 input  -60.55 | X-H torsion
[ 11005 11000 10999 10996 ] final  108.02 input  -57.11 | X-H torsion

> <Gold.Protein.ActiveResidues>
 VAL166  LYS551  ARG553  GLY616  TRP617  ASP618  TYR619  PRO620  LYS621  CYS622 
 ASP623  PHE694  ASN695  SER759  ASP760  ASP761  ALA762  ILE779  LEU786  VAL792 
 PHE793  MET794  SER795  GLU796  ALA797  LYS798  CYS799  TRP800  GLU811  SER814 

> <Gold.Protein.RotatedAtoms>
  150.8882  134.8282  159.7273 H   0  0  0  0  0  0  0  0  0  0  0  0  # atno 6907 bound_to 6896
  152.4820  134.4690  159.9639 H   0  0  0  0  0  0  0  0  0  0  0  0  # atno 6908 bound_to 6896
  151.4756  133.3520  159.2865 H   0  0  0  0  0  0  0  0  0  0  0  0  # atno 6909 bound_to 6896
  145.0210  139.4132  143.5197 H   0  0  0  0  0  0  0  0  0  0  0  0  # atno 7974 bound_to 7965
  156.2129  140.1787  156.7655 H   0  0  0  0  0  0  0  0  0  0  0  0  # atno 8008 bound_to 7997
  154.5748  140.0676  156.9048 H   0  0  0  0  0  0  0  0  0  0  0  0  # atno 8009 bound_to 7997
  155.2607  140.3335  155.4276 H   0  0  0  0  0  0  0  0  0  0  0  0  # atno 8010 bound_to 7997
  140.0435  143.5130  152.2118 H   0  0  0  0  0  0  0  0  0  0  0  0  # atno 10167 bound_to 10162
  157.2596  130.7155  149.6447 H   0  0  0  0  0  0  0  0  0  0  0  0  # atno 10718 bound_to 10713
  154.8257  135.4558  154.0912 H   0  0  0  0  0  0  0  0  0  0  0  0  # atno 10763 bound_to 10752
  153.2228  135.6896  153.7987 H   0  0  0  0  0  0  0  0  0  0  0  0  # atno 10764 bound_to 10752
  153.7398  135.3314  155.3278 H   0  0  0  0  0  0  0  0  0  0  0  0  # atno 10765 bound_to 10752
  139.8837  134.9418  156.5908 H   0  0  0  0  0  0  0  0  0  0  0  0  # atno 11005 bound_to 11000
  146.3485  139.9707  142.8706 LP  0  0  0  0  0  0  0  0  0  0  0  0  # atno 17320 bound_to 7965
  145.1896  140.9805  143.4219 LP  0  0  0  0  0  0  0  0  0  0  0  0  # atno 17321 bound_to 7965
  139.5998  144.7579  151.3198 LP  0  0  0  0  0  0  0  0  0  0  0  0  # atno 17342 bound_to 10162
  140.7249  143.7031  150.7829 LP  0  0  0  0  0  0  0  0  0  0  0  0  # atno 17343 bound_to 10162
  155.9664  130.4401  150.5288 LP  0  0  0  0  0  0  0  0  0  0  0  0  # atno 17370 bound_to 10713
  157.3190  131.0678  151.1946 LP  0  0  0  0  0  0  0  0  0  0  0  0  # atno 17371 bound_to 10713
  140.7957  133.8546  155.8683 LP  0  0  0  0  0  0  0  0  0  0  0  0  # atno 17394 bound_to 11000
  140.9638  134.1621  157.4633 LP  0  0  0  0  0  0  0  0  0  0  0  0  # atno 17395 bound_to 11000

$$$$
