#       Name:                AV-unprocessed.smi:1912
#       Creating user name   scv26
#       Creation time:       Fri Mar 27 09:49:02 2020


#       File generated by GOLD software.
#

@<TRIPOS>MOLECULE
AV-unprocessed.smi:1912
    50    52     1
SMALL
NO_CHARGES


@<TRIPOS>ATOM
      1 ****        -3.9425  -3.4304  -1.3147 C.3            1 S1                 0.0000
      2 ****        -2.5252  -3.3957  -1.2338 O.3            1 S1                 0.0000
      3 ****        -1.8998  -2.1711  -1.3270 C.ar           1 S1                 0.0000
      4 ****        -2.5782  -0.9402  -1.4857 C.ar           1 S1                 0.0000
      5 ****        -1.8582   0.2660  -1.5619 C.ar           1 S1                 0.0000
      6 ****        -0.4433   0.2743  -1.4847 C.ar           1 S1                 0.0000
      7 ****         0.3098   1.4302  -1.5310 O.3            1 S1                 0.0000
      8 ****        -0.3659   2.6786  -1.5376 C.3            1 S1                 0.0000
      9 ****         0.2398  -0.9582  -1.3359 C.ar           1 S1                 0.0000
     10 ****         1.7634  -0.9927  -1.2195 C.3            1 S1                 0.0000
     11 ****         2.3320  -2.1193  -1.8562 O.3            1 S1                 0.0000
     12 ****         2.2445  -0.9834   0.2469 C.3            1 S1                 0.0000
     13 ****         1.9174   0.2720   0.9417 N.pl3          1 S1                 0.0000
     14 ****         2.5722   1.4679   0.9380 C.2            1 S1                 0.0000
     15 ****         3.8341   1.7907   0.2114 C.3            1 S1                 0.0000
     16 ****         1.8522   2.3260   1.7138 N.pl3          1 S1                 1.0000
     17 ****         0.7260   1.6747   2.2182 C.ar           1 S1                 0.0000
     18 ****        -0.2983   2.1337   3.0404 C.ar           1 S1                 0.0000
     19 ****        -1.3119   1.2084   3.3649 C.ar           1 S1                 0.0000
     20 ****        -1.2802  -0.1149   2.8800 C.ar           1 S1                 0.0000
     21 ****        -0.2337  -0.5701   2.0517 C.ar           1 S1                 0.0000
     22 ****         0.7631   0.3518   1.7311 C.ar           1 S1                 0.0000
     23 ****        -0.4944  -2.1623  -1.2539 C.ar           1 S1                 0.0000
     24 ****        -4.2819  -4.4626  -1.2287 H              1 S1                 0.0000
     25 ****        -4.2967  -3.0453  -2.2720 H              1 S1                 0.0000
     26 ****        -4.4025  -2.8637  -0.5040 H              1 S1                 0.0000
     27 ****        -3.6547  -0.8929  -1.5481 H              1 S1                 0.0000
     28 ****        -2.4223   1.1787  -1.6783 H              1 S1                 0.0000
     29 ****         0.3689   3.4833  -1.5121 H              1 S1                 0.0000
     30 ****        -1.0057   2.7901  -0.6609 H              1 S1                 0.0000
     31 ****        -0.9624   2.8050  -2.4419 H              1 S1                 0.0000
     32 ****         2.1827  -0.1299  -1.7369 H              1 S1                 0.0000
     33 ****         2.1312  -2.0752  -2.7788 H              1 S1                 0.0000
     34 ****         1.8461  -1.8300   0.8063 H              1 S1                 0.0000
     35 ****         3.3301  -1.0847   0.2802 H              1 S1                 0.0000
     36 ****         4.1455   2.8144   0.4204 H              1 S1                 0.0000
     37 ****         3.6869   1.6856  -0.8635 H              1 S1                 0.0000
     38 ****         4.6318   1.1161   0.5228 H              1 S1                 0.0000
     39 ****        -0.3251   3.1474   3.4124 H              1 S1                 0.0000
     40 ****        -2.1302   1.5201   3.9976 H              1 S1                 0.0000
     41 ****        -2.0755  -0.7956   3.1470 H              1 S1                 0.0000
     42 ****        -0.2256  -1.5847   1.6826 H              1 S1                 0.0000
     43 ****         0.0240  -3.1008  -1.1220 H              1 S1                 0.0000
     44 ****         2.1124   3.2894   1.8811 H              1 S1                 0.0000
     45 ****        -2.1714  -3.9670  -1.9743 LP             1 S1                 0.0000
     46 ****        -2.2681  -3.7943  -0.3534 LP             1 S1                 0.0000
     47 ****         0.8627   1.3893  -2.3633 LP             1 S1                 0.0000
     48 ****         0.9102   1.4236  -0.7313 LP             1 S1                 0.0000
     49 ****         1.9478  -2.9565  -1.4669 LP             1 S1                 0.0000
     50 ****         3.3235  -2.1157  -1.7261 LP             1 S1                 0.0000
@<TRIPOS>BOND
    1    1    2 1     
    2    1   24 1     
    3    1   25 1     
    4    1   26 1     
    5    2    3 1     
    6    3   23 ar    
    7    3    4 ar    
    8    4    5 ar    
    9    4   27 1     
   10    5    6 ar    
   11    5   28 1     
   12    6    7 1     
   13    6    9 ar    
   14    7    8 1     
   15    8   29 1     
   16    8   30 1     
   17    8   31 1     
   18    9   10 1     
   19    9   23 ar    
   20   10   11 1     
   21   10   12 1     
   22   10   32 1     
   23   11   33 1     
   24   12   13 1     
   25   12   34 1     
   26   12   35 1     
   27   13   22 1     
   28   13   14 1     
   29   14   15 1     
   30   14   16 2     
   31   15   36 1     
   32   15   37 1     
   33   15   38 1     
   34   16   17 1     
   35   16   44 1     
   36   17   22 ar    
   37   17   18 ar    
   38   18   19 ar    
   39   18   39 1     
   40   19   20 ar    
   41   19   40 1     
   42   20   21 ar    
   43   20   41 1     
   44   21   22 ar    
   45   21   42 1     
   46   23   43 1     
   47    2   45 1     
   48    2   46 1     
   49    7   47 1     
   50    7   48 1     
   51   11   49 1     
   52   11   50 1     
@<TRIPOS>SUBSTRUCTURE
      1 S1             1
@<TRIPOS>SET
LONE_PAIRS      STATIC     ATOMS    <user>   **** ""
6 45 46 47 48 49 50
DONOR_HYDROGENS      STATIC     ATOMS    <user>   **** ""
2 33 44
ATOM$BLUE        STATIC     ATOMS    COLORGROUP SYSTEM
6 45 46 47 48 49 50
ATOM$RED        STATIC     ATOMS    COLORGROUP SYSTEM
2 33 44
