AV-unprocessed.smi:3326|AV-procd|sdf|12785|dock10
  -GOLD-   2272019133D 1   1.00000     0.00000
 Structure written by MMmdl.
 30 31  0  0  0  0  0  0  0  0  1 V2000
  151.9710  145.2115  159.6714 F   0  0  0  0  0  0  0  0  0  0  0  0
  151.6282  144.1821  158.8959 C   0  0  0  0  0  0  0  0  0  0  0  0
  150.3040  144.0398  158.9608 F   0  0  0  0  0  0  0  0  0  0  0  0
  151.9716  144.4771  157.6420 F   0  0  0  0  0  0  0  0  0  0  0  0
  152.3135  142.8902  159.3353 C   0  0  0  0  0  0  0  0  0  0  0  0
  153.1671  142.8816  160.4622 C   0  0  0  0  0  0  0  0  0  0  0  0
  153.7845  141.6792  160.8518 C   0  0  0  0  0  0  0  0  0  0  0  0
  153.5254  140.5223  160.0962 C   0  0  0  0  0  0  0  0  0  0  0  0
  152.7145  140.5127  159.0189 N   0  0  0  0  0  0  0  0  0  0  0  0
  152.1155  141.6682  158.6404 C   0  0  0  0  0  0  0  0  0  0  0  0
  151.2785  141.6346  157.5123 N   0  0  0  0  0  0  0  0  0  0  0  0
  150.7221  140.3797  157.0208 C   0  0  0  0  0  0  0  0  0  0  0  0
  151.3351  139.9608  155.6749 C   0  0  2  0  0  0  0  0  0  0  0  0
  150.6896  138.7166  155.0722 C   0  0  0  0  0  0  0  0  0  0  0  0
  151.7801  138.2316  154.1438 C   0  0  0  0  0  0  0  0  0  0  0  0
  153.0453  138.5441  154.9406 C   0  0  0  0  0  0  0  0  0  0  0  0
  152.7017  139.5946  155.8419 O   0  0  0  0  0  0  0  0  0  0  0  0
  153.3531  143.7808  161.0301 H   0  0  0  0  0  0  0  0  0  0  0  0
  154.4407  141.6455  161.7089 H   0  0  0  0  0  0  0  0  0  0  0  0
  153.9811  139.5803  160.3628 H   0  0  0  0  0  0  0  0  0  0  0  0
  150.8052  142.4854  157.2443 H   0  0  0  0  0  0  0  0  0  0  0  0
  150.9059  139.6065  157.7671 H   0  0  0  0  0  0  0  0  0  0  0  0
  149.6385  140.4646  156.9347 H   0  0  0  0  0  0  0  0  0  0  0  0
  151.2810  140.7736  154.9486 H   0  0  0  0  0  0  0  0  0  0  0  0
  150.4955  137.9703  155.8442 H   0  0  0  0  0  0  0  0  0  0  0  0
  149.7525  138.9305  154.5577 H   0  0  0  0  0  0  0  0  0  0  0  0
  151.6878  137.1763  153.8856 H   0  0  0  0  0  0  0  0  0  0  0  0
  151.7666  138.8116  153.2199 H   0  0  0  0  0  0  0  0  0  0  0  0
  153.3587  137.6775  155.5233 H   0  0  0  0  0  0  0  0  0  0  0  0
  153.8739  138.8343  154.2937 H   0  0  0  0  0  0  0  0  0  0  0  0
  1  2  1  0  0  0  0
  2  3  1  0  0  0  0
  2  4  1  0  0  0  0
  2  5  1  0  0  0  0
  5 10  1  0  0  0  0
  5  6  2  0  0  0  0
  6  7  1  0  0  0  0
  6 18  1  0  0  0  0
  7  8  2  0  0  0  0
  7 19  1  0  0  0  0
  8  9  1  0  0  0  0
  8 20  1  0  0  0  0
  9 10  2  0  0  0  0
 10 11  1  0  0  0  0
 11 12  1  0  0  0  0
 11 21  1  0  0  0  0
 12 13  1  0  0  0  0
 12 22  1  0  0  0  0
 12 23  1  0  0  0  0
 13 17  1  0  0  0  0
 13 14  1  0  0  0  0
 13 24  1  0  0  0  0
 14 15  1  0  0  0  0
 14 25  1  0  0  0  0
 14 26  1  0  0  0  0
 15 16  1  0  0  0  0
 15 27  1  0  0  0  0
 15 28  1  0  0  0  0
 16 17  1  0  0  0  0
 16 29  1  0  0  0  0
 16 30  1  0  0  0  0
M  END
> <s_m_source_file>
AV-unprocessed.smi

> <i_m_source_file_index>
3326

> <i_lp_mmshare_version>
43012

> <i_f3d_flags>
0

> <s_epik_input>
RkMoRikoRiljMVtjSF1bY0hdW2NIXW5jMVtOSF1bQ0gyXVtDQEBIXTJbQ0gyXVtDSDJdW0NIMl1PMg==

> <s_epik_cmdline>
J2VwaWtfcHl0aG9uJywgJy1waCcsICc3LjAnLCAnLXRuJywgJzgnLCAnLW1hJywgJzIwMCcsICctbWV0YWxfYmluZGluZycsICctaW1hZScsICc8aW5maWxlLm1hZT4nLCAnLW9tYWUnLCAnPG91dGZpbGUubWFlPic=

> <r_lp_tautomer_probability>
1

> <r_epik_Ionization_Penalty>
0.000820218

> <r_epik_Ionization_Penalty_Charging>
0

> <r_epik_Ionization_Penalty_Neutral>
0.000820218

> <r_epik_State_Penalty>
0.000527207

> <r_epik_Charging_Adjusted_Penalty>
0.000527207

> <i_epik_Tot_Q>
0

> <i_epik_Tot_abs_Q>
0

> <r_epik_Metal_State_Penalty>
-0

> <b_epik_Metal_Only>
0

> <s_lp_Force_Field>
OPLS_2005

> <r_lp_Energy>
21.819

> <b_lp_Chiralities_Consistent>
1

> <s_lp_Variant>
AV-unprocessed.smi:3326-1

> <Gold.Version>
5.8.1

> <Gold.Id.Protein>
6NUR|6NUR_protein|mol2

> <Gold.PLP.Fitness>
48.3112

> <Gold.PLP.PLP>
-45.6218

> <Gold.PLP.part.hbond>
-1.0000

> <Gold.PLP.part.metal>
0.0000

> <Gold.PLP.part.buried>
-6.4090

> <Gold.PLP.part.nonpolar>
-39.1369

> <Gold.PLP.part.repulsive>
0.0598

> <Gold.PLP.ligand.clash>
0.5159

> <Gold.PLP.ligand.torsion>
0.1561

> <Gold.PLP.Chemscore.Hbond>
0.9920

> <Gold.PLP.Chemscore.CHOScore>
0.0000

> <Gold.PLP.Chemscore.Metal>
0.0000

> <Gold.Chemscore.Hbonds>
donor molecule, donor type, donor heavy atom, donor atom, acceptor molecule, acceptor atom, score
      P1  H  7997  8009       L1    17  0.96

> <Gold.PLP.Chemscore.Internal.Correction>
0.5416

> <Gold.Rescore>
     Score         DG    S(hbond)    S(metal)    S(lipo)     H(rot)  DE(clash)    DE(int)     intcor
     12.74     -15.42       0.71        0.00      91.97       1.25       0.23       2.45       ----

> <Gold.Chemscore.Fitness>
12.7370

> <Gold.Chemscore.DG>
-15.4189

> <Gold.Chemscore.ZeroCoef>
-5.4800

> <Gold.Chemscore.Hbond>
0.7131

> <Gold.Chemscore.Metal>
0.0000

> <Gold.Chemscore.Lipo>
91.9705

> <Gold.Chemscore.Internal_Hbond>
0.0000

> <Gold.Chemscore.DEClash>
0.2300

> <Gold.Chemscore.DEInternal>
2.4518

> <Gold.Chemscore.Rot>
1.2514

> <Gold.Chemscore.Internal.Correction>
   9.000000E+99

> <Gold.Chemscore.Hbonds>
donor molecule, donor type, donor heavy atom, donor atom, acceptor molecule, acceptor atom, score
      P1  H  7997  8009       L1    17  0.37

> <Gold.Chemscore.Hbond.Weighted>
-2.3819

> <Gold.Chemscore.Metal.Weighted>
-0.0000

> <Gold.Chemscore.Lipo.Weighted>
-10.7606

> <Gold.Chemscore.Internal_Hbond.Weighted>
0.0000

> <Gold.Chemscore.DEClash.Weighted>
0.2300

> <Gold.Chemscore.DEInternal.Weighted>
2.4518

> <Gold.Chemscore.Rot.Weighted>
3.2036

> <Gold.Chemscore.Internal.Correction.Weighted>
   9.000000E+99

> <Gold.Protein.RotatedTorsions>
[ 6907 6896 6895 6894 ] final -124.43 input  -60.11 | X-H torsion
[ 7974 7965 7964 7962 ] final  134.96 input  175.53 | X-H torsion
[ 8008 7997 7996 7995 ] final -176.79 input   59.86 | X-H torsion
[ 10167 10162 10161 10158 ] final  175.27 input  -65.29 | X-H torsion
[ 10718 10713 10712 10709 ] final  -77.68 input   66.30 | X-H torsion
[ 10763 10752 10751 10750 ] final  135.32 input  -60.55 | X-H torsion
[ 11005 11000 10999 10996 ] final   69.65 input  -57.11 | X-H torsion

> <Gold.Protein.ActiveResidues>
 VAL166  LYS551  ARG553  GLY616  TRP617  ASP618  TYR619  PRO620  LYS621  CYS622 
 ASP623  PHE694  ASN695  SER759  ASP760  ASP761  ALA762  ILE779  LEU786  VAL792 
 PHE793  MET794  SER795  GLU796  ALA797  LYS798  CYS799  TRP800  GLU811  SER814 

> <Gold.Protein.RotatedAtoms>
  150.8767  133.7429  159.2944 H   0  0  0  0  0  0  0  0  0  0  0  0  # atno 6907 bound_to 6896
  151.5023  135.1061  159.9842 H   0  0  0  0  0  0  0  0  0  0  0  0  # atno 6908 bound_to 6896
  152.4732  133.8033  159.7020 H   0  0  0  0  0  0  0  0  0  0  0  0  # atno 6909 bound_to 6896
  144.9711  139.4604  143.5432 H   0  0  0  0  0  0  0  0  0  0  0  0  # atno 7974 bound_to 7965
  155.9991  140.1217  157.0565 H   0  0  0  0  0  0  0  0  0  0  0  0  # atno 8008 bound_to 7997
  154.4236  140.1110  156.5741 H   0  0  0  0  0  0  0  0  0  0  0  0  # atno 8009 bound_to 7997
  155.6237  140.3472  155.4662 H   0  0  0  0  0  0  0  0  0  0  0  0  # atno 8010 bound_to 7997
  139.5171  144.3051  152.0343 H   0  0  0  0  0  0  0  0  0  0  0  0  # atno 10167 bound_to 10162
  156.0138  130.4498  150.3381 H   0  0  0  0  0  0  0  0  0  0  0  0  # atno 10718 bound_to 10713
  153.8381  135.3095  155.3424 H   0  0  0  0  0  0  0  0  0  0  0  0  # atno 10763 bound_to 10752
  154.7944  135.4764  154.0130 H   0  0  0  0  0  0  0  0  0  0  0  0  # atno 10764 bound_to 10752
  153.1592  135.6858  153.8859 H   0  0  0  0  0  0  0  0  0  0  0  0  # atno 10765 bound_to 10752
  139.9641  134.7010  156.0582 H   0  0  0  0  0  0  0  0  0  0  0  0  # atno 11005 bound_to 11000
  146.3382  139.8924  142.8807 LP  0  0  0  0  0  0  0  0  0  0  0  0  # atno 17320 bound_to 7965
  145.2557  141.0059  143.3855 LP  0  0  0  0  0  0  0  0  0  0  0  0  # atno 17321 bound_to 7965
  140.2497  144.4182  150.6226 LP  0  0  0  0  0  0  0  0  0  0  0  0  # atno 17342 bound_to 10162
  140.6233  143.2178  151.6649 LP  0  0  0  0  0  0  0  0  0  0  0  0  # atno 17343 bound_to 10162
  157.1477  131.0313  151.2899 LP  0  0  0  0  0  0  0  0  0  0  0  0  # atno 17370 bound_to 10713
  157.4418  130.7548  149.7076 LP  0  0  0  0  0  0  0  0  0  0  0  0  # atno 17371 bound_to 10713
  141.1320  133.6584  156.3491 LP  0  0  0  0  0  0  0  0  0  0  0  0  # atno 17394 bound_to 11000
  140.5434  134.6098  157.5386 LP  0  0  0  0  0  0  0  0  0  0  0  0  # atno 17395 bound_to 11000

$$$$
