AV-unprocessed.smi:995|AV-procd|sdf|4345|dock5
  -GOLD-   22720 2243D 1   1.00000     0.00000
 Structure written by MMmdl.
 37 38  0  0  0  0  0  0  0  0  1 V2000
  150.2217  135.3987  157.6050 O   0  0  0  0  0  0  0  0  0  0  0  0
  150.4584  135.3986  156.3973 C   0  0  0  0  0  0  0  0  0  0  0  0
  150.7765  136.4929  155.6802 N   0  0  0  0  0  0  0  0  0  0  0  0
  150.9221  137.8409  156.1089 C   0  0  0  0  0  0  0  0  0  0  0  0
  150.6905  138.2989  157.4285 C   0  0  0  0  0  0  0  0  0  0  0  0
  150.8679  139.6661  157.7153 C   0  0  0  0  0  0  0  0  0  0  0  0
  151.2611  140.5357  156.6790 C   0  0  0  0  0  0  0  0  0  0  0  0
  151.4395  141.8724  156.9707 O   0  0  0  0  0  0  0  0  0  0  0  0
  151.5884  142.2572  158.3350 C   0  0  0  0  0  0  0  0  0  0  0  0
  151.2639  143.7516  158.4782 C   0  0  0  0  0  0  0  0  0  0  0  0
  151.7616  144.4134  157.4327 F   0  0  0  0  0  0  0  0  0  0  0  0
  149.9373  143.8878  158.5018 F   0  0  0  0  0  0  0  0  0  0  0  0
  151.8322  144.3536  159.7735 C   0  0  0  0  0  0  0  0  0  0  0  0
  151.4600  145.6258  159.9171 F   0  0  0  0  0  0  0  0  0  0  0  0
  151.4331  143.6524  160.8348 F   0  0  0  0  0  0  0  0  0  0  0  0
  151.4688  140.1074  155.4098 N   0  0  0  0  0  0  0  0  0  0  0  0
  151.2991  138.7959  155.1422 C   0  0  0  0  0  0  0  0  0  0  0  0
  150.4075  134.0840  155.5948 C   0  0  2  0  0  0  0  0  0  0  0  0
  149.4588  134.1103  154.3728 C   0  0  0  0  0  0  0  0  0  0  0  0
  148.1012  134.1171  154.7986 O   0  0  0  0  0  0  0  0  0  0  0  0
  147.7973  132.9734  155.5843 C   0  0  0  0  0  0  0  0  0  0  0  0
  148.6873  132.9755  156.8371 C   0  0  0  0  0  0  0  0  0  0  0  0
  150.0560  132.9826  156.4369 O   0  0  0  0  0  0  0  0  0  0  0  0
  150.9969  136.3251  154.7090 H   0  0  0  0  0  0  0  0  0  0  0  0
  150.3736  137.6423  158.2228 H   0  0  0  0  0  0  0  0  0  0  0  0
  150.7033  140.0419  158.7144 H   0  0  0  0  0  0  0  0  0  0  0  0
  150.9146  141.6775  158.9685 H   0  0  0  0  0  0  0  0  0  0  0  0
  152.6101  142.0634  158.6660 H   0  0  0  0  0  0  0  0  0  0  0  0
  152.9224  144.3396  159.7706 H   0  0  0  0  0  0  0  0  0  0  0  0
  151.4754  138.4991  154.1185 H   0  0  0  0  0  0  0  0  0  0  0  0
  151.4213  133.9048  155.2352 H   0  0  0  0  0  0  0  0  0  0  0  0
  149.6443  134.9862  153.7499 H   0  0  0  0  0  0  0  0  0  0  0  0
  149.6379  133.2406  153.7388 H   0  0  0  0  0  0  0  0  0  0  0  0
  146.7452  133.0054  155.8679 H   0  0  0  0  0  0  0  0  0  0  0  0
  147.9459  132.0631  155.0013 H   0  0  0  0  0  0  0  0  0  0  0  0
  148.4590  133.8313  157.4737 H   0  0  0  0  0  0  0  0  0  0  0  0
  148.4998  132.0827  157.4335 H   0  0  0  0  0  0  0  0  0  0  0  0
  1  2  2  0  0  0  0
  2  3  1  0  0  0  0
  2 18  1  0  0  0  0
  3  4  1  0  0  0  0
  3 24  1  0  0  0  0
  4 17  1  0  0  0  0
  4  5  2  0  0  0  0
  5  6  1  0  0  0  0
  5 25  1  0  0  0  0
  6  7  2  0  0  0  0
  6 26  1  0  0  0  0
  7  8  1  0  0  0  0
  7 16  1  0  0  0  0
  8  9  1  0  0  0  0
  9 10  1  0  0  0  0
  9 27  1  0  0  0  0
  9 28  1  0  0  0  0
 10 11  1  0  0  0  0
 10 12  1  0  0  0  0
 10 13  1  0  0  0  0
 13 14  1  0  0  0  0
 13 15  1  0  0  0  0
 13 29  1  0  0  0  0
 16 17  2  0  0  0  0
 17 30  1  0  0  0  0
 18 23  1  0  0  0  0
 18 19  1  0  0  0  0
 18 31  1  0  0  0  0
 19 20  1  0  0  0  0
 19 32  1  0  0  0  0
 19 33  1  0  0  0  0
 20 21  1  0  0  0  0
 21 22  1  0  0  0  0
 21 34  1  0  0  0  0
 21 35  1  0  0  0  0
 22 23  1  0  0  0  0
 22 36  1  0  0  0  0
 22 37  1  0  0  0  0
M  END
> <s_m_source_file>
AV-unprocessed.smi

> <i_m_source_file_index>
995

> <i_lp_mmshare_version>
43012

> <i_f3d_flags>
0

> <s_epik_input>
TzFbQ0gyXVtDSDJdT1tDSDJdW0NASF0xQyg9TylbTkhdYzJbY0hdW2NIXWMobltjSF0yKU9bQ0gyXUMoRikoRilbQ0hdKEYpRg==

> <s_epik_cmdline>
J2VwaWtfcHl0aG9uJywgJy1waCcsICc3LjAnLCAnLXRuJywgJzgnLCAnLW1hJywgJzIwMCcsICctbWV0YWxfYmluZGluZycsICctaW1hZScsICc8aW5maWxlLm1hZT4nLCAnLW9tYWUnLCAnPG91dGZpbGUubWFlPic=

> <r_lp_tautomer_probability>
1

> <r_epik_Ionization_Penalty>
2.54436e-06

> <r_epik_Ionization_Penalty_Charging>
0

> <r_epik_Ionization_Penalty_Neutral>
2.54436e-06

> <r_epik_State_Penalty>
-0

> <r_epik_Charging_Adjusted_Penalty>
0

> <i_epik_Tot_Q>
0

> <i_epik_Tot_abs_Q>
0

> <r_epik_Metal_State_Penalty>
-0

> <b_epik_Metal_Only>
0

> <s_lp_Force_Field>
OPLS_2005

> <r_lp_Energy>
9.34037

> <b_lp_Chiralities_Consistent>
1

> <s_lp_Variant>
AV-unprocessed.smi:995-1

> <Gold.Version>
5.8.1

> <Gold.Id.Protein>
6NUR|6NUR_protein|mol2

> <Gold.PLP.Fitness>
41.9737

> <Gold.PLP.PLP>
-38.8065

> <Gold.PLP.part.hbond>
-2.0000

> <Gold.PLP.part.metal>
0.0000

> <Gold.PLP.part.buried>
-5.3620

> <Gold.PLP.part.nonpolar>
-31.6141

> <Gold.PLP.part.repulsive>
0.2017

> <Gold.PLP.ligand.clash>
0.0000

> <Gold.PLP.ligand.torsion>
0.6537

> <Gold.PLP.Chemscore.Hbond>
1.4524

> <Gold.PLP.Chemscore.CHOScore>
0.0000

> <Gold.PLP.Chemscore.Metal>
0.0000

> <Gold.Chemscore.Hbonds>
donor molecule, donor type, donor heavy atom, donor atom, acceptor molecule, acceptor atom, score
      P1  H  6896  6907       L1     1  0.46
      P1  H  7989  7998       L1    16  0.93

> <Gold.PLP.Chemscore.Internal.Correction>
0.1174

> <Gold.Rescore>
     Score         DG    S(hbond)    S(metal)    S(lipo)     H(rot)  DE(clash)    DE(int)     intcor
      9.03     -12.76       1.59        0.00      63.29       2.12       0.70       3.03       ----

> <Gold.Chemscore.Fitness>
9.0292

> <Gold.Chemscore.DG>
-12.7631

> <Gold.Chemscore.ZeroCoef>
-5.4800

> <Gold.Chemscore.Hbond>
1.5863

> <Gold.Chemscore.Metal>
0.0000

> <Gold.Chemscore.Lipo>
63.2906

> <Gold.Chemscore.Internal_Hbond>
0.0000

> <Gold.Chemscore.DEClash>
0.7008

> <Gold.Chemscore.DEInternal>
3.0331

> <Gold.Chemscore.Rot>
2.1172

> <Gold.Chemscore.Internal.Correction>
   9.000000E+99

> <Gold.Chemscore.Hbonds>
donor molecule, donor type, donor heavy atom, donor atom, acceptor molecule, acceptor atom, score
      P1  H  6896  6907       L1     1  0.45
      P1  H  7989  7998       L1    16  0.25

> <Gold.Chemscore.Hbond.Weighted>
-5.2981

> <Gold.Chemscore.Metal.Weighted>
-0.0000

> <Gold.Chemscore.Lipo.Weighted>
-7.4050

> <Gold.Chemscore.Internal_Hbond.Weighted>
0.0000

> <Gold.Chemscore.DEClash.Weighted>
0.7008

> <Gold.Chemscore.DEInternal.Weighted>
3.0331

> <Gold.Chemscore.Rot.Weighted>
5.4200

> <Gold.Chemscore.Internal.Correction.Weighted>
   9.000000E+99

> <Gold.Protein.RotatedTorsions>
[ 6907 6896 6895 6894 ] final  -89.39 input  -60.11 | X-H torsion
[ 7974 7965 7964 7962 ] final  -64.20 input  175.53 | X-H torsion
[ 8008 7997 7996 7995 ] final  -89.32 input   59.86 | X-H torsion
[ 10167 10162 10161 10158 ] final -173.44 input  -65.29 | X-H torsion
[ 10718 10713 10712 10709 ] final  -54.76 input   66.30 | X-H torsion
[ 10763 10752 10751 10750 ] final  105.56 input  -60.55 | X-H torsion
[ 11005 11000 10999 10996 ] final   53.68 input  -57.11 | X-H torsion

> <Gold.Protein.ActiveResidues>
 VAL166  LYS551  ARG553  GLY616  TRP617  ASP618  TYR619  PRO620  LYS621  CYS622 
 ASP623  PHE694  ASN695  SER759  ASP760  ASP761  ALA762  ILE779  LEU786  VAL792 
 PHE793  MET794  SER795  GLU796  ALA797  LYS798  CYS799  TRP800  GLU811  SER814 

> <Gold.Protein.RotatedAtoms>
  150.6873  134.2594  159.4542 H   0  0  0  0  0  0  0  0  0  0  0  0  # atno 6907 bound_to 6896
  152.0525  134.9642  160.0584 H   0  0  0  0  0  0  0  0  0  0  0  0  # atno 6908 bound_to 6896
  152.1101  133.4261  159.4664 H   0  0  0  0  0  0  0  0  0  0  0  0  # atno 6909 bound_to 6896
  145.7696  140.8819  143.0387 H   0  0  0  0  0  0  0  0  0  0  0  0  # atno 7974 bound_to 7965
  154.6852  140.0543  157.0307 H   0  0  0  0  0  0  0  0  0  0  0  0  # atno 8008 bound_to 7997
  155.0895  140.3218  155.4559 H   0  0  0  0  0  0  0  0  0  0  0  0  # atno 8009 bound_to 7997
  156.2708  140.2050  156.6022 H   0  0  0  0  0  0  0  0  0  0  0  0  # atno 8010 bound_to 7997
  139.5688  144.1690  152.1353 H   0  0  0  0  0  0  0  0  0  0  0  0  # atno 10167 bound_to 10162
  156.1424  130.4154  150.0080 H   0  0  0  0  0  0  0  0  0  0  0  0  # atno 10718 bound_to 10713
  153.3810  135.3906  155.1856 H   0  0  0  0  0  0  0  0  0  0  0  0  # atno 10763 bound_to 10752
  154.8707  135.3725  154.4857 H   0  0  0  0  0  0  0  0  0  0  0  0  # atno 10764 bound_to 10752
  153.5334  135.7085  153.5733 H   0  0  0  0  0  0  0  0  0  0  0  0  # atno 10765 bound_to 10752
  140.0747  134.5420  155.9009 H   0  0  0  0  0  0  0  0  0  0  0  0  # atno 11005 bound_to 11000
  144.6815  139.9836  143.7483 LP  0  0  0  0  0  0  0  0  0  0  0  0  # atno 17320 bound_to 7965
  146.0183  139.3229  143.0828 LP  0  0  0  0  0  0  0  0  0  0  0  0  # atno 17321 bound_to 7965
  140.1219  144.5366  150.6857 LP  0  0  0  0  0  0  0  0  0  0  0  0  # atno 17342 bound_to 10162
  140.6973  143.2412  151.4966 LP  0  0  0  0  0  0  0  0  0  0  0  0  # atno 17343 bound_to 10162
  156.7961  130.9274  151.3646 LP  0  0  0  0  0  0  0  0  0  0  0  0  # atno 17370 bound_to 10713
  157.6587  130.8947  149.9784 LP  0  0  0  0  0  0  0  0  0  0  0  0  # atno 17371 bound_to 10713
  141.2025  133.6625  156.6010 LP  0  0  0  0  0  0  0  0  0  0  0  0  # atno 17394 bound_to 11000
  140.3575  134.7716  157.4510 LP  0  0  0  0  0  0  0  0  0  0  0  0  # atno 17395 bound_to 11000

$$$$
