#       Name:                AV-unprocessed.smi:571
#       Creating user name   scv26
#       Creation time:       Thu Mar 26 23:46:58 2020


#       File generated by GOLD software.
#

@<TRIPOS>MOLECULE
AV-unprocessed.smi:571
    48    49     1
SMALL
NO_CHARGES


@<TRIPOS>ATOM
      1 ****        -2.1204  -0.5336  -2.4774 C.3            1 S1                 0.0000
      2 ****        -1.5186   0.2412  -1.2972 C.3            1 S1                 0.0000
      3 ****        -2.0446  -0.2937   0.0541 C.3            1 S1                 0.0000
      4 ****        -1.4676   0.4129   1.2267 N.4            1 S1                 1.0000
      5 ****        -1.4362  -0.4314   2.4485 C.3            1 S1                 0.0000
      6 ****        -0.6903   0.2787   3.5909 C.3            1 S1                 0.0000
      7 ****        -1.3130   1.6491   3.8882 C.3            1 S1                 0.0000
      8 ****        -1.3724   2.4883   2.6051 C.3            1 S1                 0.0000
      9 ****        -2.1055   1.7310   1.4856 C.3            1 S1                 0.0000
     10 ****        -0.0603   0.1561  -1.3682 N.am           1 S1                 0.0000
     11 ****         0.8107   1.1363  -1.0687 C.2            1 S1                 0.0000
     12 ****         0.4541   2.2402  -0.6594 O.2            1 S1                 0.0000
     13 ****         2.3140   0.8520  -1.2293 C.3            1 S1                 0.0000
     14 ****         2.6442  -0.4947  -1.7296 N.am           1 S1                 0.0000
     15 ****         2.9166  -1.4850  -0.7648 C.2            1 S1                 0.0000
     16 ****         3.2280  -2.7446  -1.1087 C.2            1 S1                 0.0000
     17 ****         3.2820  -3.0750  -2.5132 C.2            1 S1                 0.0000
     18 ****         3.0182  -2.1368  -3.4441 C.2            1 S1                 0.0000
     19 ****         2.6702  -0.7605  -3.0725 C.2            1 S1                 0.0000
     20 ****         2.4093   0.0987  -3.9147 O.2            1 S1                 0.0000
     21 ****        -3.2086  -0.4657  -2.4770 H              1 S1                 0.0000
     22 ****        -1.8532  -1.5904  -2.4400 H              1 S1                 0.0000
     23 ****        -1.7678  -0.1355  -3.4296 H              1 S1                 0.0000
     24 ****        -1.8251   1.2812  -1.4159 H              1 S1                 0.0000
     25 ****        -3.1337  -0.2411   0.0938 H              1 S1                 0.0000
     26 ****        -1.7916  -1.3534   0.1149 H              1 S1                 0.0000
     27 ****        -2.4558  -0.6735   2.7528 H              1 S1                 0.0000
     28 ****        -0.9355  -1.3759   2.2318 H              1 S1                 0.0000
     29 ****        -0.7058  -0.3402   4.4884 H              1 S1                 0.0000
     30 ****         0.3588   0.4045   3.3195 H              1 S1                 0.0000
     31 ****        -2.3185   1.5182   4.2902 H              1 S1                 0.0000
     32 ****        -0.7349   2.1686   4.6530 H              1 S1                 0.0000
     33 ****        -1.8728   3.4366   2.8039 H              1 S1                 0.0000
     34 ****        -0.3608   2.7341   2.2791 H              1 S1                 0.0000
     35 ****        -2.0962   2.3390   0.5816 H              1 S1                 0.0000
     36 ****        -3.1524   1.5840   1.7556 H              1 S1                 0.0000
     37 ****         0.3218  -0.7186  -1.6990 H              1 S1                 0.0000
     38 ****         2.7405   1.6146  -1.8833 H              1 S1                 0.0000
     39 ****         2.7921   1.0164  -0.2626 H              1 S1                 0.0000
     40 ****         2.8518  -1.1567   0.2626 H              1 S1                 0.0000
     41 ****         3.4326  -3.4914  -0.3556 H              1 S1                 0.0000
     42 ****         3.5359  -4.0792  -2.8193 H              1 S1                 0.0000
     43 ****         3.0642  -2.4026  -4.4901 H              1 S1                 0.0000
     44 ****        -0.5025   0.5984   0.9928 H              1 S1                 0.0000
     45 ****        -0.5185   2.4379  -0.5372 LP             1 S1                 0.0000
     46 ****         1.1368   2.9399  -0.4489 LP             1 S1                 0.0000
     47 ****         2.1688   1.0253  -3.6257 LP             1 S1                 0.0000
     48 ****         2.4379  -0.1300  -4.8877 LP             1 S1                 0.0000
@<TRIPOS>BOND
    1    1    2 1     
    2    1   21 1     
    3    1   22 1     
    4    1   23 1     
    5    2    3 1     
    6    2   10 1     
    7    2   24 1     
    8    3    4 1     
    9    3   25 1     
   10    3   26 1     
   11    4    9 1     
   12    4    5 1     
   13    4   44 1     
   14    5    6 1     
   15    5   27 1     
   16    5   28 1     
   17    6    7 1     
   18    6   29 1     
   19    6   30 1     
   20    7    8 1     
   21    7   31 1     
   22    7   32 1     
   23    8    9 1     
   24    8   33 1     
   25    8   34 1     
   26    9   35 1     
   27    9   36 1     
   28   10   11 am    
   29   10   37 1     
   30   11   12 2     
   31   11   13 1     
   32   13   14 1     
   33   13   38 1     
   34   13   39 1     
   35   14   19 am    
   36   14   15 1     
   37   15   16 2     
   38   15   40 1     
   39   16   17 1     
   40   16   41 1     
   41   17   18 2     
   42   17   42 1     
   43   18   19 1     
   44   18   43 1     
   45   19   20 2     
   46   12   45 1     
   47   12   46 1     
   48   20   47 1     
   49   20   48 1     
@<TRIPOS>SUBSTRUCTURE
      1 S1             1
@<TRIPOS>SET
LONE_PAIRS      STATIC     ATOMS    <user>   **** ""
4 45 46 47 48
DONOR_HYDROGENS      STATIC     ATOMS    <user>   **** ""
2 44 37
ATOM$BLUE        STATIC     ATOMS    COLORGROUP SYSTEM
4 45 46 47 48
ATOM$RED        STATIC     ATOMS    COLORGROUP SYSTEM
2 44 37
