AV-unprocessed.smi:726|AV-procd|sdf|3510|dock8
  -GOLD-   22720 0513D 1   1.00000     0.00000
 Structure written by MMmdl.
 24 24  0  0  0  0  0  0  0  0  2 V2000
  149.5513  137.5110  154.7533 C   0  0  0  0  0  0  0  0  0  0  0  0
  149.7755  138.9638  155.1579 C   0  0  0  0  0  0  0  0  0  0  0  0
  149.2074  139.9524  154.4431 C   0  0  0  0  0  0  0  0  0  0  0  0
  149.4509  141.3268  154.7943 C   0  0  0  0  0  0  0  0  0  0  0  0
  148.8674  142.3126  154.1014 O   0  0  0  0  0  0  0  0  0  0  0  0
  150.2768  141.6112  155.8150 C   0  0  0  0  0  0  0  0  0  0  0  0
  150.9349  140.5634  156.5980 C   0  0  0  0  0  0  0  0  0  0  0  0
  151.7240  140.8632  157.4937 O   0  0  0  0  0  0  0  0  0  0  0  0
  150.6259  139.2602  156.2730 N   0  0  0  0  0  0  0  0  0  0  0  0
  151.1445  138.1466  157.1259 C   0  0  2  0  0  0  0  0  0  0  0  0
  150.6652  138.2194  158.5978 C   0  0  0  0  0  0  0  0  0  0  0  0
  152.6588  137.9302  156.9506 C   0  0  0  0  0  0  0  0  0  0  0  0
  153.0455  136.8316  156.4942 O   0  0  0  0  0  0  0  0  0  0  0  0
  153.4089  138.8749  157.2808 O   0  5  0  0  0  0  0  0  0  0  0  0
  149.0595  137.4499  153.7819 H   0  0  0  0  0  0  0  0  0  0  0  0
  148.9101  137.0025  155.4738 H   0  0  0  0  0  0  0  0  0  0  0  0
  150.4928  136.9699  154.6601 H   0  0  0  0  0  0  0  0  0  0  0  0
  148.5802  139.7207  153.5944 H   0  0  0  0  0  0  0  0  0  0  0  0
  148.9081  143.0939  154.6312 H   0  0  0  0  0  0  0  0  0  0  0  0
  150.4639  142.6437  156.0734 H   0  0  0  0  0  0  0  0  0  0  0  0
  150.7201  137.1961  156.8196 H   0  0  0  0  0  0  0  0  0  0  0  0
  150.9113  137.2969  159.1246 H   0  0  0  0  0  0  0  0  0  0  0  0
  149.5829  138.3393  158.6482 H   0  0  0  0  0  0  0  0  0  0  0  0
  151.1180  139.0299  159.1671 H   0  0  0  0  0  0  0  0  0  0  0  0
  1  2  1  0  0  0  0
  1 15  1  0  0  0  0
  1 16  1  0  0  0  0
  1 17  1  0  0  0  0
  2  9  1  0  0  0  0
  2  3  2  0  0  0  0
  3  4  1  0  0  0  0
  3 18  1  0  0  0  0
  4  5  1  0  0  0  0
  4  6  2  0  0  0  0
  5 19  1  0  0  0  0
  6  7  1  0  0  0  0
  6 20  1  0  0  0  0
  7  8  2  0  0  0  0
  7  9  1  0  0  0  0
  9 10  1  0  0  0  0
 10 11  1  0  0  0  0
 10 12  1  0  0  0  0
 10 21  1  0  0  0  0
 11 22  1  0  0  0  0
 11 23  1  0  0  0  0
 11 24  1  0  0  0  0
 12 13  2  0  0  0  0
 12 14  1  0  0  0  0
M  CHG  1  14  -1
M  END
> <s_m_source_file>
AV-unprocessed.smi

> <i_m_source_file_index>
726

> <i_lp_mmshare_version>
43012

> <i_f3d_flags>
0

> <s_epik_input>
W0NIM11jMVtjSF1jKFtPSF0pW2NIXWMoPU8pbjFbQ0BIXShbQ0gzXSlDKD1PKVtPSF0=

> <s_epik_cmdline>
J2VwaWtfcHl0aG9uJywgJy1waCcsICc3LjAnLCAnLXRuJywgJzgnLCAnLW1hJywgJzIwMCcsICctbWV0YWxfYmluZGluZycsICctaW1hZScsICc8aW5maWxlLm1hZT4nLCAnLW9tYWUnLCAnPG91dGZpbGUubWFlPic=

> <r_lp_tautomer_probability>
0.999984

> <r_epik_Ionization_Penalty>
0.316948

> <r_epik_Ionization_Penalty_Charging>
0.000813874

> <r_epik_Ionization_Penalty_Neutral>
0.316134

> <r_epik_State_Penalty>
0.363429

> <r_epik_Charging_Adjusted_Penalty>
0.364242

> <i_epik_Tot_Q>
-1

> <i_epik_Tot_abs_Q>
1

> <r_epik_Metal_State_Penalty>
0.363429

> <b_epik_Metal_Only>
0

> <s_lp_Force_Field>
OPLS_2005

> <r_lp_Energy>
20.5014

> <b_lp_Chiralities_Consistent>
1

> <s_lp_Variant>
AV-unprocessed.smi:726-1

> <Gold.Version>
5.8.1

> <Gold.Id.Protein>
6NUR|6NUR_protein|mol2

> <Gold.PLP.Fitness>
35.3476

> <Gold.PLP.PLP>
-20.5495

> <Gold.PLP.part.hbond>
-3.9835

> <Gold.PLP.part.metal>
0.0000

> <Gold.PLP.part.buried>
-1.9362

> <Gold.PLP.part.nonpolar>
-14.4053

> <Gold.PLP.part.repulsive>
0.0000

> <Gold.PLP.ligand.clash>
0.0000

> <Gold.PLP.ligand.torsion>
0.1996

> <Gold.PLP.Chemscore.Hbond>
4.9680

> <Gold.PLP.Chemscore.CHOScore>
0.0000

> <Gold.PLP.Chemscore.Metal>
0.0000

> <Gold.Chemscore.Hbonds>
donor molecule, donor type, donor heavy atom, donor atom, acceptor molecule, acceptor atom, score
      L1  H     5    19       P1  8028  1.00
      P1  H  7997  8009       L1    14  1.95
      P1  H  8011  8017       L1     5  0.24
      P1  H 10752 10764       L1    13  1.73

> <Gold.PLP.Chemscore.Internal.Correction>
0.2932

> <Gold.Rescore>
     Score         DG    S(hbond)    S(metal)    S(lipo)     H(rot)  DE(clash)    DE(int)     intcor
     12.31     -15.09       3.09        0.00      39.00       2.06       0.00       2.77       ----

> <Gold.Chemscore.Fitness>
12.3149

> <Gold.Chemscore.DG>
-15.0876

> <Gold.Chemscore.ZeroCoef>
-5.4800

> <Gold.Chemscore.Hbond>
3.0887

> <Gold.Chemscore.Metal>
0.0000

> <Gold.Chemscore.Lipo>
38.9974

> <Gold.Chemscore.Internal_Hbond>
0.0000

> <Gold.Chemscore.DEClash>
0.0048

> <Gold.Chemscore.DEInternal>
2.7679

> <Gold.Chemscore.Rot>
2.0592

> <Gold.Chemscore.Internal.Correction>
   9.000000E+99

> <Gold.Chemscore.Hbonds>
donor molecule, donor type, donor heavy atom, donor atom, acceptor molecule, acceptor atom, score
      L1  H     5    19       P1  8028  1.00
      P1  H  7997  8009       L1    14  0.93
      P1  H  8011  8017       L1     5  0.14
      P1  H 10752 10764       L1    13  0.85

> <Gold.Chemscore.Hbond.Weighted>
-10.3164

> <Gold.Chemscore.Metal.Weighted>
-0.0000

> <Gold.Chemscore.Lipo.Weighted>
-4.5627

> <Gold.Chemscore.Internal_Hbond.Weighted>
0.0000

> <Gold.Chemscore.DEClash.Weighted>
0.0048

> <Gold.Chemscore.DEInternal.Weighted>
2.7679

> <Gold.Chemscore.Rot.Weighted>
5.2715

> <Gold.Chemscore.Internal.Correction.Weighted>
   9.000000E+99

> <Gold.Protein.RotatedTorsions>
[ 6907 6896 6895 6894 ] final  -58.74 input  -60.11 | X-H torsion
[ 7974 7965 7964 7962 ] final  100.15 input  175.53 | X-H torsion
[ 8008 7997 7996 7995 ] final  150.00 input   59.86 | X-H torsion
[ 10167 10162 10161 10158 ] final  102.48 input  -65.29 | X-H torsion
[ 10718 10713 10712 10709 ] final -153.01 input   66.30 | X-H torsion
[ 10763 10752 10751 10750 ] final   -3.05 input  -60.55 | X-H torsion
[ 11005 11000 10999 10996 ] final -152.97 input  -57.11 | X-H torsion

> <Gold.Protein.ActiveResidues>
 VAL166  LYS551  ARG553  GLY616  TRP617  ASP618  TYR619  PRO620  LYS621  CYS622 
 ASP623  PHE694  ASN695  SER759  ASP760  ASP761  ALA762  ILE779  LEU786  VAL792 
 PHE793  MET794  SER795  GLU796  ALA797  LYS798  CYS799  TRP800  GLU811  SER814 

> <Gold.Protein.RotatedAtoms>
  150.7983  134.7059  159.6576 H   0  0  0  0  0  0  0  0  0  0  0  0  # atno 6907 bound_to 6896
  152.4098  134.6141  160.0043 H   0  0  0  0  0  0  0  0  0  0  0  0  # atno 6908 bound_to 6896
  151.6387  133.3290  159.3161 H   0  0  0  0  0  0  0  0  0  0  0  0  # atno 6909 bound_to 6896
  145.3894  139.2365  143.3360 H   0  0  0  0  0  0  0  0  0  0  0  0  # atno 7974 bound_to 7965
  156.2733  140.2086  156.5947 H   0  0  0  0  0  0  0  0  0  0  0  0  # atno 8008 bound_to 7997
  154.6954  140.0526  157.0428 H   0  0  0  0  0  0  0  0  0  0  0  0  # atno 8009 bound_to 7997
  155.0808  140.3186  155.4605 H   0  0  0  0  0  0  0  0  0  0  0  0  # atno 8010 bound_to 7997
  139.7346  144.7027  151.0668 H   0  0  0  0  0  0  0  0  0  0  0  0  # atno 10167 bound_to 10162
  156.4801  130.8299  151.2526 H   0  0  0  0  0  0  0  0  0  0  0  0  # atno 10718 bound_to 10713
  153.3662  135.6992  153.6673 H   0  0  0  0  0  0  0  0  0  0  0  0  # atno 10763 bound_to 10752
  153.5342  135.3586  155.2690 H   0  0  0  0  0  0  0  0  0  0  0  0  # atno 10764 bound_to 10752
  154.8675  135.4188  154.2930 H   0  0  0  0  0  0  0  0  0  0  0  0  # atno 10765 bound_to 10752
  140.7131  134.3810  157.5195 H   0  0  0  0  0  0  0  0  0  0  0  0  # atno 11005 bound_to 11000
  146.2805  140.4574  142.8778 LP  0  0  0  0  0  0  0  0  0  0  0  0  # atno 17320 bound_to 7965
  144.8451  140.6916  143.6204 LP  0  0  0  0  0  0  0  0  0  0  0  0  # atno 17321 bound_to 7965
  140.7777  143.5000  150.9784 LP  0  0  0  0  0  0  0  0  0  0  0  0  # atno 17342 bound_to 10162
  139.8688  143.7219  152.3168 LP  0  0  0  0  0  0  0  0  0  0  0  0  # atno 17343 bound_to 10162
  157.7484  131.0048  150.3088 LP  0  0  0  0  0  0  0  0  0  0  0  0  # atno 17370 bound_to 10713
  156.3530  130.3834  149.7313 LP  0  0  0  0  0  0  0  0  0  0  0  0  # atno 17371 bound_to 10713
  139.8866  134.8904  156.2573 LP  0  0  0  0  0  0  0  0  0  0  0  0  # atno 17394 bound_to 11000
  141.0067  133.7119  156.1046 LP  0  0  0  0  0  0  0  0  0  0  0  0  # atno 17395 bound_to 11000

$$$$
