AV-unprocessed.smi:356|AV-procd|sdf|2409|dock7
  -GOLD-   2262022343D 1   1.00000     0.00000
 Structure written by MMmdl.
 41 43  0  0  0  0  0  0  0  0  1 V2000
  147.1515  135.3733  154.4734 C   0  0  0  0  0  0  0  0  0  0  0  0
  146.4969  134.6891  153.3154 C   0  0  0  0  0  0  0  0  0  0  0  0
  146.6665  133.3892  153.0711 N   0  0  0  0  0  0  0  0  0  0  0  0
  145.9032  133.1923  151.9364 C   0  0  0  0  0  0  0  0  0  0  0  0
  145.6692  132.0230  151.1776 C   0  0  0  0  0  0  0  0  0  0  0  0
  144.8400  132.0660  150.0375 C   0  0  0  0  0  0  0  0  0  0  0  0
  144.2343  133.2756  149.6402 C   0  0  0  0  0  0  0  0  0  0  0  0
  144.4540  134.4522  150.3819 C   0  0  0  0  0  0  0  0  0  0  0  0
  145.2825  134.4038  151.5191 C   0  0  0  0  0  0  0  0  0  0  0  0
  145.6951  135.3542  152.4470 N   0  0  0  0  0  0  0  0  0  0  0  0
  145.3270  136.7639  152.4524 C   0  0  0  0  0  0  0  0  0  0  0  0
  146.5051  137.6860  152.0822 C   0  0  1  0  0  0  0  0  0  0  0  0
  146.5299  137.8768  150.6814 O   0  0  0  0  0  0  0  0  0  0  0  0
  146.3758  139.0644  152.7600 C   0  0  0  0  0  0  0  0  0  0  0  0
  147.6354  139.6902  153.1674 N   0  0  0  0  0  0  0  0  0  0  0  0
  148.4394  138.8352  154.0396 C   0  0  0  0  0  0  0  0  0  0  0  0
  149.7420  139.5270  154.4794 C   0  0  0  0  0  0  0  0  0  0  0  0
  149.4385  140.7629  155.1173 O   0  0  0  0  0  0  0  0  0  0  0  0
  148.6956  141.6433  154.2809 C   0  0  0  0  0  0  0  0  0  0  0  0
  147.3888  140.9575  153.8478 C   0  0  0  0  0  0  0  0  0  0  0  0
  147.6928  134.6529  155.0876 H   0  0  0  0  0  0  0  0  0  0  0  0
  146.4047  135.8619  155.0990 H   0  0  0  0  0  0  0  0  0  0  0  0
  147.8596  136.1216  154.1169 H   0  0  0  0  0  0  0  0  0  0  0  0
  146.1287  131.0916  151.4737 H   0  0  0  0  0  0  0  0  0  0  0  0
  144.6683  131.1662  149.4650 H   0  0  0  0  0  0  0  0  0  0  0  0
  143.6005  133.2997  148.7657 H   0  0  0  0  0  0  0  0  0  0  0  0
  143.9912  135.3802  150.0814 H   0  0  0  0  0  0  0  0  0  0  0  0
  144.4856  136.9264  151.7788 H   0  0  0  0  0  0  0  0  0  0  0  0
  144.9648  137.0103  153.4514 H   0  0  0  0  0  0  0  0  0  0  0  0
  147.4314  137.1956  152.3787 H   0  0  0  0  0  0  0  0  0  0  0  0
  145.7412  138.3340  150.4306 H   0  0  0  0  0  0  0  0  0  0  0  0
  145.8525  139.7285  152.0701 H   0  0  0  0  0  0  0  0  0  0  0  0
  145.7257  138.9750  153.6316 H   0  0  0  0  0  0  0  0  0  0  0  0
  147.8619  138.5598  154.9234 H   0  0  0  0  0  0  0  0  0  0  0  0
  148.6983  137.9067  153.5329 H   0  0  0  0  0  0  0  0  0  0  0  0
  150.2922  138.8928  155.1747 H   0  0  0  0  0  0  0  0  0  0  0  0
  150.3937  139.7037  153.6223 H   0  0  0  0  0  0  0  0  0  0  0  0
  148.4799  142.5600  154.8299 H   0  0  0  0  0  0  0  0  0  0  0  0
  149.2927  141.9224  153.4111 H   0  0  0  0  0  0  0  0  0  0  0  0
  146.8328  141.6281  153.1915 H   0  0  0  0  0  0  0  0  0  0  0  0
  146.7622  140.7908  154.7255 H   0  0  0  0  0  0  0  0  0  0  0  0
  1  2  1  0  0  0  0
  1 21  1  0  0  0  0
  1 22  1  0  0  0  0
  1 23  1  0  0  0  0
  2 10  1  0  0  0  0
  2  3  2  0  0  0  0
  3  4  1  0  0  0  0
  4  9  2  0  0  0  0
  4  5  1  0  0  0  0
  5  6  2  0  0  0  0
  5 24  1  0  0  0  0
  6  7  1  0  0  0  0
  6 25  1  0  0  0  0
  7  8  2  0  0  0  0
  7 26  1  0  0  0  0
  8  9  1  0  0  0  0
  8 27  1  0  0  0  0
  9 10  1  0  0  0  0
 10 11  1  0  0  0  0
 11 12  1  0  0  0  0
 11 28  1  0  0  0  0
 11 29  1  0  0  0  0
 12 13  1  0  0  0  0
 12 14  1  0  0  0  0
 12 30  1  0  0  0  0
 13 31  1  0  0  0  0
 14 15  1  0  0  0  0
 14 32  1  0  0  0  0
 14 33  1  0  0  0  0
 15 20  1  0  0  0  0
 15 16  1  0  0  0  0
 16 17  1  0  0  0  0
 16 34  1  0  0  0  0
 16 35  1  0  0  0  0
 17 18  1  0  0  0  0
 17 36  1  0  0  0  0
 17 37  1  0  0  0  0
 18 19  1  0  0  0  0
 19 20  1  0  0  0  0
 19 38  1  0  0  0  0
 19 39  1  0  0  0  0
 20 40  1  0  0  0  0
 20 41  1  0  0  0  0
M  END
> <s_m_source_file>
AV-unprocessed.smi

> <i_m_source_file_index>
356

> <i_lp_mmshare_version>
43012

> <i_f3d_flags>
0

> <s_epik_input>
W2NIXTFbY0hdW2NIXVtjSF1jKGMxMiluKGMobjIpW0NIM10pW0NIMl1bQ0BIXShbT0hdKVtDSDJdTjNbQ0gyXVtDSDJdT1tDSDJdW0NIMl0z

> <s_epik_cmdline>
J2VwaWtfcHl0aG9uJywgJy1waCcsICc3LjAnLCAnLXRuJywgJzgnLCAnLW1hJywgJzIwMCcsICctbWV0YWxfYmluZGluZycsICctaW1hZScsICc8aW5maWxlLm1hZT4nLCAnLW9tYWUnLCAnPG91dGZpbGUubWFlPic=

> <r_epik_Ionization_Penalty>
0.355661

> <r_epik_Ionization_Penalty_Charging>
0

> <r_epik_Ionization_Penalty_Neutral>
0.355661

> <r_epik_State_Penalty>
0.325123

> <r_epik_Charging_Adjusted_Penalty>
0.325123

> <i_epik_Tot_Q>
0

> <i_epik_Tot_abs_Q>
0

> <r_epik_Metal_State_Penalty>
0.239925

> <b_epik_Metal_Only>
0

> <s_lp_Force_Field>
OPLS_2005

> <r_lp_Energy>
29.7319

> <b_lp_Chiralities_Consistent>
1

> <s_lp_Variant>
AV-unprocessed.smi:356-2

> <Gold.Version>
5.8.1

> <Gold.Id.Protein>
6NUR|6NUR_protein|mol2

> <Gold.PLP.Fitness>
37.7027

> <Gold.PLP.PLP>
-33.5751

> <Gold.PLP.part.hbond>
-2.6339

> <Gold.PLP.part.metal>
0.0000

> <Gold.PLP.part.buried>
-0.6775

> <Gold.PLP.part.nonpolar>
-32.1872

> <Gold.PLP.part.repulsive>
2.2068

> <Gold.PLP.ligand.clash>
0.0000

> <Gold.PLP.ligand.torsion>
0.9449

> <Gold.PLP.Chemscore.Hbond>
2.0000

> <Gold.PLP.Chemscore.CHOScore>
0.0000

> <Gold.PLP.Chemscore.Metal>
0.0000

> <Gold.Chemscore.Hbonds>
donor molecule, donor type, donor heavy atom, donor atom, acceptor molecule, acceptor atom, score
      L1  H    13    31       P1 10171  1.00
      P1  H  7954  7966       L1    13  1.00

> <Gold.PLP.Chemscore.Internal.Correction>
0.0174

> <Gold.Rescore>
     Score         DG    S(hbond)    S(metal)    S(lipo)     H(rot)  DE(clash)    DE(int)     intcor
     15.27     -17.73       1.92        0.00      93.38       1.99       1.56       0.90       ----

> <Gold.Chemscore.Fitness>
15.2737

> <Gold.Chemscore.DG>
-17.7350

> <Gold.Chemscore.ZeroCoef>
-5.4800

> <Gold.Chemscore.Hbond>
1.9207

> <Gold.Chemscore.Metal>
0.0000

> <Gold.Chemscore.Lipo>
93.3760

> <Gold.Chemscore.Internal_Hbond>
0.0000

> <Gold.Chemscore.DEClash>
1.5619

> <Gold.Chemscore.DEInternal>
0.8993

> <Gold.Chemscore.Rot>
1.9863

> <Gold.Chemscore.Internal.Correction>
   9.000000E+99

> <Gold.Chemscore.Hbonds>
donor molecule, donor type, donor heavy atom, donor atom, acceptor molecule, acceptor atom, score
      L1  H    13    31       P1 10171  0.98
      P1  H  7954  7966       L1    13  0.91

> <Gold.Chemscore.Hbond.Weighted>
-6.4150

> <Gold.Chemscore.Metal.Weighted>
-0.0000

> <Gold.Chemscore.Lipo.Weighted>
-10.9250

> <Gold.Chemscore.Internal_Hbond.Weighted>
0.0000

> <Gold.Chemscore.DEClash.Weighted>
1.5619

> <Gold.Chemscore.DEInternal.Weighted>
0.8993

> <Gold.Chemscore.Rot.Weighted>
5.0850

> <Gold.Chemscore.Internal.Correction.Weighted>
   9.000000E+99

> <Gold.Protein.RotatedTorsions>
[ 6907 6896 6895 6894 ] final  -58.55 input  -60.11 | X-H torsion
[ 7974 7965 7964 7962 ] final  -91.50 input  175.53 | X-H torsion
[ 8008 7997 7996 7995 ] final  139.46 input   59.86 | X-H torsion
[ 10167 10162 10161 10158 ] final -167.81 input  -65.29 | X-H torsion
[ 10718 10713 10712 10709 ] final   61.84 input   66.30 | X-H torsion
[ 10763 10752 10751 10750 ] final -142.89 input  -60.55 | X-H torsion
[ 11005 11000 10999 10996 ] final -170.48 input  -57.11 | X-H torsion

> <Gold.Protein.ActiveResidues>
 VAL166  LYS551  ARG553  GLY616  TRP617  ASP618  TYR619  PRO620  LYS621  CYS622 
 ASP623  PHE694  ASN695  SER759  ASP760  ASP761  ALA762  ILE779  LEU786  VAL792 
 PHE793  MET794  SER795  GLU796  ALA797  LYS798  CYS799  TRP800  GLU811  SER814 

> <Gold.Protein.RotatedAtoms>
  150.7998  134.7083  159.6589 H   0  0  0  0  0  0  0  0  0  0  0  0  # atno 6907 bound_to 6896
  152.4114  134.6115  160.0036 H   0  0  0  0  0  0  0  0  0  0  0  0  # atno 6908 bound_to 6896
  151.6357  133.3292  159.3155 H   0  0  0  0  0  0  0  0  0  0  0  0  # atno 6909 bound_to 6896
  145.4122  140.9546  143.2227 H   0  0  0  0  0  0  0  0  0  0  0  0  # atno 7974 bound_to 7965
  156.2989  140.2367  156.4240 H   0  0  0  0  0  0  0  0  0  0  0  0  # atno 8008 bound_to 7997
  154.8330  140.0432  157.1510 H   0  0  0  0  0  0  0  0  0  0  0  0  # atno 8009 bound_to 7997
  154.9187  140.3000  155.5231 H   0  0  0  0  0  0  0  0  0  0  0  0  # atno 8010 bound_to 7997
  139.6025  144.0980  152.1758 H   0  0  0  0  0  0  0  0  0  0  0  0  # atno 10167 bound_to 10162
  157.5857  130.9017  149.9511 H   0  0  0  0  0  0  0  0  0  0  0  0  # atno 10718 bound_to 10713
  154.8491  135.3483  154.6100 H   0  0  0  0  0  0  0  0  0  0  0  0  # atno 10763 bound_to 10752
  153.6709  135.6985  153.5152 H   0  0  0  0  0  0  0  0  0  0  0  0  # atno 10764 bound_to 10752
  153.2743  135.4283  155.0975 H   0  0  0  0  0  0  0  0  0  0  0  0  # atno 10765 bound_to 10752
  140.5190  134.5728  157.5042 H   0  0  0  0  0  0  0  0  0  0  0  0  # atno 11005 bound_to 11000
  144.8301  139.5643  143.6947 LP  0  0  0  0  0  0  0  0  0  0  0  0  # atno 17320 bound_to 7965
  146.2699  139.6609  142.9303 LP  0  0  0  0  0  0  0  0  0  0  0  0  # atno 17321 bound_to 7965
  140.0580  144.5879  150.7285 LP  0  0  0  0  0  0  0  0  0  0  0  0  # atno 17342 bound_to 10162
  140.7260  143.2637  151.4117 LP  0  0  0  0  0  0  0  0  0  0  0  0  # atno 17343 bound_to 10162
  156.0906  130.3664  150.0402 LP  0  0  0  0  0  0  0  0  0  0  0  0  # atno 17370 bound_to 10713
  156.8534  130.9466  151.3624 LP  0  0  0  0  0  0  0  0  0  0  0  0  # atno 17371 bound_to 10713
  139.9616  134.7442  156.0224 LP  0  0  0  0  0  0  0  0  0  0  0  0  # atno 17394 bound_to 11000
  141.1344  133.6578  156.3554 LP  0  0  0  0  0  0  0  0  0  0  0  0  # atno 17395 bound_to 11000

$$$$
