AV-unprocessed.smi:3057|AV-procd|sdf|11661|dock6
  -GOLD-   2272017 63D 1   1.00000     0.00000
 Structure written by MMmdl.
 40 42  0  0  0  0  0  0  0  0  1 V2000
  150.6208  143.4137  159.9953 C   0  0  0  0  0  0  0  0  0  0  0  0
  151.9622  143.3097  159.2445 C   0  0  1  0  0  0  0  0  0  0  0  0
  153.1204  142.9779  160.2031 C   0  0  0  0  0  0  0  0  0  0  0  0
  153.2673  141.4517  160.1161 C   0  0  0  0  0  0  0  0  0  0  0  0
  152.6556  141.1415  158.7596 C   0  0  0  0  0  0  0  0  0  0  0  0
  152.8463  140.0864  158.1570 O   0  0  0  0  0  0  0  0  0  0  0  0
  151.9606  142.1962  158.3148 N   0  0  0  0  0  0  0  0  0  0  0  0
  151.5331  142.4476  156.9364 C   0  0  1  0  0  0  0  0  0  0  0  0
  150.2115  141.7188  156.6394 C   0  0  0  0  0  0  0  0  0  0  0  0
  149.6800  141.0013  157.4879 O   0  0  0  0  0  0  0  0  0  0  0  0
  149.6877  141.9252  155.4230 N   0  0  0  0  0  0  0  0  0  0  0  0
  148.4503  141.3268  154.9400 C   0  0  0  0  0  0  0  0  0  0  0  0
  147.2944  141.6296  155.9037 C   0  0  0  0  0  0  0  0  0  0  0  0
  146.2694  142.5704  155.2989 C   0  0  0  0  0  0  0  0  0  0  0  0
  146.3766  142.9846  153.9539 C   0  0  0  0  0  0  0  0  0  0  0  0
  145.3993  143.8598  153.4416 C   0  0  0  0  0  0  0  0  0  0  0  0
  144.3589  144.2860  154.2893 C   0  0  0  0  0  0  0  0  0  0  0  0
  144.3421  143.8164  155.6179 C   0  0  0  0  0  0  0  0  0  0  0  0
  145.2735  142.9762  156.1187 N   0  0  0  0  0  0  0  0  0  0  0  0
  151.3356  143.9791  156.8109 C   0  0  0  0  0  0  0  0  0  0  0  0
  152.2369  144.7422  158.1886 S   0  0  0  0  0  0  0  0  0  0  0  0
  150.3958  142.4962  160.5402 H   0  0  0  0  0  0  0  0  0  0  0  0
  149.7900  143.6053  159.3165 H   0  0  0  0  0  0  0  0  0  0  0  0
  150.6420  144.2297  160.7181 H   0  0  0  0  0  0  0  0  0  0  0  0
  154.0448  143.4505  159.8674 H   0  0  0  0  0  0  0  0  0  0  0  0
  152.9343  143.3176  161.2228 H   0  0  0  0  0  0  0  0  0  0  0  0
  154.3071  141.1297  160.1795 H   0  0  0  0  0  0  0  0  0  0  0  0
  152.6919  140.9490  160.8941 H   0  0  0  0  0  0  0  0  0  0  0  0
  152.3200  142.1182  156.2548 H   0  0  0  0  0  0  0  0  0  0  0  0
  150.1863  142.5281  154.7846 H   0  0  0  0  0  0  0  0  0  0  0  0
  148.2123  141.7101  153.9462 H   0  0  0  0  0  0  0  0  0  0  0  0
  148.5920  140.2494  154.8453 H   0  0  0  0  0  0  0  0  0  0  0  0
  146.8000  140.7022  156.1963 H   0  0  0  0  0  0  0  0  0  0  0  0
  147.6812  142.0739  156.8221 H   0  0  0  0  0  0  0  0  0  0  0  0
  147.1873  142.6409  153.3282 H   0  0  0  0  0  0  0  0  0  0  0  0
  145.4470  144.1979  152.4170 H   0  0  0  0  0  0  0  0  0  0  0  0
  143.5922  144.9564  153.9304 H   0  0  0  0  0  0  0  0  0  0  0  0
  143.5593  144.1233  156.2958 H   0  0  0  0  0  0  0  0  0  0  0  0
  151.6959  144.3619  155.8561 H   0  0  0  0  0  0  0  0  0  0  0  0
  150.2877  144.2687  156.9060 H   0  0  0  0  0  0  0  0  0  0  0  0
  1  2  1  0  0  0  0
  1 22  1  0  0  0  0
  1 23  1  0  0  0  0
  1 24  1  0  0  0  0
  2  7  1  0  0  0  0
  2 21  1  0  0  0  0
  2  3  1  0  0  0  0
  3  4  1  0  0  0  0
  3 25  1  0  0  0  0
  3 26  1  0  0  0  0
  4  5  1  0  0  0  0
  4 27  1  0  0  0  0
  4 28  1  0  0  0  0
  5  6  2  0  0  0  0
  5  7  1  0  0  0  0
  7  8  1  0  0  0  0
  8  9  1  0  0  0  0
  8 20  1  0  0  0  0
  8 29  1  0  0  0  0
  9 10  2  0  0  0  0
  9 11  1  0  0  0  0
 11 12  1  0  0  0  0
 11 30  1  0  0  0  0
 12 13  1  0  0  0  0
 12 31  1  0  0  0  0
 12 32  1  0  0  0  0
 13 14  1  0  0  0  0
 13 33  1  0  0  0  0
 13 34  1  0  0  0  0
 14 19  1  0  0  0  0
 14 15  2  0  0  0  0
 15 16  1  0  0  0  0
 15 35  1  0  0  0  0
 16 17  2  0  0  0  0
 16 36  1  0  0  0  0
 17 18  1  0  0  0  0
 17 37  1  0  0  0  0
 18 19  2  0  0  0  0
 18 38  1  0  0  0  0
 20 21  1  0  0  0  0
 20 39  1  0  0  0  0
 20 40  1  0  0  0  0
M  END
> <s_m_source_file>
AV-unprocessed.smi

> <i_m_source_file_index>
3057

> <i_lp_mmshare_version>
43012

> <i_f3d_flags>
0

> <s_epik_input>
W0NIMl0xW0NIMl1DKD1PKU4oW0NAQF0xMltDSDNdKVtDQEhdKFtDSDJdUzIpQyg9TylbTkhdW0NIMl1bQ0gyXWMzW2NIXVtjSF1bY0hdW2NIXW4z

> <s_epik_cmdline>
J2VwaWtfcHl0aG9uJywgJy1waCcsICc3LjAnLCAnLXRuJywgJzgnLCAnLW1hJywgJzIwMCcsICctbWV0YWxfYmluZGluZycsICctaW1hZScsICc8aW5maWxlLm1hZT4nLCAnLW9tYWUnLCAnPG91dGZpbGUubWFlPic=

> <r_epik_Ionization_Penalty>
0.0249631

> <r_epik_Ionization_Penalty_Charging>
0

> <r_epik_Ionization_Penalty_Neutral>
0.0249631

> <r_epik_State_Penalty>
0.0202943

> <r_epik_Charging_Adjusted_Penalty>
0.0202943

> <i_epik_Tot_Q>
0

> <i_epik_Tot_abs_Q>
0

> <r_epik_Metal_State_Penalty>
0.0194661

> <b_epik_Metal_Only>
0

> <s_lp_Force_Field>
OPLS_2005

> <r_lp_Energy>
25.4312

> <b_lp_Chiralities_Consistent>
1

> <s_lp_Variant>
AV-unprocessed.smi:3057-1

> <Gold.Version>
5.8.1

> <Gold.Id.Protein>
6NUR|6NUR_protein|mol2

> <Gold.PLP.Fitness>
42.0864

> <Gold.PLP.PLP>
-39.8833

> <Gold.PLP.part.hbond>
-2.0000

> <Gold.PLP.part.metal>
0.0000

> <Gold.PLP.part.buried>
-2.1427

> <Gold.PLP.part.nonpolar>
-38.1063

> <Gold.PLP.part.repulsive>
0.3411

> <Gold.PLP.ligand.clash>
0.0000

> <Gold.PLP.ligand.torsion>
0.4043

> <Gold.PLP.Chemscore.Hbond>
1.0000

> <Gold.PLP.Chemscore.CHOScore>
0.0000

> <Gold.PLP.Chemscore.Metal>
0.0000

> <Gold.Chemscore.Hbonds>
donor molecule, donor type, donor heavy atom, donor atom, acceptor molecule, acceptor atom, score
      P1  H  7997  8009       L1     6  0.91

> <Gold.PLP.Chemscore.Internal.Correction>
0.0118

> <Gold.Rescore>
     Score         DG    S(hbond)    S(metal)    S(lipo)     H(rot)  DE(clash)    DE(int)     intcor
     14.65     -18.61       0.88        0.00     120.61       1.53       2.65       1.31       ----

> <Gold.Chemscore.Fitness>
14.6495

> <Gold.Chemscore.DG>
-18.6066

> <Gold.Chemscore.ZeroCoef>
-5.4800

> <Gold.Chemscore.Hbond>
0.8810

> <Gold.Chemscore.Metal>
0.0000

> <Gold.Chemscore.Lipo>
120.6058

> <Gold.Chemscore.Internal_Hbond>
0.0000

> <Gold.Chemscore.DEClash>
2.6483

> <Gold.Chemscore.DEInternal>
1.3087

> <Gold.Chemscore.Rot>
1.5339

> <Gold.Chemscore.Internal.Correction>
   9.000000E+99

> <Gold.Chemscore.Hbonds>
donor molecule, donor type, donor heavy atom, donor atom, acceptor molecule, acceptor atom, score
      P1  H  7997  8009       L1     6  0.76

> <Gold.Chemscore.Hbond.Weighted>
-2.9424

> <Gold.Chemscore.Metal.Weighted>
-0.0000

> <Gold.Chemscore.Lipo.Weighted>
-14.1109

> <Gold.Chemscore.Internal_Hbond.Weighted>
0.0000

> <Gold.Chemscore.DEClash.Weighted>
2.6483

> <Gold.Chemscore.DEInternal.Weighted>
1.3087

> <Gold.Chemscore.Rot.Weighted>
3.9267

> <Gold.Chemscore.Internal.Correction.Weighted>
   9.000000E+99

> <Gold.Protein.RotatedTorsions>
[ 6907 6896 6895 6894 ] final   -8.36 input  -60.11 | X-H torsion
[ 7974 7965 7964 7962 ] final   88.75 input  175.53 | X-H torsion
[ 8008 7997 7996 7995 ] final  165.18 input   59.86 | X-H torsion
[ 10167 10162 10161 10158 ] final -158.89 input  -65.29 | X-H torsion
[ 10718 10713 10712 10709 ] final -175.96 input   66.30 | X-H torsion
[ 10763 10752 10751 10750 ] final  166.69 input  -60.55 | X-H torsion
[ 11005 11000 10999 10996 ] final  -33.54 input  -57.11 | X-H torsion

> <Gold.Protein.ActiveResidues>
 VAL166  LYS551  ARG553  GLY616  TRP617  ASP618  TYR619  PRO620  LYS621  CYS622 
 ASP623  PHE694  ASN695  SER759  ASP760  ASP761  ALA762  ILE779  LEU786  VAL792 
 PHE793  MET794  SER795  GLU796  ALA797  LYS798  CYS799  TRP800  GLU811  SER814 

> <Gold.Protein.RotatedAtoms>
  151.4350  135.1014  159.9653 H   0  0  0  0  0  0  0  0  0  0  0  0  # atno 6907 bound_to 6896
  152.4943  133.8582  159.7247 H   0  0  0  0  0  0  0  0  0  0  0  0  # atno 6908 bound_to 6896
  150.9128  133.6917  159.2878 H   0  0  0  0  0  0  0  0  0  0  0  0  # atno 6909 bound_to 6896
  145.5415  139.2289  143.2563 H   0  0  0  0  0  0  0  0  0  0  0  0  # atno 7974 bound_to 7965
  156.1821  140.1677  156.8255 H   0  0  0  0  0  0  0  0  0  0  0  0  # atno 8008 bound_to 7997
  154.5371  140.0744  156.8480 H   0  0  0  0  0  0  0  0  0  0  0  0  # atno 8009 bound_to 7997
  155.3288  140.3378  155.4242 H   0  0  0  0  0  0  0  0  0  0  0  0  # atno 8010 bound_to 7997
  139.6657  143.9833  152.2253 H   0  0  0  0  0  0  0  0  0  0  0  0  # atno 10167 bound_to 10162
  156.8076  130.9575  151.3117 H   0  0  0  0  0  0  0  0  0  0  0  0  # atno 10718 bound_to 10713
  154.3427  135.2754  155.2414 H   0  0  0  0  0  0  0  0  0  0  0  0  # atno 10763 bound_to 10752
  154.4677  135.5891  153.6303 H   0  0  0  0  0  0  0  0  0  0  0  0  # atno 10764 bound_to 10752
  152.9856  135.6080  154.3630 H   0  0  0  0  0  0  0  0  0  0  0  0  # atno 10765 bound_to 10752
  140.9643  133.7146  156.1420 H   0  0  0  0  0  0  0  0  0  0  0  0  # atno 11005 bound_to 11000
  146.1978  140.6235  142.9116 LP  0  0  0  0  0  0  0  0  0  0  0  0  # atno 17320 bound_to 7965
  144.7575  140.5342  143.6759 LP  0  0  0  0  0  0  0  0  0  0  0  0  # atno 17321 bound_to 7965
  139.9584  144.6574  150.8103 LP  0  0  0  0  0  0  0  0  0  0  0  0  # atno 17342 bound_to 10162
  140.7598  143.3137  151.2783 LP  0  0  0  0  0  0  0  0  0  0  0  0  # atno 17343 bound_to 10162
  157.6522  130.8894  149.9656 LP  0  0  0  0  0  0  0  0  0  0  0  0  # atno 17370 bound_to 10713
  156.1063  130.3652  150.0127 LP  0  0  0  0  0  0  0  0  0  0  0  0  # atno 17371 bound_to 10713
  140.7422  134.4138  157.5553 LP  0  0  0  0  0  0  0  0  0  0  0  0  # atno 17394 bound_to 11000
  139.8889  134.8844  156.2450 LP  0  0  0  0  0  0  0  0  0  0  0  0  # atno 17395 bound_to 11000

$$$$
