AV-unprocessed.smi:91|AV-procd|sdf|839|dock4
  -GOLD-   2262017273D 1   1.00000     0.00000
 Structure written by MMmdl.
 60 63  0  0  0  0  0  0  0  0  1 V2000
  148.2088  132.2635  159.2392 C   0  0  0  0  0  0  0  0  0  0  0  0
  147.2025  132.9761  158.5419 O   0  0  0  0  0  0  0  0  0  0  0  0
  147.5620  134.3261  158.2935 C   0  0  0  0  0  0  0  0  0  0  0  0
  148.9133  134.3826  157.5681 C   0  0  2  0  0  0  0  0  0  0  0  0
  149.4729  135.8127  157.4526 C   0  0  0  0  0  0  0  0  0  0  0  0
  150.6850  135.8055  156.6479 N   0  0  0  0  0  0  0  0  0  0  0  0
  151.3306  136.9905  156.6411 C   0  0  0  0  0  0  0  0  0  0  0  0
  151.5075  137.6653  155.4746 N   0  0  0  0  0  0  0  0  0  0  0  0
  152.1463  138.8395  155.4747 C   0  0  0  0  0  0  0  0  0  0  0  0
  152.6767  139.5017  156.5060 N   0  0  0  0  0  0  0  0  0  0  0  0
  152.4977  138.8230  157.6760 C   0  0  0  0  0  0  0  0  0  0  0  0
  151.8381  137.5725  157.8312 C   0  0  0  0  0  0  0  0  0  0  0  0
  151.8477  137.1880  159.1659 N   0  0  0  0  0  0  0  0  0  0  0  0
  152.4843  138.1565  159.7676 C   0  0  0  0  0  0  0  0  0  0  0  0
  152.9148  139.1755  158.9476 N   0  0  0  0  0  0  0  0  0  0  0  0
  153.6479  140.3627  159.3522 C   0  0  0  0  0  0  0  0  0  0  0  0
  152.8773  141.2424  160.3682 C   0  0  1  0  0  0  0  0  0  0  0  0
  153.7499  141.6802  161.5702 C   0  0  0  0  0  0  0  0  0  0  0  0
  153.0109  142.4538  162.4931 O   0  0  0  0  0  0  0  0  0  0  0  0
  152.1924  142.4466  159.6731 C   0  0  1  0  0  0  0  0  0  0  0  0
  153.1454  143.4866  159.1105 C   0  0  0  0  0  0  0  0  0  0  0  0
  152.2491  144.2459  158.1393 C   0  0  0  0  0  0  0  0  0  0  0  0
  151.3449  143.2773  157.6211 O   0  0  0  0  0  0  0  0  0  0  0  0
  151.3917  142.0947  158.4141 C   0  0  0  0  0  0  0  0  0  0  0  0
  150.4696  135.2284  155.3270 C   0  0  0  0  0  0  0  0  0  0  0  0
  149.9151  133.7911  155.4400 C   0  0  0  0  0  0  0  0  0  0  0  0
  149.4307  133.3113  154.0633 C   0  0  0  0  0  0  0  0  0  0  0  0
  150.9738  132.8052  155.9781 C   0  0  0  0  0  0  0  0  0  0  0  0
  148.7501  133.8005  156.2732 O   0  0  0  0  0  0  0  0  0  0  0  0
  147.8822  131.2370  159.4053 H   0  0  0  0  0  0  0  0  0  0  0  0
  148.4099  132.7146  160.2117 H   0  0  0  0  0  0  0  0  0  0  0  0
  149.1376  132.2326  158.6683 H   0  0  0  0  0  0  0  0  0  0  0  0
  146.7950  134.8018  157.6804 H   0  0  0  0  0  0  0  0  0  0  0  0
  147.6202  134.8812  159.2311 H   0  0  0  0  0  0  0  0  0  0  0  0
  149.6134  133.7740  158.1406 H   0  0  0  0  0  0  0  0  0  0  0  0
  148.7384  136.4722  156.9884 H   0  0  0  0  0  0  0  0  0  0  0  0
  149.6850  136.2137  158.4449 H   0  0  0  0  0  0  0  0  0  0  0  0
  152.2485  139.3154  154.5106 H   0  0  0  0  0  0  0  0  0  0  0  0
  152.6636  138.1526  160.8331 H   0  0  0  0  0  0  0  0  0  0  0  0
  154.6065  140.0540  159.7703 H   0  0  0  0  0  0  0  0  0  0  0  0
  153.8767  140.9310  158.4506 H   0  0  0  0  0  0  0  0  0  0  0  0
  152.0837  140.6185  160.7817 H   0  0  0  0  0  0  0  0  0  0  0  0
  154.1560  140.8132  162.0908 H   0  0  0  0  0  0  0  0  0  0  0  0
  154.6128  142.2588  161.2404 H   0  0  0  0  0  0  0  0  0  0  0  0
  152.4703  141.8724  163.0069 H   0  0  0  0  0  0  0  0  0  0  0  0
  151.5248  142.9437  160.3790 H   0  0  0  0  0  0  0  0  0  0  0  0
  153.5764  144.1360  159.8730 H   0  0  0  0  0  0  0  0  0  0  0  0
  153.9608  143.0062  158.5680 H   0  0  0  0  0  0  0  0  0  0  0  0
  151.6760  145.0082  158.6690 H   0  0  0  0  0  0  0  0  0  0  0  0
  152.8117  144.7351  157.3439 H   0  0  0  0  0  0  0  0  0  0  0  0
  151.8969  141.3194  157.8365 H   0  0  0  0  0  0  0  0  0  0  0  0
  150.3869  141.7404  158.6462 H   0  0  0  0  0  0  0  0  0  0  0  0
  149.7627  135.8526  154.7779 H   0  0  0  0  0  0  0  0  0  0  0  0
  151.4031  135.2314  154.7618 H   0  0  0  0  0  0  0  0  0  0  0  0
  150.2473  133.2885  153.3409 H   0  0  0  0  0  0  0  0  0  0  0  0
  148.6558  133.9678  153.6661 H   0  0  0  0  0  0  0  0  0  0  0  0
  149.0106  132.3066  154.1208 H   0  0  0  0  0  0  0  0  0  0  0  0
  151.8092  132.7146  155.2833 H   0  0  0  0  0  0  0  0  0  0  0  0
  150.5502  131.8100  156.1145 H   0  0  0  0  0  0  0  0  0  0  0  0
  151.3913  133.1206  156.9338 H   0  0  0  0  0  0  0  0  0  0  0  0
  1  2  1  0  0  0  0
  1 30  1  0  0  0  0
  1 31  1  0  0  0  0
  1 32  1  0  0  0  0
  2  3  1  0  0  0  0
  3  4  1  0  0  0  0
  3 33  1  0  0  0  0
  3 34  1  0  0  0  0
  4 29  1  0  0  0  0
  4  5  1  0  0  0  0
  4 35  1  0  0  0  0
  5  6  1  0  0  0  0
  5 36  1  0  0  0  0
  5 37  1  0  0  0  0
  6  7  1  0  0  0  0
  6 25  1  0  0  0  0
  7 12  1  0  0  0  0
  7  8  2  0  0  0  0
  8  9  1  0  0  0  0
  9 10  2  0  0  0  0
  9 38  1  0  0  0  0
 10 11  1  0  0  0  0
 11 15  1  0  0  0  0
 11 12  2  0  0  0  0
 12 13  1  0  0  0  0
 13 14  2  0  0  0  0
 14 15  1  0  0  0  0
 14 39  1  0  0  0  0
 15 16  1  0  0  0  0
 16 17  1  0  0  0  0
 16 40  1  0  0  0  0
 16 41  1  0  0  0  0
 17 18  1  0  0  0  0
 17 20  1  0  0  0  0
 17 42  1  0  0  0  0
 18 19  1  0  0  0  0
 18 43  1  0  0  0  0
 18 44  1  0  0  0  0
 19 45  1  0  0  0  0
 20 24  1  0  0  0  0
 20 21  1  0  0  0  0
 20 46  1  0  0  0  0
 21 22  1  0  0  0  0
 21 47  1  0  0  0  0
 21 48  1  0  0  0  0
 22 23  1  0  0  0  0
 22 49  1  0  0  0  0
 22 50  1  0  0  0  0
 23 24  1  0  0  0  0
 24 51  1  0  0  0  0
 24 52  1  0  0  0  0
 25 26  1  0  0  0  0
 25 53  1  0  0  0  0
 25 54  1  0  0  0  0
 26 27  1  0  0  0  0
 26 28  1  0  0  0  0
 26 29  1  0  0  0  0
 27 55  1  0  0  0  0
 27 56  1  0  0  0  0
 27 57  1  0  0  0  0
 28 58  1  0  0  0  0
 28 59  1  0  0  0  0
 28 60  1  0  0  0  0
M  END
> <s_m_source_file>
AV-unprocessed.smi

> <i_m_source_file_index>
91

> <i_lp_mmshare_version>
43012

> <i_f3d_flags>
0

> <s_epik_input>
W0NIM11PW0NIMl1bQ0BASF0oTzEpW0NIMl1OKFtDSDJdQzEoW0NIM10pW0NIM10pYyhuW2NIXW4yKWMoYzIzKW5bY0hdbjNbQ0gyXVtDQEhdKFtDSDJdW09IXSlbQ0BASF00W0NIMl1bQ0gyXU9bQ0gyXTQ=

> <s_epik_cmdline>
J2VwaWtfcHl0aG9uJywgJy1waCcsICc3LjAnLCAnLXRuJywgJzgnLCAnLW1hJywgJzIwMCcsICctbWV0YWxfYmluZGluZycsICctaW1hZScsICc8aW5maWxlLm1hZT4nLCAnLW9tYWUnLCAnPG91dGZpbGUubWFlPic=

> <r_lp_tautomer_probability>
1

> <r_epik_Ionization_Penalty>
8.63591e-05

> <r_epik_Ionization_Penalty_Charging>
0

> <r_epik_Ionization_Penalty_Neutral>
8.63591e-05

> <r_epik_State_Penalty>
-0

> <r_epik_Charging_Adjusted_Penalty>
0

> <i_epik_Tot_Q>
0

> <i_epik_Tot_abs_Q>
0

> <r_epik_Metal_State_Penalty>
-0

> <b_epik_Metal_Only>
0

> <s_lp_Force_Field>
OPLS_2005

> <r_lp_Energy>
46.8468

> <b_lp_Chiralities_Consistent>
1

> <s_lp_Variant>
AV-unprocessed.smi:91-7

> <Gold.Version>
5.8.1

> <Gold.Id.Protein>
6NUR|6NUR_protein|mol2

> <Gold.PLP.Fitness>
49.5444

> <Gold.PLP.PLP>
-45.9968

> <Gold.PLP.part.hbond>
-1.6131

> <Gold.PLP.part.metal>
0.0000

> <Gold.PLP.part.buried>
-8.0552

> <Gold.PLP.part.nonpolar>
-37.5001

> <Gold.PLP.part.repulsive>
0.1727

> <Gold.PLP.ligand.clash>
0.0000

> <Gold.PLP.ligand.torsion>
0.8420

> <Gold.PLP.Chemscore.Hbond>
1.5850

> <Gold.PLP.Chemscore.CHOScore>
0.0000

> <Gold.PLP.Chemscore.Metal>
0.0000

> <Gold.Chemscore.Hbonds>
donor molecule, donor type, donor heavy atom, donor atom, acceptor molecule, acceptor atom, score
      P1  H  6896  6909       L1    13  0.60
      P1  H  7997  8009       L1    10  1.00

> <Gold.PLP.Chemscore.Internal.Correction>
0.4767

> <Gold.Rescore>
     Score         DG    S(hbond)    S(metal)    S(lipo)     H(rot)  DE(clash)    DE(int)     intcor
     15.92     -16.69       1.95        0.00     106.36       3.03       0.01       0.76       ----

> <Gold.Chemscore.Fitness>
15.9193

> <Gold.Chemscore.DG>
-16.6913

> <Gold.Chemscore.ZeroCoef>
-5.4800

> <Gold.Chemscore.Hbond>
1.9520

> <Gold.Chemscore.Metal>
0.0000

> <Gold.Chemscore.Lipo>
106.3635

> <Gold.Chemscore.Internal_Hbond>
0.0000

> <Gold.Chemscore.DEClash>
0.0119

> <Gold.Chemscore.DEInternal>
0.7600

> <Gold.Chemscore.Rot>
3.0284

> <Gold.Chemscore.Internal.Correction>
   9.000000E+99

> <Gold.Chemscore.Hbonds>
donor molecule, donor type, donor heavy atom, donor atom, acceptor molecule, acceptor atom, score
      P1  H  6896  6909       L1    13  0.59
      P1  H  7997  8009       L1    10  0.50

> <Gold.Chemscore.Hbond.Weighted>
-6.5196

> <Gold.Chemscore.Metal.Weighted>
-0.0000

> <Gold.Chemscore.Lipo.Weighted>
-12.4445

> <Gold.Chemscore.Internal_Hbond.Weighted>
0.0000

> <Gold.Chemscore.DEClash.Weighted>
0.0119

> <Gold.Chemscore.DEInternal.Weighted>
0.7600

> <Gold.Chemscore.Rot.Weighted>
7.7528

> <Gold.Chemscore.Internal.Correction.Weighted>
   9.000000E+99

> <Gold.Protein.RotatedTorsions>
[ 6907 6896 6895 6894 ] final  118.15 input  -60.11 | X-H torsion
[ 7974 7965 7964 7962 ] final  107.39 input  175.53 | X-H torsion
[ 8008 7997 7996 7995 ] final -176.51 input   59.86 | X-H torsion
[ 10167 10162 10161 10158 ] final  -97.89 input  -65.29 | X-H torsion
[ 10718 10713 10712 10709 ] final -174.71 input   66.30 | X-H torsion
[ 10763 10752 10751 10750 ] final   67.41 input  -60.55 | X-H torsion
[ 11005 11000 10999 10996 ] final   61.77 input  -57.11 | X-H torsion

> <Gold.Protein.ActiveResidues>
 VAL166  LYS551  ARG553  GLY616  TRP617  ASP618  TYR619  PRO620  LYS621  CYS622 
 ASP623  PHE694  ASN695  SER759  ASP760  ASP761  ALA762  ILE779  LEU786  VAL792 
 PHE793  MET794  SER795  GLU796  ALA797  LYS798  CYS799  TRP800  GLU811  SER814 

> <Gold.Protein.RotatedAtoms>
  152.4563  133.7730  159.6808 H   0  0  0  0  0  0  0  0  0  0  0  0  # atno 6907 bound_to 6896
  150.8490  133.7806  159.3038 H   0  0  0  0  0  0  0  0  0  0  0  0  # atno 6908 bound_to 6896
  151.5407  135.1071  159.9977 H   0  0  0  0  0  0  0  0  0  0  0  0  # atno 6909 bound_to 6896
  145.2942  139.2590  143.3848 H   0  0  0  0  0  0  0  0  0  0  0  0  # atno 7974 bound_to 7965
  155.9957  140.1210  157.0596 H   0  0  0  0  0  0  0  0  0  0  0  0  # atno 8008 bound_to 7997
  154.4226  140.1117  156.5696 H   0  0  0  0  0  0  0  0  0  0  0  0  # atno 8009 bound_to 7997
  155.6281  140.3473  155.4676 H   0  0  0  0  0  0  0  0  0  0  0  0  # atno 8010 bound_to 7997
  140.2787  143.3296  152.0463 H   0  0  0  0  0  0  0  0  0  0  0  0  # atno 10167 bound_to 10162
  156.7891  130.9511  151.3120 H   0  0  0  0  0  0  0  0  0  0  0  0  # atno 10718 bound_to 10713
  153.0185  135.5285  154.6974 H   0  0  0  0  0  0  0  0  0  0  0  0  # atno 10763 bound_to 10752
  154.6092  135.2876  155.0453 H   0  0  0  0  0  0  0  0  0  0  0  0  # atno 10764 bound_to 10752
  154.1480  135.6567  153.5009 H   0  0  0  0  0  0  0  0  0  0  0  0  # atno 10765 bound_to 10752
  140.0138  134.6256  155.9740 H   0  0  0  0  0  0  0  0  0  0  0  0  # atno 11005 bound_to 11000
  146.3174  140.3440  142.8650 LP  0  0  0  0  0  0  0  0  0  0  0  0  # atno 17320 bound_to 7965
  144.9147  140.7799  143.5785 LP  0  0  0  0  0  0  0  0  0  0  0  0  # atno 17321 bound_to 7965
  139.4968  144.6607  151.6472 LP  0  0  0  0  0  0  0  0  0  0  0  0  # atno 17342 bound_to 10162
  140.5830  143.9913  150.6279 LP  0  0  0  0  0  0  0  0  0  0  0  0  # atno 17343 bound_to 10162
  157.6609  130.8965  149.9828 LP  0  0  0  0  0  0  0  0  0  0  0  0  # atno 17370 bound_to 10713
  156.1170  130.3647  149.9951 LP  0  0  0  0  0  0  0  0  0  0  0  0  # atno 17371 bound_to 10713
  141.1729  133.6538  156.4719 LP  0  0  0  0  0  0  0  0  0  0  0  0  # atno 17394 bound_to 11000
  140.4507  134.6931  157.5038 LP  0  0  0  0  0  0  0  0  0  0  0  0  # atno 17395 bound_to 11000

$$$$
