AV-unprocessed.smi:2032|AV-procd|sdf|8241|dock9
  -GOLD-   2272010513D 1   1.00000     0.00000
 Structure written by MMmdl.
 43 44  0  0  0  0  0  0  0  0  2 V2000
  144.0106  140.2526  157.2984 C   0  0  0  0  0  0  0  0  0  0  0  0
  144.2944  141.0718  156.0343 C   0  0  2  0  0  0  0  0  0  0  0  0
  145.6558  140.7195  155.4079 C   0  0  0  0  0  0  0  0  0  0  0  0
  145.9363  141.5659  154.2157 N   0  3  2  0  0  0  0  0  0  0  0  0
  147.2149  141.1886  153.5277 C   0  0  2  0  0  0  0  0  0  0  0  0
  147.0250  140.1219  152.4212 C   0  0  0  0  0  0  0  0  0  0  0  0
  148.2682  140.7029  154.5619 C   0  0  0  0  0  0  0  0  0  0  0  0
  148.9195  141.7934  155.2825 N   0  0  0  0  0  0  0  0  0  0  0  0
  149.9259  141.6424  156.1556 C   0  0  0  0  0  0  0  0  0  0  0  0
  150.4141  140.5486  156.4417 O   0  0  0  0  0  0  0  0  0  0  0  0
  150.3181  142.8257  156.6586 N   0  0  0  0  0  0  0  0  0  0  0  0
  151.2994  143.0728  157.6541 C   0  0  0  0  0  0  0  0  0  0  0  0
  151.9331  142.1161  158.3425 N   0  0  0  0  0  0  0  0  0  0  0  0
  152.8364  142.6468  159.2670 C   0  0  0  0  0  0  0  0  0  0  0  0
  152.8775  144.0190  159.2692 C   0  0  0  0  0  0  0  0  0  0  0  0
  151.7748  144.7037  158.1051 S   0  0  0  0  0  0  0  0  0  0  0  0
  145.8156  143.0014  154.5929 C   0  0  0  0  0  0  0  0  0  0  0  0
  144.4573  143.2932  155.2593 C   0  0  2  0  0  0  0  0  0  0  0  0
  144.3494  144.7470  155.7329 C   0  0  0  0  0  0  0  0  0  0  0  0
  144.2946  142.4475  156.3897 O   0  0  0  0  0  0  0  0  0  0  0  0
  143.9900  139.1848  157.0782 H   0  0  0  0  0  0  0  0  0  0  0  0
  143.0453  140.5214  157.7284 H   0  0  0  0  0  0  0  0  0  0  0  0
  144.7727  140.4227  158.0597 H   0  0  0  0  0  0  0  0  0  0  0  0
  143.4965  140.8828  155.3136 H   0  0  0  0  0  0  0  0  0  0  0  0
  146.4503  140.8563  156.1435 H   0  0  0  0  0  0  0  0  0  0  0  0
  145.6481  139.6631  155.1477 H   0  0  0  0  0  0  0  0  0  0  0  0
  147.5909  142.0863  153.0347 H   0  0  0  0  0  0  0  0  0  0  0  0
  147.9724  139.8398  151.9628 H   0  0  0  0  0  0  0  0  0  0  0  0
  146.4047  140.4870  151.6027 H   0  0  0  0  0  0  0  0  0  0  0  0
  146.5706  139.2128  152.8167 H   0  0  0  0  0  0  0  0  0  0  0  0
  147.8380  140.0332  155.3049 H   0  0  0  0  0  0  0  0  0  0  0  0
  149.0442  140.1298  154.0535 H   0  0  0  0  0  0  0  0  0  0  0  0
  148.5809  142.7274  155.1019 H   0  0  0  0  0  0  0  0  0  0  0  0
  149.8505  143.6451  156.3000 H   0  0  0  0  0  0  0  0  0  0  0  0
  153.4110  141.9733  159.8859 H   0  0  0  0  0  0  0  0  0  0  0  0
  153.4863  144.6656  159.8836 H   0  0  0  0  0  0  0  0  0  0  0  0
  146.6337  143.2717  155.2630 H   0  0  0  0  0  0  0  0  0  0  0  0
  145.8878  143.6394  153.7127 H   0  0  0  0  0  0  0  0  0  0  0  0
  143.6514  143.1017  154.5484 H   0  0  0  0  0  0  0  0  0  0  0  0
  144.4594  145.4409  154.8993 H   0  0  0  0  0  0  0  0  0  0  0  0
  145.1200  144.9817  156.4677 H   0  0  0  0  0  0  0  0  0  0  0  0
  143.3802  144.9354  156.1951 H   0  0  0  0  0  0  0  0  0  0  0  0
  145.1958  141.3932  153.5511 H   0  0  0  0  0  0  0  0  0  0  0  0
  1  2  1  0  0  0  0
  1 21  1  0  0  0  0
  1 22  1  0  0  0  0
  1 23  1  0  0  0  0
  2 20  1  0  0  0  0
  2  3  1  0  0  0  0
  2 24  1  0  0  0  0
  3  4  1  0  0  0  0
  3 25  1  0  0  0  0
  3 26  1  0  0  0  0
  4  5  1  0  0  0  0
  4 17  1  0  0  0  0
  4 43  1  0  0  0  0
  5  6  1  0  0  0  0
  5  7  1  0  0  0  0
  5 27  1  0  0  0  0
  6 28  1  0  0  0  0
  6 29  1  0  0  0  0
  6 30  1  0  0  0  0
  7  8  1  0  0  0  0
  7 31  1  0  0  0  0
  7 32  1  0  0  0  0
  8  9  1  0  0  0  0
  8 33  1  0  0  0  0
  9 10  2  0  0  0  0
  9 11  1  0  0  0  0
 11 12  1  0  0  0  0
 11 34  1  0  0  0  0
 12 16  1  0  0  0  0
 12 13  2  0  0  0  0
 13 14  1  0  0  0  0
 14 15  2  0  0  0  0
 14 35  1  0  0  0  0
 15 16  1  0  0  0  0
 15 36  1  0  0  0  0
 17 18  1  0  0  0  0
 17 37  1  0  0  0  0
 17 38  1  0  0  0  0
 18 19  1  0  0  0  0
 18 20  1  0  0  0  0
 18 39  1  0  0  0  0
 19 40  1  0  0  0  0
 19 41  1  0  0  0  0
 19 42  1  0  0  0  0
M  CHG  1   4   1
M  END
> <s_m_source_file>
AV-unprocessed.smi

> <i_m_source_file_index>
2032

> <i_lp_mmshare_version>
43012

> <i_f3d_flags>
0

> <s_epik_input>
W0NIM11bQ0BASF0xW0NIMl1OKFtDSDJdW0NASF0oTzEpW0NIM10pW0NASF0oW0NIM10pW0NIMl1bTkhdQyg9TylbTkhdYzJuW2NIXVtjSF1zMg==

> <s_epik_cmdline>
J2VwaWtfcHl0aG9uJywgJy1waCcsICc3LjAnLCAnLXRuJywgJzgnLCAnLW1hJywgJzIwMCcsICctbWV0YWxfYmluZGluZycsICctaW1hZScsICc8aW5maWxlLm1hZT4nLCAnLW9tYWUnLCAnPG91dGZpbGUubWFlPic=

> <r_lp_tautomer_probability>
0.999

> <r_epik_Ionization_Penalty>
0.695838

> <r_epik_Ionization_Penalty_Charging>
0.695697

> <r_epik_Ionization_Penalty_Neutral>
0.000141198

> <r_epik_State_Penalty>
0.717972

> <r_epik_Charging_Adjusted_Penalty>
1.41367

> <i_epik_Tot_Q>
1

> <i_epik_Tot_abs_Q>
1

> <r_epik_Metal_State_Penalty>
0.756405

> <b_epik_Metal_Only>
0

> <s_lp_Force_Field>
OPLS_2005

> <r_lp_Energy>
16.7575

> <b_lp_Chiralities_Consistent>
1

> <s_lp_Variant>
AV-unprocessed.smi:2032-11

> <Gold.Version>
5.8.1

> <Gold.Id.Protein>
6NUR|6NUR_protein|mol2

> <Gold.PLP.Fitness>
43.9064

> <Gold.PLP.PLP>
-34.8547

> <Gold.PLP.part.hbond>
-3.0000

> <Gold.PLP.part.metal>
0.0000

> <Gold.PLP.part.buried>
-4.3365

> <Gold.PLP.part.nonpolar>
-28.7956

> <Gold.PLP.part.repulsive>
0.2836

> <Gold.PLP.ligand.clash>
0.1444

> <Gold.PLP.ligand.torsion>
1.0382

> <Gold.PLP.Chemscore.Hbond>
3.7404

> <Gold.PLP.Chemscore.CHOScore>
0.0000

> <Gold.PLP.Chemscore.Metal>
0.0000

> <Gold.Chemscore.Hbonds>
donor molecule, donor type, donor heavy atom, donor atom, acceptor molecule, acceptor atom, score
      L1  H     4    43       P1 10175  1.79
      L1  H     8    33       P1  8028  0.77
      L1  H    11    34       P1  8028  1.00

> <Gold.PLP.Chemscore.Internal.Correction>
0.0512

> <Gold.Rescore>
     Score         DG    S(hbond)    S(metal)    S(lipo)     H(rot)  DE(clash)    DE(int)     intcor
     14.68     -17.30       2.10        0.00      76.18       1.61       0.28       2.34       ----

> <Gold.Chemscore.Fitness>
14.6773

> <Gold.Chemscore.DG>
-17.2993

> <Gold.Chemscore.ZeroCoef>
-5.4800

> <Gold.Chemscore.Hbond>
2.1048

> <Gold.Chemscore.Metal>
0.0000

> <Gold.Chemscore.Lipo>
76.1826

> <Gold.Chemscore.Internal_Hbond>
0.0000

> <Gold.Chemscore.DEClash>
0.2816

> <Gold.Chemscore.DEInternal>
2.3404

> <Gold.Chemscore.Rot>
1.6110

> <Gold.Chemscore.Internal.Correction>
   9.000000E+99

> <Gold.Chemscore.Hbonds>
donor molecule, donor type, donor heavy atom, donor atom, acceptor molecule, acceptor atom, score
      L1  H     4    43       P1 10175  0.19
      L1  H     8    33       P1  8028  0.73
      L1  H    11    34       P1  8028  0.97

> <Gold.Chemscore.Hbond.Weighted>
-7.0301

> <Gold.Chemscore.Metal.Weighted>
-0.0000

> <Gold.Chemscore.Lipo.Weighted>
-8.9134

> <Gold.Chemscore.Internal_Hbond.Weighted>
0.0000

> <Gold.Chemscore.DEClash.Weighted>
0.2816

> <Gold.Chemscore.DEInternal.Weighted>
2.3404

> <Gold.Chemscore.Rot.Weighted>
4.1242

> <Gold.Chemscore.Internal.Correction.Weighted>
   9.000000E+99

> <Gold.Protein.RotatedTorsions>
[ 6907 6896 6895 6894 ] final  118.56 input  -60.11 | X-H torsion
[ 7974 7965 7964 7962 ] final  -51.43 input  175.53 | X-H torsion
[ 8008 7997 7996 7995 ] final  -33.01 input   59.86 | X-H torsion
[ 10167 10162 10161 10158 ] final -175.68 input  -65.29 | X-H torsion
[ 10718 10713 10712 10709 ] final  -45.88 input   66.30 | X-H torsion
[ 10763 10752 10751 10750 ] final   62.93 input  -60.55 | X-H torsion
[ 11005 11000 10999 10996 ] final  115.87 input  -57.11 | X-H torsion

> <Gold.Protein.ActiveResidues>
 VAL166  LYS551  ARG553  GLY616  TRP617  ASP618  TYR619  PRO620  LYS621  CYS622 
 ASP623  PHE694  ASN695  SER759  ASP760  ASP761  ALA762  ILE779  LEU786  VAL792 
 PHE793  MET794  SER795  GLU796  ALA797  LYS798  CYS799  TRP800  GLU811  SER814 

> <Gold.Protein.RotatedAtoms>
  152.4534  133.7675  159.6780 H   0  0  0  0  0  0  0  0  0  0  0  0  # atno 6907 bound_to 6896
  150.8453  133.7861  159.3051 H   0  0  0  0  0  0  0  0  0  0  0  0  # atno 6908 bound_to 6896
  151.5474  135.1070  159.9993 H   0  0  0  0  0  0  0  0  0  0  0  0  # atno 6909 bound_to 6896
  145.9190  140.7850  142.9657 H   0  0  0  0  0  0  0  0  0  0  0  0  # atno 7974 bound_to 7965
  154.4162  140.1722  156.1819 H   0  0  0  0  0  0  0  0  0  0  0  0  # atno 8008 bound_to 7997
  155.9675  140.3388  155.6521 H   0  0  0  0  0  0  0  0  0  0  0  0  # atno 8009 bound_to 7997
  155.6669  140.0707  157.2525 H   0  0  0  0  0  0  0  0  0  0  0  0  # atno 8010 bound_to 7997
  139.5568  144.1969  152.1173 H   0  0  0  0  0  0  0  0  0  0  0  0  # atno 10167 bound_to 10162
  156.2239  130.4168  149.8958 H   0  0  0  0  0  0  0  0  0  0  0  0  # atno 10718 bound_to 10713
  153.0000  135.5447  154.6272 H   0  0  0  0  0  0  0  0  0  0  0  0  # atno 10763 bound_to 10752
  154.5558  135.2830  155.0968 H   0  0  0  0  0  0  0  0  0  0  0  0  # atno 10764 bound_to 10752
  154.2190  135.6454  153.5191 H   0  0  0  0  0  0  0  0  0  0  0  0  # atno 10765 bound_to 10752
  139.9023  134.9590  156.7111 H   0  0  0  0  0  0  0  0  0  0  0  0  # atno 11005 bound_to 11000
  144.6751  140.1945  143.7393 LP  0  0  0  0  0  0  0  0  0  0  0  0  # atno 17320 bound_to 7965
  145.8574  139.2206  143.1736 LP  0  0  0  0  0  0  0  0  0  0  0  0  # atno 17321 bound_to 7965
  140.1474  144.5146  150.6707 LP  0  0  0  0  0  0  0  0  0  0  0  0  # atno 17342 bound_to 10162
  140.6842  143.2341  151.5304 LP  0  0  0  0  0  0  0  0  0  0  0  0  # atno 17343 bound_to 10162
  156.6595  130.8776  151.3545 LP  0  0  0  0  0  0  0  0  0  0  0  0  # atno 17370 bound_to 10713
  157.7101  130.9430  150.1060 LP  0  0  0  0  0  0  0  0  0  0  0  0  # atno 17371 bound_to 10713
  140.7075  133.9252  155.8063 LP  0  0  0  0  0  0  0  0  0  0  0  0  # atno 17394 bound_to 11000
  141.0325  134.0735  157.3997 LP  0  0  0  0  0  0  0  0  0  0  0  0  # atno 17395 bound_to 11000

$$$$
