#       Name:                AV-unprocessed.smi:3028
#       Creating user name   scv26
#       Creation time:       Fri Mar 27 16:45:29 2020


#       File generated by GOLD software.
#

@<TRIPOS>MOLECULE
AV-unprocessed.smi:3028
    53    54     1
SMALL
NO_CHARGES


@<TRIPOS>ATOM
      1 ****        -3.6440  -3.7548  -4.0288 C.3            1 S1                 0.0000
      2 ****        -3.4488  -3.3824  -2.5874 C.2            1 S1                 0.0000
      3 ****        -4.0360  -3.9864  -1.4398 C.2            1 S1                 0.0000
      4 ****        -3.6529  -3.4190  -0.3079 N.2            1 S1                 0.0000
      5 ****        -2.8132  -2.4325  -0.6882 N.pl3          1 S1                 0.0000
      6 ****        -2.1878  -1.5867   0.3206 C.3            1 S1                 0.0000
      7 ****        -2.6115  -0.1226   0.1034 C.3            1 S1                 0.0000
      8 ****        -0.6479  -1.7789   0.3603 C.3            1 S1                 0.0000
      9 ****        -0.2251  -3.2577   0.4291 C.3            1 S1                 0.0000
     10 ****        -0.0666  -1.0650   1.5192 N.4            1 S1                 1.0000
     11 ****         0.7176   0.1427   1.1816 C.3            1 S1                 0.0000
     12 ****         1.2198   0.8802   2.4298 C.2            1 S1                 0.0000
     13 ****         0.9401   0.4543   3.5493 O.2            1 S1                 0.0000
     14 ****         1.9618   1.9911   2.2847 N.am           1 S1                 0.0000
     15 ****         2.5362   2.8387   3.3291 C.3            1 S1                 0.0000
     16 ****         1.9117   4.2410   3.2665 C.3            1 S1                 0.0000
     17 ****         2.6288   5.2001   4.2306 C.3            1 S1                 0.0000
     18 ****         4.0214   5.2348   3.9383 O.3            1 S1                 0.0000
     19 ****         4.6569   3.9727   4.1106 C.3            1 S1                 0.0000
     20 ****         4.0567   2.9457   3.1367 C.3            1 S1                 0.0000
     21 ****        -2.6724  -2.3895  -2.0610 C.2            1 S1                 0.0000
     22 ****        -4.2667  -4.6431  -4.1371 H              1 S1                 0.0000
     23 ****        -2.6950  -3.9663  -4.5219 H              1 S1                 0.0000
     24 ****        -4.1269  -2.9539  -4.5889 H              1 S1                 0.0000
     25 ****        -4.7250  -4.8172  -1.3962 H              1 S1                 0.0000
     26 ****        -2.5841  -1.8956   1.2902 H              1 S1                 0.0000
     27 ****        -2.2843   0.5149   0.9245 H              1 S1                 0.0000
     28 ****        -3.6972  -0.0358   0.0455 H              1 S1                 0.0000
     29 ****        -2.1968   0.2824  -0.8202 H              1 S1                 0.0000
     30 ****        -0.2228  -1.3711  -0.5585 H              1 S1                 0.0000
     31 ****        -0.5322  -3.8106  -0.4589 H              1 S1                 0.0000
     32 ****        -0.6604  -3.7545   1.2968 H              1 S1                 0.0000
     33 ****         0.8589  -3.3512   0.5019 H              1 S1                 0.0000
     34 ****        -0.8145  -0.8031   2.1456 H              1 S1                 0.0000
     35 ****         1.5711  -0.1514   0.5693 H              1 S1                 0.0000
     36 ****         0.1009   0.8217   0.5922 H              1 S1                 0.0000
     37 ****         2.1462   2.2866   1.3364 H              1 S1                 0.0000
     38 ****         2.3553   2.4331   4.3242 H              1 S1                 0.0000
     39 ****         1.9847   4.6358   2.2519 H              1 S1                 0.0000
     40 ****         0.8491   4.1937   3.5073 H              1 S1                 0.0000
     41 ****         2.2226   6.2065   4.1277 H              1 S1                 0.0000
     42 ****         2.4717   4.8985   5.2673 H              1 S1                 0.0000
     43 ****         5.7246   4.0875   3.9228 H              1 S1                 0.0000
     44 ****         4.5505   3.6381   5.1437 H              1 S1                 0.0000
     45 ****         4.5264   1.9724   3.2833 H              1 S1                 0.0000
     46 ****         4.2828   3.2511   2.1139 H              1 S1                 0.0000
     47 ****        -2.0362  -1.6638  -2.5462 H              1 S1                 0.0000
     48 ****         0.5467  -1.7005   2.0095 H              1 S1                 0.0000
     49 ****        -3.9247  -3.6658   0.6223 LP             1 S1                 0.0000
     50 ****         0.3856  -0.3723   3.6456 LP             1 S1                 0.0000
     51 ****         1.2672   0.9346   4.3631 LP             1 S1                 0.0000
     52 ****         4.4584   5.8974   4.5466 LP             1 S1                 0.0000
     53 ****         4.1407   5.5248   2.9888 LP             1 S1                 0.0000
@<TRIPOS>BOND
    1    1    2 1     
    2    1   22 1     
    3    1   23 1     
    4    1   24 1     
    5    2   21 2     
    6    2    3 1     
    7    3    4 2     
    8    3   25 1     
    9    4    5 1     
   10    5    6 1     
   11    5   21 1     
   12    6    7 1     
   13    6    8 1     
   14    6   26 1     
   15    7   27 1     
   16    7   28 1     
   17    7   29 1     
   18    8    9 1     
   19    8   10 1     
   20    8   30 1     
   21    9   31 1     
   22    9   32 1     
   23    9   33 1     
   24   10   11 1     
   25   10   34 1     
   26   10   48 1     
   27   11   12 1     
   28   11   35 1     
   29   11   36 1     
   30   12   13 2     
   31   12   14 am    
   32   14   15 1     
   33   14   37 1     
   34   15   20 1     
   35   15   16 1     
   36   15   38 1     
   37   16   17 1     
   38   16   39 1     
   39   16   40 1     
   40   17   18 1     
   41   17   41 1     
   42   17   42 1     
   43   18   19 1     
   44   19   20 1     
   45   19   43 1     
   46   19   44 1     
   47   20   45 1     
   48   20   46 1     
   49   21   47 1     
   50    4   49 1     
   51   13   50 1     
   52   13   51 1     
   53   18   52 1     
   54   18   53 1     
@<TRIPOS>SUBSTRUCTURE
      1 S1             1
@<TRIPOS>SET
LONE_PAIRS      STATIC     ATOMS    <user>   **** ""
5 49 50 51 52 53
DONOR_HYDROGENS      STATIC     ATOMS    <user>   **** ""
3 34 48 37
ATOM$BLUE        STATIC     ATOMS    COLORGROUP SYSTEM
5 49 50 51 52 53
ATOM$RED        STATIC     ATOMS    COLORGROUP SYSTEM
3 34 48 37
