AV-unprocessed.smi:2467|AV-procd|sdf|9725|dock6
  -GOLD-   2272013363D 1   1.00000     0.00000
 Structure written by MMmdl.
 46 47  0  0  0  0  0  0  0  0  1 V2000
  151.0308  141.6536  155.7659 C   0  0  0  0  0  0  0  0  0  0  0  0
  149.9256  140.9393  154.9722 C   0  0  0  0  0  0  0  0  0  0  0  0
  150.0043  139.3919  154.9951 C   0  0  0  0  0  0  0  0  0  0  0  0
  151.1425  138.8747  154.0790 C   0  0  0  0  0  0  0  0  0  0  0  0
  152.5541  139.2922  154.5193 C   0  0  0  0  0  0  0  0  0  0  0  0
  148.6354  138.7489  154.6497 C   0  0  2  0  0  0  0  0  0  0  0  0
  147.8651  139.4505  153.5060 C   0  0  0  0  0  0  0  0  0  0  0  0
  146.5278  138.7463  153.2256 C   0  0  1  0  0  0  0  0  0  0  0  0
  146.7689  137.4520  152.5935 N   0  0  0  0  0  0  0  0  0  0  0  0
  145.8502  136.5126  152.3218 C   0  0  0  0  0  0  0  0  0  0  0  0
  144.6549  136.6587  152.5723 O   0  0  0  0  0  0  0  0  0  0  0  0
  146.3128  135.3768  151.7556 N   0  0  0  0  0  0  0  0  0  0  0  0
  145.6437  134.1874  151.3368 C   0  0  0  0  0  0  0  0  0  0  0  0
  146.4933  133.2052  150.7792 C   0  0  0  0  0  0  0  0  0  0  0  0
  145.9492  131.9863  150.3300 C   0  0  0  0  0  0  0  0  0  0  0  0
  144.5640  131.7771  150.4503 C   0  0  0  0  0  0  0  0  0  0  0  0
  143.7862  132.8032  151.0162 C   0  0  0  0  0  0  0  0  0  0  0  0
  144.3070  133.9720  151.4462 N   0  0  0  0  0  0  0  0  0  0  0  0
  145.7490  138.5948  154.5452 C   0  0  0  0  0  0  0  0  0  0  0  0
  146.6199  137.9544  155.6404 C   0  0  0  0  0  0  0  0  0  0  0  0
  147.8187  138.7026  155.8181 O   0  0  0  0  0  0  0  0  0  0  0  0
  150.9960  142.7280  155.5850 H   0  0  0  0  0  0  0  0  0  0  0  0
  152.0200  141.3019  155.4720 H   0  0  0  0  0  0  0  0  0  0  0  0
  150.9243  141.5090  156.8402 H   0  0  0  0  0  0  0  0  0  0  0  0
  148.9493  141.2683  155.3301 H   0  0  0  0  0  0  0  0  0  0  0  0
  149.9984  141.2938  153.9454 H   0  0  0  0  0  0  0  0  0  0  0  0
  150.2481  139.0957  156.0165 H   0  0  0  0  0  0  0  0  0  0  0  0
  151.1342  137.7872  154.0479 H   0  0  0  0  0  0  0  0  0  0  0  0
  150.9706  139.2003  153.0525 H   0  0  0  0  0  0  0  0  0  0  0  0
  153.3069  138.8110  153.8946 H   0  0  0  0  0  0  0  0  0  0  0  0
  152.7476  138.9997  155.5515 H   0  0  0  0  0  0  0  0  0  0  0  0
  152.7100  140.3671  154.4373 H   0  0  0  0  0  0  0  0  0  0  0  0
  148.8185  137.7260  154.3244 H   0  0  0  0  0  0  0  0  0  0  0  0
  147.6534  140.4863  153.7664 H   0  0  0  0  0  0  0  0  0  0  0  0
  148.4730  139.4802  152.6006 H   0  0  0  0  0  0  0  0  0  0  0  0
  145.9493  139.3618  152.5347 H   0  0  0  0  0  0  0  0  0  0  0  0
  147.7272  137.2423  152.3505 H   0  0  0  0  0  0  0  0  0  0  0  0
  147.3081  135.3735  151.5868 H   0  0  0  0  0  0  0  0  0  0  0  0
  147.5562  133.3797  150.6938 H   0  0  0  0  0  0  0  0  0  0  0  0
  146.5853  131.2258  149.9015 H   0  0  0  0  0  0  0  0  0  0  0  0
  144.1100  130.8551  150.1182 H   0  0  0  0  0  0  0  0  0  0  0  0
  142.7187  132.6832  151.1280 H   0  0  0  0  0  0  0  0  0  0  0  0
  145.4258  139.5801  154.8835 H   0  0  0  0  0  0  0  0  0  0  0  0
  144.8396  138.0119  154.3950 H   0  0  0  0  0  0  0  0  0  0  0  0
  146.0762  137.9356  156.5850 H   0  0  0  0  0  0  0  0  0  0  0  0
  146.8588  136.9187  155.3943 H   0  0  0  0  0  0  0  0  0  0  0  0
  1  2  1  0  0  0  0
  1 22  1  0  0  0  0
  1 23  1  0  0  0  0
  1 24  1  0  0  0  0
  2  3  1  0  0  0  0
  2 25  1  0  0  0  0
  2 26  1  0  0  0  0
  3  4  1  0  0  0  0
  3  6  1  0  0  0  0
  3 27  1  0  0  0  0
  4  5  1  0  0  0  0
  4 28  1  0  0  0  0
  4 29  1  0  0  0  0
  5 30  1  0  0  0  0
  5 31  1  0  0  0  0
  5 32  1  0  0  0  0
  6 21  1  0  0  0  0
  6  7  1  0  0  0  0
  6 33  1  0  0  0  0
  7  8  1  0  0  0  0
  7 34  1  0  0  0  0
  7 35  1  0  0  0  0
  8  9  1  0  0  0  0
  8 19  1  0  0  0  0
  8 36  1  0  0  0  0
  9 10  1  0  0  0  0
  9 37  1  0  0  0  0
 10 11  2  0  0  0  0
 10 12  1  0  0  0  0
 12 13  1  0  0  0  0
 12 38  1  0  0  0  0
 13 18  1  0  0  0  0
 13 14  2  0  0  0  0
 14 15  1  0  0  0  0
 14 39  1  0  0  0  0
 15 16  2  0  0  0  0
 15 40  1  0  0  0  0
 16 17  1  0  0  0  0
 16 41  1  0  0  0  0
 17 18  2  0  0  0  0
 17 42  1  0  0  0  0
 19 20  1  0  0  0  0
 19 43  1  0  0  0  0
 19 44  1  0  0  0  0
 20 21  1  0  0  0  0
 20 45  1  0  0  0  0
 20 46  1  0  0  0  0
M  END
> <s_m_source_file>
AV-unprocessed.smi

> <i_m_source_file_index>
2467

> <i_lp_mmshare_version>
43012

> <i_f3d_flags>
0

> <s_epik_input>
W0NIM11bQ0gyXVtDSF0oW0NIMl1bQ0gzXSlbQ0BASF0xW0NIMl1bQ0BIXShbQ0gyXVtDSDJdTzEpW05IXUMoPU8pW05IXWMyW2NIXVtjSF1bY0hdW2NIXW4y

> <s_epik_cmdline>
J2VwaWtfcHl0aG9uJywgJy1waCcsICc3LjAnLCAnLXRuJywgJzgnLCAnLW1hJywgJzIwMCcsICctbWV0YWxfYmluZGluZycsICctaW1hZScsICc8aW5maWxlLm1hZT4nLCAnLW9tYWUnLCAnPG91dGZpbGUubWFlPic=

> <r_lp_tautomer_probability>
1

> <r_epik_Ionization_Penalty>
4.80427e-05

> <r_epik_Ionization_Penalty_Charging>
0

> <r_epik_Ionization_Penalty_Neutral>
4.80427e-05

> <r_epik_State_Penalty>
-0

> <r_epik_Charging_Adjusted_Penalty>
0

> <i_epik_Tot_Q>
0

> <i_epik_Tot_abs_Q>
0

> <r_epik_Metal_State_Penalty>
-0

> <b_epik_Metal_Only>
0

> <s_lp_Force_Field>
OPLS_2005

> <r_lp_Energy>
18.1019

> <b_lp_Chiralities_Consistent>
1

> <s_lp_Variant>
AV-unprocessed.smi:2467-1

> <Gold.Version>
5.8.1

> <Gold.Id.Protein>
6NUR|6NUR_protein|mol2

> <Gold.PLP.Fitness>
43.5190

> <Gold.PLP.PLP>
-35.9837

> <Gold.PLP.part.hbond>
-2.0000

> <Gold.PLP.part.metal>
0.0000

> <Gold.PLP.part.buried>
-3.6505

> <Gold.PLP.part.nonpolar>
-31.2233

> <Gold.PLP.part.repulsive>
0.4851

> <Gold.PLP.ligand.clash>
0.0000

> <Gold.PLP.ligand.torsion>
0.7506

> <Gold.PLP.Chemscore.Hbond>
1.9760

> <Gold.PLP.Chemscore.CHOScore>
0.9922

> <Gold.PLP.Chemscore.Metal>
0.0000

> <Gold.Chemscore.Hbonds>
donor molecule, donor type, donor heavy atom, donor atom, acceptor molecule, acceptor atom, score
      L1  H     9    37       P1  7948  1.00
      L1  H    12    38       P1  7948  0.98
      L1  C    17    42       P1 10186  0.06

> <Gold.PLP.Chemscore.Internal.Correction>
0.1318

> <Gold.Rescore>
     Score         DG    S(hbond)    S(metal)    S(lipo)     H(rot)  DE(clash)    DE(int)     intcor
     14.74     -18.06       1.89        0.00      86.16       1.49       0.06       3.26       ----

> <Gold.Chemscore.Fitness>
14.7400

> <Gold.Chemscore.DG>
-18.0623

> <Gold.Chemscore.ZeroCoef>
-5.4800

> <Gold.Chemscore.Hbond>
1.8876

> <Gold.Chemscore.Metal>
0.0000

> <Gold.Chemscore.Lipo>
86.1616

> <Gold.Chemscore.Internal_Hbond>
0.0000

> <Gold.Chemscore.DEClash>
0.0593

> <Gold.Chemscore.DEInternal>
3.2630

> <Gold.Chemscore.Rot>
1.4856

> <Gold.Chemscore.Internal.Correction>
   9.000000E+99

> <Gold.Chemscore.Hbonds>
donor molecule, donor type, donor heavy atom, donor atom, acceptor molecule, acceptor atom, score
      L1  H     9    37       P1  7948  0.97
      L1  H    12    38       P1  7948  0.89

> <Gold.Chemscore.Hbond.Weighted>
-6.3045

> <Gold.Chemscore.Metal.Weighted>
-0.0000

> <Gold.Chemscore.Lipo.Weighted>
-10.0809

> <Gold.Chemscore.Internal_Hbond.Weighted>
0.0000

> <Gold.Chemscore.DEClash.Weighted>
0.0593

> <Gold.Chemscore.DEInternal.Weighted>
3.2630

> <Gold.Chemscore.Rot.Weighted>
3.8031

> <Gold.Chemscore.Internal.Correction.Weighted>
   9.000000E+99

> <Gold.Protein.RotatedTorsions>
[ 6907 6896 6895 6894 ] final  179.17 input  -60.11 | X-H torsion
[ 7974 7965 7964 7962 ] final -129.21 input  175.53 | X-H torsion
[ 8008 7997 7996 7995 ] final  115.76 input   59.86 | X-H torsion
[ 10167 10162 10161 10158 ] final   28.00 input  -65.29 | X-H torsion
[ 10718 10713 10712 10709 ] final   35.21 input   66.30 | X-H torsion
[ 10763 10752 10751 10750 ] final  -92.46 input  -60.55 | X-H torsion
[ 11005 11000 10999 10996 ] final  122.06 input  -57.11 | X-H torsion

> <Gold.Protein.ActiveResidues>
 VAL166  LYS551  ARG553  GLY616  TRP617  ASP618  TYR619  PRO620  LYS621  CYS622 
 ASP623  PHE694  ASN695  SER759  ASP760  ASP761  ALA762  ILE779  LEU786  VAL792 
 PHE793  MET794  SER795  GLU796  ALA797  LYS798  CYS799  TRP800  GLU811  SER814 

> <Gold.Protein.RotatedAtoms>
  151.6759  133.3313  159.3207 H   0  0  0  0  0  0  0  0  0  0  0  0  # atno 6907 bound_to 6896
  150.7845  134.6822  159.6460 H   0  0  0  0  0  0  0  0  0  0  0  0  # atno 6908 bound_to 6896
  152.3912  134.6442  160.0159 H   0  0  0  0  0  0  0  0  0  0  0  0  # atno 6909 bound_to 6896
  144.9595  140.7431  143.4738 H   0  0  0  0  0  0  0  0  0  0  0  0  # atno 7974 bound_to 7965
  156.2400  140.2931  156.0419 H   0  0  0  0  0  0  0  0  0  0  0  0  # atno 8008 bound_to 7997
  155.1978  140.0408  157.2929 H   0  0  0  0  0  0  0  0  0  0  0  0  # atno 8009 bound_to 7997
  154.6151  140.2461  155.7627 H   0  0  0  0  0  0  0  0  0  0  0  0  # atno 8010 bound_to 7997
  140.4890  144.0497  150.6290 H   0  0  0  0  0  0  0  0  0  0  0  0  # atno 10167 bound_to 10162
  157.3198  130.7442  149.6778 H   0  0  0  0  0  0  0  0  0  0  0  0  # atno 10718 bound_to 10713
  154.6863  135.5230  153.8331 H   0  0  0  0  0  0  0  0  0  0  0  0  # atno 10763 bound_to 10752
  153.0600  135.6564  154.0496 H   0  0  0  0  0  0  0  0  0  0  0  0  # atno 10764 bound_to 10752
  154.0376  135.2980  155.3339 H   0  0  0  0  0  0  0  0  0  0  0  0  # atno 10765 bound_to 10752
  139.9252  134.9640  156.8052 H   0  0  0  0  0  0  0  0  0  0  0  0  # atno 11005 bound_to 11000
  145.2722  139.1950  143.4835 LP  0  0  0  0  0  0  0  0  0  0  0  0  # atno 17320 bound_to 7965
  146.3348  140.2670  142.8604 LP  0  0  0  0  0  0  0  0  0  0  0  0  # atno 17321 bound_to 7965
  140.3760  143.2828  152.0224 LP  0  0  0  0  0  0  0  0  0  0  0  0  # atno 17342 bound_to 10162
  139.4847  144.6192  151.7287 LP  0  0  0  0  0  0  0  0  0  0  0  0  # atno 17343 bound_to 10162
  155.9685  130.4226  150.4525 LP  0  0  0  0  0  0  0  0  0  0  0  0  # atno 17370 bound_to 10713
  157.2539  131.0552  151.2362 LP  0  0  0  0  0  0  0  0  0  0  0  0  # atno 17371 bound_to 10713
  140.6357  133.9865  155.7683 LP  0  0  0  0  0  0  0  0  0  0  0  0  # atno 17394 bound_to 11000
  141.0804  134.0071  157.3394 LP  0  0  0  0  0  0  0  0  0  0  0  0  # atno 17395 bound_to 11000

$$$$
