AV-unprocessed.smi:3199|AV-procd|sdf|12234|dock10
  -GOLD-   2272018 73D 1   1.00000     0.00000
 Structure written by MMmdl.
 36 37  0  0  0  0  0  0  0  0  2 V2000
  146.5066  138.6674  151.8023 C   0  0  0  0  0  0  0  0  0  0  0  0
  147.3309  139.4185  152.8267 C   0  0  0  0  0  0  0  0  0  0  0  0
  146.9345  140.6711  153.3427 C   0  0  0  0  0  0  0  0  0  0  0  0
  147.7557  141.3168  154.2903 C   0  0  0  0  0  0  0  0  0  0  0  0
  148.9570  140.6990  154.7015 C   0  0  0  0  0  0  0  0  0  0  0  0
  149.8651  141.3730  155.7116 C   0  0  0  0  0  0  0  0  0  0  0  0
  151.0119  140.4608  156.1665 C   0  0  0  0  0  0  0  0  0  0  0  0
  151.8944  141.1723  157.0799 N   0  0  0  0  0  0  0  0  0  0  0  0
  151.9093  141.0040  158.4096 C   0  0  0  0  0  0  0  0  0  0  0  0
  151.1650  140.2174  158.9959 O   0  0  0  0  0  0  0  0  0  0  0  0
  152.9344  141.8438  159.1819 C   0  0  1  0  0  0  0  0  0  0  0  0
  152.3385  142.7562  160.2723 C   0  0  0  0  0  0  0  0  0  0  0  0
  152.8494  142.1523  161.5664 C   0  0  0  0  0  0  0  0  0  0  0  0
  154.1543  141.5081  161.1205 C   0  0  0  0  0  0  0  0  0  0  0  0
  153.8164  140.9520  159.8603 O   0  0  0  0  0  0  0  0  0  0  0  0
  149.3004  139.4441  154.1543 C   0  0  0  0  0  0  0  0  0  0  0  0
  148.4863  138.8578  153.2492 N   0  3  0  0  0  0  0  0  0  0  0  0
  145.5647  139.1798  151.6041 H   0  0  0  0  0  0  0  0  0  0  0  0
  146.2784  137.6623  152.1581 H   0  0  0  0  0  0  0  0  0  0  0  0
  147.0535  138.5854  150.8626 H   0  0  0  0  0  0  0  0  0  0  0  0
  146.0143  141.1348  153.0176 H   0  0  0  0  0  0  0  0  0  0  0  0
  147.4658  142.2762  154.6940 H   0  0  0  0  0  0  0  0  0  0  0  0
  150.2669  142.2864  155.2704 H   0  0  0  0  0  0  0  0  0  0  0  0
  149.2703  141.6834  156.5721 H   0  0  0  0  0  0  0  0  0  0  0  0
  150.6156  139.5757  156.6669 H   0  0  0  0  0  0  0  0  0  0  0  0
  151.5822  140.1164  155.3019 H   0  0  0  0  0  0  0  0  0  0  0  0
  152.5442  141.8317  156.6767 H   0  0  0  0  0  0  0  0  0  0  0  0
  153.5152  142.4489  158.4834 H   0  0  0  0  0  0  0  0  0  0  0  0
  152.7297  143.7676  160.1553 H   0  0  0  0  0  0  0  0  0  0  0  0
  151.2504  142.8288  160.2584 H   0  0  0  0  0  0  0  0  0  0  0  0
  152.9841  142.8884  162.3593 H   0  0  0  0  0  0  0  0  0  0  0  0
  152.1584  141.3866  161.9214 H   0  0  0  0  0  0  0  0  0  0  0  0
  154.9379  142.2569  160.9933 H   0  0  0  0  0  0  0  0  0  0  0  0
  154.5101  140.7470  161.8152 H   0  0  0  0  0  0  0  0  0  0  0  0
  150.1960  138.8960  154.4090 H   0  0  0  0  0  0  0  0  0  0  0  0
  148.7569  137.9516  152.8659 H   0  0  0  0  0  0  0  0  0  0  0  0
  1  2  1  0  0  0  0
  1 18  1  0  0  0  0
  1 19  1  0  0  0  0
  1 20  1  0  0  0  0
  2 17  1  0  0  0  0
  2  3  2  0  0  0  0
  3  4  1  0  0  0  0
  3 21  1  0  0  0  0
  4  5  2  0  0  0  0
  4 22  1  0  0  0  0
  5  6  1  0  0  0  0
  5 16  1  0  0  0  0
  6  7  1  0  0  0  0
  6 23  1  0  0  0  0
  6 24  1  0  0  0  0
  7  8  1  0  0  0  0
  7 25  1  0  0  0  0
  7 26  1  0  0  0  0
  8  9  1  0  0  0  0
  8 27  1  0  0  0  0
  9 10  2  0  0  0  0
  9 11  1  0  0  0  0
 11 15  1  0  0  0  0
 11 12  1  0  0  0  0
 11 28  1  0  0  0  0
 12 13  1  0  0  0  0
 12 29  1  0  0  0  0
 12 30  1  0  0  0  0
 13 14  1  0  0  0  0
 13 31  1  0  0  0  0
 13 32  1  0  0  0  0
 14 15  1  0  0  0  0
 14 33  1  0  0  0  0
 14 34  1  0  0  0  0
 16 17  2  0  0  0  0
 16 35  1  0  0  0  0
 17 36  1  0  0  0  0
M  CHG  1  17   1
M  END
> <s_m_source_file>
AV-unprocessed.smi

> <i_m_source_file_index>
3199

> <i_lp_mmshare_version>
43012

> <i_f3d_flags>
0

> <s_epik_input>
W0NIM11jMVtjSF1bY0hdYyhbY0hdbjEpW0NIMl1bQ0gyXVtOSF1DKD1PKVtDQEBIXTJbQ0gyXVtDSDJdW0NIMl1PMg==

> <s_epik_cmdline>
J2VwaWtfcHl0aG9uJywgJy1waCcsICc3LjAnLCAnLXRuJywgJzgnLCAnLW1hJywgJzIwMCcsICctbWV0YWxfYmluZGluZycsICctaW1hZScsICc8aW5maWxlLm1hZT4nLCAnLW9tYWUnLCAnPG91dGZpbGUubWFlPic=

> <r_epik_Ionization_Penalty>
1.4683

> <r_epik_Ionization_Penalty_Charging>
1.4683

> <r_epik_Ionization_Penalty_Neutral>
5.71603e-08

> <r_epik_State_Penalty>
1.5559

> <r_epik_Charging_Adjusted_Penalty>
3.0242

> <i_epik_Tot_Q>
1

> <i_epik_Tot_abs_Q>
1

> <r_epik_Metal_State_Penalty>
1.60421

> <b_epik_Metal_Only>
0

> <s_lp_Force_Field>
OPLS_2005

> <r_lp_Energy>
24.4706

> <b_lp_Chiralities_Consistent>
1

> <s_lp_Variant>
AV-unprocessed.smi:3199-4

> <Gold.Version>
5.8.1

> <Gold.Id.Protein>
6NUR|6NUR_protein|mol2

> <Gold.PLP.Fitness>
44.7176

> <Gold.PLP.PLP>
-39.0616

> <Gold.PLP.part.hbond>
-2.1152

> <Gold.PLP.part.metal>
0.0000

> <Gold.PLP.part.buried>
0.2390

> <Gold.PLP.part.nonpolar>
-37.6537

> <Gold.PLP.part.repulsive>
0.1640

> <Gold.PLP.ligand.clash>
0.0000

> <Gold.PLP.ligand.torsion>
0.1765

> <Gold.PLP.Chemscore.Hbond>
2.0000

> <Gold.PLP.Chemscore.CHOScore>
0.0000

> <Gold.PLP.Chemscore.Metal>
0.0000

> <Gold.Chemscore.Hbonds>
donor molecule, donor type, donor heavy atom, donor atom, acceptor molecule, acceptor atom, score
      L1  H    17    36       P1  7948  2.00

> <Gold.PLP.Chemscore.Internal.Correction>
0.0089

> <Gold.Rescore>
     Score         DG    S(hbond)    S(metal)    S(lipo)     H(rot)  DE(clash)    DE(int)     intcor
     16.00     -16.68       0.93        0.00     103.23       1.56       0.50       0.18       ----

> <Gold.Chemscore.Fitness>
15.9973

> <Gold.Chemscore.DG>
-16.6794

> <Gold.Chemscore.ZeroCoef>
-5.4800

> <Gold.Chemscore.Hbond>
0.9337

> <Gold.Chemscore.Metal>
0.0000

> <Gold.Chemscore.Lipo>
103.2280

> <Gold.Chemscore.Internal_Hbond>
0.0000

> <Gold.Chemscore.DEClash>
0.5013

> <Gold.Chemscore.DEInternal>
0.1809

> <Gold.Chemscore.Rot>
1.5613

> <Gold.Chemscore.Internal.Correction>
   9.000000E+99

> <Gold.Chemscore.Hbonds>
donor molecule, donor type, donor heavy atom, donor atom, acceptor molecule, acceptor atom, score
      L1  H    17    36       P1  7948  0.98

> <Gold.Chemscore.Hbond.Weighted>
-3.1186

> <Gold.Chemscore.Metal.Weighted>
-0.0000

> <Gold.Chemscore.Lipo.Weighted>
-12.0777

> <Gold.Chemscore.Internal_Hbond.Weighted>
0.0000

> <Gold.Chemscore.DEClash.Weighted>
0.5013

> <Gold.Chemscore.DEInternal.Weighted>
0.1809

> <Gold.Chemscore.Rot.Weighted>
3.9969

> <Gold.Chemscore.Internal.Correction.Weighted>
   9.000000E+99

> <Gold.Protein.RotatedTorsions>
[ 6907 6896 6895 6894 ] final  -98.64 input  -60.11 | X-H torsion
[ 7974 7965 7964 7962 ] final  -41.64 input  175.53 | X-H torsion
[ 8008 7997 7996 7995 ] final  -25.97 input   59.86 | X-H torsion
[ 10167 10162 10161 10158 ] final   29.24 input  -65.29 | X-H torsion
[ 10718 10713 10712 10709 ] final  -25.09 input   66.30 | X-H torsion
[ 10763 10752 10751 10750 ] final  -13.90 input  -60.55 | X-H torsion
[ 11005 11000 10999 10996 ] final  176.53 input  -57.11 | X-H torsion

> <Gold.Protein.ActiveResidues>
 VAL166  LYS551  ARG553  GLY616  TRP617  ASP618  TYR619  PRO620  LYS621  CYS622 
 ASP623  PHE694  ASN695  SER759  ASP760  ASP761  ALA762  ILE779  LEU786  VAL792 
 PHE793  MET794  SER795  GLU796  ALA797  LYS798  CYS799  TRP800  GLU811  SER814 

> <Gold.Protein.RotatedAtoms>
  150.7053  134.1163  159.4018 H   0  0  0  0  0  0  0  0  0  0  0  0  # atno 6907 bound_to 6896
  151.9150  135.0320  160.0527 H   0  0  0  0  0  0  0  0  0  0  0  0  # atno 6908 bound_to 6896
  152.2304  133.5018  159.5249 H   0  0  0  0  0  0  0  0  0  0  0  0  # atno 6909 bound_to 6896
  146.0192  140.6871  142.9187 H   0  0  0  0  0  0  0  0  0  0  0  0  # atno 7974 bound_to 7965
  154.4449  140.1912  156.0702 H   0  0  0  0  0  0  0  0  0  0  0  0  # atno 8008 bound_to 7997
  156.0517  140.3308  155.7332 H   0  0  0  0  0  0  0  0  0  0  0  0  # atno 8009 bound_to 7997
  155.5547  140.0598  157.2833 H   0  0  0  0  0  0  0  0  0  0  0  0  # atno 8010 bound_to 7997
  140.4783  144.0655  150.6257 H   0  0  0  0  0  0  0  0  0  0  0  0  # atno 10167 bound_to 10162
  156.4690  130.4520  149.6881 H   0  0  0  0  0  0  0  0  0  0  0  0  # atno 10718 bound_to 10713
  153.5202  135.7016  153.5735 H   0  0  0  0  0  0  0  0  0  0  0  0  # atno 10763 bound_to 10752
  153.3787  135.3925  155.1841 H   0  0  0  0  0  0  0  0  0  0  0  0  # atno 10764 bound_to 10752
  154.8695  135.3830  154.4690 H   0  0  0  0  0  0  0  0  0  0  0  0  # atno 10765 bound_to 10752
  140.3741  134.7004  157.4410 H   0  0  0  0  0  0  0  0  0  0  0  0  # atno 11005 bound_to 11000
  144.6983  140.3535  143.7177 LP  0  0  0  0  0  0  0  0  0  0  0  0  # atno 17320 bound_to 7965
  145.7221  139.1712  143.2479 LP  0  0  0  0  0  0  0  0  0  0  0  0  # atno 17321 bound_to 7965
  140.3890  143.2762  152.0082 LP  0  0  0  0  0  0  0  0  0  0  0  0  # atno 17342 bound_to 10162
  139.4829  144.6093  151.7463 LP  0  0  0  0  0  0  0  0  0  0  0  0  # atno 17343 bound_to 10162
  156.3638  130.7495  151.2470 LP  0  0  0  0  0  0  0  0  0  0  0  0  # atno 17370 bound_to 10713
  157.7492  131.0342  150.4309 LP  0  0  0  0  0  0  0  0  0  0  0  0  # atno 17371 bound_to 10713
  140.0529  134.6105  155.8840 LP  0  0  0  0  0  0  0  0  0  0  0  0  # atno 17394 bound_to 11000
  141.1945  133.6583  156.5598 LP  0  0  0  0  0  0  0  0  0  0  0  0  # atno 17395 bound_to 11000

$$$$
