AV-unprocessed.smi:2712|AV-procd|sdf|10476|dock10
  -GOLD-   2272014513D 1   1.00000     0.00000
 Structure written by MMmdl.
 52 53  0  0  0  0  0  0  0  0  1 V2000
  146.1015  138.4196  154.0924 C   0  0  0  0  0  0  0  0  0  0  0  0
  147.5355  138.8254  154.2639 C   0  0  0  0  0  0  0  0  0  0  0  0
  147.9866  140.1984  154.1393 C   0  0  0  0  0  0  0  0  0  0  0  0
  149.2965  140.4821  154.3033 C   0  0  0  0  0  0  0  0  0  0  0  0
  150.2758  139.4410  154.6075 C   0  0  0  0  0  0  0  0  0  0  0  0
  151.4763  139.6662  154.7596 O   0  0  0  0  0  0  0  0  0  0  0  0
  149.7343  138.1909  154.7103 N   0  0  0  0  0  0  0  0  0  0  0  0
  150.5680  137.0240  155.0340 C   0  0  0  0  0  0  0  0  0  0  0  0
  149.7571  135.7660  155.3799 C   0  0  0  0  0  0  0  0  0  0  0  0
  149.7831  135.2858  156.5143 O   0  0  0  0  0  0  0  0  0  0  0  0
  149.0243  135.2514  154.3804 N   0  0  0  0  0  0  0  0  0  0  0  0
  148.1695  134.0697  154.4738 C   0  0  2  0  0  0  0  0  0  0  0  0
  148.5341  133.0709  153.3572 C   0  0  0  0  0  0  0  0  0  0  0  0
  147.4723  131.9935  153.0932 C   0  0  0  0  0  0  0  0  0  0  0  0
  146.4172  132.4231  152.0561 C   0  0  0  0  0  0  0  0  0  0  0  0
  145.3641  133.4644  152.5293 C   0  0  2  0  0  0  0  0  0  0  0  0
  144.2854  133.8008  151.4331 C   0  0  0  0  0  0  0  0  0  0  0  0
  144.8479  134.7329  150.3380 C   0  0  0  0  0  0  0  0  0  0  0  0
  143.0506  134.4809  152.0718 C   0  0  0  0  0  0  0  0  0  0  0  0
  143.7620  132.5152  150.7515 C   0  0  0  0  0  0  0  0  0  0  0  0
  146.0387  134.7311  153.1301 C   0  0  0  0  0  0  0  0  0  0  0  0
  146.6886  134.4956  154.5054 C   0  0  0  0  0  0  0  0  0  0  0  0
  148.3922  137.8960  154.5344 N   0  0  0  0  0  0  0  0  0  0  0  0
  145.4792  139.2735  153.8236 H   0  0  0  0  0  0  0  0  0  0  0  0
  145.7060  137.9951  155.0157 H   0  0  0  0  0  0  0  0  0  0  0  0
  146.0000  137.6720  153.3051 H   0  0  0  0  0  0  0  0  0  0  0  0
  147.2751  140.9800  153.9174 H   0  0  0  0  0  0  0  0  0  0  0  0
  149.6311  141.5049  154.2108 H   0  0  0  0  0  0  0  0  0  0  0  0
  151.2208  136.7851  154.1924 H   0  0  0  0  0  0  0  0  0  0  0  0
  151.2372  137.2612  155.8633 H   0  0  0  0  0  0  0  0  0  0  0  0
  149.0631  135.7115  153.4825 H   0  0  0  0  0  0  0  0  0  0  0  0
  148.3631  133.5870  155.4336 H   0  0  0  0  0  0  0  0  0  0  0  0
  148.7504  133.5987  152.4271 H   0  0  0  0  0  0  0  0  0  0  0  0
  149.4695  132.5823  153.6334 H   0  0  0  0  0  0  0  0  0  0  0  0
  147.9839  131.1174  152.6932 H   0  0  0  0  0  0  0  0  0  0  0  0
  147.0045  131.6617  154.0208 H   0  0  0  0  0  0  0  0  0  0  0  0
  146.9248  132.7798  151.1603 H   0  0  0  0  0  0  0  0  0  0  0  0
  145.9076  131.5070  151.7620 H   0  0  0  0  0  0  0  0  0  0  0  0
  144.8158  132.9834  153.3407 H   0  0  0  0  0  0  0  0  0  0  0  0
  144.0957  134.9392  149.5757 H   0  0  0  0  0  0  0  0  0  0  0  0
  145.7057  134.2937  149.8289 H   0  0  0  0  0  0  0  0  0  0  0  0
  145.1606  135.6953  150.7425 H   0  0  0  0  0  0  0  0  0  0  0  0
  143.2618  135.4816  152.4451 H   0  0  0  0  0  0  0  0  0  0  0  0
  142.6560  133.8924  152.9009 H   0  0  0  0  0  0  0  0  0  0  0  0
  142.2436  134.5967  151.3472 H   0  0  0  0  0  0  0  0  0  0  0  0
  142.9133  132.7260  150.0999 H   0  0  0  0  0  0  0  0  0  0  0  0
  143.4320  131.7803  151.4867 H   0  0  0  0  0  0  0  0  0  0  0  0
  144.5171  132.0458  150.1211 H   0  0  0  0  0  0  0  0  0  0  0  0
  146.7594  135.1600  152.4330 H   0  0  0  0  0  0  0  0  0  0  0  0
  145.2951  135.5086  153.2837 H   0  0  0  0  0  0  0  0  0  0  0  0
  146.1089  133.7548  155.0569 H   0  0  0  0  0  0  0  0  0  0  0  0
  146.6012  135.4058  155.1008 H   0  0  0  0  0  0  0  0  0  0  0  0
  1  2  1  0  0  0  0
  1 24  1  0  0  0  0
  1 25  1  0  0  0  0
  1 26  1  0  0  0  0
  2 23  2  0  0  0  0
  2  3  1  0  0  0  0
  3  4  2  0  0  0  0
  3 27  1  0  0  0  0
  4  5  1  0  0  0  0
  4 28  1  0  0  0  0
  5  6  2  0  0  0  0
  5  7  1  0  0  0  0
  7  8  1  0  0  0  0
  7 23  1  0  0  0  0
  8  9  1  0  0  0  0
  8 29  1  0  0  0  0
  8 30  1  0  0  0  0
  9 10  2  0  0  0  0
  9 11  1  0  0  0  0
 11 12  1  0  0  0  0
 11 31  1  0  0  0  0
 12 22  1  0  0  0  0
 12 13  1  0  0  0  0
 12 32  1  0  0  0  0
 13 14  1  0  0  0  0
 13 33  1  0  0  0  0
 13 34  1  0  0  0  0
 14 15  1  0  0  0  0
 14 35  1  0  0  0  0
 14 36  1  0  0  0  0
 15 16  1  0  0  0  0
 15 37  1  0  0  0  0
 15 38  1  0  0  0  0
 16 17  1  0  0  0  0
 16 21  1  0  0  0  0
 16 39  1  0  0  0  0
 17 18  1  0  0  0  0
 17 19  1  0  0  0  0
 17 20  1  0  0  0  0
 18 40  1  0  0  0  0
 18 41  1  0  0  0  0
 18 42  1  0  0  0  0
 19 43  1  0  0  0  0
 19 44  1  0  0  0  0
 19 45  1  0  0  0  0
 20 46  1  0  0  0  0
 20 47  1  0  0  0  0
 20 48  1  0  0  0  0
 21 22  1  0  0  0  0
 21 49  1  0  0  0  0
 21 50  1  0  0  0  0
 22 51  1  0  0  0  0
 22 52  1  0  0  0  0
M  END
> <s_m_source_file>
AV-unprocessed.smi

> <i_m_source_file_index>
2712

> <i_lp_mmshare_version>
43012

> <i_f3d_flags>
0

> <s_epik_input>
W0NIM11jMVtjSF1bY0hdYyg9TyluKG4xKVtDSDJdQyg9TylbTkhdW0NAQEhdMltDSDJdW0NIMl1bQ0gyXVtDQEBIXShDKFtDSDNdKShbQ0gzXSlbQ0gzXSlbQ0gyXVtDSDJdMg==

> <s_epik_cmdline>
J2VwaWtfcHl0aG9uJywgJy1waCcsICc3LjAnLCAnLXRuJywgJzgnLCAnLW1hJywgJzIwMCcsICctbWV0YWxfYmluZGluZycsICctaW1hZScsICc8aW5maWxlLm1hZT4nLCAnLW9tYWUnLCAnPG91dGZpbGUubWFlPic=

> <r_lp_tautomer_probability>
1

> <r_epik_Ionization_Penalty>
8.71758e-07

> <r_epik_Ionization_Penalty_Charging>
8.50442e-07

> <r_epik_Ionization_Penalty_Neutral>
2.13165e-08

> <r_epik_State_Penalty>
-0

> <r_epik_Charging_Adjusted_Penalty>
8.50442e-07

> <i_epik_Tot_Q>
0

> <i_epik_Tot_abs_Q>
0

> <r_epik_Metal_State_Penalty>
-0

> <b_epik_Metal_Only>
0

> <s_lp_Force_Field>
OPLS_2005

> <r_lp_Energy>
39.6201

> <b_lp_Chiralities_Consistent>
1

> <s_lp_Variant>
AV-unprocessed.smi:2712-3

> <Gold.Version>
5.8.1

> <Gold.Id.Protein>
6NUR|6NUR_protein|mol2

> <Gold.PLP.Fitness>
42.2679

> <Gold.PLP.PLP>
-37.1724

> <Gold.PLP.part.hbond>
-2.0000

> <Gold.PLP.part.metal>
0.0000

> <Gold.PLP.part.buried>
-4.6725

> <Gold.PLP.part.nonpolar>
-31.7472

> <Gold.PLP.part.repulsive>
0.2510

> <Gold.PLP.ligand.clash>
0.0000

> <Gold.PLP.ligand.torsion>
0.4964

> <Gold.PLP.Chemscore.Hbond>
2.0000

> <Gold.PLP.Chemscore.CHOScore>
0.0000

> <Gold.PLP.Chemscore.Metal>
0.0000

> <Gold.Chemscore.Hbonds>
donor molecule, donor type, donor heavy atom, donor atom, acceptor molecule, acceptor atom, score
      L1  H    11    31       P1  7948  1.00
      P1  H  7989  7998       L1     6  0.90

> <Gold.PLP.Chemscore.Internal.Correction>
0.0883

> <Gold.Rescore>
     Score         DG    S(hbond)    S(metal)    S(lipo)     H(rot)  DE(clash)    DE(int)     intcor
     15.59     -17.54       1.90        0.00      81.89       1.52       0.05       1.90       ----

> <Gold.Chemscore.Fitness>
15.5906

> <Gold.Chemscore.DG>
-17.5366

> <Gold.Chemscore.ZeroCoef>
-5.4800

> <Gold.Chemscore.Hbond>
1.9031

> <Gold.Chemscore.Metal>
0.0000

> <Gold.Chemscore.Lipo>
81.8941

> <Gold.Chemscore.Internal_Hbond>
0.0000

> <Gold.Chemscore.DEClash>
0.0456

> <Gold.Chemscore.DEInternal>
1.9003

> <Gold.Chemscore.Rot>
1.5162

> <Gold.Chemscore.Internal.Correction>
   9.000000E+99

> <Gold.Chemscore.Hbonds>
donor molecule, donor type, donor heavy atom, donor atom, acceptor molecule, acceptor atom, score
      L1  H    11    31       P1  7948  0.78
      P1  H  7989  7998       L1     6  0.18

> <Gold.Chemscore.Hbond.Weighted>
-6.3564

> <Gold.Chemscore.Metal.Weighted>
-0.0000

> <Gold.Chemscore.Lipo.Weighted>
-9.5816

> <Gold.Chemscore.Internal_Hbond.Weighted>
0.0000

> <Gold.Chemscore.DEClash.Weighted>
0.0456

> <Gold.Chemscore.DEInternal.Weighted>
1.9003

> <Gold.Chemscore.Rot.Weighted>
3.8814

> <Gold.Chemscore.Internal.Correction.Weighted>
   9.000000E+99

> <Gold.Protein.RotatedTorsions>
[ 6907 6896 6895 6894 ] final  178.36 input  -60.11 | X-H torsion
[ 7974 7965 7964 7962 ] final -101.55 input  175.53 | X-H torsion
[ 8008 7997 7996 7995 ] final   94.09 input   59.86 | X-H torsion
[ 10167 10162 10161 10158 ] final -124.73 input  -65.29 | X-H torsion
[ 10718 10713 10712 10709 ] final   53.97 input   66.30 | X-H torsion
[ 10763 10752 10751 10750 ] final   45.82 input  -60.55 | X-H torsion
[ 11005 11000 10999 10996 ] final -103.22 input  -57.11 | X-H torsion

> <Gold.Protein.ActiveResidues>
 VAL166  LYS551  ARG553  GLY616  TRP617  ASP618  TYR619  PRO620  LYS621  CYS622 
 ASP623  PHE694  ASN695  SER759  ASP760  ASP761  ALA762  ILE779  LEU786  VAL792 
 PHE793  MET794  SER795  GLU796  ALA797  LYS798  CYS799  TRP800  GLU811  SER814 

> <Gold.Protein.RotatedAtoms>
  151.6891  133.3311  159.3237 H   0  0  0  0  0  0  0  0  0  0  0  0  # atno 6907 bound_to 6896
  150.7787  134.6714  159.6403 H   0  0  0  0  0  0  0  0  0  0  0  0  # atno 6908 bound_to 6896
  152.3838  134.6552  160.0185 H   0  0  0  0  0  0  0  0  0  0  0  0  # atno 6909 bound_to 6896
  145.2801  140.9324  143.2937 H   0  0  0  0  0  0  0  0  0  0  0  0  # atno 7974 bound_to 7965
  156.0540  140.3304  155.7384 H   0  0  0  0  0  0  0  0  0  0  0  0  # atno 8008 bound_to 7997
  155.5557  140.0614  157.2857 H   0  0  0  0  0  0  0  0  0  0  0  0  # atno 8009 bound_to 7997
  154.4449  140.1886  156.0720 H   0  0  0  0  0  0  0  0  0  0  0  0  # atno 8010 bound_to 7997
  139.9896  143.5655  152.2347 H   0  0  0  0  0  0  0  0  0  0  0  0  # atno 10167 bound_to 10162
  157.5215  130.8568  149.8565 H   0  0  0  0  0  0  0  0  0  0  0  0  # atno 10718 bound_to 10713
  152.9819  135.6027  154.3499 H   0  0  0  0  0  0  0  0  0  0  0  0  # atno 10763 bound_to 10752
  154.3189  135.2770  155.2531 H   0  0  0  0  0  0  0  0  0  0  0  0  # atno 10764 bound_to 10752
  154.4706  135.5942  153.6375 H   0  0  0  0  0  0  0  0  0  0  0  0  # atno 10765 bound_to 10752
  141.1155  133.8622  157.1458 H   0  0  0  0  0  0  0  0  0  0  0  0  # atno 11005 bound_to 11000
  144.9260  139.4354  143.6518 LP  0  0  0  0  0  0  0  0  0  0  0  0  # atno 17320 bound_to 7965
  146.3219  139.8146  142.8939 LP  0  0  0  0  0  0  0  0  0  0  0  0  # atno 17321 bound_to 7965
  139.6349  144.7649  151.2458 LP  0  0  0  0  0  0  0  0  0  0  0  0  # atno 17342 bound_to 10162
  140.7459  143.6415  150.8331 LP  0  0  0  0  0  0  0  0  0  0  0  0  # atno 17343 bound_to 10162
  156.0357  130.3752  150.1567 LP  0  0  0  0  0  0  0  0  0  0  0  0  # atno 17370 bound_to 10713
  156.9755  130.9848  151.3449 LP  0  0  0  0  0  0  0  0  0  0  0  0  # atno 17371 bound_to 10713
  140.0075  135.0002  157.0324 LP  0  0  0  0  0  0  0  0  0  0  0  0  # atno 17394 bound_to 11000
  140.4657  134.1438  155.7196 LP  0  0  0  0  0  0  0  0  0  0  0  0  # atno 17395 bound_to 11000

$$$$
