AV-unprocessed.smi:1946|AV-procd|sdf|7864|dock5
  -GOLD-   2272010 13D 1   1.00000     0.00000
 Structure written by MMmdl.
 39 41  0  0  0  0  0  0  0  0  2 V2000
  151.4097  136.6005  156.5583 C   0  0  0  0  0  0  0  0  0  0  0  0
  150.9286  137.5268  155.0446 S   0  0  0  0  0  0  0  0  0  0  0  0
  152.0240  137.4091  154.0696 O   0  0  0  0  0  0  0  0  0  0  0  0
  149.5696  137.1089  154.6671 O   0  0  0  0  0  0  0  0  0  0  0  0
  150.8547  139.2267  155.5964 C   0  0  0  0  0  0  0  0  0  0  0  0
  149.8009  140.0553  155.1634 C   0  0  0  0  0  0  0  0  0  0  0  0
  149.7260  141.3841  155.6235 C   0  0  0  0  0  0  0  0  0  0  0  0
  150.6956  141.8838  156.5213 C   0  0  0  0  0  0  0  0  0  0  0  0
  150.6121  143.3159  157.0308 C   0  0  1  0  0  0  0  0  0  0  0  0
  149.6656  143.4546  158.0693 O   0  0  0  0  0  0  0  0  0  0  0  0
  151.9685  143.8373  157.5468 C   0  0  0  0  0  0  0  0  0  0  0  0
  151.9615  144.1007  158.9913 N   0  0  0  0  0  0  0  0  0  0  0  0
  151.5125  145.1859  159.6788 C   0  0  0  0  0  0  0  0  0  0  0  0
  151.7179  144.9464  161.0037 N   0  3  0  0  0  0  0  0  0  0  0  0
  152.3100  143.6916  161.1645 C   0  0  0  0  0  0  0  0  0  0  0  0
  152.7070  143.0107  162.3111 C   0  0  0  0  0  0  0  0  0  0  0  0
  153.2831  141.7368  162.1231 C   0  0  0  0  0  0  0  0  0  0  0  0
  153.4468  141.1868  160.8350 C   0  0  0  0  0  0  0  0  0  0  0  0
  153.0410  141.8862  159.6791 C   0  0  0  0  0  0  0  0  0  0  0  0
  152.4714  143.1437  159.8743 C   0  0  0  0  0  0  0  0  0  0  0  0
  151.7376  141.0389  156.9626 C   0  0  0  0  0  0  0  0  0  0  0  0
  151.8170  139.7093  156.5052 C   0  0  0  0  0  0  0  0  0  0  0  0
  151.4813  135.5384  156.3247 H   0  0  0  0  0  0  0  0  0  0  0  0
  150.6576  136.7515  157.3324 H   0  0  0  0  0  0  0  0  0  0  0  0
  152.3753  136.9592  156.9139 H   0  0  0  0  0  0  0  0  0  0  0  0
  149.0518  139.6796  154.4822 H   0  0  0  0  0  0  0  0  0  0  0  0
  148.9183  142.0183  155.2883 H   0  0  0  0  0  0  0  0  0  0  0  0
  150.2696  143.9553  156.2165 H   0  0  0  0  0  0  0  0  0  0  0  0
  149.4281  142.5926  158.3759 H   0  0  0  0  0  0  0  0  0  0  0  0
  152.7679  143.1255  157.3352 H   0  0  0  0  0  0  0  0  0  0  0  0
  152.2405  144.7665  157.0436 H   0  0  0  0  0  0  0  0  0  0  0  0
  151.0684  146.0732  159.2506 H   0  0  0  0  0  0  0  0  0  0  0  0
  152.5848  143.4296  163.2994 H   0  0  0  0  0  0  0  0  0  0  0  0
  153.6071  141.1704  162.9842 H   0  0  0  0  0  0  0  0  0  0  0  0
  153.8936  140.2087  160.7310 H   0  0  0  0  0  0  0  0  0  0  0  0
  153.1718  141.4568  158.6967 H   0  0  0  0  0  0  0  0  0  0  0  0
  152.4784  141.4062  157.6578 H   0  0  0  0  0  0  0  0  0  0  0  0
  152.6136  139.0681  156.8526 H   0  0  0  0  0  0  0  0  0  0  0  0
  151.4726  145.5945  161.7413 H   0  0  0  0  0  0  0  0  0  0  0  0
  1  2  1  0  0  0  0
  1 23  1  0  0  0  0
  1 24  1  0  0  0  0
  1 25  1  0  0  0  0
  2  3  2  0  0  0  0
  2  4  2  0  0  0  0
  2  5  1  0  0  0  0
  5 22  1  0  0  0  0
  5  6  2  0  0  0  0
  6  7  1  0  0  0  0
  6 26  1  0  0  0  0
  7  8  2  0  0  0  0
  7 27  1  0  0  0  0
  8  9  1  0  0  0  0
  8 21  1  0  0  0  0
  9 10  1  0  0  0  0
  9 11  1  0  0  0  0
  9 28  1  0  0  0  0
 10 29  1  0  0  0  0
 11 12  1  0  0  0  0
 11 30  1  0  0  0  0
 11 31  1  0  0  0  0
 12 20  1  0  0  0  0
 12 13  1  0  0  0  0
 13 14  2  0  0  0  0
 13 32  1  0  0  0  0
 14 15  1  0  0  0  0
 14 39  1  0  0  0  0
 15 20  2  0  0  0  0
 15 16  1  0  0  0  0
 16 17  2  0  0  0  0
 16 33  1  0  0  0  0
 17 18  1  0  0  0  0
 17 34  1  0  0  0  0
 18 19  2  0  0  0  0
 18 35  1  0  0  0  0
 19 20  1  0  0  0  0
 19 36  1  0  0  0  0
 21 22  2  0  0  0  0
 21 37  1  0  0  0  0
 22 38  1  0  0  0  0
M  CHG  1  14   1
M  END
> <s_m_source_file>
AV-unprocessed.smi

> <i_m_source_file_index>
1946

> <i_lp_mmshare_version>
43012

> <i_f3d_flags>
0

> <s_epik_input>
W0NIM11TKD1PKSg9TyljMVtjSF1bY0hdYyhbY0hdW2NIXTEpW0NASF0oW09IXSlbQ0gyXW4oW2NIXW4yKWMoYzIzKVtjSF1bY0hdW2NIXVtjSF0z

> <s_epik_cmdline>
J2VwaWtfcHl0aG9uJywgJy1waCcsICc3LjAnLCAnLXRuJywgJzgnLCAnLW1hJywgJzIwMCcsICctbWV0YWxfYmluZGluZycsICctaW1hZScsICc8aW5maWxlLm1hZT4nLCAnLW9tYWUnLCAnPG91dGZpbGUubWFlPic=

> <r_epik_Ionization_Penalty>
1.3029

> <r_epik_Ionization_Penalty_Charging>
1.3029

> <r_epik_Ionization_Penalty_Neutral>
1.34362e-06

> <r_epik_State_Penalty>
1.377

> <r_epik_Charging_Adjusted_Penalty>
2.6799

> <i_epik_Tot_Q>
1

> <i_epik_Tot_abs_Q>
1

> <r_epik_Metal_State_Penalty>
5.40879

> <b_epik_Metal_Only>
0

> <s_lp_Force_Field>
OPLS_2005

> <r_lp_Energy>
16.9066

> <b_lp_Chiralities_Consistent>
1

> <s_lp_Variant>
AV-unprocessed.smi:1946-4

> <Gold.Version>
5.8.1

> <Gold.Id.Protein>
6NUR|6NUR_protein|mol2

> <Gold.PLP.Fitness>
53.3586

> <Gold.PLP.PLP>
-54.5877

> <Gold.PLP.part.hbond>
-3.6488

> <Gold.PLP.part.metal>
0.0000

> <Gold.PLP.part.buried>
-3.8828

> <Gold.PLP.part.nonpolar>
-48.7083

> <Gold.PLP.part.repulsive>
0.5652

> <Gold.PLP.ligand.clash>
0.0047

> <Gold.PLP.ligand.torsion>
2.7643

> <Gold.PLP.Chemscore.Hbond>
0.7520

> <Gold.PLP.Chemscore.CHOScore>
0.0000

> <Gold.PLP.Chemscore.Metal>
0.0000

> <Gold.Chemscore.Hbonds>
donor molecule, donor type, donor heavy atom, donor atom, acceptor molecule, acceptor atom, score
      P1  H 10752 10764       L1     3  0.93

> <Gold.PLP.Chemscore.Internal.Correction>
2.0482

> <Gold.Rescore>
     Score         DG    S(hbond)    S(metal)    S(lipo)     H(rot)  DE(clash)    DE(int)     intcor
     13.33     -18.12       0.95        0.00     125.47       2.04       1.56       3.23       ----

> <Gold.Chemscore.Fitness>
13.3303

> <Gold.Chemscore.DG>
-18.1249

> <Gold.Chemscore.ZeroCoef>
-5.4800

> <Gold.Chemscore.Hbond>
0.9530

> <Gold.Chemscore.Metal>
0.0000

> <Gold.Chemscore.Lipo>
125.4667

> <Gold.Chemscore.Internal_Hbond>
0.0000

> <Gold.Chemscore.DEClash>
1.5642

> <Gold.Chemscore.DEInternal>
3.2304

> <Gold.Chemscore.Rot>
2.0382

> <Gold.Chemscore.Internal.Correction>
   9.000000E+99

> <Gold.Chemscore.Hbonds>
donor molecule, donor type, donor heavy atom, donor atom, acceptor molecule, acceptor atom, score
      P1  H 10752 10764       L1     3  0.84

> <Gold.Chemscore.Hbond.Weighted>
-3.1830

> <Gold.Chemscore.Metal.Weighted>
-0.0000

> <Gold.Chemscore.Lipo.Weighted>
-14.6796

> <Gold.Chemscore.Internal_Hbond.Weighted>
0.0000

> <Gold.Chemscore.DEClash.Weighted>
1.5642

> <Gold.Chemscore.DEInternal.Weighted>
3.2304

> <Gold.Chemscore.Rot.Weighted>
5.2177

> <Gold.Chemscore.Internal.Correction.Weighted>
   9.000000E+99

> <Gold.Protein.RotatedTorsions>
[ 6907 6896 6895 6894 ] final   86.40 input  -60.11 | X-H torsion
[ 7974 7965 7964 7962 ] final  154.90 input  175.53 | X-H torsion
[ 8008 7997 7996 7995 ] final -135.13 input   59.86 | X-H torsion
[ 10167 10162 10161 10158 ] final -122.59 input  -65.29 | X-H torsion
[ 10718 10713 10712 10709 ] final  166.11 input   66.30 | X-H torsion
[ 10763 10752 10751 10750 ] final  -92.06 input  -60.55 | X-H torsion
[ 11005 11000 10999 10996 ] final   28.50 input  -57.11 | X-H torsion

> <Gold.Protein.ActiveResidues>
 VAL166  LYS551  ARG553  GLY616  TRP617  ASP618  TYR619  PRO620  LYS621  CYS622 
 ASP623  PHE694  ASN695  SER759  ASP760  ASP761  ALA762  ILE779  LEU786  VAL792 
 PHE793  MET794  SER795  GLU796  ALA797  LYS798  CYS799  TRP800  GLU811  SER814 

> <Gold.Protein.RotatedAtoms>
  152.5393  134.2437  159.8871 H   0  0  0  0  0  0  0  0  0  0  0  0  # atno 6907 bound_to 6896
  151.2404  133.4396  159.2614 H   0  0  0  0  0  0  0  0  0  0  0  0  # atno 6908 bound_to 6896
  151.0632  134.9764  159.8327 H   0  0  0  0  0  0  0  0  0  0  0  0  # atno 6909 bound_to 6896
  144.8059  139.6995  143.6162 H   0  0  0  0  0  0  0  0  0  0  0  0  # atno 7974 bound_to 7965
  155.3736  140.0490  157.3045 H   0  0  0  0  0  0  0  0  0  0  0  0  # atno 8008 bound_to 7997
  154.5118  140.2194  155.9105 H   0  0  0  0  0  0  0  0  0  0  0  0  # atno 8009 bound_to 7997
  156.1591  140.3120  155.8782 H   0  0  0  0  0  0  0  0  0  0  0  0  # atno 8010 bound_to 7997
  140.0126  143.5426  152.2256 H   0  0  0  0  0  0  0  0  0  0  0  0  # atno 10167 bound_to 10162
  157.0705  131.0365  151.2613 H   0  0  0  0  0  0  0  0  0  0  0  0  # atno 10718 bound_to 10713
  154.6824  135.5245  153.8280 H   0  0  0  0  0  0  0  0  0  0  0  0  # atno 10763 bound_to 10752
  153.0574  135.6555  154.0555 H   0  0  0  0  0  0  0  0  0  0  0  0  # atno 10764 bound_to 10752
  154.0440  135.2975  155.3330 H   0  0  0  0  0  0  0  0  0  0  0  0  # atno 10765 bound_to 10752
  140.3149  134.2608  155.7727 H   0  0  0  0  0  0  0  0  0  0  0  0  # atno 11005 bound_to 11000
  146.2350  139.5888  142.9530 LP  0  0  0  0  0  0  0  0  0  0  0  0  # atno 17320 bound_to 7965
  145.5439  141.0419  143.2315 LP  0  0  0  0  0  0  0  0  0  0  0  0  # atno 17321 bound_to 7965
  139.6195  144.7626  151.2772 LP  0  0  0  0  0  0  0  0  0  0  0  0  # atno 17342 bound_to 10162
  140.7375  143.6675  150.8110 LP  0  0  0  0  0  0  0  0  0  0  0  0  # atno 17343 bound_to 10162
  157.4881  130.7806  149.7481 LP  0  0  0  0  0  0  0  0  0  0  0  0  # atno 17370 bound_to 10713
  155.9952  130.3913  150.2830 LP  0  0  0  0  0  0  0  0  0  0  0  0  # atno 17371 bound_to 10713
  141.2100  133.7733  156.9962 LP  0  0  0  0  0  0  0  0  0  0  0  0  # atno 17394 bound_to 11000
  140.0992  134.9546  157.1896 LP  0  0  0  0  0  0  0  0  0  0  0  0  # atno 17395 bound_to 11000

$$$$
