AV-unprocessed.smi:2423|AV-procd|sdf|9558|dock1
  -GOLD-   2272013193D 1   1.00000     0.00000
 Structure written by MMmdl.
 37 39  0  0  0  0  0  0  0  0  1 V2000
  150.5214  140.6985  156.5107 O   0  0  0  0  0  0  0  0  0  0  0  0
  150.2746  141.8856  156.3106 C   0  0  0  0  0  0  0  0  0  0  0  0
  149.6083  142.2804  155.2120 N   0  0  0  0  0  0  0  0  0  0  0  0
  149.1091  141.4390  154.1238 C   0  0  0  0  0  0  0  0  0  0  0  0
  147.6162  141.0989  154.2920 C   0  0  0  0  0  0  0  0  0  0  0  0
  146.8760  142.4097  154.5770 C   0  0  0  0  0  0  0  0  0  0  0  0
  145.4015  142.6329  154.3325 C   0  0  0  0  0  0  0  0  0  0  0  0
  146.4340  143.3243  153.4624 C   0  0  0  0  0  0  0  0  0  0  0  0
  147.0620  140.1725  153.1810 C   0  0  0  0  0  0  0  0  0  0  0  0
  147.3502  138.9666  154.0740 C   0  0  0  0  0  0  0  0  0  0  0  0
  147.2974  139.9341  155.2551 C   0  0  0  0  0  0  0  0  0  0  0  0
  150.6073  142.8943  157.1401 N   0  0  0  0  0  0  0  0  0  0  0  0
  151.3040  142.8477  158.3784 C   0  0  0  0  0  0  0  0  0  0  0  0
  151.8822  141.6769  158.9260 C   0  0  0  0  0  0  0  0  0  0  0  0
  152.5622  141.7726  160.1567 C   0  0  0  0  0  0  0  0  0  0  0  0
  152.7007  142.9266  160.8431 N   0  0  0  0  0  0  0  0  0  0  0  0
  152.1590  144.0430  160.3120 C   0  0  0  0  0  0  0  0  0  0  0  0
  151.4593  144.0569  159.0888 C   0  0  0  0  0  0  0  0  0  0  0  0
  150.9430  145.2147  158.6095 F   0  0  0  0  0  0  0  0  0  0  0  0
  149.4177  143.2685  155.1272 H   0  0  0  0  0  0  0  0  0  0  0  0
  149.2711  141.9483  153.1722 H   0  0  0  0  0  0  0  0  0  0  0  0
  149.7099  140.5289  154.0885 H   0  0  0  0  0  0  0  0  0  0  0  0
  147.2374  142.9087  155.4741 H   0  0  0  0  0  0  0  0  0  0  0  0
  144.8097  141.8417  153.8806 H   0  0  0  0  0  0  0  0  0  0  0  0
  144.8655  143.2489  155.0518 H   0  0  0  0  0  0  0  0  0  0  0  0
  146.5812  144.3928  153.6045 H   0  0  0  0  0  0  0  0  0  0  0  0
  146.5440  142.9706  152.4393 H   0  0  0  0  0  0  0  0  0  0  0  0
  145.9963  140.2784  152.9831 H   0  0  0  0  0  0  0  0  0  0  0  0
  147.6298  140.1857  152.2501 H   0  0  0  0  0  0  0  0  0  0  0  0
  146.5735  138.2014  154.0754 H   0  0  0  0  0  0  0  0  0  0  0  0
  148.3418  138.5409  153.9137 H   0  0  0  0  0  0  0  0  0  0  0  0
  148.0470  139.7478  156.0249 H   0  0  0  0  0  0  0  0  0  0  0  0
  146.2984  140.0037  155.6891 H   0  0  0  0  0  0  0  0  0  0  0  0
  150.2700  143.8081  156.8749 H   0  0  0  0  0  0  0  0  0  0  0  0
  151.8306  140.7202  158.4304 H   0  0  0  0  0  0  0  0  0  0  0  0
  153.0131  140.8966  160.5993 H   0  0  0  0  0  0  0  0  0  0  0  0
  152.2887  144.9538  160.8778 H   0  0  0  0  0  0  0  0  0  0  0  0
  1  2  2  0  0  0  0
  2  3  1  0  0  0  0
  2 12  1  0  0  0  0
  3  4  1  0  0  0  0
  3 20  1  0  0  0  0
  4  5  1  0  0  0  0
  4 21  1  0  0  0  0
  4 22  1  0  0  0  0
  5 11  1  0  0  0  0
  5  6  1  0  0  0  0
  5  9  1  0  0  0  0
  6  8  1  0  0  0  0
  6  7  1  0  0  0  0
  6 23  1  0  0  0  0
  7  8  1  0  0  0  0
  7 24  1  0  0  0  0
  7 25  1  0  0  0  0
  8 26  1  0  0  0  0
  8 27  1  0  0  0  0
  9 10  1  0  0  0  0
  9 28  1  0  0  0  0
  9 29  1  0  0  0  0
 10 11  1  0  0  0  0
 10 30  1  0  0  0  0
 10 31  1  0  0  0  0
 11 32  1  0  0  0  0
 11 33  1  0  0  0  0
 12 13  1  0  0  0  0
 12 34  1  0  0  0  0
 13 18  1  0  0  0  0
 13 14  2  0  0  0  0
 14 15  1  0  0  0  0
 14 35  1  0  0  0  0
 15 16  2  0  0  0  0
 15 36  1  0  0  0  0
 16 17  1  0  0  0  0
 17 18  2  0  0  0  0
 17 37  1  0  0  0  0
 18 19  1  0  0  0  0
M  END
> <s_m_source_file>
AV-unprocessed.smi

> <i_m_source_file_index>
2423

> <i_lp_mmshare_version>
43012

> <i_f3d_flags>
0

> <s_epik_input>
W0NIMl0xW0NIMl1bQ0hdMUMyKFtDSDJdW0NIMl1bQ0gyXTIpW0NIMl1bTkhdQyg9TylbTkhdYzNbY0hdW2NIXW5bY0hdYzNG

> <s_epik_cmdline>
J2VwaWtfcHl0aG9uJywgJy1waCcsICc3LjAnLCAnLXRuJywgJzgnLCAnLW1hJywgJzIwMCcsICctbWV0YWxfYmluZGluZycsICctaW1hZScsICc8aW5maWxlLm1hZT4nLCAnLW9tYWUnLCAnPG91dGZpbGUubWFlPic=

> <r_epik_Ionization_Penalty>
0.00332314

> <r_epik_Ionization_Penalty_Charging>
0

> <r_epik_Ionization_Penalty_Neutral>
0.00332314

> <r_epik_State_Penalty>
0.00231995

> <r_epik_Charging_Adjusted_Penalty>
0.00231995

> <i_epik_Tot_Q>
0

> <i_epik_Tot_abs_Q>
0

> <r_epik_Metal_State_Penalty>
-0

> <b_epik_Metal_Only>
0

> <s_lp_Force_Field>
OPLS_2005

> <r_lp_Energy>
40.5055

> <b_lp_Chiralities_Consistent>
1

> <s_lp_Variant>
AV-unprocessed.smi:2423-1

> <Gold.Version>
5.8.1

> <Gold.Id.Protein>
6NUR|6NUR_protein|mol2

> <Gold.PLP.Fitness>
45.0729

> <Gold.PLP.PLP>
-39.9513

> <Gold.PLP.part.hbond>
-2.0000

> <Gold.PLP.part.metal>
0.0000

> <Gold.PLP.part.buried>
-4.0998

> <Gold.PLP.part.nonpolar>
-33.5909

> <Gold.PLP.part.repulsive>
0.2631

> <Gold.PLP.ligand.clash>
0.0000

> <Gold.PLP.ligand.torsion>
1.0728

> <Gold.PLP.Chemscore.Hbond>
1.8424

> <Gold.PLP.Chemscore.CHOScore>
0.0000

> <Gold.PLP.Chemscore.Metal>
0.0000

> <Gold.Chemscore.Hbonds>
donor molecule, donor type, donor heavy atom, donor atom, acceptor molecule, acceptor atom, score
      L1  H     3    20       P1  8028  1.00
      L1  H    12    34       P1  8028  0.83

> <Gold.PLP.Chemscore.Internal.Correction>
1.7401

> <Gold.Rescore>
     Score         DG    S(hbond)    S(metal)    S(lipo)     H(rot)  DE(clash)    DE(int)     intcor
     16.98     -19.29       1.92        0.00      94.00       1.40       0.03       2.29       ----

> <Gold.Chemscore.Fitness>
16.9759

> <Gold.Chemscore.DG>
-19.2947

> <Gold.Chemscore.ZeroCoef>
-5.4800

> <Gold.Chemscore.Hbond>
1.9156

> <Gold.Chemscore.Metal>
0.0000

> <Gold.Chemscore.Lipo>
93.9997

> <Gold.Chemscore.Internal_Hbond>
0.0000

> <Gold.Chemscore.DEClash>
0.0258

> <Gold.Chemscore.DEInternal>
2.2930

> <Gold.Chemscore.Rot>
1.3990

> <Gold.Chemscore.Internal.Correction>
   9.000000E+99

> <Gold.Chemscore.Hbonds>
donor molecule, donor type, donor heavy atom, donor atom, acceptor molecule, acceptor atom, score
      L1  H     3    20       P1  8028  0.98
      L1  H    12    34       P1  8028  0.77

> <Gold.Chemscore.Hbond.Weighted>
-6.3981

> <Gold.Chemscore.Metal.Weighted>
-0.0000

> <Gold.Chemscore.Lipo.Weighted>
-10.9980

> <Gold.Chemscore.Internal_Hbond.Weighted>
0.0000

> <Gold.Chemscore.DEClash.Weighted>
0.0258

> <Gold.Chemscore.DEInternal.Weighted>
2.2930

> <Gold.Chemscore.Rot.Weighted>
3.5814

> <Gold.Chemscore.Internal.Correction.Weighted>
   9.000000E+99

> <Gold.Protein.RotatedTorsions>
[ 6907 6896 6895 6894 ] final -114.27 input  -60.11 | X-H torsion
[ 7974 7965 7964 7962 ] final  -75.92 input  175.53 | X-H torsion
[ 8008 7997 7996 7995 ] final   28.70 input   59.86 | X-H torsion
[ 10167 10162 10161 10158 ] final   76.35 input  -65.29 | X-H torsion
[ 10718 10713 10712 10709 ] final  -57.01 input   66.30 | X-H torsion
[ 10763 10752 10751 10750 ] final  160.98 input  -60.55 | X-H torsion
[ 11005 11000 10999 10996 ] final  -88.56 input  -57.11 | X-H torsion

> <Gold.Protein.ActiveResidues>
 VAL166  LYS551  ARG553  GLY616  TRP617  ASP618  TYR619  PRO620  LYS621  CYS622 
 ASP623  PHE694  ASN695  SER759  ASP760  ASP761  ALA762  ILE779  LEU786  VAL792 
 PHE793  MET794  SER795  GLU796  ALA797  LYS798  CYS799  TRP800  GLU811  SER814 

> <Gold.Protein.RotatedAtoms>
  150.7890  133.8825  159.3289 H   0  0  0  0  0  0  0  0  0  0  0  0  # atno 6907 bound_to 6896
  151.6668  135.0980  160.0199 H   0  0  0  0  0  0  0  0  0  0  0  0  # atno 6908 bound_to 6896
  152.3960  133.6709  159.6312 H   0  0  0  0  0  0  0  0  0  0  0  0  # atno 6909 bound_to 6896
  145.6196  140.9366  143.1145 H   0  0  0  0  0  0  0  0  0  0  0  0  # atno 7974 bound_to 7965
  155.0628  140.3192  155.4655 H   0  0  0  0  0  0  0  0  0  0  0  0  # atno 8008 bound_to 7997
  156.2809  140.2126  156.5700 H   0  0  0  0  0  0  0  0  0  0  0  0  # atno 8009 bound_to 7997
  154.7118  140.0497  157.0544 H   0  0  0  0  0  0  0  0  0  0  0  0  # atno 8010 bound_to 7997
  139.9932  144.5741  150.7800 H   0  0  0  0  0  0  0  0  0  0  0  0  # atno 10167 bound_to 10162
  156.1243  130.4164  150.0383 H   0  0  0  0  0  0  0  0  0  0  0  0  # atno 10718 bound_to 10713
  154.2559  135.2770  155.2798 H   0  0  0  0  0  0  0  0  0  0  0  0  # atno 10763 bound_to 10752
  154.5425  135.5698  153.6855 H   0  0  0  0  0  0  0  0  0  0  0  0  # atno 10764 bound_to 10752
  152.9971  135.6254  154.2708 H   0  0  0  0  0  0  0  0  0  0  0  0  # atno 10765 bound_to 10752
  141.1600  133.7577  156.9468 H   0  0  0  0  0  0  0  0  0  0  0  0  # atno 11005 bound_to 11000
  144.7236  139.7947  143.7373 LP  0  0  0  0  0  0  0  0  0  0  0  0  # atno 17320 bound_to 7965
  146.1441  139.4506  143.0090 LP  0  0  0  0  0  0  0  0  0  0  0  0  # atno 17321 bound_to 7965
  140.7447  143.2864  151.3452 LP  0  0  0  0  0  0  0  0  0  0  0  0  # atno 17342 bound_to 10162
  139.6325  144.0694  152.2488 LP  0  0  0  0  0  0  0  0  0  0  0  0  # atno 17343 bound_to 10162
  156.8313  130.9393  151.3637 LP  0  0  0  0  0  0  0  0  0  0  0  0  # atno 17370 bound_to 10713
  157.6426  130.8818  149.9477 LP  0  0  0  0  0  0  0  0  0  0  0  0  # atno 17371 bound_to 10713
  140.1284  134.9372  157.2302 LP  0  0  0  0  0  0  0  0  0  0  0  0  # atno 17394 bound_to 11000
  140.2984  134.3160  155.7296 LP  0  0  0  0  0  0  0  0  0  0  0  0  # atno 17395 bound_to 11000

$$$$
