AV-unprocessed.smi:227|AV-procd|sdf|1729|dock6
  -GOLD-   2262020223D 1   1.00000     0.00000
 Structure written by MMmdl.
 54 58  0  0  0  0  0  0  0  0  1 V2000
  149.9329  142.8345  156.7998 O   0  0  0  0  0  0  0  0  0  0  0  0
  150.0866  141.8759  157.8256 C   0  0  0  0  0  0  0  0  0  0  0  0
  151.3236  140.9717  157.5881 C   0  0  2  0  0  0  0  0  0  0  0  0
  150.9022  139.5267  157.2171 C   0  0  0  0  0  0  0  0  0  0  0  0
  150.4117  138.7547  158.3457 N   0  0  0  0  0  0  0  0  0  0  0  0
  151.1682  138.0787  159.2745 C   0  0  0  0  0  0  0  0  0  0  0  0
  150.4865  137.4553  160.1952 N   0  0  0  0  0  0  0  0  0  0  0  0
  149.1568  137.7130  159.8788 C   0  0  0  0  0  0  0  0  0  0  0  0
  147.9010  137.3504  160.4509 C   0  0  0  0  0  0  0  0  0  0  0  0
  147.7527  136.5871  161.5696 N   0  0  0  0  0  0  0  0  0  0  0  0
  148.2487  137.0395  162.8596 C   0  0  1  0  0  0  0  0  0  0  0  0
  147.2544  138.1407  163.2776 C   0  0  0  0  0  0  0  0  0  0  0  0
  145.9400  137.5927  162.6990 C   0  0  0  0  0  0  0  0  0  0  0  0
  146.4186  136.2687  162.0643 C   0  0  2  0  0  0  0  0  0  0  0  0
  146.6983  135.2512  163.1901 C   0  0  1  0  0  0  0  0  0  0  0  0
  146.7901  133.8035  162.6751 C   0  0  0  0  0  0  0  0  0  0  0  0
  147.7640  133.7089  161.6573 O   0  0  0  0  0  0  0  0  0  0  0  0
  148.0310  135.7987  163.7414 C   0  0  0  0  0  0  0  0  0  0  0  0
  146.7816  137.7824  159.8107 N   0  0  0  0  0  0  0  0  0  0  0  0
  146.8726  138.5340  158.7106 C   0  0  0  0  0  0  0  0  0  0  0  0
  147.9678  138.9608  158.0816 N   0  0  0  0  0  0  0  0  0  0  0  0
  149.0968  138.5199  158.7054 C   0  0  0  0  0  0  0  0  0  0  0  0
  152.2814  140.9475  158.8110 C   0  0  2  0  0  0  0  0  0  0  0  0
  152.9828  142.2561  159.1329 C   0  0  0  0  0  0  0  0  0  0  0  0
  154.1342  141.8001  160.0216 C   0  0  0  0  0  0  0  0  0  0  0  0
  154.4891  140.5046  159.5539 O   0  0  0  0  0  0  0  0  0  0  0  0
  153.4967  140.0255  158.6523 C   0  0  0  0  0  0  0  0  0  0  0  0
  149.0393  142.8073  156.4935 H   0  0  0  0  0  0  0  0  0  0  0  0
  150.1543  142.3790  158.7905 H   0  0  0  0  0  0  0  0  0  0  0  0
  149.1626  141.2999  157.8371 H   0  0  0  0  0  0  0  0  0  0  0  0
  151.8714  141.3756  156.7352 H   0  0  0  0  0  0  0  0  0  0  0  0
  150.1106  139.5340  156.4679 H   0  0  0  0  0  0  0  0  0  0  0  0
  151.7436  138.9937  156.7721 H   0  0  0  0  0  0  0  0  0  0  0  0
  152.2481  138.0678  159.2516 H   0  0  0  0  0  0  0  0  0  0  0  0
  149.2869  137.3648  162.8823 H   0  0  0  0  0  0  0  0  0  0  0  0
  147.2162  138.2847  164.3579 H   0  0  0  0  0  0  0  0  0  0  0  0
  147.5094  139.0956  162.8163 H   0  0  0  0  0  0  0  0  0  0  0  0
  145.1694  137.4470  163.4566 H   0  0  0  0  0  0  0  0  0  0  0  0
  145.5423  138.2705  161.9428 H   0  0  0  0  0  0  0  0  0  0  0  0
  145.7276  135.8811  161.3144 H   0  0  0  0  0  0  0  0  0  0  0  0
  145.9132  135.3034  163.9462 H   0  0  0  0  0  0  0  0  0  0  0  0
  147.0738  133.1317  163.4858 H   0  0  0  0  0  0  0  0  0  0  0  0
  145.8293  133.4578  162.2925 H   0  0  0  0  0  0  0  0  0  0  0  0
  148.5572  133.3588  162.0332 H   0  0  0  0  0  0  0  0  0  0  0  0
  148.8450  135.0863  163.5992 H   0  0  0  0  0  0  0  0  0  0  0  0
  147.9811  136.0406  164.8035 H   0  0  0  0  0  0  0  0  0  0  0  0
  145.9332  138.8367  158.2719 H   0  0  0  0  0  0  0  0  0  0  0  0
  151.7247  140.6333  159.6957 H   0  0  0  0  0  0  0  0  0  0  0  0
  153.3714  142.7147  158.2224 H   0  0  0  0  0  0  0  0  0  0  0  0
  152.3393  142.9789  159.6347 H   0  0  0  0  0  0  0  0  0  0  0  0
  154.9827  142.4839  159.9900 H   0  0  0  0  0  0  0  0  0  0  0  0
  153.8043  141.7159  161.0576 H   0  0  0  0  0  0  0  0  0  0  0  0
  153.2604  138.9815  158.8586 H   0  0  0  0  0  0  0  0  0  0  0  0
  153.8985  140.0872  157.6399 H   0  0  0  0  0  0  0  0  0  0  0  0
  1  2  1  0  0  0  0
  1 28  1  0  0  0  0
  2  3  1  0  0  0  0
  2 29  1  0  0  0  0
  2 30  1  0  0  0  0
  3  4  1  0  0  0  0
  3 23  1  0  0  0  0
  3 31  1  0  0  0  0
  4  5  1  0  0  0  0
  4 32  1  0  0  0  0
  4 33  1  0  0  0  0
  5 22  1  0  0  0  0
  5  6  1  0  0  0  0
  6  7  2  0  0  0  0
  6 34  1  0  0  0  0
  7  8  1  0  0  0  0
  8 22  2  0  0  0  0
  8  9  1  0  0  0  0
  9 10  1  0  0  0  0
  9 19  2  0  0  0  0
 10 14  1  0  0  0  0
 10 11  1  0  0  0  0
 11 18  1  0  0  0  0
 11 12  1  0  0  0  0
 11 35  1  0  0  0  0
 12 13  1  0  0  0  0
 12 36  1  0  0  0  0
 12 37  1  0  0  0  0
 13 14  1  0  0  0  0
 13 38  1  0  0  0  0
 13 39  1  0  0  0  0
 14 15  1  0  0  0  0
 14 40  1  0  0  0  0
 15 16  1  0  0  0  0
 15 18  1  0  0  0  0
 15 41  1  0  0  0  0
 16 17  1  0  0  0  0
 16 42  1  0  0  0  0
 16 43  1  0  0  0  0
 17 44  1  0  0  0  0
 18 45  1  0  0  0  0
 18 46  1  0  0  0  0
 19 20  1  0  0  0  0
 20 21  2  0  0  0  0
 20 47  1  0  0  0  0
 21 22  1  0  0  0  0
 23 27  1  0  0  0  0
 23 24  1  0  0  0  0
 23 48  1  0  0  0  0
 24 25  1  0  0  0  0
 24 49  1  0  0  0  0
 24 50  1  0  0  0  0
 25 26  1  0  0  0  0
 25 51  1  0  0  0  0
 25 52  1  0  0  0  0
 26 27  1  0  0  0  0
 27 53  1  0  0  0  0
 27 54  1  0  0  0  0
M  END
> <s_m_source_file>
AV-unprocessed.smi

> <i_m_source_file_index>
227

> <i_lp_mmshare_version>
43012

> <i_f3d_flags>
0

> <s_epik_input>
W0NIMl0xT1tDSDJdW0NIMl1bQ0BIXTFbQ0BIXShbQ0gyXVtPSF0pW0NIMl1uKFtjSF1uMiljKGMyMyluW2NIXW5jM04oW0NASF00NSlbQ0BASF0oW0NIMl1bQ0gyXTQpW0NASF0oW0NIMl01KVtDSDJdW09IXQ==

> <s_epik_cmdline>
J2VwaWtfcHl0aG9uJywgJy1waCcsICc3LjAnLCAnLXRuJywgJzgnLCAnLW1hJywgJzIwMCcsICctbWV0YWxfYmluZGluZycsICctaW1hZScsICc8aW5maWxlLm1hZT4nLCAnLW9tYWUnLCAnPG91dGZpbGUubWFlPic=

> <r_lp_tautomer_probability>
1

> <r_epik_Ionization_Penalty>
0.0055791

> <r_epik_Ionization_Penalty_Charging>
0

> <r_epik_Ionization_Penalty_Neutral>
0.0055791

> <r_epik_State_Penalty>
0.00401299

> <r_epik_Charging_Adjusted_Penalty>
0.00401299

> <i_epik_Tot_Q>
0

> <i_epik_Tot_abs_Q>
0

> <r_epik_Metal_State_Penalty>
-0

> <b_epik_Metal_Only>
0

> <s_lp_Force_Field>
OPLS_2005

> <r_lp_Energy>
88.7609

> <b_lp_Chiralities_Consistent>
1

> <s_lp_Variant>
AV-unprocessed.smi:227-3

> <Gold.Version>
5.8.1

> <Gold.Id.Protein>
6NUR|6NUR_protein|mol2

> <Gold.PLP.Fitness>
44.4713

> <Gold.PLP.PLP>
-43.7425

> <Gold.PLP.part.hbond>
-2.8791

> <Gold.PLP.part.metal>
0.0000

> <Gold.PLP.part.buried>
-6.3751

> <Gold.PLP.part.nonpolar>
-36.3687

> <Gold.PLP.part.repulsive>
0.0000

> <Gold.PLP.ligand.clash>
0.0000

> <Gold.PLP.ligand.torsion>
1.1699

> <Gold.PLP.Chemscore.Hbond>
0.9913

> <Gold.PLP.Chemscore.CHOScore>
0.0000

> <Gold.PLP.Chemscore.Metal>
0.0000

> <Gold.PLP.Chemscore.Internal.Correction>
0.0949

> <Gold.Rescore>
     Score         DG    S(hbond)    S(metal)    S(lipo)     H(rot)  DE(clash)    DE(int)     intcor
      9.06     -10.42       0.79        0.00      98.53       3.61       0.05       1.30       ----

> <Gold.Chemscore.Fitness>
9.0633

> <Gold.Chemscore.DG>
-10.4181

> <Gold.Chemscore.ZeroCoef>
-5.4800

> <Gold.Chemscore.Hbond>
0.7916

> <Gold.Chemscore.Metal>
0.0000

> <Gold.Chemscore.Lipo>
98.5333

> <Gold.Chemscore.Internal_Hbond>
0.0000

> <Gold.Chemscore.DEClash>
0.0515

> <Gold.Chemscore.DEInternal>
1.3033

> <Gold.Chemscore.Rot>
3.6071

> <Gold.Chemscore.Internal.Correction>
   9.000000E+99

> <Gold.Chemscore.Hbonds>
donor molecule, donor type, donor heavy atom, donor atom, acceptor molecule, acceptor atom, score
      L1  H     1    28       P1  8028  0.05

> <Gold.Chemscore.Hbond.Weighted>
-2.6439

> <Gold.Chemscore.Metal.Weighted>
-0.0000

> <Gold.Chemscore.Lipo.Weighted>
-11.5284

> <Gold.Chemscore.Internal_Hbond.Weighted>
0.0000

> <Gold.Chemscore.DEClash.Weighted>
0.0515

> <Gold.Chemscore.DEInternal.Weighted>
1.3033

> <Gold.Chemscore.Rot.Weighted>
9.2342

> <Gold.Chemscore.Internal.Correction.Weighted>
   9.000000E+99

> <Gold.Protein.RotatedTorsions>
[ 6907 6896 6895 6894 ] final   83.10 input  -60.11 | X-H torsion
[ 7974 7965 7964 7962 ] final  -41.12 input  175.53 | X-H torsion
[ 8008 7997 7996 7995 ] final    4.61 input   59.86 | X-H torsion
[ 10167 10162 10161 10158 ] final    3.41 input  -65.29 | X-H torsion
[ 10718 10713 10712 10709 ] final  -10.96 input   66.30 | X-H torsion
[ 10763 10752 10751 10750 ] final  -86.73 input  -60.55 | X-H torsion
[ 11005 11000 10999 10996 ] final  -85.87 input  -57.11 | X-H torsion

> <Gold.Protein.ActiveResidues>
 VAL166  LYS551  ARG553  GLY616  TRP617  ASP618  TYR619  PRO620  LYS621  CYS622 
 ASP623  PHE694  ASN695  SER759  ASP760  ASP761  ALA762  ILE779  LEU786  VAL792 
 PHE793  MET794  SER795  GLU796  ALA797  LYS798  CYS799  TRP800  GLU811  SER814 

> <Gold.Protein.RotatedAtoms>
  152.5318  134.2947  159.9056 H   0  0  0  0  0  0  0  0  0  0  0  0  # atno 6907 bound_to 6896
  151.2899  133.4164  159.2640 H   0  0  0  0  0  0  0  0  0  0  0  0  # atno 6908 bound_to 6896
  151.0210  134.9485  159.8116 H   0  0  0  0  0  0  0  0  0  0  0  0  # atno 6909 bound_to 6896
  146.0240  140.6814  142.9164 H   0  0  0  0  0  0  0  0  0  0  0  0  # atno 7974 bound_to 7965
  154.7181  140.2706  155.6567 H   0  0  0  0  0  0  0  0  0  0  0  0  # atno 8008 bound_to 7997
  156.2815  140.2740  156.1768 H   0  0  0  0  0  0  0  0  0  0  0  0  # atno 8009 bound_to 7997
  155.0544  140.0371  157.2545 H   0  0  0  0  0  0  0  0  0  0  0  0  # atno 8010 bound_to 7997
  140.6587  143.7360  150.7700 H   0  0  0  0  0  0  0  0  0  0  0  0  # atno 10167 bound_to 10162
  156.6659  130.4995  149.6015 H   0  0  0  0  0  0  0  0  0  0  0  0  # atno 10718 bound_to 10713
  154.6257  135.5439  153.7624 H   0  0  0  0  0  0  0  0  0  0  0  0  # atno 10763 bound_to 10752
  153.0259  135.6423  154.1375 H   0  0  0  0  0  0  0  0  0  0  0  0  # atno 10764 bound_to 10752
  154.1308  135.2914  155.3165 H   0  0  0  0  0  0  0  0  0  0  0  0  # atno 10765 bound_to 10752
  141.1636  133.7423  156.9079 H   0  0  0  0  0  0  0  0  0  0  0  0  # atno 11005 bound_to 11000
  144.7002  140.3617  143.7162 LP  0  0  0  0  0  0  0  0  0  0  0  0  # atno 17320 bound_to 7965
  145.7147  139.1694  143.2519 LP  0  0  0  0  0  0  0  0  0  0  0  0  # atno 17321 bound_to 7965
  140.1024  143.4775  152.2417 LP  0  0  0  0  0  0  0  0  0  0  0  0  # atno 17342 bound_to 10162
  139.5816  144.7513  151.3626 LP  0  0  0  0  0  0  0  0  0  0  0  0  # atno 17343 bound_to 10162
  156.1975  130.6599  151.1131 LP  0  0  0  0  0  0  0  0  0  0  0  0  # atno 17370 bound_to 10713
  157.7094  131.0741  150.6555 LP  0  0  0  0  0  0  0  0  0  0  0  0  # atno 17371 bound_to 10713
  140.1537  134.9213  157.2626 LP  0  0  0  0  0  0  0  0  0  0  0  0  # atno 17394 bound_to 11000
  140.2692  134.3480  155.7379 LP  0  0  0  0  0  0  0  0  0  0  0  0  # atno 17395 bound_to 11000

$$$$
