AV-unprocessed.smi:1920|AV-procd|sdf|7782|dock2
  -GOLD-   22720 9523D 1   1.00000     0.00000
 Structure written by MMmdl.
 36 37  0  0  0  0  0  0  0  0  1 V2000
  151.1806  137.9863  154.9807 C   0  0  0  0  0  0  0  0  0  0  0  0
  150.4280  139.3149  154.8086 C   0  0  1  0  0  0  0  0  0  0  0  0
  148.9841  139.0856  154.3234 C   0  0  0  0  0  0  0  0  0  0  0  0
  148.1440  140.2523  154.5224 N   0  0  0  0  0  0  0  0  0  0  0  0
  147.8466  141.2387  153.5913 C   0  0  0  0  0  0  0  0  0  0  0  0
  147.0214  142.1407  154.2242 C   0  0  0  0  0  0  0  0  0  0  0  0
  146.7969  141.7303  155.5362 N   0  0  0  0  0  0  0  0  0  0  0  0
  147.4920  140.6049  155.6389 C   0  0  0  0  0  0  0  0  0  0  0  0
  150.4230  140.0489  156.0723 N   0  0  0  0  0  0  0  0  0  0  0  0
  151.5008  140.2975  156.8316 C   0  0  0  0  0  0  0  0  0  0  0  0
  152.6384  139.9335  156.5333 O   0  0  0  0  0  0  0  0  0  0  0  0
  151.2568  141.0729  158.1303 C   0  0  0  0  0  0  0  0  0  0  0  0
  152.1957  142.2865  158.3042 C   0  0  2  0  0  0  0  0  0  0  0  0
  152.4384  142.6673  159.7453 C   0  0  0  0  0  0  0  0  0  0  0  0
  152.2073  143.9567  159.9813 C   0  0  0  0  0  0  0  0  0  0  0  0
  151.7649  144.6965  158.7496 C   0  0  0  0  0  0  0  0  0  0  0  0
  151.6340  143.5895  157.6799 C   0  0  0  0  0  0  0  0  0  0  0  0
  151.2153  137.4317  154.0426 H   0  0  0  0  0  0  0  0  0  0  0  0
  150.6999  137.3513  155.7255 H   0  0  0  0  0  0  0  0  0  0  0  0
  152.2101  138.1524  155.2995 H   0  0  0  0  0  0  0  0  0  0  0  0
  150.9493  139.9036  154.0511 H   0  0  0  0  0  0  0  0  0  0  0  0
  148.9787  138.8487  153.2586 H   0  0  0  0  0  0  0  0  0  0  0  0
  148.5348  138.2331  154.8353 H   0  0  0  0  0  0  0  0  0  0  0  0
  148.2382  141.2190  152.5850 H   0  0  0  0  0  0  0  0  0  0  0  0
  146.5752  143.0456  153.8387 H   0  0  0  0  0  0  0  0  0  0  0  0
  147.5309  140.0247  156.5493 H   0  0  0  0  0  0  0  0  0  0  0  0
  149.5294  140.3888  156.3974 H   0  0  0  0  0  0  0  0  0  0  0  0
  150.2198  141.4103  158.1304 H   0  0  0  0  0  0  0  0  0  0  0  0
  151.3610  140.4005  158.9836 H   0  0  0  0  0  0  0  0  0  0  0  0
  153.1675  142.0666  157.8595 H   0  0  0  0  0  0  0  0  0  0  0  0
  152.7810  141.9558  160.4826 H   0  0  0  0  0  0  0  0  0  0  0  0
  152.3313  144.4473  160.9354 H   0  0  0  0  0  0  0  0  0  0  0  0
  150.8182  145.2087  158.9236 H   0  0  0  0  0  0  0  0  0  0  0  0
  152.5174  145.4358  158.4744 H   0  0  0  0  0  0  0  0  0  0  0  0
  152.1651  143.8538  156.7649 H   0  0  0  0  0  0  0  0  0  0  0  0
  150.5835  143.4673  157.4125 H   0  0  0  0  0  0  0  0  0  0  0  0
  1  2  1  0  0  0  0
  1 18  1  0  0  0  0
  1 19  1  0  0  0  0
  1 20  1  0  0  0  0
  2  3  1  0  0  0  0
  2  9  1  0  0  0  0
  2 21  1  0  0  0  0
  3  4  1  0  0  0  0
  3 22  1  0  0  0  0
  3 23  1  0  0  0  0
  4  8  1  0  0  0  0
  4  5  1  0  0  0  0
  5  6  2  0  0  0  0
  5 24  1  0  0  0  0
  6  7  1  0  0  0  0
  6 25  1  0  0  0  0
  7  8  2  0  0  0  0
  8 26  1  0  0  0  0
  9 10  1  0  0  0  0
  9 27  1  0  0  0  0
 10 11  2  0  0  0  0
 10 12  1  0  0  0  0
 12 13  1  0  0  0  0
 12 28  1  0  0  0  0
 12 29  1  0  0  0  0
 13 17  1  0  0  0  0
 13 14  1  0  0  0  0
 13 30  1  0  0  0  0
 14 15  2  0  0  0  0
 14 31  1  0  0  0  0
 15 16  1  0  0  0  0
 15 32  1  0  0  0  0
 16 17  1  0  0  0  0
 16 33  1  0  0  0  0
 16 34  1  0  0  0  0
 17 35  1  0  0  0  0
 17 36  1  0  0  0  0
M  END
> <s_m_source_file>
AV-unprocessed.smi

> <i_m_source_file_index>
1920

> <i_lp_mmshare_version>
43012

> <i_f3d_flags>
0

> <s_epik_input>
W2NIXTFuW2NIXVtjSF1uMVtDSDJdW0NAQEhdKFtDSDNdKVtOSF1DKD1PKVtDSDJdW0NAQEhdMltDSF09W0NIXVtDSDJdW0NIMl0y

> <s_epik_cmdline>
J2VwaWtfcHl0aG9uJywgJy1waCcsICc3LjAnLCAnLXRuJywgJzgnLCAnLW1hJywgJzIwMCcsICctbWV0YWxfYmluZGluZycsICctaW1hZScsICc8aW5maWxlLm1hZT4nLCAnLW9tYWUnLCAnPG91dGZpbGUubWFlPic=

> <r_lp_tautomer_probability>
1

> <r_epik_Ionization_Penalty>
0.635367

> <r_epik_Ionization_Penalty_Charging>
0.635367

> <r_epik_Ionization_Penalty_Neutral>
2.1249e-08

> <r_epik_State_Penalty>
0.65258

> <r_epik_Charging_Adjusted_Penalty>
1.28795

> <i_epik_Tot_Q>
0

> <i_epik_Tot_abs_Q>
0

> <r_epik_Metal_State_Penalty>
0.310403

> <b_epik_Metal_Only>
0

> <s_lp_Force_Field>
OPLS_2005

> <r_lp_Energy>
19.6981

> <b_lp_Chiralities_Consistent>
1

> <s_lp_Variant>
AV-unprocessed.smi:1920-6

> <Gold.Version>
5.8.1

> <Gold.Id.Protein>
6NUR|6NUR_protein|mol2

> <Gold.PLP.Fitness>
41.2585

> <Gold.PLP.PLP>
-37.0962

> <Gold.PLP.part.hbond>
-1.0000

> <Gold.PLP.part.metal>
0.0000

> <Gold.PLP.part.buried>
-2.2965

> <Gold.PLP.part.nonpolar>
-32.8392

> <Gold.PLP.part.repulsive>
0.1820

> <Gold.PLP.ligand.clash>
0.0000

> <Gold.PLP.ligand.torsion>
0.9771

> <Gold.PLP.Chemscore.Hbond>
1.0000

> <Gold.PLP.Chemscore.CHOScore>
1.0000

> <Gold.PLP.Chemscore.Metal>
0.0000

> <Gold.Chemscore.Hbonds>
donor molecule, donor type, donor heavy atom, donor atom, acceptor molecule, acceptor atom, score
      P1  H  7997  8008       L1    11  1.00
      L1  C     5    24       P1  7957  1.00

> <Gold.PLP.Chemscore.Internal.Correction>
0.1164

> <Gold.Rescore>
     Score         DG    S(hbond)    S(metal)    S(lipo)     H(rot)  DE(clash)    DE(int)     intcor
     13.36     -15.46       0.99        0.00      99.17       1.93       0.03       2.08       ----

> <Gold.Chemscore.Fitness>
13.3598

> <Gold.Chemscore.DG>
-15.4623

> <Gold.Chemscore.ZeroCoef>
-5.4800

> <Gold.Chemscore.Hbond>
0.9944

> <Gold.Chemscore.Metal>
0.0000

> <Gold.Chemscore.Lipo>
99.1747

> <Gold.Chemscore.Internal_Hbond>
0.0000

> <Gold.Chemscore.DEClash>
0.0269

> <Gold.Chemscore.DEInternal>
2.0756

> <Gold.Chemscore.Rot>
1.9306

> <Gold.Chemscore.Internal.Correction>
   9.000000E+99

> <Gold.Chemscore.Hbonds>
donor molecule, donor type, donor heavy atom, donor atom, acceptor molecule, acceptor atom, score
      P1  H  7997  8008       L1    11  0.99

> <Gold.Chemscore.Hbond.Weighted>
-3.3213

> <Gold.Chemscore.Metal.Weighted>
-0.0000

> <Gold.Chemscore.Lipo.Weighted>
-11.6034

> <Gold.Chemscore.Internal_Hbond.Weighted>
0.0000

> <Gold.Chemscore.DEClash.Weighted>
0.0269

> <Gold.Chemscore.DEInternal.Weighted>
2.0756

> <Gold.Chemscore.Rot.Weighted>
4.9424

> <Gold.Chemscore.Internal.Correction.Weighted>
   9.000000E+99

> <Gold.Protein.RotatedTorsions>
[ 6907 6896 6895 6894 ] final    5.72 input  -60.11 | X-H torsion
[ 7974 7965 7964 7962 ] final -142.56 input  175.53 | X-H torsion
[ 8008 7997 7996 7995 ] final  -38.59 input   59.86 | X-H torsion
[ 10167 10162 10161 10158 ] final  158.36 input  -65.29 | X-H torsion
[ 10718 10713 10712 10709 ] final   42.99 input   66.30 | X-H torsion
[ 10763 10752 10751 10750 ] final  -63.47 input  -60.55 | X-H torsion
[ 11005 11000 10999 10996 ] final -139.19 input  -57.11 | X-H torsion

> <Gold.Protein.ActiveResidues>
 VAL166  LYS551  ARG553  GLY616  TRP617  ASP618  TYR619  PRO620  LYS621  CYS622 
 ASP623  PHE694  ASN695  SER759  ASP760  ASP761  ALA762  ILE779  LEU786  VAL792 
 PHE793  MET794  SER795  GLU796  ALA797  LYS798  CYS799  TRP800  GLU811  SER814 

> <Gold.Protein.RotatedAtoms>
  151.6620  135.0988  160.0181 H   0  0  0  0  0  0  0  0  0  0  0  0  # atno 6907 bound_to 6896
  152.3941  133.6717  159.6270 H   0  0  0  0  0  0  0  0  0  0  0  0  # atno 6908 bound_to 6896
  150.7851  133.8821  159.3330 H   0  0  0  0  0  0  0  0  0  0  0  0  # atno 6909 bound_to 6896
  144.8434  140.5943  143.5437 H   0  0  0  0  0  0  0  0  0  0  0  0  # atno 7974 bound_to 7965
  154.4035  140.1574  156.2724 H   0  0  0  0  0  0  0  0  0  0  0  0  # atno 8008 bound_to 7997
  155.8941  140.3437  155.5956 H   0  0  0  0  0  0  0  0  0  0  0  0  # atno 8009 bound_to 7997
  155.7524  140.0806  157.2185 H   0  0  0  0  0  0  0  0  0  0  0  0  # atno 8010 bound_to 7997
  139.4826  144.4832  151.8414 H   0  0  0  0  0  0  0  0  0  0  0  0  # atno 10167 bound_to 10162
  157.4109  130.7914  149.7430 H   0  0  0  0  0  0  0  0  0  0  0  0  # atno 10718 bound_to 10713
  154.3155  135.6207  153.5484 H   0  0  0  0  0  0  0  0  0  0  0  0  # atno 10763 bound_to 10752
  152.9825  135.5711  154.5129 H   0  0  0  0  0  0  0  0  0  0  0  0  # atno 10764 bound_to 10752
  154.4787  135.2862  155.1564 H   0  0  0  0  0  0  0  0  0  0  0  0  # atno 10765 bound_to 10752
  140.8544  134.2246  157.4743 H   0  0  0  0  0  0  0  0  0  0  0  0  # atno 11005 bound_to 11000
  145.4647  139.1509  143.3847 LP  0  0  0  0  0  0  0  0  0  0  0  0  # atno 17320 bound_to 7965
  146.2723  140.4778  142.8809 LP  0  0  0  0  0  0  0  0  0  0  0  0  # atno 17321 bound_to 7965
  140.4310  144.2116  150.5888 LP  0  0  0  0  0  0  0  0  0  0  0  0  # atno 17342 bound_to 10162
  140.4779  143.2389  151.8996 LP  0  0  0  0  0  0  0  0  0  0  0  0  # atno 17343 bound_to 10162
  155.9850  130.3986  150.3281 LP  0  0  0  0  0  0  0  0  0  0  0  0  # atno 17370 bound_to 10713
  157.1419  131.0299  151.2924 LP  0  0  0  0  0  0  0  0  0  0  0  0  # atno 17371 bound_to 10713
  139.8705  134.9699  156.4682 LP  0  0  0  0  0  0  0  0  0  0  0  0  # atno 17394 bound_to 11000
  140.8754  133.7957  155.9409 LP  0  0  0  0  0  0  0  0  0  0  0  0  # atno 17395 bound_to 11000

$$$$
