AV-unprocessed.smi:1272|AV-procd|sdf|5335|dock8
  -GOLD-   22720 4463D 1   1.00000     0.00000
 Structure written by MMmdl.
 45 47  0  0  0  0  0  0  0  0  1 V2000
  153.5866  142.1111  162.2085 C   0  0  0  0  0  0  0  0  0  0  0  0
  154.0642  141.1575  161.1064 C   0  0  0  0  0  0  0  0  0  0  0  0
  153.1662  141.1879  159.9545 N   0  0  0  0  0  0  0  0  0  0  0  0
  152.6616  140.1179  159.2959 C   0  0  0  0  0  0  0  0  0  0  0  0
  152.8685  138.9359  159.5705 O   0  0  0  0  0  0  0  0  0  0  0  0
  151.8910  140.5739  158.2801 N   0  0  0  0  0  0  0  0  0  0  0  0
  151.1507  139.7593  157.3171 C   0  0  0  0  0  0  0  0  0  0  0  0
  151.6327  140.0024  155.8716 C   0  0  1  0  0  0  0  0  0  0  0  0
  152.9110  139.4092  155.7494 O   0  0  0  0  0  0  0  0  0  0  0  0
  150.7021  139.3367  154.8338 C   0  0  0  0  0  0  0  0  0  0  0  0
  149.3204  139.8197  154.8317 N   0  0  0  0  0  0  0  0  0  0  0  0
  148.4914  139.0245  153.9315 C   0  0  0  0  0  0  0  0  0  0  0  0
  147.0315  139.5092  153.9124 C   0  0  0  0  0  0  0  0  0  0  0  0
  146.9924  140.8852  153.5485 O   0  0  0  0  0  0  0  0  0  0  0  0
  147.7500  141.7064  154.4306 C   0  0  0  0  0  0  0  0  0  0  0  0
  149.2124  141.2279  154.4566 C   0  0  0  0  0  0  0  0  0  0  0  0
  151.9059  141.9764  158.2866 C   0  0  0  0  0  0  0  0  0  0  0  0
  151.2731  142.9137  157.4514 C   0  0  0  0  0  0  0  0  0  0  0  0
  151.4988  144.2826  157.7276 C   0  0  0  0  0  0  0  0  0  0  0  0
  152.3314  144.6791  158.8062 C   0  0  0  0  0  0  0  0  0  0  0  0
  152.9539  143.7151  159.6331 C   0  0  0  0  0  0  0  0  0  0  0  0
  152.7111  142.3622  159.3381 C   0  0  0  0  0  0  0  0  0  0  0  0
  154.2644  142.0873  163.0621 H   0  0  0  0  0  0  0  0  0  0  0  0
  152.5933  141.8371  162.5651 H   0  0  0  0  0  0  0  0  0  0  0  0
  153.5424  143.1394  161.8484 H   0  0  0  0  0  0  0  0  0  0  0  0
  155.0748  141.4276  160.7963 H   0  0  0  0  0  0  0  0  0  0  0  0
  154.1296  140.1405  161.4938 H   0  0  0  0  0  0  0  0  0  0  0  0
  151.2015  138.7015  157.5775 H   0  0  0  0  0  0  0  0  0  0  0  0
  150.0976  140.0302  157.4053 H   0  0  0  0  0  0  0  0  0  0  0  0
  151.6984  141.0737  155.6758 H   0  0  0  0  0  0  0  0  0  0  0  0
  152.7986  138.5179  155.4561 H   0  0  0  0  0  0  0  0  0  0  0  0
  151.1332  139.4018  153.8333 H   0  0  0  0  0  0  0  0  0  0  0  0
  150.6689  138.2704  155.0604 H   0  0  0  0  0  0  0  0  0  0  0  0
  148.8975  139.0679  152.9195 H   0  0  0  0  0  0  0  0  0  0  0  0
  148.5169  137.9765  154.2326 H   0  0  0  0  0  0  0  0  0  0  0  0
  146.4495  138.9327  153.1933 H   0  0  0  0  0  0  0  0  0  0  0  0
  146.5647  139.3696  154.8889 H   0  0  0  0  0  0  0  0  0  0  0  0
  147.6952  142.7407  154.0903 H   0  0  0  0  0  0  0  0  0  0  0  0
  147.3157  141.6750  155.4312 H   0  0  0  0  0  0  0  0  0  0  0  0
  149.7669  141.8489  155.1595 H   0  0  0  0  0  0  0  0  0  0  0  0
  149.6619  141.3850  153.4749 H   0  0  0  0  0  0  0  0  0  0  0  0
  150.6390  142.6076  156.6327 H   0  0  0  0  0  0  0  0  0  0  0  0
  151.0318  145.0350  157.1094 H   0  0  0  0  0  0  0  0  0  0  0  0
  152.4912  145.7298  158.9987 H   0  0  0  0  0  0  0  0  0  0  0  0
  153.5883  144.0107  160.4555 H   0  0  0  0  0  0  0  0  0  0  0  0
  1  2  1  0  0  0  0
  1 23  1  0  0  0  0
  1 24  1  0  0  0  0
  1 25  1  0  0  0  0
  2  3  1  0  0  0  0
  2 26  1  0  0  0  0
  2 27  1  0  0  0  0
  3 22  1  0  0  0  0
  3  4  1  0  0  0  0
  4  5  2  0  0  0  0
  4  6  1  0  0  0  0
  6  7  1  0  0  0  0
  6 17  1  0  0  0  0
  7  8  1  0  0  0  0
  7 28  1  0  0  0  0
  7 29  1  0  0  0  0
  8  9  1  0  0  0  0
  8 10  1  0  0  0  0
  8 30  1  0  0  0  0
  9 31  1  0  0  0  0
 10 11  1  0  0  0  0
 10 32  1  0  0  0  0
 10 33  1  0  0  0  0
 11 16  1  0  0  0  0
 11 12  1  0  0  0  0
 12 13  1  0  0  0  0
 12 34  1  0  0  0  0
 12 35  1  0  0  0  0
 13 14  1  0  0  0  0
 13 36  1  0  0  0  0
 13 37  1  0  0  0  0
 14 15  1  0  0  0  0
 15 16  1  0  0  0  0
 15 38  1  0  0  0  0
 15 39  1  0  0  0  0
 16 40  1  0  0  0  0
 16 41  1  0  0  0  0
 17 22  2  0  0  0  0
 17 18  1  0  0  0  0
 18 19  2  0  0  0  0
 18 42  1  0  0  0  0
 19 20  1  0  0  0  0
 19 43  1  0  0  0  0
 20 21  2  0  0  0  0
 20 44  1  0  0  0  0
 21 22  1  0  0  0  0
 21 45  1  0  0  0  0
M  END
> <s_m_source_file>
AV-unprocessed.smi

> <i_m_source_file_index>
1272

> <i_lp_mmshare_version>
43012

> <i_f3d_flags>
0

> <s_epik_input>
W2NIXTFbY0hdW2NIXVtjSF1jKGMxMiluKFtDSDJdW0NIM10pYyg9TyluMltDSDJdW0NASF0oW09IXSlbQ0gyXU4zW0NIMl1bQ0gyXU9bQ0gyXVtDSDJdMw==

> <s_epik_cmdline>
J2VwaWtfcHl0aG9uJywgJy1waCcsICc3LjAnLCAnLXRuJywgJzgnLCAnLW1hJywgJzIwMCcsICctbWV0YWxfYmluZGluZycsICctaW1hZScsICc8aW5maWxlLm1hZT4nLCAnLW9tYWUnLCAnPG91dGZpbGUubWFlPic=

> <r_epik_Ionization_Penalty>
0.214359

> <r_epik_Ionization_Penalty_Charging>
2.31431e-09

> <r_epik_Ionization_Penalty_Neutral>
0.214359

> <r_epik_State_Penalty>
0.204533

> <r_epik_Charging_Adjusted_Penalty>
0.204533

> <i_epik_Tot_Q>
0

> <i_epik_Tot_abs_Q>
0

> <r_epik_Metal_State_Penalty>
0.204533

> <b_epik_Metal_Only>
0

> <s_lp_Force_Field>
OPLS_2005

> <r_lp_Energy>
62.2606

> <b_lp_Chiralities_Consistent>
1

> <s_lp_Variant>
AV-unprocessed.smi:1272-2

> <Gold.Version>
5.8.1

> <Gold.Id.Protein>
6NUR|6NUR_protein|mol2

> <Gold.PLP.Fitness>
56.1189

> <Gold.PLP.PLP>
-53.5158

> <Gold.PLP.part.hbond>
-1.0000

> <Gold.PLP.part.metal>
0.0000

> <Gold.PLP.part.buried>
-4.7998

> <Gold.PLP.part.nonpolar>
-48.3075

> <Gold.PLP.part.repulsive>
0.2608

> <Gold.PLP.ligand.clash>
0.0000

> <Gold.PLP.ligand.torsion>
0.2087

> <Gold.PLP.Chemscore.Hbond>
1.0000

> <Gold.PLP.Chemscore.CHOScore>
0.0000

> <Gold.PLP.Chemscore.Metal>
0.0000

> <Gold.Chemscore.Hbonds>
donor molecule, donor type, donor heavy atom, donor atom, acceptor molecule, acceptor atom, score
      P1  H  7997  8008       L1     9  1.00

> <Gold.PLP.Chemscore.Internal.Correction>
0.0204

> <Gold.Rescore>
     Score         DG    S(hbond)    S(metal)    S(lipo)     H(rot)  DE(clash)    DE(int)     intcor
     19.37     -19.45       0.99        0.00     138.07       2.14       0.02       0.06       ----

> <Gold.Chemscore.Fitness>
19.3660

> <Gold.Chemscore.DG>
-19.4503

> <Gold.Chemscore.ZeroCoef>
-5.4800

> <Gold.Chemscore.Hbond>
0.9855

> <Gold.Chemscore.Metal>
0.0000

> <Gold.Chemscore.Lipo>
138.0655

> <Gold.Chemscore.Internal_Hbond>
0.0000

> <Gold.Chemscore.DEClash>
0.0220

> <Gold.Chemscore.DEInternal>
0.0623

> <Gold.Chemscore.Rot>
2.1386

> <Gold.Chemscore.Internal.Correction>
   9.000000E+99

> <Gold.Chemscore.Hbonds>
donor molecule, donor type, donor heavy atom, donor atom, acceptor molecule, acceptor atom, score
      P1  H  7997  8008       L1     9  0.96

> <Gold.Chemscore.Hbond.Weighted>
-3.2915

> <Gold.Chemscore.Metal.Weighted>
-0.0000

> <Gold.Chemscore.Lipo.Weighted>
-16.1537

> <Gold.Chemscore.Internal_Hbond.Weighted>
0.0000

> <Gold.Chemscore.DEClash.Weighted>
0.0220

> <Gold.Chemscore.DEInternal.Weighted>
0.0623

> <Gold.Chemscore.Rot.Weighted>
5.4749

> <Gold.Chemscore.Internal.Correction.Weighted>
   9.000000E+99

> <Gold.Protein.RotatedTorsions>
[ 6907 6896 6895 6894 ] final -116.41 input  -60.11 | X-H torsion
[ 7974 7965 7964 7962 ] final   38.28 input  175.53 | X-H torsion
[ 8008 7997 7996 7995 ] final  -50.75 input   59.86 | X-H torsion
[ 10167 10162 10161 10158 ] final   -5.80 input  -65.29 | X-H torsion
[ 10718 10713 10712 10709 ] final   45.27 input   66.30 | X-H torsion
[ 10763 10752 10751 10750 ] final   28.99 input  -60.55 | X-H torsion
[ 11005 11000 10999 10996 ] final  122.44 input  -57.11 | X-H torsion

> <Gold.Protein.ActiveResidues>
 VAL166  LYS551  ARG553  GLY616  TRP617  ASP618  TYR619  PRO620  LYS621  CYS622 
 ASP623  PHE694  ASN695  SER759  ASP760  ASP761  ALA762  ILE779  LEU786  VAL792 
 PHE793  MET794  SER795  GLU796  ALA797  LYS798  CYS799  TRP800  GLU811  SER814 

> <Gold.Protein.RotatedAtoms>
  150.8054  133.8520  159.3207 H   0  0  0  0  0  0  0  0  0  0  0  0  # atno 6907 bound_to 6896
  151.6321  135.1020  160.0133 H   0  0  0  0  0  0  0  0  0  0  0  0  # atno 6908 bound_to 6896
  152.4144  133.6975  159.6461 H   0  0  0  0  0  0  0  0  0  0  0  0  # atno 6909 bound_to 6896
  146.1074  139.5791  142.9375 H   0  0  0  0  0  0  0  0  0  0  0  0  # atno 7974 bound_to 7965
  154.4068  140.1264  156.4717 H   0  0  0  0  0  0  0  0  0  0  0  0  # atno 8008 bound_to 7997
  155.7173  140.3493  155.4980 H   0  0  0  0  0  0  0  0  0  0  0  0  # atno 8009 bound_to 7997
  155.9247  140.1059  157.1170 H   0  0  0  0  0  0  0  0  0  0  0  0  # atno 8010 bound_to 7997
  140.6975  143.6267  150.8562 H   0  0  0  0  0  0  0  0  0  0  0  0  # atno 10167 bound_to 10162
  157.4357  130.8051  149.7646 H   0  0  0  0  0  0  0  0  0  0  0  0  # atno 10718 bound_to 10713
  153.0458  135.6500  154.0821 H   0  0  0  0  0  0  0  0  0  0  0  0  # atno 10763 bound_to 10752
  154.0519  135.2895  155.3340 H   0  0  0  0  0  0  0  0  0  0  0  0  # atno 10764 bound_to 10752
  154.6714  135.5355  153.8209 H   0  0  0  0  0  0  0  0  0  0  0  0  # atno 10765 bound_to 10752
  139.9268  134.9641  156.8109 H   0  0  0  0  0  0  0  0  0  0  0  0  # atno 11005 bound_to 11000
  145.5734  141.0391  143.2162 LP  0  0  0  0  0  0  0  0  0  0  0  0  # atno 17320 bound_to 7965
  144.7482  139.7263  143.7284 LP  0  0  0  0  0  0  0  0  0  0  0  0  # atno 17321 bound_to 7965
  139.9986  143.5769  152.2884 LP  0  0  0  0  0  0  0  0  0  0  0  0  # atno 17342 bound_to 10162
  139.6450  144.7657  151.2262 LP  0  0  0  0  0  0  0  0  0  0  0  0  # atno 17343 bound_to 10162
  155.9930  130.3927  150.2920 LP  0  0  0  0  0  0  0  0  0  0  0  0  # atno 17370 bound_to 10713
  157.1080  131.0214  151.3059 LP  0  0  0  0  0  0  0  0  0  0  0  0  # atno 17371 bound_to 10713
  140.6313  133.9903  155.7663 LP  0  0  0  0  0  0  0  0  0  0  0  0  # atno 17394 bound_to 11000
  141.0831  134.0031  157.3355 LP  0  0  0  0  0  0  0  0  0  0  0  0  # atno 17395 bound_to 11000

$$$$
