AV-unprocessed.smi:1702|AV-procd|sdf|6852|dock2
  -GOLD-   22720 8 33D 1   1.00000     0.00000
 Structure written by MMmdl.
 45 47  0  0  0  0  0  0  0  0  3 V2000
  145.8278  139.4651  155.4772 C   0  0  0  0  0  0  0  0  0  0  0  0
  146.2344  138.7791  154.1607 C   0  0  2  0  0  0  0  0  0  0  0  0
  146.7935  137.3609  154.3750 C   0  0  0  0  0  0  0  0  0  0  0  0
  148.2139  137.3777  154.9684 C   0  0  0  0  0  0  0  0  0  0  0  0
  149.1390  138.1821  154.1263 N   0  3  2  0  0  0  0  0  0  0  0  0
  150.5513  138.1273  154.5861 C   0  0  0  0  0  0  0  0  0  0  0  0
  150.6914  138.3756  156.1013 C   0  0  1  0  0  0  0  0  0  0  0  0
  151.0042  137.1514  156.7383 O   0  0  0  0  0  0  0  0  0  0  0  0
  151.7967  139.4042  156.4131 C   0  0  0  0  0  0  0  0  0  0  0  0
  151.2642  140.7299  156.7576 N   0  0  0  0  0  0  0  0  0  0  0  0
  150.4205  141.5428  156.0642 C   0  0  0  0  0  0  0  0  0  0  0  0
  150.2273  142.6666  156.8089 N   0  3  0  0  0  0  0  0  0  0  0  0
  150.9573  142.5710  157.9958 C   0  0  0  0  0  0  0  0  0  0  0  0
  151.0820  143.4539  159.0638 C   0  0  0  0  0  0  0  0  0  0  0  0
  151.9137  143.0492  160.1286 C   0  0  0  0  0  0  0  0  0  0  0  0
  152.0716  143.8714  161.1926 F   0  0  0  0  0  0  0  0  0  0  0  0
  152.5831  141.8071  160.1058 C   0  0  0  0  0  0  0  0  0  0  0  0
  153.3722  141.4568  161.1487 F   0  0  0  0  0  0  0  0  0  0  0  0
  152.4485  140.9198  159.0173 C   0  0  0  0  0  0  0  0  0  0  0  0
  151.6254  141.3289  157.9692 C   0  0  0  0  0  0  0  0  0  0  0  0
  148.6541  139.5764  153.9592 C   0  0  0  0  0  0  0  0  0  0  0  0
  147.2432  139.6072  153.3446 C   0  0  0  0  0  0  0  0  0  0  0  0
  146.6746  139.6052  156.1486 H   0  0  0  0  0  0  0  0  0  0  0  0
  145.0803  138.8761  156.0093 H   0  0  0  0  0  0  0  0  0  0  0  0
  145.3934  140.4469  155.2870 H   0  0  0  0  0  0  0  0  0  0  0  0
  145.3243  138.6888  153.5660 H   0  0  0  0  0  0  0  0  0  0  0  0
  146.1254  136.7841  155.0159 H   0  0  0  0  0  0  0  0  0  0  0  0
  146.8177  136.8382  153.4176 H   0  0  0  0  0  0  0  0  0  0  0  0
  148.1973  137.7794  155.9823 H   0  0  0  0  0  0  0  0  0  0  0  0
  148.5706  136.3516  155.0482 H   0  0  0  0  0  0  0  0  0  0  0  0
  150.9789  137.1496  154.3570 H   0  0  0  0  0  0  0  0  0  0  0  0
  151.1402  138.8521  154.0221 H   0  0  0  0  0  0  0  0  0  0  0  0
  149.7511  138.7392  156.5140 H   0  0  0  0  0  0  0  0  0  0  0  0
  150.5718  137.1272  157.5788 H   0  0  0  0  0  0  0  0  0  0  0  0
  152.4032  139.0670  157.2550 H   0  0  0  0  0  0  0  0  0  0  0  0
  152.4780  139.5149  155.5685 H   0  0  0  0  0  0  0  0  0  0  0  0
  149.9846  141.3362  155.0970 H   0  0  0  0  0  0  0  0  0  0  0  0
  150.5714  144.4055  159.0858 H   0  0  0  0  0  0  0  0  0  0  0  0
  152.9650  139.9719  159.0112 H   0  0  0  0  0  0  0  0  0  0  0  0
  148.6656  140.0874  154.9228 H   0  0  0  0  0  0  0  0  0  0  0  0
  149.3336  140.1246  153.3055 H   0  0  0  0  0  0  0  0  0  0  0  0
  147.2920  139.2103  152.3294 H   0  0  0  0  0  0  0  0  0  0  0  0
  146.8978  140.6371  153.2485 H   0  0  0  0  0  0  0  0  0  0  0  0
  149.1288  137.7720  153.2030 H   0  0  0  0  0  0  0  0  0  0  0  0
  149.6396  143.4405  156.5250 H   0  0  0  0  0  0  0  0  0  0  0  0
  1  2  1  0  0  0  0
  1 23  1  0  0  0  0
  1 24  1  0  0  0  0
  1 25  1  0  0  0  0
  2 22  1  0  0  0  0
  2  3  1  0  0  0  0
  2 26  1  0  0  0  0
  3  4  1  0  0  0  0
  3 27  1  0  0  0  0
  3 28  1  0  0  0  0
  4  5  1  0  0  0  0
  4 29  1  0  0  0  0
  4 30  1  0  0  0  0
  5  6  1  0  0  0  0
  5 21  1  0  0  0  0
  5 44  1  0  0  0  0
  6  7  1  0  0  0  0
  6 31  1  0  0  0  0
  6 32  1  0  0  0  0
  7  8  1  0  0  0  0
  7  9  1  0  0  0  0
  7 33  1  0  0  0  0
  8 34  1  0  0  0  0
  9 10  1  0  0  0  0
  9 35  1  0  0  0  0
  9 36  1  0  0  0  0
 10 20  1  0  0  0  0
 10 11  1  0  0  0  0
 11 12  2  0  0  0  0
 11 37  1  0  0  0  0
 12 13  1  0  0  0  0
 12 45  1  0  0  0  0
 13 20  2  0  0  0  0
 13 14  1  0  0  0  0
 14 15  2  0  0  0  0
 14 38  1  0  0  0  0
 15 16  1  0  0  0  0
 15 17  1  0  0  0  0
 17 18  1  0  0  0  0
 17 19  2  0  0  0  0
 19 20  1  0  0  0  0
 19 39  1  0  0  0  0
 21 22  1  0  0  0  0
 21 40  1  0  0  0  0
 21 41  1  0  0  0  0
 22 42  1  0  0  0  0
 22 43  1  0  0  0  0
M  CHG  1   5   1
M  CHG  1  12   1
M  END
> <s_m_source_file>
AV-unprocessed.smi

> <i_m_source_file_index>
1702

> <i_lp_mmshare_version>
43012

> <i_f3d_flags>
0

> <s_epik_input>
W0NIM11bQ0hdMVtDSDJdW0NIMl1OKFtDSDJdW0NIMl0xKVtDSDJdW0NASF0oW09IXSlbQ0gyXW4oW2NIXW4yKWMoYzIzKVtjSF1jKEYpYyhGKVtjSF0z

> <s_epik_cmdline>
J2VwaWtfcHl0aG9uJywgJy1waCcsICc3LjAnLCAnLXRuJywgJzgnLCAnLW1hJywgJzIwMCcsICctbWV0YWxfYmluZGluZycsICctaW1hZScsICc8aW5maWxlLm1hZT4nLCAnLW9tYWUnLCAnPG91dGZpbGUubWFlPic=

> <r_epik_Ionization_Penalty>
2.33291

> <r_epik_Ionization_Penalty_Charging>
2.33291

> <r_epik_Ionization_Penalty_Neutral>
6.90208e-07

> <r_epik_State_Penalty>
2.4838

> <r_epik_Charging_Adjusted_Penalty>
4.81672

> <i_epik_Tot_Q>
2

> <i_epik_Tot_abs_Q>
2

> <r_epik_Metal_State_Penalty>
6.56754

> <b_epik_Metal_Only>
0

> <s_lp_Force_Field>
OPLS_2005

> <r_lp_Energy>
31.9784

> <b_lp_Chiralities_Consistent>
1

> <s_lp_Variant>
AV-unprocessed.smi:1702-8

> <Gold.Version>
5.8.1

> <Gold.Id.Protein>
6NUR|6NUR_protein|mol2

> <Gold.PLP.Fitness>
50.6474

> <Gold.PLP.PLP>
-41.4913

> <Gold.PLP.part.hbond>
-1.9776

> <Gold.PLP.part.metal>
0.0000

> <Gold.PLP.part.buried>
-3.9518

> <Gold.PLP.part.nonpolar>
-36.4190

> <Gold.PLP.part.repulsive>
0.0862

> <Gold.PLP.ligand.clash>
0.0000

> <Gold.PLP.ligand.torsion>
1.4364

> <Gold.PLP.Chemscore.Hbond>
4.0000

> <Gold.PLP.Chemscore.CHOScore>
0.0000

> <Gold.PLP.Chemscore.Metal>
0.0000

> <Gold.Chemscore.Hbonds>
donor molecule, donor type, donor heavy atom, donor atom, acceptor molecule, acceptor atom, score
      L1  H     5    44       P1  7948  2.00
      L1  H    12    45       P1  8028  2.00

> <Gold.PLP.Chemscore.Internal.Correction>
0.0288

> <Gold.Rescore>
     Score         DG    S(hbond)    S(metal)    S(lipo)     H(rot)  DE(clash)    DE(int)     intcor
     15.78     -17.16       1.99        0.00      93.83       2.32       0.07       1.31       ----

> <Gold.Chemscore.Fitness>
15.7829

> <Gold.Chemscore.DG>
-17.1590

> <Gold.Chemscore.ZeroCoef>
-5.4800

> <Gold.Chemscore.Hbond>
1.9888

> <Gold.Chemscore.Metal>
0.0000

> <Gold.Chemscore.Lipo>
93.8300

> <Gold.Chemscore.Internal_Hbond>
0.0000

> <Gold.Chemscore.DEClash>
0.0707

> <Gold.Chemscore.DEInternal>
1.3054

> <Gold.Chemscore.Rot>
2.3210

> <Gold.Chemscore.Internal.Correction>
   9.000000E+99

> <Gold.Chemscore.Hbonds>
donor molecule, donor type, donor heavy atom, donor atom, acceptor molecule, acceptor atom, score
      L1  H     5    44       P1  7948  0.92
      L1  H    12    45       P1  8028  1.00

> <Gold.Chemscore.Hbond.Weighted>
-6.6426

> <Gold.Chemscore.Metal.Weighted>
-0.0000

> <Gold.Chemscore.Lipo.Weighted>
-10.9781

> <Gold.Chemscore.Internal_Hbond.Weighted>
0.0000

> <Gold.Chemscore.DEClash.Weighted>
0.0707

> <Gold.Chemscore.DEInternal.Weighted>
1.3054

> <Gold.Chemscore.Rot.Weighted>
5.9416

> <Gold.Chemscore.Internal.Correction.Weighted>
   9.000000E+99

> <Gold.Protein.RotatedTorsions>
[ 6907 6896 6895 6894 ] final -115.06 input  -60.11 | X-H torsion
[ 7974 7965 7964 7962 ] final   79.70 input  175.53 | X-H torsion
[ 8008 7997 7996 7995 ] final  101.95 input   59.86 | X-H torsion
[ 10167 10162 10161 10158 ] final   10.83 input  -65.29 | X-H torsion
[ 10718 10713 10712 10709 ] final  -21.51 input   66.30 | X-H torsion
[ 10763 10752 10751 10750 ] final  -79.89 input  -60.55 | X-H torsion
[ 11005 11000 10999 10996 ] final  162.48 input  -57.11 | X-H torsion

> <Gold.Protein.ActiveResidues>
 VAL166  LYS551  ARG553  GLY616  TRP617  ASP618  TYR619  PRO620  LYS621  CYS622 
 ASP623  PHE694  ASN695  SER759  ASP760  ASP761  ALA762  ILE779  LEU786  VAL792 
 PHE793  MET794  SER795  GLU796  ALA797  LYS798  CYS799  TRP800  GLU811  SER814 

> <Gold.Protein.RotatedAtoms>
  150.7949  133.8712  159.3258 H   0  0  0  0  0  0  0  0  0  0  0  0  # atno 6907 bound_to 6896
  151.6540  135.0996  160.0176 H   0  0  0  0  0  0  0  0  0  0  0  0  # atno 6908 bound_to 6896
  152.4029  133.6806  159.6367 H   0  0  0  0  0  0  0  0  0  0  0  0  # atno 6909 bound_to 6896
  145.6609  139.2471  143.1923 H   0  0  0  0  0  0  0  0  0  0  0  0  # atno 7974 bound_to 7965
  156.1347  140.3189  155.8402 H   0  0  0  0  0  0  0  0  0  0  0  0  # atno 8008 bound_to 7997
  155.4267  140.0516  157.3039 H   0  0  0  0  0  0  0  0  0  0  0  0  # atno 8009 bound_to 7997
  154.4927  140.2098  155.9526 H   0  0  0  0  0  0  0  0  0  0  0  0  # atno 8010 bound_to 7997
  140.6170  143.8287  150.7130 H   0  0  0  0  0  0  0  0  0  0  0  0  # atno 10167 bound_to 10162
  156.5172  130.4624  149.6616 H   0  0  0  0  0  0  0  0  0  0  0  0  # atno 10718 bound_to 10713
  154.5443  135.5680  153.6866 H   0  0  0  0  0  0  0  0  0  0  0  0  # atno 10763 bound_to 10752
  152.9972  135.6235  154.2460 H   0  0  0  0  0  0  0  0  0  0  0  0  # atno 10764 bound_to 10752
  154.2392  135.2863  155.2840 H   0  0  0  0  0  0  0  0  0  0  0  0  # atno 10765 bound_to 10752
  140.2261  134.8159  157.3270 H   0  0  0  0  0  0  0  0  0  0  0  0  # atno 11005 bound_to 11000
  146.1126  140.7409  142.9496 LP  0  0  0  0  0  0  0  0  0  0  0  0  # atno 17320 bound_to 7965
  144.7089  140.3964  143.7096 LP  0  0  0  0  0  0  0  0  0  0  0  0  # atno 17321 bound_to 7965
  140.1868  143.4069  152.1892 LP  0  0  0  0  0  0  0  0  0  0  0  0  # atno 17342 bound_to 10162
  139.5406  144.7253  151.4745 LP  0  0  0  0  0  0  0  0  0  0  0  0  # atno 17343 bound_to 10162
  156.3184  130.7267  151.2174 LP  0  0  0  0  0  0  0  0  0  0  0  0  # atno 17370 bound_to 10713
  157.7442  131.0462  150.4883 LP  0  0  0  0  0  0  0  0  0  0  0  0  # atno 17371 bound_to 10713
  140.1798  134.4503  155.7779 LP  0  0  0  0  0  0  0  0  0  0  0  0  # atno 17394 bound_to 11000
  141.2220  133.6979  156.7850 LP  0  0  0  0  0  0  0  0  0  0  0  0  # atno 17395 bound_to 11000

$$$$
