AV-unprocessed.smi:3250|AV-procd|sdf|12429|dock7
  -GOLD-   2272018313D 1   1.00000     0.00000
 Structure written by MMmdl.
 38 39  0  0  0  0  0  0  0  0  1 V2000
  147.1624  142.4502  153.7458 C   0  0  0  0  0  0  0  0  0  0  0  0
  146.8855  141.1543  154.5207 C   0  0  0  0  0  0  0  0  0  0  0  0
  148.0766  140.4563  155.0010 N   0  0  0  0  0  0  0  0  0  0  0  0
  148.6196  139.5281  154.0122 C   0  0  0  0  0  0  0  0  0  0  0  0
  149.8926  138.8306  154.5203 C   0  0  0  0  0  0  0  0  0  0  0  0
  150.8564  139.8105  154.8905 O   0  0  0  0  0  0  0  0  0  0  0  0
  150.3867  140.6981  155.9025 C   0  0  1  0  0  0  0  0  0  0  0  0
  151.5023  141.7016  156.2229 C   0  0  0  0  0  0  0  0  0  0  0  0
  150.9722  142.9270  156.8014 N   0  0  0  0  0  0  0  0  0  0  0  0
  151.3704  143.4427  158.0200 C   0  0  0  0  0  0  0  0  0  0  0  0
  151.5186  144.7687  158.0638 N   0  0  0  0  0  0  0  0  0  0  0  0
  151.9010  145.3041  159.2435 C   0  0  0  0  0  0  0  0  0  0  0  0
  152.1360  144.5057  160.3806 C   0  0  0  0  0  0  0  0  0  0  0  0
  151.9537  143.1172  160.2221 C   0  0  0  0  0  0  0  0  0  0  0  0
  152.1714  142.2774  161.2947 O   0  0  0  0  0  0  0  0  0  0  0  0
  152.7711  142.8249  162.4635 C   0  0  0  0  0  0  0  0  0  0  0  0
  151.5682  142.5908  159.0327 N   0  0  0  0  0  0  0  0  0  0  0  0
  149.1186  141.4039  155.3823 C   0  0  0  0  0  0  0  0  0  0  0  0
  146.2369  142.8559  153.3370 H   0  0  0  0  0  0  0  0  0  0  0  0
  147.8422  142.2723  152.9119 H   0  0  0  0  0  0  0  0  0  0  0  0
  147.5991  143.2203  154.3810 H   0  0  0  0  0  0  0  0  0  0  0  0
  146.2167  141.3657  155.3563 H   0  0  0  0  0  0  0  0  0  0  0  0
  146.3330  140.4889  153.8561 H   0  0  0  0  0  0  0  0  0  0  0  0
  147.8820  138.7665  153.7620 H   0  0  0  0  0  0  0  0  0  0  0  0
  148.8456  140.0619  153.0878 H   0  0  0  0  0  0  0  0  0  0  0  0
  149.6681  138.1895  155.3742 H   0  0  0  0  0  0  0  0  0  0  0  0
  150.3127  138.1935  153.7420 H   0  0  0  0  0  0  0  0  0  0  0  0
  150.1404  140.1294  156.8015 H   0  0  0  0  0  0  0  0  0  0  0  0
  152.2271  141.2575  156.9061 H   0  0  0  0  0  0  0  0  0  0  0  0
  152.0378  141.9575  155.3078 H   0  0  0  0  0  0  0  0  0  0  0  0
  150.2006  143.3812  156.3349 H   0  0  0  0  0  0  0  0  0  0  0  0
  152.0204  146.3767  159.2806 H   0  0  0  0  0  0  0  0  0  0  0  0
  152.4408  144.9355  161.3232 H   0  0  0  0  0  0  0  0  0  0  0  0
  152.8699  142.0447  163.2179 H   0  0  0  0  0  0  0  0  0  0  0  0
  152.1594  143.6213  162.8896 H   0  0  0  0  0  0  0  0  0  0  0  0
  153.7692  143.2129  162.2557 H   0  0  0  0  0  0  0  0  0  0  0  0
  149.3775  142.0307  154.5272 H   0  0  0  0  0  0  0  0  0  0  0  0
  148.7395  142.0742  156.1548 H   0  0  0  0  0  0  0  0  0  0  0  0
  1  2  1  0  0  0  0
  1 19  1  0  0  0  0
  1 20  1  0  0  0  0
  1 21  1  0  0  0  0
  2  3  1  0  0  0  0
  2 22  1  0  0  0  0
  2 23  1  0  0  0  0
  3 18  1  0  0  0  0
  3  4  1  0  0  0  0
  4  5  1  0  0  0  0
  4 24  1  0  0  0  0
  4 25  1  0  0  0  0
  5  6  1  0  0  0  0
  5 26  1  0  0  0  0
  5 27  1  0  0  0  0
  6  7  1  0  0  0  0
  7  8  1  0  0  0  0
  7 18  1  0  0  0  0
  7 28  1  0  0  0  0
  8  9  1  0  0  0  0
  8 29  1  0  0  0  0
  8 30  1  0  0  0  0
  9 10  1  0  0  0  0
  9 31  1  0  0  0  0
 10 17  1  0  0  0  0
 10 11  2  0  0  0  0
 11 12  1  0  0  0  0
 12 13  2  0  0  0  0
 12 32  1  0  0  0  0
 13 14  1  0  0  0  0
 13 33  1  0  0  0  0
 14 15  1  0  0  0  0
 14 17  2  0  0  0  0
 15 16  1  0  0  0  0
 16 34  1  0  0  0  0
 16 35  1  0  0  0  0
 16 36  1  0  0  0  0
 18 37  1  0  0  0  0
 18 38  1  0  0  0  0
M  END
> <s_m_source_file>
AV-unprocessed.smi

> <i_m_source_file_index>
3250

> <i_lp_mmshare_version>
43012

> <i_f3d_flags>
0

> <s_epik_input>
W0NIM11bQ0gyXU4xW0NIMl1bQ0gyXU9bQ0BIXShbQ0gyXTEpW0NIMl1bTkhdYzJuW2NIXVtjSF1jKG4yKU9bQ0gzXQ==

> <s_epik_cmdline>
J2VwaWtfcHl0aG9uJywgJy1waCcsICc3LjAnLCAnLXRuJywgJzgnLCAnLW1hJywgJzIwMCcsICctbWV0YWxfYmluZGluZycsICctaW1hZScsICc8aW5maWxlLm1hZT4nLCAnLW9tYWUnLCAnPG91dGZpbGUubWFlPic=

> <r_lp_tautomer_probability>
1

> <r_epik_Ionization_Penalty>
0.832605

> <r_epik_Ionization_Penalty_Charging>
0

> <r_epik_Ionization_Penalty_Neutral>
0.832605

> <r_epik_State_Penalty>
0.927194

> <r_epik_Charging_Adjusted_Penalty>
0.927194

> <i_epik_Tot_Q>
0

> <i_epik_Tot_abs_Q>
0

> <r_epik_Metal_State_Penalty>
0.908632

> <b_epik_Metal_Only>
0

> <s_lp_Force_Field>
OPLS_2005

> <r_lp_Energy>
15.3419

> <b_lp_Chiralities_Consistent>
1

> <s_lp_Variant>
AV-unprocessed.smi:3250-5

> <Gold.Version>
5.8.1

> <Gold.Id.Protein>
6NUR|6NUR_protein|mol2

> <Gold.PLP.Fitness>
41.6770

> <Gold.PLP.PLP>
-37.5849

> <Gold.PLP.part.hbond>
-2.1081

> <Gold.PLP.part.metal>
0.0000

> <Gold.PLP.part.buried>
-7.2841

> <Gold.PLP.part.nonpolar>
-27.3924

> <Gold.PLP.part.repulsive>
0.3603

> <Gold.PLP.ligand.clash>
0.0000

> <Gold.PLP.ligand.torsion>
0.9615

> <Gold.PLP.Chemscore.Hbond>
2.0000

> <Gold.PLP.Chemscore.CHOScore>
0.0000

> <Gold.PLP.Chemscore.Metal>
0.0000

> <Gold.Chemscore.Hbonds>
donor molecule, donor type, donor heavy atom, donor atom, acceptor molecule, acceptor atom, score
      L1  H     9    31       P1  8028  1.00
      P1  H  6933  6945       L1    15  0.07
      P1  H  7989  7998       L1     6  1.00

> <Gold.PLP.Chemscore.Internal.Correction>
0.0151

> <Gold.Rescore>
     Score         DG    S(hbond)    S(metal)    S(lipo)     H(rot)  DE(clash)    DE(int)     intcor
     15.90     -16.97       1.92        0.00      79.80       1.67       0.28       0.79       ----

> <Gold.Chemscore.Fitness>
15.8976

> <Gold.Chemscore.DG>
-16.9682

> <Gold.Chemscore.ZeroCoef>
-5.4800

> <Gold.Chemscore.Hbond>
1.9208

> <Gold.Chemscore.Metal>
0.0000

> <Gold.Chemscore.Lipo>
79.8040

> <Gold.Chemscore.Internal_Hbond>
0.0000

> <Gold.Chemscore.DEClash>
0.2842

> <Gold.Chemscore.DEInternal>
0.7865

> <Gold.Chemscore.Rot>
1.6657

> <Gold.Chemscore.Internal.Correction>
   9.000000E+99

> <Gold.Chemscore.Hbonds>
donor molecule, donor type, donor heavy atom, donor atom, acceptor molecule, acceptor atom, score
      L1  H     9    31       P1  8028  0.97
      P1  H  6933  6945       L1    15  0.01
      P1  H  7989  7998       L1     6  0.62

> <Gold.Chemscore.Hbond.Weighted>
-6.4154

> <Gold.Chemscore.Metal.Weighted>
-0.0000

> <Gold.Chemscore.Lipo.Weighted>
-9.3371

> <Gold.Chemscore.Internal_Hbond.Weighted>
0.0000

> <Gold.Chemscore.DEClash.Weighted>
0.2842

> <Gold.Chemscore.DEInternal.Weighted>
0.7865

> <Gold.Chemscore.Rot.Weighted>
4.2642

> <Gold.Chemscore.Internal.Correction.Weighted>
   9.000000E+99

> <Gold.Protein.RotatedTorsions>
[ 6907 6896 6895 6894 ] final -132.50 input  -60.11 | X-H torsion
[ 7974 7965 7964 7962 ] final -118.53 input  175.53 | X-H torsion
[ 8008 7997 7996 7995 ] final    8.96 input   59.86 | X-H torsion
[ 10167 10162 10161 10158 ] final  141.74 input  -65.29 | X-H torsion
[ 10718 10713 10712 10709 ] final  -36.74 input   66.30 | X-H torsion
[ 10763 10752 10751 10750 ] final   47.13 input  -60.55 | X-H torsion
[ 11005 11000 10999 10996 ] final   32.22 input  -57.11 | X-H torsion

> <Gold.Protein.ActiveResidues>
 VAL166  LYS551  ARG553  GLY616  TRP617  ASP618  TYR619  PRO620  LYS621  CYS622 
 ASP623  PHE694  ASN695  SER759  ASP760  ASP761  ALA762  ILE779  LEU786  VAL792 
 PHE793  MET794  SER795  GLU796  ALA797  LYS798  CYS799  TRP800  GLU811  SER814 

> <Gold.Protein.RotatedAtoms>
  150.9632  133.6423  159.2750 H   0  0  0  0  0  0  0  0  0  0  0  0  # atno 6907 bound_to 6896
  151.3738  135.0926  159.9484 H   0  0  0  0  0  0  0  0  0  0  0  0  # atno 6908 bound_to 6896
  152.5155  133.9180  159.7575 H   0  0  0  0  0  0  0  0  0  0  0  0  # atno 6909 bound_to 6896
  145.0728  140.8371  143.4085 H   0  0  0  0  0  0  0  0  0  0  0  0  # atno 7974 bound_to 7965
  154.7737  140.2806  155.6118 H   0  0  0  0  0  0  0  0  0  0  0  0  # atno 8008 bound_to 7997
  156.2938  140.2636  156.2473 H   0  0  0  0  0  0  0  0  0  0  0  0  # atno 8009 bound_to 7997
  154.9869  140.0374  157.2292 H   0  0  0  0  0  0  0  0  0  0  0  0  # atno 8010 bound_to 7997
  139.5012  144.6152  151.6180 H   0  0  0  0  0  0  0  0  0  0  0  0  # atno 10167 bound_to 10162
  156.3233  130.4269  149.7940 H   0  0  0  0  0  0  0  0  0  0  0  0  # atno 10718 bound_to 10713
  152.9803  135.5986  154.3713 H   0  0  0  0  0  0  0  0  0  0  0  0  # atno 10763 bound_to 10752
  154.3386  135.2768  155.2436 H   0  0  0  0  0  0  0  0  0  0  0  0  # atno 10764 bound_to 10752
  154.4528  135.5985  153.6258 H   0  0  0  0  0  0  0  0  0  0  0  0  # atno 10765 bound_to 10752
  140.2757  134.3031  155.7815 H   0  0  0  0  0  0  0  0  0  0  0  0  # atno 11005 bound_to 11000
  145.1272  139.2655  143.5558 LP  0  0  0  0  0  0  0  0  0  0  0  0  # atno 17320 bound_to 7965
  146.3529  140.0912  142.8612 LP  0  0  0  0  0  0  0  0  0  0  0  0  # atno 17321 bound_to 7965
  140.5838  143.9900  150.6283 LP  0  0  0  0  0  0  0  0  0  0  0  0  # atno 17342 bound_to 10162
  140.3058  143.3230  152.0928 LP  0  0  0  0  0  0  0  0  0  0  0  0  # atno 17343 bound_to 10162
  156.5239  130.8227  151.3213 LP  0  0  0  0  0  0  0  0  0  0  0  0  # atno 17370 bound_to 10713
  157.7416  130.9873  150.2458 LP  0  0  0  0  0  0  0  0  0  0  0  0  # atno 17371 bound_to 10713
  141.2170  133.7494  156.9403 LP  0  0  0  0  0  0  0  0  0  0  0  0  # atno 17394 bound_to 11000
  140.1331  134.9343  157.2364 LP  0  0  0  0  0  0  0  0  0  0  0  0  # atno 17395 bound_to 11000

$$$$
