AV-unprocessed.smi:1833|AV-procd|sdf|7467|dock7
  -GOLD-   22720 9163D 1   1.00000     0.00000
 Structure written by MMmdl.
 42 43  0  0  0  0  0  0  0  0  2 V2000
  145.4299  132.3808  151.3417 C   0  0  0  0  0  0  0  0  0  0  0  0
  146.7370  133.1748  151.4817 C   0  0  0  0  0  0  0  0  0  0  0  0
  146.4974  134.6037  151.8038 N   0  3  1  0  0  0  0  0  0  0  0  0
  145.6049  135.2652  150.8164 C   0  0  0  0  0  0  0  0  0  0  0  0
  145.4962  136.7760  151.0872 C   0  0  0  0  0  0  0  0  0  0  0  0
  145.0498  137.0567  152.5319 C   0  0  0  0  0  0  0  0  0  0  0  0
  145.9529  136.3237  153.5395 C   0  0  2  0  0  0  0  0  0  0  0  0
  147.2831  136.9330  153.5510 N   0  0  0  0  0  0  0  0  0  0  0  0
  147.5821  138.1244  154.0868 C   0  0  0  0  0  0  0  0  0  0  0  0
  146.7671  138.8388  154.6701 O   0  0  0  0  0  0  0  0  0  0  0  0
  148.8700  138.4462  153.8984 N   0  0  0  0  0  0  0  0  0  0  0  0
  149.5011  139.6916  154.3293 C   0  0  0  0  0  0  0  0  0  0  0  0
  150.7317  139.4523  155.2252 C   0  0  0  0  0  0  0  0  0  0  0  0
  151.0033  140.5525  156.2005 C   0  0  0  0  0  0  0  0  0  0  0  0
  150.4868  141.7792  156.0861 N   0  0  0  0  0  0  0  0  0  0  0  0
  150.9230  142.6392  157.0968 C   0  0  0  0  0  0  0  0  0  0  0  0
  151.7871  142.0489  157.9835 C   0  0  0  0  0  0  0  0  0  0  0  0
  152.0862  140.3810  157.5797 S   0  0  0  0  0  0  0  0  0  0  0  0
  146.0120  134.8194  153.1930 C   0  0  0  0  0  0  0  0  0  0  0  0
  145.6398  131.3220  151.1889 H   0  0  0  0  0  0  0  0  0  0  0  0
  144.8332  132.7158  150.4940 H   0  0  0  0  0  0  0  0  0  0  0  0
  144.8176  132.4688  152.2396 H   0  0  0  0  0  0  0  0  0  0  0  0
  147.3170  132.7169  152.2839 H   0  0  0  0  0  0  0  0  0  0  0  0
  147.3411  133.0899  150.5772 H   0  0  0  0  0  0  0  0  0  0  0  0
  145.9901  135.1118  149.8075 H   0  0  0  0  0  0  0  0  0  0  0  0
  144.6168  134.8036  150.8517 H   0  0  0  0  0  0  0  0  0  0  0  0
  146.4603  137.2500  150.8992 H   0  0  0  0  0  0  0  0  0  0  0  0
  144.7928  137.2289  150.3877 H   0  0  0  0  0  0  0  0  0  0  0  0
  145.0483  138.1301  152.7269 H   0  0  0  0  0  0  0  0  0  0  0  0
  144.0199  136.7213  152.6608 H   0  0  0  0  0  0  0  0  0  0  0  0
  145.5202  136.4417  154.5347 H   0  0  0  0  0  0  0  0  0  0  0  0
  148.0198  136.4269  153.0814 H   0  0  0  0  0  0  0  0  0  0  0  0
  149.4566  137.7910  153.4024 H   0  0  0  0  0  0  0  0  0  0  0  0
  149.7800  140.3010  153.4681 H   0  0  0  0  0  0  0  0  0  0  0  0
  148.7601  140.2705  154.8805 H   0  0  0  0  0  0  0  0  0  0  0  0
  150.6047  138.5215  155.7792 H   0  0  0  0  0  0  0  0  0  0  0  0
  151.6178  139.3183  154.6041 H   0  0  0  0  0  0  0  0  0  0  0  0
  150.5683  143.6592  157.1082 H   0  0  0  0  0  0  0  0  0  0  0  0
  152.2635  142.4924  158.8450 H   0  0  0  0  0  0  0  0  0  0  0  0
  145.0213  134.3747  153.3010 H   0  0  0  0  0  0  0  0  0  0  0  0
  146.6534  134.3037  153.9063 H   0  0  0  0  0  0  0  0  0  0  0  0
  147.3925  135.0658  151.7302 H   0  0  0  0  0  0  0  0  0  0  0  0
  1  2  1  0  0  0  0
  1 20  1  0  0  0  0
  1 21  1  0  0  0  0
  1 22  1  0  0  0  0
  2  3  1  0  0  0  0
  2 23  1  0  0  0  0
  2 24  1  0  0  0  0
  3 19  1  0  0  0  0
  3  4  1  0  0  0  0
  3 42  1  0  0  0  0
  4  5  1  0  0  0  0
  4 25  1  0  0  0  0
  4 26  1  0  0  0  0
  5  6  1  0  0  0  0
  5 27  1  0  0  0  0
  5 28  1  0  0  0  0
  6  7  1  0  0  0  0
  6 29  1  0  0  0  0
  6 30  1  0  0  0  0
  7  8  1  0  0  0  0
  7 19  1  0  0  0  0
  7 31  1  0  0  0  0
  8  9  1  0  0  0  0
  8 32  1  0  0  0  0
  9 10  2  0  0  0  0
  9 11  1  0  0  0  0
 11 12  1  0  0  0  0
 11 33  1  0  0  0  0
 12 13  1  0  0  0  0
 12 34  1  0  0  0  0
 12 35  1  0  0  0  0
 13 14  1  0  0  0  0
 13 36  1  0  0  0  0
 13 37  1  0  0  0  0
 14 18  1  0  0  0  0
 14 15  2  0  0  0  0
 15 16  1  0  0  0  0
 16 17  2  0  0  0  0
 16 38  1  0  0  0  0
 17 18  1  0  0  0  0
 17 39  1  0  0  0  0
 19 40  1  0  0  0  0
 19 41  1  0  0  0  0
M  CHG  1   3   1
M  END
> <s_m_source_file>
AV-unprocessed.smi

> <i_m_source_file_index>
1833

> <i_lp_mmshare_version>
43012

> <i_f3d_flags>
0

> <s_epik_input>
W0NIM11bQ0gyXU4xW0NIMl1bQ0gyXVtDSDJdW0NASF0oW0NIMl0xKVtOSF1DKD1PKVtOSF1bQ0gyXVtDSDJdYzJuW2NIXVtjSF1zMg==

> <s_epik_cmdline>
J2VwaWtfcHl0aG9uJywgJy1waCcsICc3LjAnLCAnLXRuJywgJzgnLCAnLW1hJywgJzIwMCcsICctbWV0YWxfYmluZGluZycsICctaW1hZScsICc8aW5maWxlLm1hZT4nLCAnLW9tYWUnLCAnPG91dGZpbGUubWFlPic=

> <r_lp_tautomer_probability>
1

> <r_epik_Ionization_Penalty>
0.00269629

> <r_epik_Ionization_Penalty_Charging>
0.00233899

> <r_epik_Ionization_Penalty_Neutral>
0.000357304

> <r_epik_State_Penalty>
-0

> <r_epik_Charging_Adjusted_Penalty>
0.00233899

> <i_epik_Tot_Q>
1

> <i_epik_Tot_abs_Q>
1

> <r_epik_Metal_State_Penalty>
-0

> <b_epik_Metal_Only>
0

> <s_lp_Force_Field>
OPLS_2005

> <r_lp_Energy>
15.7918

> <b_lp_Chiralities_Consistent>
1

> <s_lp_Variant>
AV-unprocessed.smi:1833-3

> <Gold.Version>
5.8.1

> <Gold.Id.Protein>
6NUR|6NUR_protein|mol2

> <Gold.PLP.Fitness>
41.0165

> <Gold.PLP.PLP>
-29.0823

> <Gold.PLP.part.hbond>
-3.0472

> <Gold.PLP.part.metal>
0.0000

> <Gold.PLP.part.buried>
-0.7379

> <Gold.PLP.part.nonpolar>
-25.7528

> <Gold.PLP.part.repulsive>
0.2460

> <Gold.PLP.ligand.clash>
0.0000

> <Gold.PLP.ligand.torsion>
0.6000

> <Gold.PLP.Chemscore.Hbond>
3.3640

> <Gold.PLP.Chemscore.CHOScore>
0.9943

> <Gold.PLP.Chemscore.Metal>
0.0000

> <Gold.Chemscore.Hbonds>
donor molecule, donor type, donor heavy atom, donor atom, acceptor molecule, acceptor atom, score
      L1  H     3    42       P1  7948  2.00
      L1  H     8    32       P1  7948  1.00
      L1  H    11    33       P1  7948  0.34
      L1  C    16    38       P1  8028  0.99

> <Gold.PLP.Chemscore.Internal.Correction>
0.0592

> <Gold.Rescore>
     Score         DG    S(hbond)    S(metal)    S(lipo)     H(rot)  DE(clash)    DE(int)     intcor
     16.17     -18.11       2.32        0.00      79.23       1.71       1.40       0.54       ----

> <Gold.Chemscore.Fitness>
16.1679

> <Gold.Chemscore.DG>
-18.1070

> <Gold.Chemscore.ZeroCoef>
-5.4800

> <Gold.Chemscore.Hbond>
2.3195

> <Gold.Chemscore.Metal>
0.0000

> <Gold.Chemscore.Lipo>
79.2255

> <Gold.Chemscore.Internal_Hbond>
0.0000

> <Gold.Chemscore.DEClash>
1.4020

> <Gold.Chemscore.DEInternal>
0.5371

> <Gold.Chemscore.Rot>
1.7147

> <Gold.Chemscore.Internal.Correction>
   9.000000E+99

> <Gold.Chemscore.Hbonds>
donor molecule, donor type, donor heavy atom, donor atom, acceptor molecule, acceptor atom, score
      L1  H     3    42       P1  7948  0.85
      L1  H     8    32       P1  7948  0.91
      L1  H    11    33       P1  7948  0.33

> <Gold.Chemscore.Hbond.Weighted>
-7.7472

> <Gold.Chemscore.Metal.Weighted>
-0.0000

> <Gold.Chemscore.Lipo.Weighted>
-9.2694

> <Gold.Chemscore.Internal_Hbond.Weighted>
0.0000

> <Gold.Chemscore.DEClash.Weighted>
1.4020

> <Gold.Chemscore.DEInternal.Weighted>
0.5371

> <Gold.Chemscore.Rot.Weighted>
4.3896

> <Gold.Chemscore.Internal.Correction.Weighted>
   9.000000E+99

> <Gold.Protein.RotatedTorsions>
[ 6907 6896 6895 6894 ] final   49.86 input  -60.11 | X-H torsion
[ 7974 7965 7964 7962 ] final  154.31 input  175.53 | X-H torsion
[ 8008 7997 7996 7995 ] final   81.04 input   59.86 | X-H torsion
[ 10167 10162 10161 10158 ] final  -48.98 input  -65.29 | X-H torsion
[ 10718 10713 10712 10709 ] final  -37.08 input   66.30 | X-H torsion
[ 10763 10752 10751 10750 ] final  152.18 input  -60.55 | X-H torsion
[ 11005 11000 10999 10996 ] final  124.78 input  -57.11 | X-H torsion

> <Gold.Protein.ActiveResidues>
 VAL166  LYS551  ARG553  GLY616  TRP617  ASP618  TYR619  PRO620  LYS621  CYS622 
 ASP623  PHE694  ASN695  SER759  ASP760  ASP761  ALA762  ILE779  LEU786  VAL792 
 PHE793  MET794  SER795  GLU796  ALA797  LYS798  CYS799  TRP800  GLU811  SER814 

> <Gold.Protein.RotatedAtoms>
  152.2955  134.7672  160.0368 H   0  0  0  0  0  0  0  0  0  0  0  0  # atno 6907 bound_to 6896
  151.8204  133.3388  159.3590 H   0  0  0  0  0  0  0  0  0  0  0  0  # atno 6908 bound_to 6896
  150.7249  134.5509  159.5838 H   0  0  0  0  0  0  0  0  0  0  0  0  # atno 6909 bound_to 6896
  144.8097  139.6917  143.6147 H   0  0  0  0  0  0  0  0  0  0  0  0  # atno 7974 bound_to 7965
  155.8918  140.3438  155.5961 H   0  0  0  0  0  0  0  0  0  0  0  0  # atno 8008 bound_to 7997
  155.7602  140.0831  157.2178 H   0  0  0  0  0  0  0  0  0  0  0  0  # atno 8009 bound_to 7997
  154.4034  140.1537  156.2811 H   0  0  0  0  0  0  0  0  0  0  0  0  # atno 8010 bound_to 7997
  140.6706  143.2717  151.4149 H   0  0  0  0  0  0  0  0  0  0  0  0  # atno 10167 bound_to 10162
  156.3193  130.4263  149.7975 H   0  0  0  0  0  0  0  0  0  0  0  0  # atno 10718 bound_to 10713
  154.1159  135.2836  155.3220 H   0  0  0  0  0  0  0  0  0  0  0  0  # atno 10763 bound_to 10752
  154.6457  135.5386  153.7845 H   0  0  0  0  0  0  0  0  0  0  0  0  # atno 10764 bound_to 10752
  153.0329  135.6497  154.1315 H   0  0  0  0  0  0  0  0  0  0  0  0  # atno 10765 bound_to 10752
  139.9375  134.9638  156.8461 H   0  0  0  0  0  0  0  0  0  0  0  0  # atno 11005 bound_to 11000
  146.2394  139.5970  142.9502 LP  0  0  0  0  0  0  0  0  0  0  0  0  # atno 17320 bound_to 7965
  145.5353  141.0424  143.2360 LP  0  0  0  0  0  0  0  0  0  0  0  0  # atno 17321 bound_to 7965
  139.5973  144.1370  152.2158 LP  0  0  0  0  0  0  0  0  0  0  0  0  # atno 17342 bound_to 10162
  140.0743  144.5753  150.7168 LP  0  0  0  0  0  0  0  0  0  0  0  0  # atno 17343 bound_to 10162
  156.5289  130.8249  151.3230 LP  0  0  0  0  0  0  0  0  0  0  0  0  # atno 17370 bound_to 10713
  157.7408  130.9858  150.2404 LP  0  0  0  0  0  0  0  0  0  0  0  0  # atno 17371 bound_to 10713
  140.6038  134.0147  155.7548 LP  0  0  0  0  0  0  0  0  0  0  0  0  # atno 17394 bound_to 11000
  141.0995  133.9790  157.3103 LP  0  0  0  0  0  0  0  0  0  0  0  0  # atno 17395 bound_to 11000

$$$$
