#       Name:                AV-unprocessed.smi:3330
#       Creating user name   scv26
#       Creation time:       Fri Mar 27 19:16:18 2020


#       File generated by GOLD software.
#

@<TRIPOS>MOLECULE
AV-unprocessed.smi:3330
    44    45     1
SMALL
NO_CHARGES


@<TRIPOS>ATOM
      1 ****        -2.1765  -0.2334  -2.6965 C.3            1 S1                 0.0000
      2 ****        -1.5340   0.0242  -1.3213 C.3            1 S1                 0.0000
      3 ****        -0.0731  -0.2033  -1.3976 N.4            1 S1                 1.0000
      4 ****         0.7216   0.9046  -1.9678 C.3            1 S1                 0.0000
      5 ****         2.2238   0.7227  -1.6837 C.3            1 S1                 0.0000
      6 ****         2.5195   0.6616  -0.2455 N.am           1 S1                 0.0000
      7 ****         2.6653   1.7407   0.5349 C.2            1 S1                 0.0000
      8 ****         2.5694   2.9212   0.2022 O.2            1 S1                 0.0000
      9 ****         2.9647   1.2788   1.9443 C.3            1 S1                 0.0000
     10 ****         2.9251  -0.1522   1.7346 N.am           1 S1                 0.0000
     11 ****         2.6615  -0.4749   0.4620 C.2            1 S1                 0.0000
     12 ****         2.5507  -1.6210   0.0299 O.2            1 S1                 0.0000
     13 ****        -2.1397  -0.8623  -0.1994 C.3            1 S1                 0.0000
     14 ****        -3.6365  -0.5936   0.0433 C.3            1 S1                 0.0000
     15 ****        -1.4084  -0.7189   1.0565 N.pl3          1 S1                 0.0000
     16 ****        -0.8617  -1.7127   1.8425 C.2            1 S1                 0.0000
     17 ****        -0.2889  -1.1097   2.9254 C.2            1 S1                 0.0000
     18 ****        -0.5480   0.2734   2.7189 C.2            1 S1                 0.0000
     19 ****        -1.2156   0.5046   1.6008 N.2            1 S1                 0.0000
     20 ****        -3.2394   0.0063  -2.6953 H              1 S1                 0.0000
     21 ****        -2.0700  -1.2768  -2.9951 H              1 S1                 0.0000
     22 ****        -1.7195   0.3811  -3.4722 H              1 S1                 0.0000
     23 ****        -1.7045   1.0681  -1.0532 H              1 S1                 0.0000
     24 ****         0.2473  -0.3249  -0.4472 H              1 S1                 0.0000
     25 ****         0.5483   0.9618  -3.0425 H              1 S1                 0.0000
     26 ****         0.3888   1.8519  -1.5414 H              1 S1                 0.0000
     27 ****         2.5863  -0.1788  -2.1809 H              1 S1                 0.0000
     28 ****         2.7811   1.5457  -2.1346 H              1 S1                 0.0000
     29 ****         3.9488   1.6103   2.2768 H              1 S1                 0.0000
     30 ****         2.1987   1.6055   2.6480 H              1 S1                 0.0000
     31 ****         3.0721  -0.8209   2.4769 H              1 S1                 0.0000
     32 ****        -2.0382  -1.9056  -0.5030 H              1 S1                 0.0000
     33 ****        -4.2401  -0.8443  -0.8284 H              1 S1                 0.0000
     34 ****        -3.8196   0.4534   0.2873 H              1 S1                 0.0000
     35 ****        -4.0109  -1.1958   0.8718 H              1 S1                 0.0000
     36 ****        -0.9231  -2.7560   1.5692 H              1 S1                 0.0000
     37 ****         0.2319  -1.5847   3.7436 H              1 S1                 0.0000
     38 ****        -0.2695   1.1107   3.3419 H              1 S1                 0.0000
     39 ****         0.1131  -1.0562  -1.9058 H              1 S1                 0.0000
     40 ****         2.3603   3.1579  -0.7466 LP             1 S1                 0.0000
     41 ****         2.7005   3.6441   0.8806 LP             1 S1                 0.0000
     42 ****         2.3348  -1.7730  -0.9346 LP             1 S1                 0.0000
     43 ****         2.6764  -2.4009   0.6431 LP             1 S1                 0.0000
     44 ****        -1.5122   1.3880   1.2381 LP             1 S1                 0.0000
@<TRIPOS>BOND
    1    1    2 1     
    2    1   20 1     
    3    1   21 1     
    4    1   22 1     
    5    2    3 1     
    6    2   13 1     
    7    2   23 1     
    8    3    4 1     
    9    3   24 1     
   10    3   39 1     
   11    4    5 1     
   12    4   25 1     
   13    4   26 1     
   14    5    6 1     
   15    5   27 1     
   16    5   28 1     
   17    6   11 am    
   18    6    7 am    
   19    7    8 2     
   20    7    9 1     
   21    9   10 1     
   22    9   29 1     
   23    9   30 1     
   24   10   11 am    
   25   10   31 1     
   26   11   12 2     
   27   13   14 1     
   28   13   15 1     
   29   13   32 1     
   30   14   33 1     
   31   14   34 1     
   32   14   35 1     
   33   15   19 1     
   34   15   16 1     
   35   16   17 2     
   36   16   36 1     
   37   17   18 1     
   38   17   37 1     
   39   18   19 2     
   40   18   38 1     
   41    8   40 1     
   42    8   41 1     
   43   12   42 1     
   44   12   43 1     
   45   19   44 1     
@<TRIPOS>SUBSTRUCTURE
      1 S1             1
@<TRIPOS>SET
LONE_PAIRS      STATIC     ATOMS    <user>   **** ""
5 40 41 42 43 44
DONOR_HYDROGENS      STATIC     ATOMS    <user>   **** ""
3 24 39 31
ATOM$BLUE        STATIC     ATOMS    COLORGROUP SYSTEM
5 40 41 42 43 44
ATOM$RED        STATIC     ATOMS    COLORGROUP SYSTEM
3 24 39 31
