AV-unprocessed.smi:2439|AV-procd|sdf|9604|dock1
  -GOLD-   2272013233D 1   1.00000     0.00000
 Structure written by MMmdl.
 41 43  0  0  0  0  0  0  0  0  2 V2000
  153.5860  138.8577  154.5159 N   0  0  0  0  0  0  0  0  0  0  0  0
  152.4925  139.1413  154.7657 C   0  0  0  0  0  0  0  0  0  0  0  0
  151.1153  139.4998  155.0819 C   0  0  0  0  0  0  0  0  0  0  0  0
  150.8651  140.6908  155.7954 C   0  0  0  0  0  0  0  0  0  0  0  0
  149.5371  141.0417  156.0993 C   0  0  0  0  0  0  0  0  0  0  0  0
  148.5070  140.1825  155.6760 C   0  0  0  0  0  0  0  0  0  0  0  0
  148.7318  139.0405  154.9928 N   0  0  0  0  0  0  0  0  0  0  0  0
  150.0090  138.6962  154.6955 C   0  0  0  0  0  0  0  0  0  0  0  0
  150.2099  137.5017  153.9813 N   0  0  0  0  0  0  0  0  0  0  0  0
  150.8239  136.3420  154.6125 C   0  0  0  0  0  0  0  0  0  0  0  0
  149.8537  135.6488  155.5890 C   0  0  1  0  0  0  0  0  0  0  0  0
  148.3768  135.8000  155.1786 C   0  0  0  0  0  0  0  0  0  0  0  0
  148.0629  134.9829  153.9827 N   0  3  2  0  0  0  0  0  0  0  0  0
  146.6529  135.1478  153.5462 C   0  0  0  0  0  0  0  0  0  0  0  0
  146.3744  134.3609  152.2560 C   0  0  0  0  0  0  0  0  0  0  0  0
  146.7221  132.8783  152.4374 C   0  0  0  0  0  0  0  0  0  0  0  0
  148.1747  132.7354  152.9100 C   0  0  0  0  0  0  0  0  0  0  0  0
  148.4343  133.5568  154.1894 C   0  0  1  0  0  0  0  0  0  0  0  0
  149.9092  133.4524  154.6225 C   0  0  0  0  0  0  0  0  0  0  0  0
  150.1521  134.2637  155.7671 O   0  0  0  0  0  0  0  0  0  0  0  0
  151.6770  141.3321  156.1076 H   0  0  0  0  0  0  0  0  0  0  0  0
  149.3141  141.9477  156.6434 H   0  0  0  0  0  0  0  0  0  0  0  0
  147.4751  140.4182  155.8901 H   0  0  0  0  0  0  0  0  0  0  0  0
  149.8154  137.4007  153.0567 H   0  0  0  0  0  0  0  0  0  0  0  0
  151.1104  135.6400  153.8286 H   0  0  0  0  0  0  0  0  0  0  0  0
  151.7442  136.6352  155.1172 H   0  0  0  0  0  0  0  0  0  0  0  0
  149.9748  136.1229  156.5639 H   0  0  0  0  0  0  0  0  0  0  0  0
  147.7354  135.4849  156.0035 H   0  0  0  0  0  0  0  0  0  0  0  0
  148.1472  136.8484  154.9839 H   0  0  0  0  0  0  0  0  0  0  0  0
  145.9828  134.8129  154.3397 H   0  0  0  0  0  0  0  0  0  0  0  0
  146.4437  136.2053  153.3800 H   0  0  0  0  0  0  0  0  0  0  0  0
  145.3264  134.4659  151.9739 H   0  0  0  0  0  0  0  0  0  0  0  0
  146.9598  134.7791  151.4360 H   0  0  0  0  0  0  0  0  0  0  0  0
  146.0493  132.4271  153.1678 H   0  0  0  0  0  0  0  0  0  0  0  0
  146.5754  132.3393  151.5009 H   0  0  0  0  0  0  0  0  0  0  0  0
  148.4009  131.6835  153.0880 H   0  0  0  0  0  0  0  0  0  0  0  0
  148.8465  133.0650  152.1158 H   0  0  0  0  0  0  0  0  0  0  0  0
  147.8111  133.1592  154.9927 H   0  0  0  0  0  0  0  0  0  0  0  0
  150.1485  132.4203  154.8798 H   0  0  0  0  0  0  0  0  0  0  0  0
  150.5812  133.7267  153.8090 H   0  0  0  0  0  0  0  0  0  0  0  0
  148.6428  135.3291  153.2315 H   0  0  0  0  0  0  0  0  0  0  0  0
  1  2  3  0  0  0  0
  2  3  1  0  0  0  0
  3  8  1  0  0  0  0
  3  4  2  0  0  0  0
  4  5  1  0  0  0  0
  4 21  1  0  0  0  0
  5  6  2  0  0  0  0
  5 22  1  0  0  0  0
  6  7  1  0  0  0  0
  6 23  1  0  0  0  0
  7  8  2  0  0  0  0
  8  9  1  0  0  0  0
  9 10  1  0  0  0  0
  9 24  1  0  0  0  0
 10 11  1  0  0  0  0
 10 25  1  0  0  0  0
 10 26  1  0  0  0  0
 11 20  1  0  0  0  0
 11 12  1  0  0  0  0
 11 27  1  0  0  0  0
 12 13  1  0  0  0  0
 12 28  1  0  0  0  0
 12 29  1  0  0  0  0
 13 18  1  0  0  0  0
 13 14  1  0  0  0  0
 13 41  1  0  0  0  0
 14 15  1  0  0  0  0
 14 30  1  0  0  0  0
 14 31  1  0  0  0  0
 15 16  1  0  0  0  0
 15 32  1  0  0  0  0
 15 33  1  0  0  0  0
 16 17  1  0  0  0  0
 16 34  1  0  0  0  0
 16 35  1  0  0  0  0
 17 18  1  0  0  0  0
 17 36  1  0  0  0  0
 17 37  1  0  0  0  0
 18 19  1  0  0  0  0
 18 38  1  0  0  0  0
 19 20  1  0  0  0  0
 19 39  1  0  0  0  0
 19 40  1  0  0  0  0
M  CHG  1  13   1
M  END
> <s_m_source_file>
AV-unprocessed.smi

> <i_m_source_file_index>
2439

> <i_lp_mmshare_version>
43012

> <i_f3d_flags>
0

> <s_epik_input>
TiNDYzFbY0hdW2NIXVtjSF1uYzFbTkhdW0NIMl1bQ0BIXShbQ0gyXTIpT1tDSDJdW0NAQEhdKE4yMylbQ0gyXVtDSDJdW0NIMl1bQ0gyXTM=

> <s_epik_cmdline>
J2VwaWtfcHl0aG9uJywgJy1waCcsICc3LjAnLCAnLXRuJywgJzgnLCAnLW1hJywgJzIwMCcsICctbWV0YWxfYmluZGluZycsICctaW1hZScsICc8aW5maWxlLm1hZT4nLCAnLW9tYWUnLCAnPG91dGZpbGUubWFlPic=

> <r_epik_Ionization_Penalty>
0.0803594

> <r_epik_Ionization_Penalty_Charging>
0.0803403

> <r_epik_Ionization_Penalty_Neutral>
1.90988e-05

> <r_epik_State_Penalty>
0.0711481

> <r_epik_Charging_Adjusted_Penalty>
0.151488

> <i_epik_Tot_Q>
1

> <i_epik_Tot_abs_Q>
1

> <r_epik_Metal_State_Penalty>
0.0711482

> <b_epik_Metal_Only>
0

> <s_lp_Force_Field>
OPLS_2005

> <r_lp_Energy>
31.556

> <b_lp_Chiralities_Consistent>
1

> <s_lp_Variant>
AV-unprocessed.smi:2439-2

> <Gold.Version>
5.8.1

> <Gold.Id.Protein>
6NUR|6NUR_protein|mol2

> <Gold.PLP.Fitness>
41.1622

> <Gold.PLP.PLP>
-31.3540

> <Gold.PLP.part.hbond>
-3.6595

> <Gold.PLP.part.metal>
0.0000

> <Gold.PLP.part.buried>
-2.9234

> <Gold.PLP.part.nonpolar>
-26.3476

> <Gold.PLP.part.repulsive>
0.1628

> <Gold.PLP.ligand.clash>
0.0000

> <Gold.PLP.ligand.torsion>
1.0753

> <Gold.PLP.Chemscore.Hbond>
3.9840

> <Gold.PLP.Chemscore.CHOScore>
0.0000

> <Gold.PLP.Chemscore.Metal>
0.0000

> <Gold.Chemscore.Hbonds>
donor molecule, donor type, donor heavy atom, donor atom, acceptor molecule, acceptor atom, score
      L1  H     9    24       P1  7948  0.93
      L1  H    13    41       P1  7948  2.00
      P1  H  7997  8010       L1     1  0.86

> <Gold.PLP.Chemscore.Internal.Correction>
0.0068

> <Gold.Rescore>
     Score         DG    S(hbond)    S(metal)    S(lipo)     H(rot)  DE(clash)    DE(int)     intcor
     16.75     -17.83       2.65        0.00      57.64       1.27       0.00       1.08       ----

> <Gold.Chemscore.Fitness>
16.7467

> <Gold.Chemscore.DG>
-17.8286

> <Gold.Chemscore.ZeroCoef>
-5.4800

> <Gold.Chemscore.Hbond>
2.6482

> <Gold.Chemscore.Metal>
0.0000

> <Gold.Chemscore.Lipo>
57.6440

> <Gold.Chemscore.Internal_Hbond>
0.0000

> <Gold.Chemscore.DEClash>
0.0029

> <Gold.Chemscore.DEInternal>
1.0790

> <Gold.Chemscore.Rot>
1.2659

> <Gold.Chemscore.Internal.Correction>
   9.000000E+99

> <Gold.Chemscore.Hbonds>
donor molecule, donor type, donor heavy atom, donor atom, acceptor molecule, acceptor atom, score
      L1  H     9    24       P1  7948  0.36
      L1  H    13    41       P1  7948  0.87
      P1  H  7997  8010       L1     1  0.19

> <Gold.Chemscore.Hbond.Weighted>
-8.8450

> <Gold.Chemscore.Metal.Weighted>
-0.0000

> <Gold.Chemscore.Lipo.Weighted>
-6.7444

> <Gold.Chemscore.Internal_Hbond.Weighted>
0.0000

> <Gold.Chemscore.DEClash.Weighted>
0.0029

> <Gold.Chemscore.DEInternal.Weighted>
1.0790

> <Gold.Chemscore.Rot.Weighted>
3.2408

> <Gold.Chemscore.Internal.Correction.Weighted>
   9.000000E+99

> <Gold.Protein.RotatedTorsions>
[ 6907 6896 6895 6894 ] final -160.86 input  -60.11 | X-H torsion
[ 7974 7965 7964 7962 ] final  137.94 input  175.53 | X-H torsion
[ 8008 7997 7996 7995 ] final  113.91 input   59.86 | X-H torsion
[ 10167 10162 10161 10158 ] final -127.55 input  -65.29 | X-H torsion
[ 10718 10713 10712 10709 ] final  -32.82 input   66.30 | X-H torsion
[ 10763 10752 10751 10750 ] final   80.66 input  -60.55 | X-H torsion
[ 11005 11000 10999 10996 ] final   51.79 input  -57.11 | X-H torsion

> <Gold.Protein.ActiveResidues>
 VAL166  LYS551  ARG553  GLY616  TRP617  ASP618  TYR619  PRO620  LYS621  CYS622 
 ASP623  PHE694  ASN695  SER759  ASP760  ASP761  ALA762  ILE779  LEU786  VAL792 
 PHE793  MET794  SER795  GLU796  ALA797  LYS798  CYS799  TRP800  GLU811  SER814 

> <Gold.Protein.RotatedAtoms>
  151.3556  133.3908  159.2684 H   0  0  0  0  0  0  0  0  0  0  0  0  # atno 6907 bound_to 6896
  150.9766  134.9130  159.7830 H   0  0  0  0  0  0  0  0  0  0  0  0  # atno 6908 bound_to 6896
  152.5203  134.3519  159.9306 H   0  0  0  0  0  0  0  0  0  0  0  0  # atno 6909 bound_to 6896
  144.9420  139.4920  143.5567 H   0  0  0  0  0  0  0  0  0  0  0  0  # atno 7974 bound_to 7965
  156.2288  140.2970  156.0135 H   0  0  0  0  0  0  0  0  0  0  0  0  # atno 8008 bound_to 7997
  155.2283  140.0418  157.2975 H   0  0  0  0  0  0  0  0  0  0  0  0  # atno 8009 bound_to 7997
  154.5960  140.2414  155.7863 H   0  0  0  0  0  0  0  0  0  0  0  0  # atno 8010 bound_to 7997
  139.9596  143.5964  152.2449 H   0  0  0  0  0  0  0  0  0  0  0  0  # atno 10167 bound_to 10162
  156.3702  130.4338  149.7551 H   0  0  0  0  0  0  0  0  0  0  0  0  # atno 10718 bound_to 10713
  153.1052  135.4794  154.8938 H   0  0  0  0  0  0  0  0  0  0  0  0  # atno 10763 bound_to 10752
  154.7422  135.3085  154.8710 H   0  0  0  0  0  0  0  0  0  0  0  0  # atno 10764 bound_to 10752
  153.9315  135.6844  153.4799 H   0  0  0  0  0  0  0  0  0  0  0  0  # atno 10765 bound_to 10752
  140.0903  134.5218  155.8858 H   0  0  0  0  0  0  0  0  0  0  0  0  # atno 11005 bound_to 11000
  146.3289  139.8445  142.8884 LP  0  0  0  0  0  0  0  0  0  0  0  0  # atno 17320 bound_to 7965
  145.2977  141.0185  143.3626 LP  0  0  0  0  0  0  0  0  0  0  0  0  # atno 17321 bound_to 7965
  139.6564  144.7662  151.2047 LP  0  0  0  0  0  0  0  0  0  0  0  0  # atno 17342 bound_to 10162
  140.7557  143.6079  150.8634 LP  0  0  0  0  0  0  0  0  0  0  0  0  # atno 17343 bound_to 10162
  156.4682  130.7984  151.3002 LP  0  0  0  0  0  0  0  0  0  0  0  0  # atno 17370 bound_to 10713
  157.7483  131.0044  150.3075 LP  0  0  0  0  0  0  0  0  0  0  0  0  # atno 17371 bound_to 10713
  141.2076  133.6665  156.6315 LP  0  0  0  0  0  0  0  0  0  0  0  0  # atno 17394 bound_to 11000
  140.3361  134.7888  157.4363 LP  0  0  0  0  0  0  0  0  0  0  0  0  # atno 17395 bound_to 11000

$$$$
