AV-unprocessed.smi:2176|AV-procd|sdf|8846|dock10
  -GOLD-   2272012 33D 1   1.00000     0.00000
 Structure written by MMmdl.
 29 30  0  0  0  0  0  0  0  0  1 V2000
  152.1755  141.8156  158.3346 O   0  0  0  0  0  0  0  0  0  0  0  0
  151.2821  142.2055  157.5813 C   0  0  0  0  0  0  0  0  0  0  0  0
  150.3361  141.2042  156.9018 C   0  0  0  0  0  0  0  0  0  0  0  0
  150.8930  139.8457  156.8206 N   0  0  0  0  0  0  0  0  0  0  0  0
  151.0901  139.0995  157.9740 C   0  0  0  0  0  0  0  0  0  0  0  0
  151.5891  137.8407  157.9715 C   0  0  0  0  0  0  0  0  0  0  0  0
  151.9533  137.1929  156.7159 C   0  0  0  0  0  0  0  0  0  0  0  0
  152.4156  136.0592  156.6106 O   0  0  0  0  0  0  0  0  0  0  0  0
  151.7372  137.9744  155.5778 N   0  0  0  0  0  0  0  0  0  0  0  0
  151.2213  139.2713  155.5732 C   0  0  0  0  0  0  0  0  0  0  0  0
  151.0664  139.8713  154.5102 O   0  0  0  0  0  0  0  0  0  0  0  0
  151.0784  143.4979  157.2829 N   0  0  0  0  0  0  0  0  0  0  0  0
  151.8554  144.6244  157.7863 C   0  0  0  0  0  0  0  0  0  0  0  0
  152.0723  144.5974  159.2849 C   0  0  0  0  0  0  0  0  0  0  0  0
  150.9007  144.7277  160.2296 C   0  0  0  0  0  0  0  0  0  0  0  0
  151.9092  145.8459  160.1203 C   0  0  0  0  0  0  0  0  0  0  0  0
  151.9721  137.5662  154.6847 H   0  0  0  0  0  0  0  0  0  0  0  0
  149.3779  141.1871  157.4253 H   0  0  0  0  0  0  0  0  0  0  0  0
  150.1098  141.5786  155.9023 H   0  0  0  0  0  0  0  0  0  0  0  0
  150.8303  139.5374  158.9274 H   0  0  0  0  0  0  0  0  0  0  0  0
  151.7186  137.3096  158.9034 H   0  0  0  0  0  0  0  0  0  0  0  0
  150.3233  143.7193  156.6503 H   0  0  0  0  0  0  0  0  0  0  0  0
  152.8223  144.6244  157.2819 H   0  0  0  0  0  0  0  0  0  0  0  0
  151.3815  145.5744  157.5357 H   0  0  0  0  0  0  0  0  0  0  0  0
  152.8502  143.9047  159.6012 H   0  0  0  0  0  0  0  0  0  0  0  0
  149.9163  144.8967  159.7974 H   0  0  0  0  0  0  0  0  0  0  0  0
  150.9150  144.1243  161.1350 H   0  0  0  0  0  0  0  0  0  0  0  0
  152.5973  145.9867  160.9515 H   0  0  0  0  0  0  0  0  0  0  0  0
  151.5949  146.7576  159.6159 H   0  0  0  0  0  0  0  0  0  0  0  0
  1  2  2  0  0  0  0
  2  3  1  0  0  0  0
  2 12  1  0  0  0  0
  3  4  1  0  0  0  0
  3 18  1  0  0  0  0
  3 19  1  0  0  0  0
  4 10  1  0  0  0  0
  4  5  1  0  0  0  0
  5  6  2  0  0  0  0
  5 20  1  0  0  0  0
  6  7  1  0  0  0  0
  6 21  1  0  0  0  0
  7  8  2  0  0  0  0
  7  9  1  0  0  0  0
  9 17  1  0  0  0  0
  9 10  1  0  0  0  0
 10 11  2  0  0  0  0
 12 13  1  0  0  0  0
 12 22  1  0  0  0  0
 13 14  1  0  0  0  0
 13 23  1  0  0  0  0
 13 24  1  0  0  0  0
 14 16  1  0  0  0  0
 14 15  1  0  0  0  0
 14 25  1  0  0  0  0
 15 16  1  0  0  0  0
 15 26  1  0  0  0  0
 15 27  1  0  0  0  0
 16 28  1  0  0  0  0
 16 29  1  0  0  0  0
M  END
> <s_m_source_file>
AV-unprocessed.smi

> <i_m_source_file_index>
2176

> <i_lp_mmshare_version>
43012

> <i_f3d_flags>
0

> <s_epik_input>
W0NIMl0xW0NIMl1bQ0hdMVtDSDJdW05IXUMoPU8pW0NIMl1uMltjSF1bY0hdYyg9TylbbkhdYzI9Tw==

> <s_epik_cmdline>
J2VwaWtfcHl0aG9uJywgJy1waCcsICc3LjAnLCAnLXRuJywgJzgnLCAnLW1hJywgJzIwMCcsICctbWV0YWxfYmluZGluZycsICctaW1hZScsICc8aW5maWxlLm1hZT4nLCAnLW9tYWUnLCAnPG91dGZpbGUubWFlPic=

> <r_lp_tautomer_probability>
0.999537

> <r_epik_Ionization_Penalty>
0.00328917

> <r_epik_Ionization_Penalty_Charging>
0.00328916

> <r_epik_Ionization_Penalty_Neutral>
1.93017e-08

> <r_epik_State_Penalty>
0.00232387

> <r_epik_Charging_Adjusted_Penalty>
0.00561303

> <i_epik_Tot_Q>
0

> <i_epik_Tot_abs_Q>
0

> <r_epik_Metal_State_Penalty>
0.365274

> <b_epik_Metal_Only>
0

> <s_lp_Force_Field>
OPLS_2005

> <r_lp_Energy>
12.7002

> <b_lp_Chiralities_Consistent>
1

> <s_lp_Variant>
AV-unprocessed.smi:2176-1

> <Gold.Version>
5.8.1

> <Gold.Id.Protein>
6NUR|6NUR_protein|mol2

> <Gold.PLP.Fitness>
39.7317

> <Gold.PLP.PLP>
-31.7063

> <Gold.PLP.part.hbond>
-3.0000

> <Gold.PLP.part.metal>
0.0000

> <Gold.PLP.part.buried>
-5.5929

> <Gold.PLP.part.nonpolar>
-23.0520

> <Gold.PLP.part.repulsive>
0.2194

> <Gold.PLP.ligand.clash>
0.0000

> <Gold.PLP.ligand.torsion>
0.7481

> <Gold.PLP.Chemscore.Hbond>
2.9913

> <Gold.PLP.Chemscore.CHOScore>
0.0000

> <Gold.PLP.Chemscore.Metal>
0.0000

> <Gold.Chemscore.Hbonds>
donor molecule, donor type, donor heavy atom, donor atom, acceptor molecule, acceptor atom, score
      L1  H    12    22       P1  8028  1.00
      P1  H  7989  7998       L1    11  0.99
      P1  H 10752 10765       L1     8  1.00

> <Gold.PLP.Chemscore.Internal.Correction>
0.5478

> <Gold.Rescore>
     Score         DG    S(hbond)    S(metal)    S(lipo)     H(rot)  DE(clash)    DE(int)     intcor
     16.44     -17.35       2.94        0.00      61.96       2.04       0.17       0.75       ----

> <Gold.Chemscore.Fitness>
16.4443

> <Gold.Chemscore.DG>
-17.3548

> <Gold.Chemscore.ZeroCoef>
-5.4800

> <Gold.Chemscore.Hbond>
2.9445

> <Gold.Chemscore.Metal>
0.0000

> <Gold.Chemscore.Lipo>
61.9642

> <Gold.Chemscore.Internal_Hbond>
0.0000

> <Gold.Chemscore.DEClash>
0.1653

> <Gold.Chemscore.DEInternal>
0.7452

> <Gold.Chemscore.Rot>
2.0351

> <Gold.Chemscore.Internal.Correction>
   9.000000E+99

> <Gold.Chemscore.Hbonds>
donor molecule, donor type, donor heavy atom, donor atom, acceptor molecule, acceptor atom, score
      L1  H    12    22       P1  8028  0.96
      P1  H  7989  7998       L1    11  0.92
      P1  H 10752 10765       L1     8  1.00

> <Gold.Chemscore.Hbond.Weighted>
-9.8348

> <Gold.Chemscore.Metal.Weighted>
-0.0000

> <Gold.Chemscore.Lipo.Weighted>
-7.2498

> <Gold.Chemscore.Internal_Hbond.Weighted>
0.0000

> <Gold.Chemscore.DEClash.Weighted>
0.1653

> <Gold.Chemscore.DEInternal.Weighted>
0.7452

> <Gold.Chemscore.Rot.Weighted>
5.2098

> <Gold.Chemscore.Internal.Correction.Weighted>
   9.000000E+99

> <Gold.Protein.RotatedTorsions>
[ 6907 6896 6895 6894 ] final   48.96 input  -60.11 | X-H torsion
[ 7974 7965 7964 7962 ] final -121.94 input  175.53 | X-H torsion
[ 8008 7997 7996 7995 ] final  -55.88 input   59.86 | X-H torsion
[ 10167 10162 10161 10158 ] final   96.30 input  -65.29 | X-H torsion
[ 10718 10713 10712 10709 ] final -139.24 input   66.30 | X-H torsion
[ 10763 10752 10751 10750 ] final -131.76 input  -60.55 | X-H torsion
[ 11005 11000 10999 10996 ] final  -18.24 input  -57.11 | X-H torsion

> <Gold.Protein.ActiveResidues>
 VAL166  LYS551  ARG553  GLY616  TRP617  ASP618  TYR619  PRO620  LYS621  CYS622 
 ASP623  PHE694  ASN695  SER759  ASP760  ASP761  ALA762  ILE779  LEU786  VAL792 
 PHE793  MET794  SER795  GLU796  ALA797  LYS798  CYS799  TRP800  GLU811  SER814 

> <Gold.Protein.RotatedAtoms>
  152.2854  134.7781  160.0388 H   0  0  0  0  0  0  0  0  0  0  0  0  # atno 6907 bound_to 6896
  151.8346  133.3408  159.3632 H   0  0  0  0  0  0  0  0  0  0  0  0  # atno 6908 bound_to 6896
  150.7207  134.5378  159.5777 H   0  0  0  0  0  0  0  0  0  0  0  0  # atno 6909 bound_to 6896
  145.0348  140.8097  143.4301 H   0  0  0  0  0  0  0  0  0  0  0  0  # atno 7974 bound_to 7965
  154.4210  140.1142  156.5547 H   0  0  0  0  0  0  0  0  0  0  0  0  # atno 8008 bound_to 7997
  155.6373  140.3496  155.4684 H   0  0  0  0  0  0  0  0  0  0  0  0  # atno 8009 bound_to 7997
  155.9899  140.1177  157.0637 H   0  0  0  0  0  0  0  0  0  0  0  0  # atno 8010 bound_to 7997
  139.7907  144.6853  150.9896 H   0  0  0  0  0  0  0  0  0  0  0  0  # atno 10167 bound_to 10162
  156.3085  130.7468  151.1538 H   0  0  0  0  0  0  0  0  0  0  0  0  # atno 10718 bound_to 10713
  154.8748  135.3819  154.4300 H   0  0  0  0  0  0  0  0  0  0  0  0  # atno 10763 bound_to 10752
  153.4995  135.7030  153.5845 H   0  0  0  0  0  0  0  0  0  0  0  0  # atno 10764 bound_to 10752
  153.4183  135.3908  155.2061 H   0  0  0  0  0  0  0  0  0  0  0  0  # atno 10765 bound_to 10752
  140.8248  133.8041  155.9697 H   0  0  0  0  0  0  0  0  0  0  0  0  # atno 11005 bound_to 11000
  145.1723  139.2397  143.5335 LP  0  0  0  0  0  0  0  0  0  0  0  0  # atno 17320 bound_to 7965
  146.3503  140.1477  142.8593 LP  0  0  0  0  0  0  0  0  0  0  0  0  # atno 17321 bound_to 7965
  140.7820  143.4383  151.0589 LP  0  0  0  0  0  0  0  0  0  0  0  0  # atno 17342 bound_to 10162
  139.8060  143.8017  152.3167 LP  0  0  0  0  0  0  0  0  0  0  0  0  # atno 17343 bound_to 10162
  157.7385  131.0540  150.5289 LP  0  0  0  0  0  0  0  0  0  0  0  0  # atno 17370 bound_to 10713
  156.5426  130.4212  149.6146 LP  0  0  0  0  0  0  0  0  0  0  0  0  # atno 17371 bound_to 10713
  140.9061  134.2319  157.5013 LP  0  0  0  0  0  0  0  0  0  0  0  0  # atno 17394 bound_to 11000
  139.8707  134.9729  156.4788 LP  0  0  0  0  0  0  0  0  0  0  0  0  # atno 17395 bound_to 11000

$$$$
