#       Name:                AV-unprocessed.smi:761
#       Creating user name   scv26
#       Creation time:       Fri Mar 27 01:02:33 2020


#       File generated by GOLD software.
#

@<TRIPOS>MOLECULE
AV-unprocessed.smi:761
    37    38     1
SMALL
NO_CHARGES


@<TRIPOS>ATOM
      1 ****        -0.4807   1.0341   0.6635 O.2            1 S1                 0.0000
      2 ****        -1.0088  -0.0762   0.7223 C.2            1 S1                 0.0000
      3 ****        -0.3106  -1.2206   0.7556 N.am           1 S1                 0.0000
      4 ****         1.1456  -1.3032   0.7544 C.3            1 S1                 0.0000
      5 ****         1.7236  -1.0994  -0.6586 C.3            1 S1                 0.0000
      6 ****         3.2030  -1.1735  -0.6698 N.4            1 S1                 1.0000
      7 ****         3.8899  -0.0575   0.0430 C.3            1 S1                 0.0000
      8 ****         5.0749   0.2348  -0.8330 C.2            1 S1                 0.0000
      9 ****         5.0219  -0.4537  -1.9676 C.2            1 S1                 0.0000
     10 ****         3.7921  -1.3147  -2.0315 C.3            1 S1                 0.0000
     11 ****        -2.3329  -0.3079   0.7401 N.am           1 S1                 0.0000
     12 ****        -3.3963   0.6359   0.7407 C.ar           1 S1                 0.0000
     13 ****        -4.6681   0.1889   0.3180 C.ar           1 S1                 0.0000
     14 ****        -5.7561   1.0855   0.3187 C.ar           1 S1                 0.0000
     15 ****        -5.5781   2.3588   0.7311 N.pl3          1 S1                 1.0000
     16 ****        -4.3862   2.8281   1.1575 C.ar           1 S1                 0.0000
     17 ****        -3.2616   1.9781   1.1793 C.ar           1 S1                 0.0000
     18 ****        -0.8183  -2.0927   0.7968 H              1 S1                 0.0000
     19 ****         1.5507  -0.5712   1.4552 H              1 S1                 0.0000
     20 ****         1.4302  -2.2847   1.1345 H              1 S1                 0.0000
     21 ****         1.3305  -1.8764  -1.3160 H              1 S1                 0.0000
     22 ****         1.4076  -0.1431  -1.0788 H              1 S1                 0.0000
     23 ****         3.2651   0.8338   0.1186 H              1 S1                 0.0000
     24 ****         4.1980  -0.3645   1.0428 H              1 S1                 0.0000
     25 ****         5.8467   0.9384  -0.5569 H              1 S1                 0.0000
     26 ****         5.7434  -0.4044  -2.7698 H              1 S1                 0.0000
     27 ****         4.0410  -2.3549  -2.2431 H              1 S1                 0.0000
     28 ****         3.1270  -0.9392  -2.8105 H              1 S1                 0.0000
     29 ****        -2.6143  -1.2766   0.7019 H              1 S1                 0.0000
     30 ****        -4.8127  -0.8307  -0.0094 H              1 S1                 0.0000
     31 ****        -6.7565   0.8231   0.0068 H              1 S1                 0.0000
     32 ****        -4.3681   3.8611   1.4735 H              1 S1                 0.0000
     33 ****        -2.3245   2.3697   1.5443 H              1 S1                 0.0000
     34 ****         3.4603  -2.0175  -0.1782 H              1 S1                 0.0000
     35 ****        -6.3787   2.9917   0.7253 H              1 S1                 0.0000
     36 ****         0.5159   1.1131   0.6382 LP             1 S1                 0.0000
     37 ****        -1.0482   1.8572   0.6410 LP             1 S1                 0.0000
@<TRIPOS>BOND
    1    1    2 2     
    2    2    3 am    
    3    2   11 am    
    4    3    4 1     
    5    3   18 1     
    6    4    5 1     
    7    4   19 1     
    8    4   20 1     
    9    5    6 1     
   10    5   21 1     
   11    5   22 1     
   12    6   10 1     
   13    6    7 1     
   14    6   34 1     
   15    7    8 1     
   16    7   23 1     
   17    7   24 1     
   18    8    9 2     
   19    8   25 1     
   20    9   10 1     
   21    9   26 1     
   22   10   27 1     
   23   10   28 1     
   24   11   12 1     
   25   11   29 1     
   26   12   17 ar    
   27   12   13 ar    
   28   13   14 ar    
   29   13   30 1     
   30   14   15 ar    
   31   14   31 1     
   32   15   16 ar    
   33   15   35 1     
   34   16   17 ar    
   35   16   32 1     
   36   17   33 1     
   37    1   36 1     
   38    1   37 1     
@<TRIPOS>SUBSTRUCTURE
      1 S1             1
@<TRIPOS>SET
LONE_PAIRS      STATIC     ATOMS    <user>   **** ""
2 36 37
DONOR_HYDROGENS      STATIC     ATOMS    <user>   **** ""
4 18 34 29 35
ATOM$BLUE        STATIC     ATOMS    COLORGROUP SYSTEM
2 36 37
ATOM$RED        STATIC     ATOMS    COLORGROUP SYSTEM
4 18 34 29 35
