AV-unprocessed.smi:1484|AV-procd|sdf|5994|dock4
  -GOLD-   22720 6 83D 1   1.00000     0.00000
 Structure written by MMmdl.
 37 38  0  0  0  0  0  0  0  0  2 V2000
  151.8456  145.4109  159.7341 C   0  0  0  0  0  0  0  0  0  0  0  0
  152.2890  144.0508  159.1761 C   0  0  1  0  0  0  0  0  0  0  0  0
  152.9219  143.1712  160.2714 C   0  0  0  0  0  0  0  0  0  0  0  0
  153.3661  141.8093  159.7146 C   0  0  0  0  0  0  0  0  0  0  0  0
  152.2004  141.0768  159.0329 C   0  0  0  0  0  0  0  0  0  0  0  0
  151.5575  141.9447  157.9353 C   0  0  1  0  0  0  0  0  0  0  0  0
  150.4039  141.2514  157.3684 N   0  0  0  0  0  0  0  0  0  0  0  0
  150.3494  140.6630  156.1631 C   0  0  0  0  0  0  0  0  0  0  0  0
  151.2953  140.6501  155.3736 O   0  0  0  0  0  0  0  0  0  0  0  0
  149.0104  139.9908  155.8187 C   0  0  0  0  0  0  0  0  0  0  0  0
  147.9262  140.9288  155.4907 N   0  0  0  0  0  0  0  0  0  0  0  0
  146.7478  140.7886  156.3419 N   0  5  0  0  0  0  0  0  0  0  0  0
  145.6869  141.6158  156.1463 C   0  0  0  0  0  0  0  0  0  0  0  0
  144.6688  141.5674  156.8327 O   0  0  0  0  0  0  0  0  0  0  0  0
  145.7696  142.5927  155.0732 C   0  0  0  0  0  0  0  0  0  0  0  0
  146.8598  142.6826  154.2863 C   0  0  0  0  0  0  0  0  0  0  0  0
  148.0209  141.8187  154.4616 C   0  0  0  0  0  0  0  0  0  0  0  0
  149.0156  141.8884  153.7393 O   0  0  0  0  0  0  0  0  0  0  0  0
  151.1188  143.3094  158.5001 C   0  0  0  0  0  0  0  0  0  0  0  0
  151.0790  145.2952  160.5009 H   0  0  0  0  0  0  0  0  0  0  0  0
  151.4351  146.0429  158.9460 H   0  0  0  0  0  0  0  0  0  0  0  0
  152.6849  145.9449  160.1805 H   0  0  0  0  0  0  0  0  0  0  0  0
  153.0489  144.2408  158.4164 H   0  0  0  0  0  0  0  0  0  0  0  0
  153.7786  143.6820  160.7122 H   0  0  0  0  0  0  0  0  0  0  0  0
  152.2058  143.0163  161.0797 H   0  0  0  0  0  0  0  0  0  0  0  0
  154.1758  141.9531  158.9983 H   0  0  0  0  0  0  0  0  0  0  0  0
  153.7708  141.1938  160.5185 H   0  0  0  0  0  0  0  0  0  0  0  0
  152.5549  140.1373  158.6070 H   0  0  0  0  0  0  0  0  0  0  0  0
  151.4526  140.8138  159.7826 H   0  0  0  0  0  0  0  0  0  0  0  0
  152.3058  142.1283  157.1620 H   0  0  0  0  0  0  0  0  0  0  0  0
  149.5755  141.2096  157.9438 H   0  0  0  0  0  0  0  0  0  0  0  0
  149.1675  139.3064  154.9833 H   0  0  0  0  0  0  0  0  0  0  0  0
  148.7201  139.3592  156.6604 H   0  0  0  0  0  0  0  0  0  0  0  0
  144.9374  143.2596  154.9016 H   0  0  0  0  0  0  0  0  0  0  0  0
  146.8771  143.4220  153.4995 H   0  0  0  0  0  0  0  0  0  0  0  0
  150.3129  143.1668  159.2218 H   0  0  0  0  0  0  0  0  0  0  0  0
  150.7082  143.9229  157.6969 H   0  0  0  0  0  0  0  0  0  0  0  0
  1  2  1  0  0  0  0
  1 20  1  0  0  0  0
  1 21  1  0  0  0  0
  1 22  1  0  0  0  0
  2 19  1  0  0  0  0
  2  3  1  0  0  0  0
  2 23  1  0  0  0  0
  3  4  1  0  0  0  0
  3 24  1  0  0  0  0
  3 25  1  0  0  0  0
  4  5  1  0  0  0  0
  4 26  1  0  0  0  0
  4 27  1  0  0  0  0
  5  6  1  0  0  0  0
  5 28  1  0  0  0  0
  5 29  1  0  0  0  0
  6  7  1  0  0  0  0
  6 19  1  0  0  0  0
  6 30  1  0  0  0  0
  7  8  1  0  0  0  0
  7 31  1  0  0  0  0
  8  9  2  0  0  0  0
  8 10  1  0  0  0  0
 10 32  1  0  0  0  0
 10 33  1  0  0  0  0
 10 11  1  0  0  0  0
 11 12  1  0  0  0  0
 11 17  1  0  0  0  0
 12 13  1  0  0  0  0
 13 14  2  0  0  0  0
 13 15  1  0  0  0  0
 15 34  1  0  0  0  0
 15 16  2  0  0  0  0
 16 35  1  0  0  0  0
 16 17  1  0  0  0  0
 17 18  2  0  0  0  0
 19 36  1  0  0  0  0
 19 37  1  0  0  0  0
M  CHG  1  12  -1
M  END
> <s_m_source_file>
AV-unprocessed.smi

> <i_m_source_file_index>
1484

> <i_lp_mmshare_version>
43012

> <i_f3d_flags>
0

> <s_epik_input>
W0NIM11bQ0BASF0xW0NIMl1bQ0gyXVtDSDJdW0NASF0oW0NIMl0xKVtOSF1DKD1PKVtDSDJdbjJbbkhdYyg9TylbY0hdW2NIXWMyPU8=

> <s_epik_cmdline>
J2VwaWtfcHl0aG9uJywgJy1waCcsICc3LjAnLCAnLXRuJywgJzgnLCAnLW1hJywgJzIwMCcsICctbWV0YWxfYmluZGluZycsICctaW1hZScsICc8aW5maWxlLm1hZT4nLCAnLW9tYWUnLCAnPG91dGZpbGUubWFlPic=

> <r_lp_tautomer_probability>
1

> <r_epik_Ionization_Penalty>
0.101352

> <r_epik_Ionization_Penalty_Charging>
0.101352

> <r_epik_Ionization_Penalty_Neutral>
1.90469e-08

> <r_epik_State_Penalty>
0.0358555

> <r_epik_Charging_Adjusted_Penalty>
0.137208

> <i_epik_Tot_Q>
-1

> <i_epik_Tot_abs_Q>
1

> <r_epik_Metal_State_Penalty>
0.0358555

> <b_epik_Metal_Only>
0

> <s_lp_Force_Field>
OPLS_2005

> <r_lp_Energy>
25.5617

> <b_lp_Chiralities_Consistent>
1

> <s_lp_Variant>
AV-unprocessed.smi:1484-2

> <Gold.Version>
5.8.1

> <Gold.Id.Protein>
6NUR|6NUR_protein|mol2

> <Gold.PLP.Fitness>
43.1235

> <Gold.PLP.PLP>
-38.9993

> <Gold.PLP.part.hbond>
-2.6852

> <Gold.PLP.part.metal>
0.0000

> <Gold.PLP.part.buried>
-3.8563

> <Gold.PLP.part.nonpolar>
-32.4078

> <Gold.PLP.part.repulsive>
1.1943

> <Gold.PLP.ligand.clash>
0.0000

> <Gold.PLP.ligand.torsion>
0.3179

> <Gold.PLP.Chemscore.Hbond>
1.5840

> <Gold.PLP.Chemscore.CHOScore>
0.0000

> <Gold.PLP.Chemscore.Metal>
0.0000

> <Gold.Chemscore.Hbonds>
donor molecule, donor type, donor heavy atom, donor atom, acceptor molecule, acceptor atom, score
      P1  H  7989  7998       L1     9  0.82
      P1  H  8011  8017       L1    18  0.53

> <Gold.PLP.Chemscore.Internal.Correction>
0.0080

> <Gold.Rescore>
     Score         DG    S(hbond)    S(metal)    S(lipo)     H(rot)  DE(clash)    DE(int)     intcor
     16.75     -17.10       1.63        0.00      88.88       1.65       0.09       0.27       ----

> <Gold.Chemscore.Fitness>
16.7495

> <Gold.Chemscore.DG>
-17.1019

> <Gold.Chemscore.ZeroCoef>
-5.4800

> <Gold.Chemscore.Hbond>
1.6346

> <Gold.Chemscore.Metal>
0.0000

> <Gold.Chemscore.Lipo>
88.8778

> <Gold.Chemscore.Internal_Hbond>
0.0000

> <Gold.Chemscore.DEClash>
0.0852

> <Gold.Chemscore.DEInternal>
0.2671

> <Gold.Chemscore.Rot>
1.6549

> <Gold.Chemscore.Internal.Correction>
   9.000000E+99

> <Gold.Chemscore.Hbonds>
donor molecule, donor type, donor heavy atom, donor atom, acceptor molecule, acceptor atom, score
      P1  H  7989  7998       L1     9  0.81
      P1  H  8011  8017       L1    18  0.54

> <Gold.Chemscore.Hbond.Weighted>
-5.4596

> <Gold.Chemscore.Metal.Weighted>
-0.0000

> <Gold.Chemscore.Lipo.Weighted>
-10.3987

> <Gold.Chemscore.Internal_Hbond.Weighted>
0.0000

> <Gold.Chemscore.DEClash.Weighted>
0.0852

> <Gold.Chemscore.DEInternal.Weighted>
0.2671

> <Gold.Chemscore.Rot.Weighted>
4.2364

> <Gold.Chemscore.Internal.Correction.Weighted>
   9.000000E+99

> <Gold.Protein.RotatedTorsions>
[ 6907 6896 6895 6894 ] final  -96.27 input  -60.11 | X-H torsion
[ 7974 7965 7964 7962 ] final  174.26 input  175.53 | X-H torsion
[ 8008 7997 7996 7995 ] final  -29.33 input   59.86 | X-H torsion
[ 10167 10162 10161 10158 ] final  -26.95 input  -65.29 | X-H torsion
[ 10718 10713 10712 10709 ] final   70.75 input   66.30 | X-H torsion
[ 10763 10752 10751 10750 ] final  -10.06 input  -60.55 | X-H torsion
[ 11005 11000 10999 10996 ] final  -39.51 input  -57.11 | X-H torsion

> <Gold.Protein.ActiveResidues>
 VAL166  LYS551  ARG553  GLY616  TRP617  ASP618  TYR619  PRO620  LYS621  CYS622 
 ASP623  PHE694  ASN695  SER759  ASP760  ASP761  ALA762  ILE779  LEU786  VAL792 
 PHE793  MET794  SER795  GLU796  ALA797  LYS798  CYS799  TRP800  GLU811  SER814 

> <Gold.Protein.RotatedAtoms>
  150.6984  134.1529  159.4146 H   0  0  0  0  0  0  0  0  0  0  0  0  # atno 6907 bound_to 6896
  151.9511  135.0166  160.0551 H   0  0  0  0  0  0  0  0  0  0  0  0  # atno 6908 bound_to 6896
  152.2010  133.4806  159.5095 H   0  0  0  0  0  0  0  0  0  0  0  0  # atno 6909 bound_to 6896
  144.7225  139.9771  143.6438 H   0  0  0  0  0  0  0  0  0  0  0  0  # atno 7974 bound_to 7965
  154.4294  140.1821  156.1231 H   0  0  0  0  0  0  0  0  0  0  0  0  # atno 8008 bound_to 7997
  156.0127  140.3349  155.6932 H   0  0  0  0  0  0  0  0  0  0  0  0  # atno 8009 bound_to 7997
  155.6088  140.0648  157.2703 H   0  0  0  0  0  0  0  0  0  0  0  0  # atno 8010 bound_to 7997
  140.7280  143.4134  151.1068 H   0  0  0  0  0  0  0  0  0  0  0  0  # atno 10167 bound_to 10162
  157.6416  130.9493  150.0694 H   0  0  0  0  0  0  0  0  0  0  0  0  # atno 10718 bound_to 10713
  153.4637  135.7016  153.6035 H   0  0  0  0  0  0  0  0  0  0  0  0  # atno 10763 bound_to 10752
  153.4319  135.3800  155.2175 H   0  0  0  0  0  0  0  0  0  0  0  0  # atno 10764 bound_to 10752
  154.8727  135.3953  154.4066 H   0  0  0  0  0  0  0  0  0  0  0  0  # atno 10765 bound_to 10752
  141.0107  133.6909  156.2196 H   0  0  0  0  0  0  0  0  0  0  0  0  # atno 11005 bound_to 11000
  146.0517  139.3518  143.0635 LP  0  0  0  0  0  0  0  0  0  0  0  0  # atno 17320 bound_to 7965
  145.8206  140.9681  143.0901 LP  0  0  0  0  0  0  0  0  0  0  0  0  # atno 17321 bound_to 7965
  139.7771  143.8410  152.3131 LP  0  0  0  0  0  0  0  0  0  0  0  0  # atno 17342 bound_to 10162
  139.8348  144.7237  150.9405 LP  0  0  0  0  0  0  0  0  0  0  0  0  # atno 17343 bound_to 10162
  156.1702  130.3646  149.9175 LP  0  0  0  0  0  0  0  0  0  0  0  0  # atno 17370 bound_to 10713
  156.7152  130.8985  151.3613 LP  0  0  0  0  0  0  0  0  0  0  0  0  # atno 17371 bound_to 10713
  140.6739  134.4839  157.5588 LP  0  0  0  0  0  0  0  0  0  0  0  0  # atno 17394 bound_to 11000
  139.9088  134.8390  156.1605 LP  0  0  0  0  0  0  0  0  0  0  0  0  # atno 17395 bound_to 11000

$$$$
