AV-unprocessed.smi:2119|AV-procd|sdf|8634|dock9
  -GOLD-   2272011383D 1   1.00000     0.00000
 Structure written by MMmdl.
 48 50  0  0  0  0  0  0  0  0  2 V2000
  143.1525  136.0978  153.4502 O   0  0  0  0  0  0  0  0  0  0  0  0
  143.2196  137.2531  153.0308 C   0  0  0  0  0  0  0  0  0  0  0  0
  144.3571  137.8137  152.5976 N   0  0  0  0  0  0  0  0  0  0  0  0
  145.6560  137.1513  152.5795 C   0  0  0  0  0  0  0  0  0  0  0  0
  146.3514  137.0956  153.9702 C   0  0  2  0  0  0  0  0  0  0  0  0
  146.9617  138.4519  154.4249 C   0  0  2  0  0  0  0  0  0  0  0  0
  145.9341  139.5488  154.6583 C   0  0  0  0  0  0  0  0  0  0  0  0
  146.7926  140.8070  154.6446 C   0  0  0  0  0  0  0  0  0  0  0  0
  147.8277  140.5438  153.7065 O   0  0  0  0  0  0  0  0  0  0  0  0
  147.8705  139.1527  153.4055 C   0  0  0  0  0  0  0  0  0  0  0  0
  147.3913  136.0250  154.0251 N   0  3  0  0  0  0  0  0  0  0  0  0
  148.2359  136.0615  155.2439 C   0  0  0  0  0  0  0  0  0  0  0  0
  149.3937  135.0580  155.1112 C   0  0  0  0  0  0  0  0  0  0  0  0
  148.8745  133.7551  154.8701 O   0  0  0  0  0  0  0  0  0  0  0  0
  148.1260  133.6907  153.6617 C   0  0  0  0  0  0  0  0  0  0  0  0
  146.9222  134.6430  153.7512 C   0  0  0  0  0  0  0  0  0  0  0  0
  142.1883  138.1087  152.9346 N   0  0  0  0  0  0  0  0  0  0  0  0
  140.8406  137.9130  153.3392 C   0  0  0  0  0  0  0  0  0  0  0  0
  140.3638  136.7412  153.9752 C   0  0  0  0  0  0  0  0  0  0  0  0
  139.0081  136.6751  154.3496 C   0  0  0  0  0  0  0  0  0  0  0  0
  138.1815  137.7834  154.0819 C   0  0  0  0  0  0  0  0  0  0  0  0
  138.6255  138.9117  153.4893 N   0  0  0  0  0  0  0  0  0  0  0  0
  139.9267  138.9685  153.1339 C   0  0  0  0  0  0  0  0  0  0  0  0
  144.3231  138.7650  152.2605 H   0  0  0  0  0  0  0  0  0  0  0  0
  145.5229  136.1502  152.1683 H   0  0  0  0  0  0  0  0  0  0  0  0
  146.2784  137.6932  151.8673 H   0  0  0  0  0  0  0  0  0  0  0  0
  145.6018  136.8280  154.7162 H   0  0  0  0  0  0  0  0  0  0  0  0
  147.5292  138.3122  155.3457 H   0  0  0  0  0  0  0  0  0  0  0  0
  145.2147  139.5793  153.8385 H   0  0  0  0  0  0  0  0  0  0  0  0
  145.3833  139.4333  155.5923 H   0  0  0  0  0  0  0  0  0  0  0  0
  146.2251  141.6986  154.3769 H   0  0  0  0  0  0  0  0  0  0  0  0
  147.2430  140.9713  155.6243 H   0  0  0  0  0  0  0  0  0  0  0  0
  148.8971  138.7878  153.4387 H   0  0  0  0  0  0  0  0  0  0  0  0
  147.4956  139.0164  152.3902 H   0  0  0  0  0  0  0  0  0  0  0  0
  148.6390  137.0639  155.3917 H   0  0  0  0  0  0  0  0  0  0  0  0
  147.6399  135.8221  156.1251 H   0  0  0  0  0  0  0  0  0  0  0  0
  150.0684  135.3480  154.3041 H   0  0  0  0  0  0  0  0  0  0  0  0
  149.9834  135.0406  156.0279 H   0  0  0  0  0  0  0  0  0  0  0  0
  148.7608  133.9435  152.8108 H   0  0  0  0  0  0  0  0  0  0  0  0
  147.7847  132.6664  153.5115 H   0  0  0  0  0  0  0  0  0  0  0  0
  146.2557  134.3035  154.5448 H   0  0  0  0  0  0  0  0  0  0  0  0
  146.3605  134.6073  152.8181 H   0  0  0  0  0  0  0  0  0  0  0  0
  142.3798  138.9904  152.4819 H   0  0  0  0  0  0  0  0  0  0  0  0
  141.0085  135.9044  154.1956 H   0  0  0  0  0  0  0  0  0  0  0  0
  138.6121  135.7957  154.8358 H   0  0  0  0  0  0  0  0  0  0  0  0
  137.1372  137.7653  154.3572 H   0  0  0  0  0  0  0  0  0  0  0  0
  140.2475  139.8877  152.6656 H   0  0  0  0  0  0  0  0  0  0  0  0
  148.0239  136.2492  153.2701 H   0  0  0  0  0  0  0  0  0  0  0  0
  1  2  2  0  0  0  0
  2  3  1  0  0  0  0
  2 17  1  0  0  0  0
  3  4  1  0  0  0  0
  3 24  1  0  0  0  0
  4  5  1  0  0  0  0
  4 25  1  0  0  0  0
  4 26  1  0  0  0  0
  5  6  1  0  0  0  0
  5 11  1  0  0  0  0
  5 27  1  0  0  0  0
  6 10  1  0  0  0  0
  6  7  1  0  0  0  0
  6 28  1  0  0  0  0
  7  8  1  0  0  0  0
  7 29  1  0  0  0  0
  7 30  1  0  0  0  0
  8  9  1  0  0  0  0
  8 31  1  0  0  0  0
  8 32  1  0  0  0  0
  9 10  1  0  0  0  0
 10 33  1  0  0  0  0
 10 34  1  0  0  0  0
 11 16  1  0  0  0  0
 11 12  1  0  0  0  0
 11 48  1  0  0  0  0
 12 13  1  0  0  0  0
 12 35  1  0  0  0  0
 12 36  1  0  0  0  0
 13 14  1  0  0  0  0
 13 37  1  0  0  0  0
 13 38  1  0  0  0  0
 14 15  1  0  0  0  0
 15 16  1  0  0  0  0
 15 39  1  0  0  0  0
 15 40  1  0  0  0  0
 16 41  1  0  0  0  0
 16 42  1  0  0  0  0
 17 18  1  0  0  0  0
 17 43  1  0  0  0  0
 18 23  1  0  0  0  0
 18 19  2  0  0  0  0
 19 20  1  0  0  0  0
 19 44  1  0  0  0  0
 20 21  2  0  0  0  0
 20 45  1  0  0  0  0
 21 22  1  0  0  0  0
 21 46  1  0  0  0  0
 22 23  2  0  0  0  0
 23 47  1  0  0  0  0
M  CHG  1  11   1
M  END
> <s_m_source_file>
AV-unprocessed.smi

> <i_m_source_file_index>
2119

> <i_lp_mmshare_version>
43012

> <i_f3d_flags>
0

> <s_epik_input>
W2NIXTFuW2NIXVtjSF1bY0hdYzFbTkhdQyg9TylbTkhdW0NIMl1bQ0BIXShbQ0BASF0yW0NIMl1bQ0gyXU9bQ0gyXTIpTjNbQ0gyXVtDSDJdT1tDSDJdW0NIMl0z

> <s_epik_cmdline>
J2VwaWtfcHl0aG9uJywgJy1waCcsICc3LjAnLCAnLXRuJywgJzgnLCAnLW1hJywgJzIwMCcsICctbWV0YWxfYmluZGluZycsICctaW1hZScsICc8aW5maWxlLm1hZT4nLCAnLW9tYWUnLCAnPG91dGZpbGUubWFlPic=

> <r_epik_Ionization_Penalty>
0.987463

> <r_epik_Ionization_Penalty_Charging>
0.98326

> <r_epik_Ionization_Penalty_Neutral>
0.00420251

> <r_epik_State_Penalty>
1.01721

> <r_epik_Charging_Adjusted_Penalty>
2.00047

> <i_epik_Tot_Q>
1

> <i_epik_Tot_abs_Q>
1

> <r_epik_Metal_State_Penalty>
1.01439

> <b_epik_Metal_Only>
0

> <s_lp_Force_Field>
OPLS_2005

> <r_lp_Energy>
39.8774

> <b_lp_Chiralities_Consistent>
1

> <s_lp_Variant>
AV-unprocessed.smi:2119-5

> <Gold.Version>
5.8.1

> <Gold.Id.Protein>
6NUR|6NUR_protein|mol2

> <Gold.PLP.Fitness>
45.0192

> <Gold.PLP.PLP>
-30.8949

> <Gold.PLP.part.hbond>
-4.0000

> <Gold.PLP.part.metal>
0.0000

> <Gold.PLP.part.buried>
-1.9874

> <Gold.PLP.part.nonpolar>
-25.0260

> <Gold.PLP.part.repulsive>
0.4819

> <Gold.PLP.ligand.clash>
0.0000

> <Gold.PLP.ligand.torsion>
0.4937

> <Gold.PLP.Chemscore.Hbond>
3.9600

> <Gold.PLP.Chemscore.CHOScore>
0.9989

> <Gold.PLP.Chemscore.Metal>
0.0000

> <Gold.Chemscore.Hbonds>
donor molecule, donor type, donor heavy atom, donor atom, acceptor molecule, acceptor atom, score
      L1  H     3    24       P1 10175  0.96
      L1  H    11    48       P1  7948  2.00
      L1  H    17    43       P1 10175  0.86
      L1  C    23    47       P1 10160  0.72

> <Gold.PLP.Chemscore.Internal.Correction>
0.2349

> <Gold.Rescore>
     Score         DG    S(hbond)    S(metal)    S(lipo)     H(rot)  DE(clash)    DE(int)     intcor
     17.59     -19.45       2.96        0.00      72.29       1.70       0.13       1.74       ----

> <Gold.Chemscore.Fitness>
17.5872

> <Gold.Chemscore.DG>
-19.4528

> <Gold.Chemscore.ZeroCoef>
-5.4800

> <Gold.Chemscore.Hbond>
2.9558

> <Gold.Chemscore.Metal>
0.0000

> <Gold.Chemscore.Lipo>
72.2910

> <Gold.Chemscore.Internal_Hbond>
0.0000

> <Gold.Chemscore.DEClash>
0.1274

> <Gold.Chemscore.DEInternal>
1.7383

> <Gold.Chemscore.Rot>
1.7021

> <Gold.Chemscore.Internal.Correction>
   9.000000E+99

> <Gold.Chemscore.Hbonds>
donor molecule, donor type, donor heavy atom, donor atom, acceptor molecule, acceptor atom, score
      L1  H     3    24       P1 10175  0.92
      L1  H    11    48       P1  7948  1.00
      L1  H    17    43       P1 10175  0.80

> <Gold.Chemscore.Hbond.Weighted>
-9.8723

> <Gold.Chemscore.Metal.Weighted>
-0.0000

> <Gold.Chemscore.Lipo.Weighted>
-8.4580

> <Gold.Chemscore.Internal_Hbond.Weighted>
0.0000

> <Gold.Chemscore.DEClash.Weighted>
0.1274

> <Gold.Chemscore.DEInternal.Weighted>
1.7383

> <Gold.Chemscore.Rot.Weighted>
4.3575

> <Gold.Chemscore.Internal.Correction.Weighted>
   9.000000E+99

> <Gold.Protein.RotatedTorsions>
[ 6907 6896 6895 6894 ] final  -50.34 input  -60.11 | X-H torsion
[ 7974 7965 7964 7962 ] final  -61.04 input  175.53 | X-H torsion
[ 8008 7997 7996 7995 ] final  158.36 input   59.86 | X-H torsion
[ 10167 10162 10161 10158 ] final   11.86 input  -65.29 | X-H torsion
[ 10718 10713 10712 10709 ] final  -80.39 input   66.30 | X-H torsion
[ 10763 10752 10751 10750 ] final   38.68 input  -60.55 | X-H torsion
[ 11005 11000 10999 10996 ] final -107.96 input  -57.11 | X-H torsion

> <Gold.Protein.ActiveResidues>
 VAL166  LYS551  ARG553  GLY616  TRP617  ASP618  TYR619  PRO620  LYS621  CYS622 
 ASP623  PHE694  ASN695  SER759  ASP760  ASP761  ALA762  ILE779  LEU786  VAL792 
 PHE793  MET794  SER795  GLU796  ALA797  LYS798  CYS799  TRP800  GLU811  SER814 

> <Gold.Protein.RotatedAtoms>
  150.8717  134.8092  159.7159 H   0  0  0  0  0  0  0  0  0  0  0  0  # atno 6907 bound_to 6896
  152.4719  134.4936  159.9713 H   0  0  0  0  0  0  0  0  0  0  0  0  # atno 6908 bound_to 6896
  151.5024  133.3463  159.2906 H   0  0  0  0  0  0  0  0  0  0  0  0  # atno 6909 bound_to 6896
  145.8083  140.8614  143.0195 H   0  0  0  0  0  0  0  0  0  0  0  0  # atno 7974 bound_to 7965
  156.2308  140.1860  156.7248 H   0  0  0  0  0  0  0  0  0  0  0  0  # atno 8008 bound_to 7997
  154.6018  140.0635  156.9407 H   0  0  0  0  0  0  0  0  0  0  0  0  # atno 8009 bound_to 7997
  155.2161  140.3304  155.4324 H   0  0  0  0  0  0  0  0  0  0  0  0  # atno 8010 bound_to 7997
  140.6105  143.8418  150.7060 H   0  0  0  0  0  0  0  0  0  0  0  0  # atno 10167 bound_to 10162
  156.0071  130.4573  150.3794 H   0  0  0  0  0  0  0  0  0  0  0  0  # atno 10718 bound_to 10713
  152.9992  135.6242  154.2344 H   0  0  0  0  0  0  0  0  0  0  0  0  # atno 10763 bound_to 10752
  154.2086  135.2801  155.2968 H   0  0  0  0  0  0  0  0  0  0  0  0  # atno 10764 bound_to 10752
  154.5625  135.5701  153.7079 H   0  0  0  0  0  0  0  0  0  0  0  0  # atno 10765 bound_to 10752
  141.0927  133.9027  157.2038 H   0  0  0  0  0  0  0  0  0  0  0  0  # atno 11005 bound_to 11000
  144.6760  140.0358  143.7482 LP  0  0  0  0  0  0  0  0  0  0  0  0  # atno 17320 bound_to 7965
  145.9805  139.2937  143.1045 LP  0  0  0  0  0  0  0  0  0  0  0  0  # atno 17321 bound_to 7965
  140.1985  143.3978  152.1809 LP  0  0  0  0  0  0  0  0  0  0  0  0  # atno 17342 bound_to 10162
  139.5357  144.7207  151.4900 LP  0  0  0  0  0  0  0  0  0  0  0  0  # atno 17343 bound_to 10162
  157.1874  131.0407  151.2717 LP  0  0  0  0  0  0  0  0  0  0  0  0  # atno 17370 bound_to 10713
  157.4092  130.7375  149.6825 LP  0  0  0  0  0  0  0  0  0  0  0  0  # atno 17371 bound_to 10713
  139.9756  135.0115  156.9623 LP  0  0  0  0  0  0  0  0  0  0  0  0  # atno 17394 bound_to 11000
  140.5214  134.0903  155.7293 LP  0  0  0  0  0  0  0  0  0  0  0  0  # atno 17395 bound_to 11000

$$$$
