AV-unprocessed.smi:275|AV-procd|sdf|2068|dock3
  -GOLD-   2262021323D 1   1.00000     0.00000
 Structure written by MMmdl.
 65 69  0  0  0  0  0  0  0  0  1 V2000
  152.4329  138.9149  158.6543 C   0  0  0  0  0  0  0  0  0  0  0  0
  152.6248  140.4179  158.9218 C   0  0  0  0  0  0  0  0  0  0  0  0
  152.9326  140.6280  160.4140 C   0  0  0  0  0  0  0  0  0  0  0  0
  151.4053  141.2463  158.4834 C   0  0  2  0  0  0  0  0  0  0  0  0
  151.3690  141.5151  157.0478 N   0  0  0  0  0  0  0  0  0  0  0  0
  150.6344  140.5934  156.2532 C   0  0  0  0  0  0  0  0  0  0  0  0
  151.1202  140.1248  155.0712 N   0  0  0  0  0  0  0  0  0  0  0  0
  150.4123  139.2649  154.3327 C   0  0  0  0  0  0  0  0  0  0  0  0
  149.2082  138.7474  154.5809 N   0  0  0  0  0  0  0  0  0  0  0  0
  148.7126  139.2091  155.7639 C   0  0  0  0  0  0  0  0  0  0  0  0
  149.3546  140.1208  156.6481 C   0  0  0  0  0  0  0  0  0  0  0  0
  148.5453  140.3634  157.7507 N   0  0  0  0  0  0  0  0  0  0  0  0
  147.4831  139.6376  157.5307 C   0  0  0  0  0  0  0  0  0  0  0  0
  147.4972  138.9175  156.3579 N   0  0  0  0  0  0  0  0  0  0  0  0
  146.4498  138.0363  155.8718 C   0  0  0  0  0  0  0  0  0  0  0  0
  145.7318  138.5743  154.6079 C   0  0  1  0  0  0  0  0  0  0  0  0
  144.8330  137.4820  153.9720 C   0  0  0  0  0  0  0  0  0  0  0  0
  144.4889  137.7905  152.6379 O   0  0  0  0  0  0  0  0  0  0  0  0
  144.9364  139.8666  154.9439 C   0  0  1  0  0  0  0  0  0  0  0  0
  143.9530  139.7341  156.0959 C   0  0  0  0  0  0  0  0  0  0  0  0
  143.6889  141.1875  156.4713 C   0  0  0  0  0  0  0  0  0  0  0  0
  144.9034  141.8773  156.2057 O   0  0  0  0  0  0  0  0  0  0  0  0
  145.7762  141.0487  155.4446 C   0  0  0  0  0  0  0  0  0  0  0  0
  150.6827  142.7765  157.2785 C   0  0  0  0  0  0  0  0  0  0  0  0
  151.3334  142.7818  158.6714 C   0  0  0  0  0  0  0  0  0  0  0  0
  150.4422  143.2655  159.8263 C   0  0  0  0  0  0  0  0  0  0  0  0
  150.1922  144.7824  159.7887 C   0  0  0  0  0  0  0  0  0  0  0  0
  151.5119  145.5649  159.8155 C   0  0  0  0  0  0  0  0  0  0  0  0
  152.4634  145.0878  158.7106 C   0  0  0  0  0  0  0  0  0  0  0  0
  152.6634  143.5636  158.7687 C   0  0  0  0  0  0  0  0  0  0  0  0
  151.5338  138.5365  159.1418 H   0  0  0  0  0  0  0  0  0  0  0  0
  153.2804  138.3381  159.0254 H   0  0  0  0  0  0  0  0  0  0  0  0
  152.3490  138.7048  157.5886 H   0  0  0  0  0  0  0  0  0  0  0  0
  153.5021  140.7406  158.3600 H   0  0  0  0  0  0  0  0  0  0  0  0
  152.0987  140.3013  161.0362 H   0  0  0  0  0  0  0  0  0  0  0  0
  153.1257  141.6728  160.6506 H   0  0  0  0  0  0  0  0  0  0  0  0
  153.8134  140.0613  160.7172 H   0  0  0  0  0  0  0  0  0  0  0  0
  150.4709  140.7973  158.8260 H   0  0  0  0  0  0  0  0  0  0  0  0
  150.8771  138.9484  153.4107 H   0  0  0  0  0  0  0  0  0  0  0  0
  146.6518  139.6100  158.2201 H   0  0  0  0  0  0  0  0  0  0  0  0
  146.8797  137.0542  155.6718 H   0  0  0  0  0  0  0  0  0  0  0  0
  145.7454  137.9026  156.6923 H   0  0  0  0  0  0  0  0  0  0  0  0
  146.5087  138.8313  153.8858 H   0  0  0  0  0  0  0  0  0  0  0  0
  145.3379  136.5178  153.9349 H   0  0  0  0  0  0  0  0  0  0  0  0
  143.9260  137.3368  154.5596 H   0  0  0  0  0  0  0  0  0  0  0  0
  144.2392  138.7011  152.5950 H   0  0  0  0  0  0  0  0  0  0  0  0
  144.3825  140.1871  154.0597 H   0  0  0  0  0  0  0  0  0  0  0  0
  143.0362  139.2097  155.8253 H   0  0  0  0  0  0  0  0  0  0  0  0
  144.4144  139.2087  156.9335 H   0  0  0  0  0  0  0  0  0  0  0  0
  142.9055  141.6069  155.8389 H   0  0  0  0  0  0  0  0  0  0  0  0
  143.3826  141.3014  157.5115 H   0  0  0  0  0  0  0  0  0  0  0  0
  146.5749  140.7052  156.1033 H   0  0  0  0  0  0  0  0  0  0  0  0
  146.2291  141.6136  154.6293 H   0  0  0  0  0  0  0  0  0  0  0  0
  151.0101  143.5764  156.6145 H   0  0  0  0  0  0  0  0  0  0  0  0
  149.5949  142.6928  157.3100 H   0  0  0  0  0  0  0  0  0  0  0  0
  149.4814  142.7502  159.8028 H   0  0  0  0  0  0  0  0  0  0  0  0
  150.8936  142.9994  160.7828 H   0  0  0  0  0  0  0  0  0  0  0  0
  149.6338  145.0376  158.8872 H   0  0  0  0  0  0  0  0  0  0  0  0
  149.5685  145.0783  160.6324 H   0  0  0  0  0  0  0  0  0  0  0  0
  151.3179  146.6325  159.7086 H   0  0  0  0  0  0  0  0  0  0  0  0
  151.9909  145.4331  160.7865 H   0  0  0  0  0  0  0  0  0  0  0  0
  152.0637  145.3712  157.7364 H   0  0  0  0  0  0  0  0  0  0  0  0
  153.4249  145.5928  158.8059 H   0  0  0  0  0  0  0  0  0  0  0  0
  153.1840  143.3209  159.6942 H   0  0  0  0  0  0  0  0  0  0  0  0
  153.3410  143.2691  157.9665 H   0  0  0  0  0  0  0  0  0  0  0  0
  1  2  1  0  0  0  0
  1 31  1  0  0  0  0
  1 32  1  0  0  0  0
  1 33  1  0  0  0  0
  2  3  1  0  0  0  0
  2  4  1  0  0  0  0
  2 34  1  0  0  0  0
  3 35  1  0  0  0  0
  3 36  1  0  0  0  0
  3 37  1  0  0  0  0
  4 25  1  0  0  0  0
  4  5  1  0  0  0  0
  4 38  1  0  0  0  0
  5  6  1  0  0  0  0
  5 24  1  0  0  0  0
  6 11  1  0  0  0  0
  6  7  2  0  0  0  0
  7  8  1  0  0  0  0
  8  9  2  0  0  0  0
  8 39  1  0  0  0  0
  9 10  1  0  0  0  0
 10 14  1  0  0  0  0
 10 11  2  0  0  0  0
 11 12  1  0  0  0  0
 12 13  2  0  0  0  0
 13 14  1  0  0  0  0
 13 40  1  0  0  0  0
 14 15  1  0  0  0  0
 15 16  1  0  0  0  0
 15 41  1  0  0  0  0
 15 42  1  0  0  0  0
 16 17  1  0  0  0  0
 16 19  1  0  0  0  0
 16 43  1  0  0  0  0
 17 18  1  0  0  0  0
 17 44  1  0  0  0  0
 17 45  1  0  0  0  0
 18 46  1  0  0  0  0
 19 23  1  0  0  0  0
 19 20  1  0  0  0  0
 19 47  1  0  0  0  0
 20 21  1  0  0  0  0
 20 48  1  0  0  0  0
 20 49  1  0  0  0  0
 21 22  1  0  0  0  0
 21 50  1  0  0  0  0
 21 51  1  0  0  0  0
 22 23  1  0  0  0  0
 23 52  1  0  0  0  0
 23 53  1  0  0  0  0
 24 25  1  0  0  0  0
 24 54  1  0  0  0  0
 24 55  1  0  0  0  0
 25 30  1  0  0  0  0
 25 26  1  0  0  0  0
 26 27  1  0  0  0  0
 26 56  1  0  0  0  0
 26 57  1  0  0  0  0
 27 28  1  0  0  0  0
 27 58  1  0  0  0  0
 27 59  1  0  0  0  0
 28 29  1  0  0  0  0
 28 60  1  0  0  0  0
 28 61  1  0  0  0  0
 29 30  1  0  0  0  0
 29 62  1  0  0  0  0
 29 63  1  0  0  0  0
 30 64  1  0  0  0  0
 30 65  1  0  0  0  0
M  END
> <s_m_source_file>
AV-unprocessed.smi

> <i_m_source_file_index>
275

> <i_lp_mmshare_version>
43012

> <i_f3d_flags>
0

> <s_epik_input>
W0NIMl0xW0NIMl1bQ0gyXVtDSDJdW0NIMl1DMTJbQ0BIXShbQ0hdKFtDSDNdKVtDSDNdKU4oW0NIMl0yKWMobltjSF1uMyljKGMzNCluW2NIXW40W0NIMl1bQ0BIXShbQ0gyXVtPSF0pW0NAQEhdNVtDSDJdW0NIMl1PW0NIMl01

> <s_epik_cmdline>
J2VwaWtfcHl0aG9uJywgJy1waCcsICc3LjAnLCAnLXRuJywgJzgnLCAnLW1hJywgJzIwMCcsICctbWV0YWxfYmluZGluZycsICctaW1hZScsICc8aW5maWxlLm1hZT4nLCAnLW9tYWUnLCAnPG91dGZpbGUubWFlPic=

> <r_lp_tautomer_probability>
1

> <r_epik_Ionization_Penalty>
0.00375122

> <r_epik_Ionization_Penalty_Charging>
0

> <r_epik_Ionization_Penalty_Neutral>
0.00375122

> <r_epik_State_Penalty>
0.00260593

> <r_epik_Charging_Adjusted_Penalty>
0.00260593

> <i_epik_Tot_Q>
0

> <i_epik_Tot_abs_Q>
0

> <r_epik_Metal_State_Penalty>
-0

> <b_epik_Metal_Only>
0

> <s_lp_Force_Field>
OPLS_2005

> <r_lp_Energy>
64.3005

> <b_lp_Chiralities_Consistent>
1

> <s_lp_Variant>
AV-unprocessed.smi:275-7

> <Gold.Version>
5.8.1

> <Gold.Id.Protein>
6NUR|6NUR_protein|mol2

> <Gold.PLP.Fitness>
42.1843

> <Gold.PLP.PLP>
-34.7267

> <Gold.PLP.part.hbond>
-2.3284

> <Gold.PLP.part.metal>
0.0000

> <Gold.PLP.part.buried>
-2.5160

> <Gold.PLP.part.nonpolar>
-30.4282

> <Gold.PLP.part.repulsive>
0.2348

> <Gold.PLP.ligand.clash>
0.0000

> <Gold.PLP.ligand.torsion>
0.6925

> <Gold.PLP.Chemscore.Hbond>
1.8000

> <Gold.PLP.Chemscore.CHOScore>
0.9224

> <Gold.PLP.Chemscore.Metal>
0.0000

> <Gold.Chemscore.Hbonds>
donor molecule, donor type, donor heavy atom, donor atom, acceptor molecule, acceptor atom, score
      L1  H    18    46       P1 10175  1.00
      P1  H  7989  7998       L1     7  0.35
      L1  C     8    39       P1  7957  0.24

> <Gold.PLP.Chemscore.Internal.Correction>
0.6756

> <Gold.Rescore>
     Score         DG    S(hbond)    S(metal)    S(lipo)     H(rot)  DE(clash)    DE(int)     intcor
     13.74     -16.45       1.50        0.00     106.61       2.54       0.64       2.08       ----

> <Gold.Chemscore.Fitness>
13.7381

> <Gold.Chemscore.DG>
-16.4532

> <Gold.Chemscore.ZeroCoef>
-5.4800

> <Gold.Chemscore.Hbond>
1.4961

> <Gold.Chemscore.Metal>
0.0000

> <Gold.Chemscore.Lipo>
106.6059

> <Gold.Chemscore.Internal_Hbond>
0.0000

> <Gold.Chemscore.DEClash>
0.6368

> <Gold.Chemscore.DEInternal>
2.0783

> <Gold.Chemscore.Rot>
2.5377

> <Gold.Chemscore.Internal.Correction>
   9.000000E+99

> <Gold.Chemscore.Hbonds>
donor molecule, donor type, donor heavy atom, donor atom, acceptor molecule, acceptor atom, score
      L1  H    18    46       P1 10175  1.00
      P1  H  7989  7998       L1     7  0.01

> <Gold.Chemscore.Hbond.Weighted>
-4.9969

> <Gold.Chemscore.Metal.Weighted>
-0.0000

> <Gold.Chemscore.Lipo.Weighted>
-12.4729

> <Gold.Chemscore.Internal_Hbond.Weighted>
0.0000

> <Gold.Chemscore.DEClash.Weighted>
0.6368

> <Gold.Chemscore.DEInternal.Weighted>
2.0783

> <Gold.Chemscore.Rot.Weighted>
6.4966

> <Gold.Chemscore.Internal.Correction.Weighted>
   9.000000E+99

> <Gold.Protein.RotatedTorsions>
[ 6907 6896 6895 6894 ] final   81.42 input  -60.11 | X-H torsion
[ 7974 7965 7964 7962 ] final   17.75 input  175.53 | X-H torsion
[ 8008 7997 7996 7995 ] final  -82.51 input   59.86 | X-H torsion
[ 10167 10162 10161 10158 ] final -104.27 input  -65.29 | X-H torsion
[ 10718 10713 10712 10709 ] final  -14.36 input   66.30 | X-H torsion
[ 10763 10752 10751 10750 ] final -133.29 input  -60.55 | X-H torsion
[ 11005 11000 10999 10996 ] final  148.57 input  -57.11 | X-H torsion

> <Gold.Protein.ActiveResidues>
 VAL166  LYS551  ARG553  GLY616  TRP617  ASP618  TYR619  PRO620  LYS621  CYS622 
 ASP623  PHE694  ASN695  SER759  ASP760  ASP761  ALA762  ILE779  LEU786  VAL792 
 PHE793  MET794  SER795  GLU796  ALA797  LYS798  CYS799  TRP800  GLU811  SER814 

> <Gold.Protein.RotatedAtoms>
  152.5268  134.3206  159.9146 H   0  0  0  0  0  0  0  0  0  0  0  0  # atno 6907 bound_to 6896
  151.3155  133.4055  159.2658 H   0  0  0  0  0  0  0  0  0  0  0  0  # atno 6908 bound_to 6896
  151.0002  134.9333  159.8007 H   0  0  0  0  0  0  0  0  0  0  0  0  # atno 6909 bound_to 6896
  146.2208  139.8557  142.8614 H   0  0  0  0  0  0  0  0  0  0  0  0  # atno 7974 bound_to 7965
  154.6094  140.0632  156.9474 H   0  0  0  0  0  0  0  0  0  0  0  0  # atno 8008 bound_to 7997
  155.1999  140.3314  155.4326 H   0  0  0  0  0  0  0  0  0  0  0  0  # atno 8009 bound_to 7997
  156.2367  140.1866  156.7083 H   0  0  0  0  0  0  0  0  0  0  0  0  # atno 8010 bound_to 7997
  140.2111  143.3746  152.1050 H   0  0  0  0  0  0  0  0  0  0  0  0  # atno 10167 bound_to 10162
  156.6171  130.4865  149.6179 H   0  0  0  0  0  0  0  0  0  0  0  0  # atno 10718 bound_to 10713
  154.8734  135.3771  154.4548 H   0  0  0  0  0  0  0  0  0  0  0  0  # atno 10763 bound_to 10752
  153.5221  135.7029  153.5731 H   0  0  0  0  0  0  0  0  0  0  0  0  # atno 10764 bound_to 10752
  153.3973  135.3957  155.1930 H   0  0  0  0  0  0  0  0  0  0  0  0  # atno 10765 bound_to 10752
  140.0971  134.9006  157.1740 H   0  0  0  0  0  0  0  0  0  0  0  0  # atno 11005 bound_to 11000
  145.2756  141.0122  143.3747 LP  0  0  0  0  0  0  0  0  0  0  0  0  # atno 17320 bound_to 7965
  144.9190  139.4435  143.6550 LP  0  0  0  0  0  0  0  0  0  0  0  0  # atno 17321 bound_to 7965
  139.5180  144.6999  151.5523 LP  0  0  0  0  0  0  0  0  0  0  0  0  # atno 17342 bound_to 10162
  140.6323  143.9052  150.6616 LP  0  0  0  0  0  0  0  0  0  0  0  0  # atno 17343 bound_to 10162
  156.2342  130.6813  151.1493 LP  0  0  0  0  0  0  0  0  0  0  0  0  # atno 17370 bound_to 10713
  157.7238  131.0664  150.6021 LP  0  0  0  0  0  0  0  0  0  0  0  0  # atno 17371 bound_to 10713
  140.3271  134.2851  155.7235 LP  0  0  0  0  0  0  0  0  0  0  0  0  # atno 17394 bound_to 11000
  141.2095  133.7747  156.9992 LP  0  0  0  0  0  0  0  0  0  0  0  0  # atno 17395 bound_to 11000

$$$$
