AV-unprocessed.smi:69|AV-procd|sdf|655|dock10
  -GOLD-   2262016553D 1   1.00000     0.00000
 Structure written by MMmdl.
 32 34  0  0  0  0  0  0  0  0  1 V2000
  144.6191  134.7301  149.6547 N   0  0  0  0  0  0  0  0  0  0  0  0
  144.6562  135.0959  150.9433 C   0  0  0  0  0  0  0  0  0  0  0  0
  143.9288  134.3835  151.8356 N   0  0  0  0  0  0  0  0  0  0  0  0
  143.9486  134.7290  153.1275 C   0  0  0  0  0  0  0  0  0  0  0  0
  144.6133  135.7274  153.7161 N   0  0  0  0  0  0  0  0  0  0  0  0
  145.3456  136.4425  152.8127 C   0  0  0  0  0  0  0  0  0  0  0  0
  145.4209  136.1922  151.4153 C   0  0  0  0  0  0  0  0  0  0  0  0
  146.2616  137.1191  150.8142 N   0  0  0  0  0  0  0  0  0  0  0  0
  146.6582  137.8725  151.8051 C   0  0  0  0  0  0  0  0  0  0  0  0
  146.1592  137.5304  153.0450 N   0  0  0  0  0  0  0  0  0  0  0  0
  146.4084  138.1746  154.3758 C   0  0  2  0  0  0  0  0  0  0  0  0
  146.3085  139.5564  154.1955 O   0  0  0  0  0  0  0  0  0  0  0  0
  147.5232  140.2116  154.5604 C   0  0  2  0  0  0  0  0  0  0  0  0
  147.7597  141.4620  153.6952 C   0  0  0  0  0  0  0  0  0  0  0  0
  148.8519  142.2005  154.1992 O   0  0  0  0  0  0  0  0  0  0  0  0
  148.6025  139.1238  154.4650 C   0  0  2  0  0  0  0  0  0  0  0  0
  149.1190  139.0144  153.1487 O   0  0  0  0  0  0  0  0  0  0  0  0
  147.8290  137.8859  154.8969 C   0  0  2  0  0  0  0  0  0  0  0  0
  148.4149  136.6762  154.4483 O   0  0  0  0  0  0  0  0  0  0  0  0
  145.6149  137.7994  155.0232 H   0  0  0  0  0  0  0  0  0  0  0  0
  147.4393  140.4977  155.6107 H   0  0  0  0  0  0  0  0  0  0  0  0
  149.4374  139.3289  155.1357 H   0  0  0  0  0  0  0  0  0  0  0  0
  147.7764  137.8662  155.9862 H   0  0  0  0  0  0  0  0  0  0  0  0
  145.1535  135.2460  148.9705 H   0  0  0  0  0  0  0  0  0  0  0  0
  144.0563  133.9416  149.3702 H   0  0  0  0  0  0  0  0  0  0  0  0
  143.3459  134.1180  153.7832 H   0  0  0  0  0  0  0  0  0  0  0  0
  147.3317  138.7030  151.6540 H   0  0  0  0  0  0  0  0  0  0  0  0
  148.0085  141.1708  152.6742 H   0  0  0  0  0  0  0  0  0  0  0  0
  146.8692  142.0893  153.6480 H   0  0  0  0  0  0  0  0  0  0  0  0
  148.5229  142.9994  154.5821 H   0  0  0  0  0  0  0  0  0  0  0  0
  149.0158  138.1198  152.8620 H   0  0  0  0  0  0  0  0  0  0  0  0
  148.7474  136.8156  153.5745 H   0  0  0  0  0  0  0  0  0  0  0  0
  1  2  1  0  0  0  0
  1 24  1  0  0  0  0
  1 25  1  0  0  0  0
  2  7  1  0  0  0  0
  2  3  2  0  0  0  0
  3  4  1  0  0  0  0
  4  5  2  0  0  0  0
  4 26  1  0  0  0  0
  5  6  1  0  0  0  0
  6 10  1  0  0  0  0
  6  7  2  0  0  0  0
  7  8  1  0  0  0  0
  8  9  2  0  0  0  0
  9 10  1  0  0  0  0
  9 27  1  0  0  0  0
 10 11  1  0  0  0  0
 11 20  1  0  0  0  0
 11 18  1  0  0  0  0
 11 12  1  0  0  0  0
 12 13  1  0  0  0  0
 13 21  1  0  0  0  0
 13 14  1  0  0  0  0
 13 16  1  0  0  0  0
 14 15  1  0  0  0  0
 14 28  1  0  0  0  0
 14 29  1  0  0  0  0
 15 30  1  0  0  0  0
 16 22  1  0  0  0  0
 16 17  1  0  0  0  0
 16 18  1  0  0  0  0
 17 31  1  0  0  0  0
 18 23  1  0  0  0  0
 18 19  1  0  0  0  0
 19 32  1  0  0  0  0
M  END
> <s_m_source_file>
AV-unprocessed.smi

> <i_m_source_file_index>
69

> <i_lp_mmshare_version>
43012

> <i_f3d_flags>
0

> <s_epik_input>
bjFbY0hdbmMoW05IMl0pYyhjMTIpbltjSF1uMltDQEBIXTNPW0NASF0oW0NIMl1bT0hdKVtDQEBIXShbT0hdKVtDQEhdM1tPSF0=

> <s_epik_cmdline>
J2VwaWtfcHl0aG9uJywgJy1waCcsICc3LjAnLCAnLXRuJywgJzgnLCAnLW1hJywgJzIwMCcsICctbWV0YWxfYmluZGluZycsICctaW1hZScsICc8aW5maWxlLm1hZT4nLCAnLW9tYWUnLCAnPG91dGZpbGUubWFlPic=

> <r_lp_tautomer_probability>
1

> <r_epik_Ionization_Penalty>
0.000428445

> <r_epik_Ionization_Penalty_Charging>
0

> <r_epik_Ionization_Penalty_Neutral>
0.000428445

> <r_epik_State_Penalty>
-0

> <r_epik_Charging_Adjusted_Penalty>
0

> <i_epik_Tot_Q>
0

> <i_epik_Tot_abs_Q>
0

> <r_epik_Metal_State_Penalty>
-0

> <b_epik_Metal_Only>
0

> <s_epik_Chemistry_Notes>
This compound contains an acetal/aminal-like group ( X-CH(R)-Y where X, Y are N, S, or O) that may be acid/base labile, releasing an aldehyde.

> <s_lp_Force_Field>
OPLS_2005

> <r_lp_Energy>
42.2813

> <b_lp_Chiralities_Consistent>
1

> <s_lp_Variant>
AV-unprocessed.smi:69-13

> <Gold.Version>
5.8.1

> <Gold.Id.Protein>
6NUR|6NUR_protein|mol2

> <Gold.PLP.Fitness>
37.9312

> <Gold.PLP.PLP>
-22.4744

> <Gold.PLP.part.hbond>
-5.8341

> <Gold.PLP.part.metal>
0.0000

> <Gold.PLP.part.buried>
-3.3041

> <Gold.PLP.part.nonpolar>
-16.2172

> <Gold.PLP.part.repulsive>
2.6592

> <Gold.PLP.ligand.clash>
0.0000

> <Gold.PLP.ligand.torsion>
0.3525

> <Gold.PLP.Chemscore.Hbond>
3.8380

> <Gold.PLP.Chemscore.CHOScore>
1.4212

> <Gold.PLP.Chemscore.Metal>
0.0000

> <Gold.Chemscore.Hbonds>
donor molecule, donor type, donor heavy atom, donor atom, acceptor molecule, acceptor atom, score
      L1  H     1    24       P1  7921  0.70
      L1  H    15    30       P1  8028  0.98
      L1  H    17    31       P1  7948  0.81
      L1  H    19    32       P1  7948  1.00
      P1  H  7954  7966       L1     8  0.07
      P1  H  8011  8017       L1    15  0.18
      L1  C     4    26       P1 10957  0.71
      L1  C     9    27       P1  7957  0.72

> <Gold.PLP.Chemscore.Internal.Correction>
0.3843

> <Gold.Rescore>
     Score         DG    S(hbond)    S(metal)    S(lipo)     H(rot)  DE(clash)    DE(int)     intcor
      6.22     -10.19       3.61        0.00      25.24       4.03       2.69       1.29       ----

> <Gold.Chemscore.Fitness>
6.2155

> <Gold.Chemscore.DG>
-10.1949

> <Gold.Chemscore.ZeroCoef>
-5.4800

> <Gold.Chemscore.Hbond>
3.6146

> <Gold.Chemscore.Metal>
0.0000

> <Gold.Chemscore.Lipo>
25.2405

> <Gold.Chemscore.Internal_Hbond>
0.0000

> <Gold.Chemscore.DEClash>
2.6909

> <Gold.Chemscore.DEInternal>
1.2886

> <Gold.Chemscore.Rot>
4.0277

> <Gold.Chemscore.Internal.Correction>
   9.000000E+99

> <Gold.Chemscore.Hbonds>
donor molecule, donor type, donor heavy atom, donor atom, acceptor molecule, acceptor atom, score
      L1  H     1    24       P1  7921  0.72
      L1  H    15    30       P1  8028  0.87
      L1  H    17    31       P1  7948  0.80
      L1  H    19    32       P1  7948  0.94
      P1  H  8011  8017       L1    15  0.02

> <Gold.Chemscore.Hbond.Weighted>
-12.0728

> <Gold.Chemscore.Metal.Weighted>
-0.0000

> <Gold.Chemscore.Lipo.Weighted>
-2.9531

> <Gold.Chemscore.Internal_Hbond.Weighted>
0.0000

> <Gold.Chemscore.DEClash.Weighted>
2.6909

> <Gold.Chemscore.DEInternal.Weighted>
1.2886

> <Gold.Chemscore.Rot.Weighted>
10.3110

> <Gold.Chemscore.Internal.Correction.Weighted>
   9.000000E+99

> <Gold.Protein.RotatedTorsions>
[ 6907 6896 6895 6894 ] final   42.07 input  -60.11 | X-H torsion
[ 7974 7965 7964 7962 ] final   11.90 input  175.53 | X-H torsion
[ 8008 7997 7996 7995 ] final  166.02 input   59.86 | X-H torsion
[ 10167 10162 10161 10158 ] final   74.78 input  -65.29 | X-H torsion
[ 10718 10713 10712 10709 ] final -150.83 input   66.30 | X-H torsion
[ 10763 10752 10751 10750 ] final -147.67 input  -60.55 | X-H torsion
[ 11005 11000 10999 10996 ] final  -90.75 input  -57.11 | X-H torsion

> <Gold.Protein.ActiveResidues>
 VAL166  LYS551  ARG553  GLY616  TRP617  ASP618  TYR619  PRO620  LYS621  CYS622 
 ASP623  PHE694  ASN695  SER759  ASP760  ASP761  ALA762  ILE779  LEU786  VAL792 
 PHE793  MET794  SER795  GLU796  ALA797  LYS798  CYS799  TRP800  GLU811  SER814 

> <Gold.Protein.RotatedAtoms>
  152.2032  134.8569  160.0505 H   0  0  0  0  0  0  0  0  0  0  0  0  # atno 6907 bound_to 6896
  151.9414  133.3634  159.3975 H   0  0  0  0  0  0  0  0  0  0  0  0  # atno 6908 bound_to 6896
  150.6959  134.4359  159.5314 H   0  0  0  0  0  0  0  0  0  0  0  0  # atno 6909 bound_to 6896
  146.2362  139.9416  142.8482 H   0  0  0  0  0  0  0  0  0  0  0  0  # atno 7974 bound_to 7965
  156.1753  140.1654  156.8374 H   0  0  0  0  0  0  0  0  0  0  0  0  # atno 8008 bound_to 7997
  154.5300  140.0759  156.8362 H   0  0  0  0  0  0  0  0  0  0  0  0  # atno 8009 bound_to 7997
  155.3426  140.3385  155.4241 H   0  0  0  0  0  0  0  0  0  0  0  0  # atno 8010 bound_to 7997
  140.0100  144.5621  150.7666 H   0  0  0  0  0  0  0  0  0  0  0  0  # atno 10167 bound_to 10162
  156.4512  130.8169  151.2399 H   0  0  0  0  0  0  0  0  0  0  0  0  # atno 10718 bound_to 10713
  154.8274  135.3354  154.6854 H   0  0  0  0  0  0  0  0  0  0  0  0  # atno 10763 bound_to 10752
  153.7478  135.6941  153.4957 H   0  0  0  0  0  0  0  0  0  0  0  0  # atno 10764 bound_to 10752
  153.2198  135.4453  155.0427 H   0  0  0  0  0  0  0  0  0  0  0  0  # atno 10765 bound_to 10752
  141.1559  133.7712  156.9782 H   0  0  0  0  0  0  0  0  0  0  0  0  # atno 11005 bound_to 11000
  145.1947  140.9828  143.4190 LP  0  0  0  0  0  0  0  0  0  0  0  0  # atno 17320 bound_to 7965
  144.9826  139.3768  143.6254 LP  0  0  0  0  0  0  0  0  0  0  0  0  # atno 17321 bound_to 7965
  140.7385  143.2779  151.3686 LP  0  0  0  0  0  0  0  0  0  0  0  0  # atno 17342 bound_to 10162
  139.6212  144.0904  152.2392 LP  0  0  0  0  0  0  0  0  0  0  0  0  # atno 17343 bound_to 10162
  157.7502  131.0137  150.3435 LP  0  0  0  0  0  0  0  0  0  0  0  0  # atno 17370 bound_to 10713
  156.3814  130.3881  149.7099 LP  0  0  0  0  0  0  0  0  0  0  0  0  # atno 17371 bound_to 10713
  140.1083  134.9492  157.2028 LP  0  0  0  0  0  0  0  0  0  0  0  0  # atno 17394 bound_to 11000
  140.3227  134.2898  155.7243 LP  0  0  0  0  0  0  0  0  0  0  0  0  # atno 17395 bound_to 11000

$$$$
