AV-unprocessed.smi:1560|AV-procd|sdf|6281|dock7
  -GOLD-   22720 6483D 1   1.00000     0.00000
 Structure written by MMmdl.
 47 48  0  0  0  0  0  0  0  0  3 V2000
  142.9308  134.9646  152.8597 C   0  0  0  0  0  0  0  0  0  0  0  0
  144.2842  134.2379  152.7604 C   0  0  0  0  0  0  0  0  0  0  0  0
  145.5261  135.1524  152.5268 C   0  0  1  0  0  0  0  0  0  0  0  0
  145.3928  135.7552  151.1032 C   0  0  0  0  0  0  0  0  0  0  0  0
  145.5313  136.3170  153.5656 C   0  0  0  0  0  0  0  0  0  0  0  0
  146.4199  137.4218  153.2063 N   0  0  0  0  0  0  0  0  0  0  0  0
  146.9596  138.3016  154.0643 C   0  0  0  0  0  0  0  0  0  0  0  0
  146.7277  138.2951  155.2740 O   0  0  0  0  0  0  0  0  0  0  0  0
  147.8701  139.3737  153.4520 C   0  0  0  0  0  0  0  0  0  0  0  0
  149.1999  139.4109  154.0809 N   0  0  0  0  0  0  0  0  0  0  0  0
  149.8407  138.1850  154.3345 C   0  0  0  0  0  0  0  0  0  0  0  0
  151.0616  138.1255  154.9001 C   0  0  0  0  0  0  0  0  0  0  0  0
  151.7207  139.3770  155.2531 C   0  0  0  0  0  0  0  0  0  0  0  0
  152.8336  139.3414  155.7741 O   0  0  0  0  0  0  0  0  0  0  0  0
  151.0594  140.5407  154.9834 N   0  5  0  0  0  0  0  0  0  0  0  0
  149.8194  140.5861  154.4045 C   0  0  0  0  0  0  0  0  0  0  0  0
  149.2417  141.6474  154.1653 O   0  0  0  0  0  0  0  0  0  0  0  0
  146.7909  134.3365  152.6357 N   0  3  0  0  0  0  0  0  0  0  0  0
  147.2709  134.0476  154.0170 C   0  0  0  0  0  0  0  0  0  0  0  0
  148.6604  133.3877  153.9777 C   0  0  0  0  0  0  0  0  0  0  0  0
  148.6115  132.2020  153.1967 O   0  0  0  0  0  0  0  0  0  0  0  0
  148.2394  132.4723  151.8526 C   0  0  0  0  0  0  0  0  0  0  0  0
  146.8304  133.0856  151.8255 C   0  0  0  0  0  0  0  0  0  0  0  0
  142.1272  134.2473  153.0279 H   0  0  0  0  0  0  0  0  0  0  0  0
  142.6915  135.5085  151.9462 H   0  0  0  0  0  0  0  0  0  0  0  0
  142.9098  135.6713  153.6888 H   0  0  0  0  0  0  0  0  0  0  0  0
  144.4148  133.6720  153.6831 H   0  0  0  0  0  0  0  0  0  0  0  0
  144.2207  133.4760  151.9840 H   0  0  0  0  0  0  0  0  0  0  0  0
  144.3934  136.1545  150.9263 H   0  0  0  0  0  0  0  0  0  0  0  0
  145.5831  135.0124  150.3281 H   0  0  0  0  0  0  0  0  0  0  0  0
  146.0835  136.5831  150.9426 H   0  0  0  0  0  0  0  0  0  0  0  0
  144.5252  136.7035  153.7286 H   0  0  0  0  0  0  0  0  0  0  0  0
  145.8684  135.9565  154.5369 H   0  0  0  0  0  0  0  0  0  0  0  0
  146.6666  137.5090  152.2310 H   0  0  0  0  0  0  0  0  0  0  0  0
  147.9679  139.2141  152.3763 H   0  0  0  0  0  0  0  0  0  0  0  0
  147.3722  140.3388  153.5538 H   0  0  0  0  0  0  0  0  0  0  0  0
  149.2878  137.3060  154.0373 H   0  0  0  0  0  0  0  0  0  0  0  0
  151.5422  137.1761  155.0851 H   0  0  0  0  0  0  0  0  0  0  0  0
  147.3571  134.9545  154.6124 H   0  0  0  0  0  0  0  0  0  0  0  0
  146.5687  133.3902  154.5302 H   0  0  0  0  0  0  0  0  0  0  0  0
  149.4057  134.0740  153.5722 H   0  0  0  0  0  0  0  0  0  0  0  0
  148.9819  133.1307  154.9872 H   0  0  0  0  0  0  0  0  0  0  0  0
  148.9653  133.1383  151.3831 H   0  0  0  0  0  0  0  0  0  0  0  0
  148.2531  131.5388  151.2897 H   0  0  0  0  0  0  0  0  0  0  0  0
  146.1210  132.3562  152.2170 H   0  0  0  0  0  0  0  0  0  0  0  0
  146.5616  133.2700  150.7873 H   0  0  0  0  0  0  0  0  0  0  0  0
  147.5028  134.9305  152.2350 H   0  0  0  0  0  0  0  0  0  0  0  0
  1  2  1  0  0  0  0
  1 24  1  0  0  0  0
  1 25  1  0  0  0  0
  1 26  1  0  0  0  0
  2  3  1  0  0  0  0
  2 27  1  0  0  0  0
  2 28  1  0  0  0  0
  3  4  1  0  0  0  0
  3  5  1  0  0  0  0
  3 18  1  0  0  0  0
  4 29  1  0  0  0  0
  4 30  1  0  0  0  0
  4 31  1  0  0  0  0
  5  6  1  0  0  0  0
  5 32  1  0  0  0  0
  5 33  1  0  0  0  0
  6  7  1  0  0  0  0
  6 34  1  0  0  0  0
  7  8  2  0  0  0  0
  7  9  1  0  0  0  0
  9 10  1  0  0  0  0
  9 35  1  0  0  0  0
  9 36  1  0  0  0  0
 10 16  1  0  0  0  0
 10 11  1  0  0  0  0
 11 12  2  0  0  0  0
 11 37  1  0  0  0  0
 12 13  1  0  0  0  0
 12 38  1  0  0  0  0
 13 14  2  0  0  0  0
 13 15  1  0  0  0  0
 15 16  1  0  0  0  0
 16 17  2  0  0  0  0
 18 23  1  0  0  0  0
 18 19  1  0  0  0  0
 18 47  1  0  0  0  0
 19 20  1  0  0  0  0
 19 39  1  0  0  0  0
 19 40  1  0  0  0  0
 20 21  1  0  0  0  0
 20 41  1  0  0  0  0
 20 42  1  0  0  0  0
 21 22  1  0  0  0  0
 22 23  1  0  0  0  0
 22 43  1  0  0  0  0
 22 44  1  0  0  0  0
 23 45  1  0  0  0  0
 23 46  1  0  0  0  0
M  CHG  1  15  -1
M  CHG  1  18   1
M  END
> <s_m_source_file>
AV-unprocessed.smi

> <i_m_source_file_index>
1560

> <i_lp_mmshare_version>
43012

> <i_f3d_flags>
0

> <s_epik_input>
W0NIMl0xW0NIMl1PW0NIMl1bQ0gyXU4xW0NAQF0oW0NIM10pKFtDSDJdW0NIM10pW0NIMl1bTkhdQyg9TylbQ0gyXW4yW2NIXVtjSF1jKD1PKVtuSF1jMj1P

> <s_epik_cmdline>
J2VwaWtfcHl0aG9uJywgJy1waCcsICc3LjAnLCAnLXRuJywgJzgnLCAnLW1hJywgJzIwMCcsICctbWV0YWxfYmluZGluZycsICctaW1hZScsICc8aW5maWxlLm1hZT4nLCAnLW9tYWUnLCAnPG91dGZpbGUubWFlPic=

> <r_lp_tautomer_probability>
0.999537

> <r_epik_Ionization_Penalty>
3.51944

> <r_epik_Ionization_Penalty_Charging>
0.588852

> <r_epik_Ionization_Penalty_Neutral>
2.93059

> <r_epik_State_Penalty>
3.4987

> <r_epik_Charging_Adjusted_Penalty>
4.08755

> <i_epik_Tot_Q>
0

> <i_epik_Tot_abs_Q>
2

> <r_epik_Metal_State_Penalty>
1.01204

> <b_epik_Metal_Only>
1

> <s_lp_Force_Field>
OPLS_2005

> <r_lp_Energy>
37.4968

> <b_lp_Chiralities_Consistent>
1

> <s_lp_Variant>
AV-unprocessed.smi:1560-7

> <Gold.Version>
5.8.1

> <Gold.Id.Protein>
6NUR|6NUR_protein|mol2

> <Gold.PLP.Fitness>
43.8533

> <Gold.PLP.PLP>
-30.7371

> <Gold.PLP.part.hbond>
-5.1595

> <Gold.PLP.part.metal>
0.0000

> <Gold.PLP.part.buried>
4.4911

> <Gold.PLP.part.nonpolar>
-30.0028

> <Gold.PLP.part.repulsive>
0.4486

> <Gold.PLP.ligand.clash>
0.0000

> <Gold.PLP.ligand.torsion>
0.9309

> <Gold.PLP.Chemscore.Hbond>
3.9283

> <Gold.PLP.Chemscore.CHOScore>
1.0000

> <Gold.PLP.Chemscore.Metal>
0.0000

> <Gold.Chemscore.Hbonds>
donor molecule, donor type, donor heavy atom, donor atom, acceptor molecule, acceptor atom, score
      L1  H    18    47       P1  7948  2.00
      P1  H  7989  7998       L1    15  0.30
      P1  H  7997  8008       L1    14  1.00
      P1  H  8011  8017       L1    17  0.53
      L1  C    11    37       P1  7948  1.00

> <Gold.PLP.Chemscore.Internal.Correction>
0.1930

> <Gold.Rescore>
     Score         DG    S(hbond)    S(metal)    S(lipo)     H(rot)  DE(clash)    DE(int)     intcor
     11.14     -13.43       2.13        0.00      61.96       2.50       1.60       0.69       ----

> <Gold.Chemscore.Fitness>
11.1418

> <Gold.Chemscore.DG>
-13.4338

> <Gold.Chemscore.ZeroCoef>
-5.4800

> <Gold.Chemscore.Hbond>
2.1251

> <Gold.Chemscore.Metal>
0.0000

> <Gold.Chemscore.Lipo>
61.9582

> <Gold.Chemscore.Internal_Hbond>
0.0000

> <Gold.Chemscore.DEClash>
1.5973

> <Gold.Chemscore.DEInternal>
0.6946

> <Gold.Chemscore.Rot>
2.4973

> <Gold.Chemscore.Internal.Correction>
   9.000000E+99

> <Gold.Chemscore.Hbonds>
donor molecule, donor type, donor heavy atom, donor atom, acceptor molecule, acceptor atom, score
      L1  H    18    47       P1  7948  0.93
      P1  H  7997  8008       L1    14  1.00
      P1  H  8011  8017       L1    17  0.42

> <Gold.Chemscore.Hbond.Weighted>
-7.0977

> <Gold.Chemscore.Metal.Weighted>
-0.0000

> <Gold.Chemscore.Lipo.Weighted>
-7.2491

> <Gold.Chemscore.Internal_Hbond.Weighted>
0.0000

> <Gold.Chemscore.DEClash.Weighted>
1.5973

> <Gold.Chemscore.DEInternal.Weighted>
0.6946

> <Gold.Chemscore.Rot.Weighted>
6.3930

> <Gold.Chemscore.Internal.Correction.Weighted>
   9.000000E+99

> <Gold.Protein.RotatedTorsions>
[ 6907 6896 6895 6894 ] final  -32.36 input  -60.11 | X-H torsion
[ 7974 7965 7964 7962 ] final   34.24 input  175.53 | X-H torsion
[ 8008 7997 7996 7995 ] final  -32.15 input   59.86 | X-H torsion
[ 10167 10162 10161 10158 ] final  137.27 input  -65.29 | X-H torsion
[ 10718 10713 10712 10709 ] final   15.14 input   66.30 | X-H torsion
[ 10763 10752 10751 10750 ] final  139.00 input  -60.55 | X-H torsion
[ 11005 11000 10999 10996 ] final   18.18 input  -57.11 | X-H torsion

> <Gold.Protein.ActiveResidues>
 VAL166  LYS551  ARG553  GLY616  TRP617  ASP618  TYR619  PRO620  LYS621  CYS622 
 ASP623  PHE694  ASN695  SER759  ASP760  ASP761  ALA762  ILE779  LEU786  VAL792 
 PHE793  MET794  SER795  GLU796  ALA797  LYS798  CYS799  TRP800  GLU811  SER814 

> <Gold.Protein.RotatedAtoms>
  151.0797  134.9850  159.8349 H   0  0  0  0  0  0  0  0  0  0  0  0  # atno 6907 bound_to 6896
  152.5418  134.2197  159.8792 H   0  0  0  0  0  0  0  0  0  0  0  0  # atno 6908 bound_to 6896
  151.2226  133.4450  159.2634 H   0  0  0  0  0  0  0  0  0  0  0  0  # atno 6909 bound_to 6896
  146.1366  139.6294  142.9191 H   0  0  0  0  0  0  0  0  0  0  0  0  # atno 7974 bound_to 7965
  154.4189  140.1745  156.1680 H   0  0  0  0  0  0  0  0  0  0  0  0  # atno 8008 bound_to 7997
  155.9784  140.3379  155.6615 H   0  0  0  0  0  0  0  0  0  0  0  0  # atno 8009 bound_to 7997
  155.6533  140.0693  157.2570 H   0  0  0  0  0  0  0  0  0  0  0  0  # atno 8010 bound_to 7997
  139.5150  144.6419  151.5545 H   0  0  0  0  0  0  0  0  0  0  0  0  # atno 10167 bound_to 10162
  157.0493  130.6263  149.5765 H   0  0  0  0  0  0  0  0  0  0  0  0  # atno 10718 bound_to 10713
  153.8988  135.3024  155.3448 H   0  0  0  0  0  0  0  0  0  0  0  0  # atno 10763 bound_to 10752
  154.7680  135.4900  153.9596 H   0  0  0  0  0  0  0  0  0  0  0  0  # atno 10764 bound_to 10752
  153.1256  135.6792  153.9362 H   0  0  0  0  0  0  0  0  0  0  0  0  # atno 10765 bound_to 10752
  140.4276  134.1453  155.7678 H   0  0  0  0  0  0  0  0  0  0  0  0  # atno 11005 bound_to 11000
  145.5141  141.0434  143.2471 LP  0  0  0  0  0  0  0  0  0  0  0  0  # atno 17320 bound_to 7965
  144.7747  139.6657  143.7180 LP  0  0  0  0  0  0  0  0  0  0  0  0  # atno 17321 bound_to 7965
  140.6189  143.9295  150.6510 LP  0  0  0  0  0  0  0  0  0  0  0  0  # atno 17342 bound_to 10162
  140.2562  143.3557  152.1362 LP  0  0  0  0  0  0  0  0  0  0  0  0  # atno 17343 bound_to 10162
  156.0013  130.5092  150.7672 LP  0  0  0  0  0  0  0  0  0  0  0  0  # atno 17370 bound_to 10713
  157.5043  131.0921  151.0276 LP  0  0  0  0  0  0  0  0  0  0  0  0  # atno 17371 bound_to 10713
  141.1758  133.8516  157.1424 LP  0  0  0  0  0  0  0  0  0  0  0  0  # atno 17394 bound_to 11000
  140.0156  134.9969  157.0487 LP  0  0  0  0  0  0  0  0  0  0  0  0  # atno 17395 bound_to 11000

$$$$
