AV-unprocessed.smi:158|AV-procd|sdf|1330|dock10
  -GOLD-   2262019 23D 1   1.00000     0.00000
 Structure written by MMmdl.
 31 33  0  0  0  0  0  0  0  0  1 V2000
  152.8705  139.2925  157.6546 N   0  0  0  0  0  0  0  0  0  0  0  0
  151.9345  140.1683  157.2637 C   0  0  0  0  0  0  0  0  0  0  0  0
  151.7549  141.2917  157.9967 N   0  0  0  0  0  0  0  0  0  0  0  0
  150.8321  142.1934  157.6382 C   0  0  0  0  0  0  0  0  0  0  0  0
  150.6910  143.5865  158.6443 Cl  0  0  0  0  0  0  0  0  0  0  0  0
  150.0058  142.1352  156.5879 N   0  0  0  0  0  0  0  0  0  0  0  0
  150.1826  141.0014  155.8498 C   0  0  0  0  0  0  0  0  0  0  0  0
  151.1251  139.9742  156.1180 C   0  0  0  0  0  0  0  0  0  0  0  0
  151.0301  138.9821  155.1522 N   0  0  0  0  0  0  0  0  0  0  0  0
  150.0840  139.4072  154.3578 C   0  0  0  0  0  0  0  0  0  0  0  0
  149.5050  140.6078  154.7161 N   0  0  0  0  0  0  0  0  0  0  0  0
  148.4129  141.3808  154.0409 C   0  0  1  0  0  0  0  0  0  0  0  0
  147.9854  140.6461  152.9275 O   0  0  0  0  0  0  0  0  0  0  0  0
  146.6914  140.0736  153.1514 C   0  0  1  0  0  0  0  0  0  0  0  0
  146.6384  138.6265  152.6360 C   0  0  0  0  0  0  0  0  0  0  0  0
  147.7412  138.3731  151.7931 O   0  0  0  0  0  0  0  0  0  0  0  0
  146.4864  140.1920  154.6642 C   0  0  2  0  0  0  0  0  0  0  0  0
  145.1283  140.2359  155.0550 O   0  0  0  0  0  0  0  0  0  0  0  0
  147.2028  141.4932  154.9696 C   0  0  2  0  0  0  0  0  0  0  0  0
  146.4882  142.5528  154.5830 F   0  0  0  0  0  0  0  0  0  0  0  0
  148.8745  142.3313  153.7699 H   0  0  0  0  0  0  0  0  0  0  0  0
  145.9518  140.6935  152.6405 H   0  0  0  0  0  0  0  0  0  0  0  0
  146.9825  139.3689  155.1809 H   0  0  0  0  0  0  0  0  0  0  0  0
  147.4772  141.6256  156.0164 H   0  0  0  0  0  0  0  0  0  0  0  0
  153.0220  138.4481  157.1214 H   0  0  0  0  0  0  0  0  0  0  0  0
  153.4224  139.4777  158.4798 H   0  0  0  0  0  0  0  0  0  0  0  0
  149.7898  138.8477  153.4832 H   0  0  0  0  0  0  0  0  0  0  0  0
  146.6106  137.9060  153.4522 H   0  0  0  0  0  0  0  0  0  0  0  0
  145.7355  138.4747  152.0439 H   0  0  0  0  0  0  0  0  0  0  0  0
  148.3124  139.1258  151.8094 H   0  0  0  0  0  0  0  0  0  0  0  0
  144.5967  140.3658  154.2846 H   0  0  0  0  0  0  0  0  0  0  0  0
  1  2  1  0  0  0  0
  1 25  1  0  0  0  0
  1 26  1  0  0  0  0
  2  8  1  0  0  0  0
  2  3  2  0  0  0  0
  3  4  1  0  0  0  0
  4  5  1  0  0  0  0
  4  6  2  0  0  0  0
  6  7  1  0  0  0  0
  7 11  1  0  0  0  0
  7  8  2  0  0  0  0
  8  9  1  0  0  0  0
  9 10  2  0  0  0  0
 10 11  1  0  0  0  0
 10 27  1  0  0  0  0
 11 12  1  0  0  0  0
 12 21  1  0  0  0  0
 12 19  1  0  0  0  0
 12 13  1  0  0  0  0
 13 14  1  0  0  0  0
 14 22  1  0  0  0  0
 14 15  1  0  0  0  0
 14 17  1  0  0  0  0
 15 16  1  0  0  0  0
 15 28  1  0  0  0  0
 15 29  1  0  0  0  0
 16 30  1  0  0  0  0
 17 23  1  0  0  0  0
 17 18  1  0  0  0  0
 17 19  1  0  0  0  0
 18 31  1  0  0  0  0
 19 24  1  0  0  0  0
 19 20  1  0  0  0  0
M  END
> <s_m_source_file>
AV-unprocessed.smi

> <i_m_source_file_index>
158

> <i_lp_mmshare_version>
43012

> <i_f3d_flags>
0

> <s_epik_input>
Q2xjKG4xKW5jKFtOSDJdKWMoYzEyKW5bY0hdbjJbQ0BASF0zT1tDQEhdKFtDSDJdW09IXSlbQ0BASF0oW09IXSlbQ0BASF0zRg==

> <s_epik_cmdline>
J2VwaWtfcHl0aG9uJywgJy1waCcsICc3LjAnLCAnLXRuJywgJzgnLCAnLW1hJywgJzIwMCcsICctbWV0YWxfYmluZGluZycsICctaW1hZScsICc8aW5maWxlLm1hZT4nLCAnLW9tYWUnLCAnPG91dGZpbGUubWFlPic=

> <r_lp_tautomer_probability>
1

> <r_epik_Ionization_Penalty>
6.51543e-05

> <r_epik_Ionization_Penalty_Charging>
0

> <r_epik_Ionization_Penalty_Neutral>
6.51543e-05

> <r_epik_State_Penalty>
-0

> <r_epik_Charging_Adjusted_Penalty>
0

> <i_epik_Tot_Q>
0

> <i_epik_Tot_abs_Q>
0

> <r_epik_Metal_State_Penalty>
-0

> <b_epik_Metal_Only>
0

> <s_epik_Chemistry_Notes>
This compound contains an acetal/aminal-like group ( X-CH(R)-Y where X, Y are N, S, or O) that may be acid/base labile, releasing an aldehyde.

> <s_lp_Force_Field>
OPLS_2005

> <r_lp_Energy>
30.2805

> <b_lp_Chiralities_Consistent>
1

> <s_lp_Variant>
AV-unprocessed.smi:158-8

> <Gold.Version>
5.8.1

> <Gold.Id.Protein>
6NUR|6NUR_protein|mol2

> <Gold.PLP.Fitness>
39.0905

> <Gold.PLP.PLP>
-29.4607

> <Gold.PLP.part.hbond>
-3.7946

> <Gold.PLP.part.metal>
0.0000

> <Gold.PLP.part.buried>
-2.3274

> <Gold.PLP.part.nonpolar>
-28.3146

> <Gold.PLP.part.repulsive>
5.4086

> <Gold.PLP.ligand.clash>
0.0000

> <Gold.PLP.ligand.torsion>
0.6766

> <Gold.PLP.Chemscore.Hbond>
2.8384

> <Gold.PLP.Chemscore.CHOScore>
0.8134

> <Gold.PLP.Chemscore.Metal>
0.0000

> <Gold.Chemscore.Hbonds>
donor molecule, donor type, donor heavy atom, donor atom, acceptor molecule, acceptor atom, score
      L1  H    16    30       P1  7957  0.99
      L1  H    18    31       P1 10175  1.00
      P1  H  7954  7966       L1    16  0.70
      L1  C    10    27       P1  7957  0.66

> <Gold.PLP.Chemscore.Internal.Correction>
0.0276

> <Gold.Rescore>
     Score         DG    S(hbond)    S(metal)    S(lipo)     H(rot)  DE(clash)    DE(int)     intcor
      4.85      -8.44       1.93        0.00      38.70       3.12       2.83       0.76       ----

> <Gold.Chemscore.Fitness>
4.8513

> <Gold.Chemscore.DG>
-8.4439

> <Gold.Chemscore.ZeroCoef>
-5.4800

> <Gold.Chemscore.Hbond>
1.9255

> <Gold.Chemscore.Metal>
0.0000

> <Gold.Chemscore.Lipo>
38.6988

> <Gold.Chemscore.Internal_Hbond>
0.0000

> <Gold.Chemscore.DEClash>
2.8347

> <Gold.Chemscore.DEInternal>
0.7579

> <Gold.Chemscore.Rot>
3.1230

> <Gold.Chemscore.Internal.Correction>
   9.000000E+99

> <Gold.Chemscore.Hbonds>
donor molecule, donor type, donor heavy atom, donor atom, acceptor molecule, acceptor atom, score
      L1  H    16    30       P1  7957  0.90
      L1  H    18    31       P1 10175  0.94
      P1  H  7954  7966       L1    16  0.07

> <Gold.Chemscore.Hbond.Weighted>
-6.4311

> <Gold.Chemscore.Metal.Weighted>
-0.0000

> <Gold.Chemscore.Lipo.Weighted>
-4.5278

> <Gold.Chemscore.Internal_Hbond.Weighted>
0.0000

> <Gold.Chemscore.DEClash.Weighted>
2.8347

> <Gold.Chemscore.DEInternal.Weighted>
0.7579

> <Gold.Chemscore.Rot.Weighted>
7.9950

> <Gold.Chemscore.Internal.Correction.Weighted>
   9.000000E+99

> <Gold.Protein.RotatedTorsions>
[ 6907 6896 6895 6894 ] final  134.27 input  -60.11 | X-H torsion
[ 7974 7965 7964 7962 ] final -121.39 input  175.53 | X-H torsion
[ 8008 7997 7996 7995 ] final    5.08 input   59.86 | X-H torsion
[ 10167 10162 10161 10158 ] final  152.95 input  -65.29 | X-H torsion
[ 10718 10713 10712 10709 ] final   55.61 input   66.30 | X-H torsion
[ 10763 10752 10751 10750 ] final  -71.74 input  -60.55 | X-H torsion
[ 11005 11000 10999 10996 ] final   30.94 input  -57.11 | X-H torsion

> <Gold.Protein.ActiveResidues>
 VAL166  LYS551  ARG553  GLY616  TRP617  ASP618  TYR619  PRO620  LYS621  CYS622 
 ASP623  PHE694  ASN695  SER759  ASP760  ASP761  ALA762  ILE779  LEU786  VAL792 
 PHE793  MET794  SER795  GLU796  ALA797  LYS798  CYS799  TRP800  GLU811  SER814 

> <Gold.Protein.RotatedAtoms>
  152.3131  133.5774  159.5693 H   0  0  0  0  0  0  0  0  0  0  0  0  # atno 6907 bound_to 6896
  150.7333  134.0123  159.3682 H   0  0  0  0  0  0  0  0  0  0  0  0  # atno 6908 bound_to 6896
  151.8014  135.0708  160.0451 H   0  0  0  0  0  0  0  0  0  0  0  0  # atno 6909 bound_to 6896
  145.0408  140.8143  143.4267 H   0  0  0  0  0  0  0  0  0  0  0  0  # atno 7974 bound_to 7965
  154.7239  140.2717  155.6516 H   0  0  0  0  0  0  0  0  0  0  0  0  # atno 8008 bound_to 7997
  156.2831  140.2729  156.1844 H   0  0  0  0  0  0  0  0  0  0  0  0  # atno 8009 bound_to 7997
  155.0470  140.0371  157.2520 H   0  0  0  0  0  0  0  0  0  0  0  0  # atno 8010 bound_to 7997
  139.4830  144.5314  151.7716 H   0  0  0  0  0  0  0  0  0  0  0  0  # atno 10167 bound_to 10162
  157.5360  130.8663  149.8753 H   0  0  0  0  0  0  0  0  0  0  0  0  # atno 10718 bound_to 10713
  154.4359  135.5952  153.6098 H   0  0  0  0  0  0  0  0  0  0  0  0  # atno 10763 bound_to 10752
  152.9802  135.5986  154.3782 H   0  0  0  0  0  0  0  0  0  0  0  0  # atno 10764 bound_to 10752
  154.3626  135.2841  155.2290 H   0  0  0  0  0  0  0  0  0  0  0  0  # atno 10765 bound_to 10752
  140.2891  134.2885  155.7780 H   0  0  0  0  0  0  0  0  0  0  0  0  # atno 11005 bound_to 11000
  145.1650  139.2437  143.5372 LP  0  0  0  0  0  0  0  0  0  0  0  0  # atno 17320 bound_to 7965
  146.3509  140.1386  142.8595 LP  0  0  0  0  0  0  0  0  0  0  0  0  # atno 17321 bound_to 7965
  140.4841  144.1406  150.5938 LP  0  0  0  0  0  0  0  0  0  0  0  0  # atno 17342 bound_to 10162
  140.4245  143.2596  151.9674 LP  0  0  0  0  0  0  0  0  0  0  0  0  # atno 17343 bound_to 10162
  156.0459  130.3728  150.1320 LP  0  0  0  0  0  0  0  0  0  0  0  0  # atno 17370 bound_to 10713
  156.9502  130.9772  151.3499 LP  0  0  0  0  0  0  0  0  0  0  0  0  # atno 17371 bound_to 10713
  141.2149  133.7574  156.9597 LP  0  0  0  0  0  0  0  0  0  0  0  0  # atno 17394 bound_to 11000
  140.1212  134.9416  157.2206 LP  0  0  0  0  0  0  0  0  0  0  0  0  # atno 17395 bound_to 11000

$$$$
