#       Name:                AV-unprocessed.smi:1258
#       Creating user name   scv26
#       Creation time:       Fri Mar 27 04:40:53 2020


#       File generated by GOLD software.
#

@<TRIPOS>MOLECULE
AV-unprocessed.smi:1258
    38    39     1
SMALL
NO_CHARGES


@<TRIPOS>ATOM
      1 ****        -3.0837  -2.0455  -1.8085 C.3            1 S1                 0.0000
      2 ****        -2.5214  -1.0014  -0.8333 C.3            1 S1                 0.0000
      3 ****        -2.9604  -1.2893   0.6151 C.3            1 S1                 0.0000
      4 ****        -2.3962  -0.2463   1.5925 C.3            1 S1                 0.0000
      5 ****        -0.8653  -0.1622   1.4950 C.3            1 S1                 0.0000
      6 ****        -0.4118   0.1317   0.0535 C.3            1 S1                 0.0000
      7 ****         1.0463   0.1475  -0.0050 N.am           1 S1                 0.0000
      8 ****         1.7810   0.8100  -0.9123 C.2            1 S1                 0.0000
      9 ****         1.2955   1.4784  -1.8245 O.2            1 S1                 0.0000
     10 ****         3.2989   0.7044  -0.7684 C.3            1 S1                 0.0000
     11 ****         3.7779   1.5540   0.3051 N.pl3          1 S1                 0.0000
     12 ****         4.0400   2.8623   0.3371 C.2            1 S1                 0.0000
     13 ****         4.4541   3.2481   1.5344 N.2            1 S1                 0.0000
     14 ****         4.4349   2.0735   2.2681 N.2            1 S1                 0.0000
     15 ****         4.0339   1.0648   1.5441 N.2            1 S1                 0.0000
     16 ****        -0.9854  -0.9141  -0.9252 C.3            1 S1                 0.0000
     17 ****        -2.7138  -3.0446  -1.5764 H              1 S1                 0.0000
     18 ****        -2.8004  -1.8160  -2.8359 H              1 S1                 0.0000
     19 ****        -4.1729  -2.0755  -1.7665 H              1 S1                 0.0000
     20 ****        -2.9294  -0.0314  -1.1212 H              1 S1                 0.0000
     21 ****        -4.0490  -1.2988   0.6806 H              1 S1                 0.0000
     22 ****        -2.6250  -2.2839   0.9123 H              1 S1                 0.0000
     23 ****        -2.8302   0.7306   1.3759 H              1 S1                 0.0000
     24 ****        -2.6901  -0.4957   2.6125 H              1 S1                 0.0000
     25 ****        -0.4967   0.6124   2.1687 H              1 S1                 0.0000
     26 ****        -0.4298  -1.1025   1.8368 H              1 S1                 0.0000
     27 ****        -0.7881   1.1182  -0.2244 H              1 S1                 0.0000
     28 ****         1.5344  -0.3751   0.7083 H              1 S1                 0.0000
     29 ****         3.5889  -0.3295  -0.5737 H              1 S1                 0.0000
     30 ****         3.7844   1.0070  -1.6970 H              1 S1                 0.0000
     31 ****         3.9250   3.5251  -0.5079 H              1 S1                 0.0000
     32 ****        -0.5509  -1.8922  -0.7125 H              1 S1                 0.0000
     33 ****        -0.6948  -0.6640  -1.9465 H              1 S1                 0.0000
     34 ****         0.3025   1.5492  -1.9187 LP             1 S1                 0.0000
     35 ****         1.8940   1.9507  -2.4716 LP             1 S1                 0.0000
     36 ****         4.7168   4.1648   1.8356 LP             1 S1                 0.0000
     37 ****         4.6955   2.0069   3.2312 LP             1 S1                 0.0000
     38 ****         3.9346   0.1160   1.8441 LP             1 S1                 0.0000
@<TRIPOS>BOND
    1    1    2 1     
    2    1   17 1     
    3    1   18 1     
    4    1   19 1     
    5    2   16 1     
    6    2    3 1     
    7    2   20 1     
    8    3    4 1     
    9    3   21 1     
   10    3   22 1     
   11    4    5 1     
   12    4   23 1     
   13    4   24 1     
   14    5    6 1     
   15    5   25 1     
   16    5   26 1     
   17    6    7 1     
   18    6   16 1     
   19    6   27 1     
   20    7    8 am    
   21    7   28 1     
   22    8    9 2     
   23    8   10 1     
   24   10   11 1     
   25   10   29 1     
   26   10   30 1     
   27   11   15 1     
   28   11   12 1     
   29   12   13 2     
   30   12   31 1     
   31   13   14 1     
   32   14   15 2     
   33   16   32 1     
   34   16   33 1     
   35    9   34 1     
   36    9   35 1     
   37   13   36 1     
   38   14   37 1     
   39   15   38 1     
@<TRIPOS>SUBSTRUCTURE
      1 S1             1
@<TRIPOS>SET
LONE_PAIRS      STATIC     ATOMS    <user>   **** ""
5 34 35 36 37 38
DONOR_HYDROGENS      STATIC     ATOMS    <user>   **** ""
1 28
ATOM$BLUE        STATIC     ATOMS    COLORGROUP SYSTEM
5 34 35 36 37 38
ATOM$RED        STATIC     ATOMS    COLORGROUP SYSTEM
1 28
