AV-unprocessed.smi:3311|AV-procd|sdf|12719|dock7
  -GOLD-   2272019 53D 1   1.00000     0.00000
 Structure written by MMmdl.
 44 45  0  0  0  0  0  0  0  0  2 V2000
  144.6698  135.6456  153.6706 C   0  0  0  0  0  0  0  0  0  0  0  0
  145.8561  135.5259  152.6996 C   0  0  2  0  0  0  0  0  0  0  0  0
  146.6312  136.7872  152.7404 N   0  3  0  0  0  0  0  0  0  0  0  0
  146.9003  137.3151  154.0954 C   0  0  0  0  0  0  0  0  0  0  0  0
  147.6811  138.6467  154.0568 C   0  0  0  0  0  0  0  0  0  0  0  0
  148.8458  138.4250  153.2803 O   0  0  0  0  0  0  0  0  0  0  0  0
  146.8452  139.7877  153.4250 C   0  0  0  0  0  0  0  0  0  0  0  0
  147.5479  141.1554  153.4952 C   0  0  0  0  0  0  0  0  0  0  0  0
  147.9455  141.5074  154.9352 C   0  0  0  0  0  0  0  0  0  0  0  0
  148.8261  140.4082  155.5452 C   0  0  0  0  0  0  0  0  0  0  0  0
  148.1298  139.0364  155.4854 C   0  0  0  0  0  0  0  0  0  0  0  0
  145.4195  135.2147  151.2426 C   0  0  2  0  0  0  0  0  0  0  0  0
  144.1134  135.9213  150.8325 C   0  0  0  0  0  0  0  0  0  0  0  0
  145.2947  133.7780  151.0224 N   0  0  0  0  0  0  0  0  0  0  0  0
  144.1709  133.0646  150.6584 C   0  0  0  0  0  0  0  0  0  0  0  0
  144.5348  131.7527  150.5560 C   0  0  0  0  0  0  0  0  0  0  0  0
  145.9188  131.7585  150.8842 C   0  0  0  0  0  0  0  0  0  0  0  0
  146.3703  132.9703  151.1627 N   0  0  0  0  0  0  0  0  0  0  0  0
  144.1336  134.7020  153.7695 H   0  0  0  0  0  0  0  0  0  0  0  0
  143.9582  136.4033  153.3407 H   0  0  0  0  0  0  0  0  0  0  0  0
  145.0100  135.9213  154.6695 H   0  0  0  0  0  0  0  0  0  0  0  0
  146.4854  134.7078  153.0548 H   0  0  0  0  0  0  0  0  0  0  0  0
  147.5234  136.6222  152.2964 H   0  0  0  0  0  0  0  0  0  0  0  0
  145.9513  137.4492  154.6166 H   0  0  0  0  0  0  0  0  0  0  0  0
  147.4675  136.5726  154.6587 H   0  0  0  0  0  0  0  0  0  0  0  0
  148.8562  137.5195  153.0082 H   0  0  0  0  0  0  0  0  0  0  0  0
  146.6066  139.5612  152.3855 H   0  0  0  0  0  0  0  0  0  0  0  0
  145.8891  139.8608  153.9452 H   0  0  0  0  0  0  0  0  0  0  0  0
  148.4354  141.1482  152.8614 H   0  0  0  0  0  0  0  0  0  0  0  0
  146.8917  141.9284  153.0940 H   0  0  0  0  0  0  0  0  0  0  0  0
  148.4742  142.4609  154.9532 H   0  0  0  0  0  0  0  0  0  0  0  0
  147.0488  141.6391  155.5424 H   0  0  0  0  0  0  0  0  0  0  0  0
  149.7785  140.3650  155.0155 H   0  0  0  0  0  0  0  0  0  0  0  0
  149.0636  140.6571  156.5799 H   0  0  0  0  0  0  0  0  0  0  0  0
  147.2587  139.0618  156.1416 H   0  0  0  0  0  0  0  0  0  0  0  0
  148.7917  138.2725  155.8960 H   0  0  0  0  0  0  0  0  0  0  0  0
  146.2037  135.5693  150.5714 H   0  0  0  0  0  0  0  0  0  0  0  0
  144.2271  137.0049  150.8212 H   0  0  0  0  0  0  0  0  0  0  0  0
  143.2958  135.6781  151.5118 H   0  0  0  0  0  0  0  0  0  0  0  0
  143.8084  135.6241  149.8285 H   0  0  0  0  0  0  0  0  0  0  0  0
  143.2157  133.5437  150.5008 H   0  0  0  0  0  0  0  0  0  0  0  0
  143.9075  130.9154  150.2886 H   0  0  0  0  0  0  0  0  0  0  0  0
  146.6040  130.9247  150.9277 H   0  0  0  0  0  0  0  0  0  0  0  0
  146.1374  137.4909  152.2109 H   0  0  0  0  0  0  0  0  0  0  0  0
  1  2  1  0  0  0  0
  1 19  1  0  0  0  0
  1 20  1  0  0  0  0
  1 21  1  0  0  0  0
  2  3  1  0  0  0  0
  2 12  1  0  0  0  0
  2 22  1  0  0  0  0
  3  4  1  0  0  0  0
  3 23  1  0  0  0  0
  3 44  1  0  0  0  0
  4  5  1  0  0  0  0
  4 24  1  0  0  0  0
  4 25  1  0  0  0  0
  5 11  1  0  0  0  0
  5  6  1  0  0  0  0
  5  7  1  0  0  0  0
  6 26  1  0  0  0  0
  7  8  1  0  0  0  0
  7 27  1  0  0  0  0
  7 28  1  0  0  0  0
  8  9  1  0  0  0  0
  8 29  1  0  0  0  0
  8 30  1  0  0  0  0
  9 10  1  0  0  0  0
  9 31  1  0  0  0  0
  9 32  1  0  0  0  0
 10 11  1  0  0  0  0
 10 33  1  0  0  0  0
 10 34  1  0  0  0  0
 11 35  1  0  0  0  0
 11 36  1  0  0  0  0
 12 13  1  0  0  0  0
 12 14  1  0  0  0  0
 12 37  1  0  0  0  0
 13 38  1  0  0  0  0
 13 39  1  0  0  0  0
 13 40  1  0  0  0  0
 14 18  1  0  0  0  0
 14 15  1  0  0  0  0
 15 16  2  0  0  0  0
 15 41  1  0  0  0  0
 16 17  1  0  0  0  0
 16 42  1  0  0  0  0
 17 18  2  0  0  0  0
 17 43  1  0  0  0  0
M  CHG  1   3   1
M  END
> <s_m_source_file>
AV-unprocessed.smi

> <i_m_source_file_index>
3311

> <i_lp_mmshare_version>
43012

> <i_f3d_flags>
0

> <s_epik_input>
bjFbY0hdW2NIXVtjSF1uMVtDQEBIXShbQ0gzXSlbQ0BIXShbQ0gzXSlbTkhdW0NIMl1DMihbT0hdKVtDSDJdW0NIMl1bQ0gyXVtDSDJdW0NIMl0y

> <s_epik_cmdline>
J2VwaWtfcHl0aG9uJywgJy1waCcsICc3LjAnLCAnLXRuJywgJzgnLCAnLW1hJywgJzIwMCcsICctbWV0YWxfYmluZGluZycsICctaW1hZScsICc8aW5maWxlLm1hZT4nLCAnLW9tYWUnLCAnPG91dGZpbGUubWFlPic=

> <r_lp_tautomer_probability>
1

> <r_epik_Ionization_Penalty>
0.0141403

> <r_epik_Ionization_Penalty_Charging>
0.0141276

> <r_epik_Ionization_Penalty_Neutral>
1.27139e-05

> <r_epik_State_Penalty>
0.0110334

> <r_epik_Charging_Adjusted_Penalty>
0.025161

> <i_epik_Tot_Q>
1

> <i_epik_Tot_abs_Q>
1

> <r_epik_Metal_State_Penalty>
0.0110573

> <b_epik_Metal_Only>
0

> <s_lp_Force_Field>
OPLS_2005

> <r_lp_Energy>
21.8269

> <b_lp_Chiralities_Consistent>
1

> <s_lp_Variant>
AV-unprocessed.smi:3311-1

> <Gold.Version>
5.8.1

> <Gold.Id.Protein>
6NUR|6NUR_protein|mol2

> <Gold.PLP.Fitness>
41.3494

> <Gold.PLP.PLP>
-27.8816

> <Gold.PLP.part.hbond>
-3.0000

> <Gold.PLP.part.metal>
0.0000

> <Gold.PLP.part.buried>
-3.1084

> <Gold.PLP.part.nonpolar>
-22.1520

> <Gold.PLP.part.repulsive>
0.2078

> <Gold.PLP.ligand.clash>
0.0000

> <Gold.PLP.ligand.torsion>
0.7789

> <Gold.PLP.Chemscore.Hbond>
3.0000

> <Gold.PLP.Chemscore.CHOScore>
1.9862

> <Gold.PLP.Chemscore.Metal>
0.0000

> <Gold.Chemscore.Hbonds>
donor molecule, donor type, donor heavy atom, donor atom, acceptor molecule, acceptor atom, score
      L1  H     3    23       P1  7948  2.00
      L1  H     6    26       P1  7948  1.00
      L1  C    15    41       P1 10186  0.93
      L1  C    17    43       P1 10747  0.98

> <Gold.PLP.Chemscore.Internal.Correction>
0.0671

> <Gold.Rescore>
     Score         DG    S(hbond)    S(metal)    S(lipo)     H(rot)  DE(clash)    DE(int)     intcor
     14.14     -15.80       1.99        0.00      78.35       2.14       0.99       0.67       ----

> <Gold.Chemscore.Fitness>
14.1384

> <Gold.Chemscore.DG>
-15.7975

> <Gold.Chemscore.ZeroCoef>
-5.4800

> <Gold.Chemscore.Hbond>
1.9866

> <Gold.Chemscore.Metal>
0.0000

> <Gold.Chemscore.Lipo>
78.3491

> <Gold.Chemscore.Internal_Hbond>
0.0000

> <Gold.Chemscore.DEClash>
0.9889

> <Gold.Chemscore.DEInternal>
0.6702

> <Gold.Chemscore.Rot>
2.1424

> <Gold.Chemscore.Internal.Correction>
   9.000000E+99

> <Gold.Chemscore.Hbonds>
donor molecule, donor type, donor heavy atom, donor atom, acceptor molecule, acceptor atom, score
      L1  H     3    23       P1  7948  0.93
      L1  H     6    26       P1  7948  0.98

> <Gold.Chemscore.Hbond.Weighted>
-6.6353

> <Gold.Chemscore.Metal.Weighted>
-0.0000

> <Gold.Chemscore.Lipo.Weighted>
-9.1668

> <Gold.Chemscore.Internal_Hbond.Weighted>
0.0000

> <Gold.Chemscore.DEClash.Weighted>
0.9889

> <Gold.Chemscore.DEInternal.Weighted>
0.6702

> <Gold.Chemscore.Rot.Weighted>
5.4846

> <Gold.Chemscore.Internal.Correction.Weighted>
   9.000000E+99

> <Gold.Protein.RotatedTorsions>
[ 6907 6896 6895 6894 ] final  159.13 input  -60.11 | X-H torsion
[ 7974 7965 7964 7962 ] final  144.60 input  175.53 | X-H torsion
[ 8008 7997 7996 7995 ] final   88.08 input   59.86 | X-H torsion
[ 10167 10162 10161 10158 ] final   58.19 input  -65.29 | X-H torsion
[ 10718 10713 10712 10709 ] final  -31.89 input   66.30 | X-H torsion
[ 10763 10752 10751 10750 ] final  -51.06 input  -60.55 | X-H torsion
[ 11005 11000 10999 10996 ] final   60.37 input  -57.11 | X-H torsion

> <Gold.Protein.ActiveResidues>
 VAL166  LYS551  ARG553  GLY616  TRP617  ASP618  TYR619  PRO620  LYS621  CYS622 
 ASP623  PHE694  ASN695  SER759  ASP760  ASP761  ALA762  ILE779  LEU786  VAL792 
 PHE793  MET794  SER795  GLU796  ALA797  LYS798  CYS799  TRP800  GLU811  SER814 

> <Gold.Protein.RotatedAtoms>
  151.9902  133.3788  159.4141 H   0  0  0  0  0  0  0  0  0  0  0  0  # atno 6907 bound_to 6896
  150.6923  134.3945  159.5100 H   0  0  0  0  0  0  0  0  0  0  0  0  # atno 6908 bound_to 6896
  152.1677  134.8860  160.0587 H   0  0  0  0  0  0  0  0  0  0  0  0  # atno 6909 bound_to 6896
  144.8822  139.5682  143.5837 H   0  0  0  0  0  0  0  0  0  0  0  0  # atno 7974 bound_to 7965
  155.9834  140.3375  155.6684 H   0  0  0  0  0  0  0  0  0  0  0  0  # atno 8008 bound_to 7997
  155.6519  140.0706  157.2602 H   0  0  0  0  0  0  0  0  0  0  0  0  # atno 8009 bound_to 7997
  154.4198  140.1724  156.1671 H   0  0  0  0  0  0  0  0  0  0  0  0  # atno 8010 bound_to 7997
  140.1898  144.4097  150.6576 H   0  0  0  0  0  0  0  0  0  0  0  0  # atno 10167 bound_to 10162
  156.3816  130.4357  149.7464 H   0  0  0  0  0  0  0  0  0  0  0  0  # atno 10718 bound_to 10713
  154.1205  135.6535  153.4902 H   0  0  0  0  0  0  0  0  0  0  0  0  # atno 10763 bound_to 10752
  153.0227  135.5269  154.7101 H   0  0  0  0  0  0  0  0  0  0  0  0  # atno 10764 bound_to 10752
  154.6308  135.2976  155.0189 H   0  0  0  0  0  0  0  0  0  0  0  0  # atno 10765 bound_to 10752
  140.0237  134.6115  155.9603 H   0  0  0  0  0  0  0  0  0  0  0  0  # atno 11005 bound_to 11000
  146.3002  139.7401  142.9097 LP  0  0  0  0  0  0  0  0  0  0  0  0  # atno 17320 bound_to 7965
  145.3934  141.0375  143.3111 LP  0  0  0  0  0  0  0  0  0  0  0  0  # atno 17321 bound_to 7965
  140.6463  143.2214  151.6178 LP  0  0  0  0  0  0  0  0  0  0  0  0  # atno 17342 bound_to 10162
  139.5260  144.3057  152.1036 LP  0  0  0  0  0  0  0  0  0  0  0  0  # atno 17343 bound_to 10162
  156.4552  130.7926  151.2947 LP  0  0  0  0  0  0  0  0  0  0  0  0  # atno 17370 bound_to 10713
  157.7493  131.0083  150.3222 LP  0  0  0  0  0  0  0  0  0  0  0  0  # atno 17371 bound_to 10713
  141.1789  133.6543  156.4941 LP  0  0  0  0  0  0  0  0  0  0  0  0  # atno 17394 bound_to 11000
  140.4343  134.7073  157.4959 LP  0  0  0  0  0  0  0  0  0  0  0  0  # atno 17395 bound_to 11000

$$$$
