AV-unprocessed.smi:750|AV-procd|sdf|3592|dock2
  -GOLD-   22720 0583D 1   1.00000     0.00000
 Structure written by MMmdl.
 22 23  0  0  0  0  0  0  0  0  2 V2000
  149.8325  140.3768  156.9572 C   0  0  0  0  0  0  0  0  0  0  0  0
  151.0705  140.1442  157.8505 C   0  0  1  0  0  0  0  0  0  0  0  0
  151.7120  141.4736  158.2925 C   0  0  0  0  0  0  0  0  0  0  0  0
  151.2539  142.7330  157.8318 C   0  0  0  0  0  0  0  0  0  0  0  0
  151.8884  143.9067  158.2815 C   0  0  0  0  0  0  0  0  0  0  0  0
  152.9653  143.7855  159.1789 C   0  0  0  0  0  0  0  0  0  0  0  0
  153.4194  142.5993  159.6314 N   0  0  0  0  0  0  0  0  0  0  0  0
  152.8034  141.4794  159.1954 C   0  0  0  0  0  0  0  0  0  0  0  0
  150.6919  139.2690  158.9543 N   0  5  0  0  0  0  0  0  0  0  0  0
  151.4262  138.1335  158.8904 C   0  0  0  0  0  0  0  0  0  0  0  0
  151.3959  137.1733  159.6566 O   0  0  0  0  0  0  0  0  0  0  0  0
  152.2434  138.1616  157.8344 N   0  0  0  0  0  0  0  0  0  0  0  0
  152.1070  139.2840  157.1355 C   0  0  0  0  0  0  0  0  0  0  0  0
  152.6964  139.5854  156.0978 O   0  0  0  0  0  0  0  0  0  0  0  0
  150.0784  140.9219  156.0459 H   0  0  0  0  0  0  0  0  0  0  0  0
  149.0711  140.9508  157.4866 H   0  0  0  0  0  0  0  0  0  0  0  0
  149.3750  139.4350  156.6499 H   0  0  0  0  0  0  0  0  0  0  0  0
  150.4269  142.8206  157.1433 H   0  0  0  0  0  0  0  0  0  0  0  0
  151.5555  144.8773  157.9452 H   0  0  0  0  0  0  0  0  0  0  0  0
  153.4747  144.6651  159.5437 H   0  0  0  0  0  0  0  0  0  0  0  0
  153.1978  140.5554  159.5906 H   0  0  0  0  0  0  0  0  0  0  0  0
  152.8740  137.4135  157.5879 H   0  0  0  0  0  0  0  0  0  0  0  0
  1  2  1  0  0  0  0
  1 15  1  0  0  0  0
  1 16  1  0  0  0  0
  1 17  1  0  0  0  0
  2 13  1  0  0  0  0
  2  3  1  0  0  0  0
  2  9  1  0  0  0  0
  3  8  1  0  0  0  0
  3  4  2  0  0  0  0
  4  5  1  0  0  0  0
  4 18  1  0  0  0  0
  5  6  2  0  0  0  0
  5 19  1  0  0  0  0
  6  7  1  0  0  0  0
  6 20  1  0  0  0  0
  7  8  2  0  0  0  0
  8 21  1  0  0  0  0
  9 10  1  0  0  0  0
 10 11  2  0  0  0  0
 10 12  1  0  0  0  0
 12 13  1  0  0  0  0
 12 22  1  0  0  0  0
 13 14  2  0  0  0  0
M  CHG  1   9  -1
M  END
> <s_m_source_file>
AV-unprocessed.smi

> <i_m_source_file_index>
750

> <i_lp_mmshare_version>
43012

> <i_f3d_flags>
0

> <s_epik_input>
Tz1DMVtOSF1DKD1PKVtOSF1bQ0BAXTEoW0NIM10pYzJbY0hdW2NIXVtjSF1uW2NIXTI=

> <s_epik_cmdline>
J2VwaWtfcHl0aG9uJywgJy1waCcsICc3LjAnLCAnLXRuJywgJzgnLCAnLW1hJywgJzIwMCcsICctbWV0YWxfYmluZGluZycsICctaW1hZScsICc8aW5maWxlLm1hZT4nLCAnLW9tYWUnLCAnPG91dGZpbGUubWFlPic=

> <r_lp_tautomer_probability>
1

> <r_epik_Ionization_Penalty>
4.84674

> <r_epik_Ionization_Penalty_Charging>
4.8337

> <r_epik_Ionization_Penalty_Neutral>
0.0130349

> <r_epik_State_Penalty>
4.85653

> <r_epik_Charging_Adjusted_Penalty>
9.69023

> <i_epik_Tot_Q>
-1

> <i_epik_Tot_abs_Q>
1

> <r_epik_Metal_State_Penalty>
1.3191

> <b_epik_Metal_Only>
1

> <s_lp_Force_Field>
OPLS_2005

> <r_lp_Energy>
14.3278

> <b_lp_Chiralities_Consistent>
1

> <s_lp_Variant>
AV-unprocessed.smi:750-5

> <Gold.Version>
5.8.1

> <Gold.Id.Protein>
6NUR|6NUR_protein|mol2

> <Gold.PLP.Fitness>
30.2637

> <Gold.PLP.PLP>
-24.4089

> <Gold.PLP.part.hbond>
-2.1769

> <Gold.PLP.part.metal>
0.0000

> <Gold.PLP.part.buried>
-4.8194

> <Gold.PLP.part.nonpolar>
-18.1982

> <Gold.PLP.part.repulsive>
0.0730

> <Gold.PLP.ligand.clash>
0.0000

> <Gold.PLP.ligand.torsion>
0.0869

> <Gold.PLP.Chemscore.Hbond>
1.9913

> <Gold.PLP.Chemscore.CHOScore>
0.0000

> <Gold.PLP.Chemscore.Metal>
0.0000

> <Gold.Chemscore.Hbonds>
donor molecule, donor type, donor heavy atom, donor atom, acceptor molecule, acceptor atom, score
      P1  H  6896  6907       L1    11  0.99
      P1  H  7997  8010       L1    14  1.00

> <Gold.PLP.Chemscore.Internal.Correction>
0.0547

> <Gold.Rescore>
     Score         DG    S(hbond)    S(metal)    S(lipo)     H(rot)  DE(clash)    DE(int)     intcor
     16.54     -16.58       1.99        0.00      60.05       1.00       0.00       0.03       ----

> <Gold.Chemscore.Fitness>
16.5440

> <Gold.Chemscore.DG>
-16.5775

> <Gold.Chemscore.ZeroCoef>
-5.4800

> <Gold.Chemscore.Hbond>
1.9857

> <Gold.Chemscore.Metal>
0.0000

> <Gold.Chemscore.Lipo>
60.0458

> <Gold.Chemscore.Internal_Hbond>
0.0000

> <Gold.Chemscore.DEClash>
0.0000

> <Gold.Chemscore.DEInternal>
0.0335

> <Gold.Chemscore.Rot>
1.0000

> <Gold.Chemscore.Internal.Correction>
   9.000000E+99

> <Gold.Chemscore.Hbonds>
donor molecule, donor type, donor heavy atom, donor atom, acceptor molecule, acceptor atom, score
      P1  H  6896  6907       L1    11  0.92
      P1  H  7997  8010       L1    14  0.98

> <Gold.Chemscore.Hbond.Weighted>
-6.6321

> <Gold.Chemscore.Metal.Weighted>
-0.0000

> <Gold.Chemscore.Lipo.Weighted>
-7.0254

> <Gold.Chemscore.Internal_Hbond.Weighted>
0.0000

> <Gold.Chemscore.DEClash.Weighted>
0.0000

> <Gold.Chemscore.DEInternal.Weighted>
0.0335

> <Gold.Chemscore.Rot.Weighted>
2.5600

> <Gold.Chemscore.Internal.Correction.Weighted>
   9.000000E+99

> <Gold.Protein.RotatedTorsions>
[ 6907 6896 6895 6894 ] final  -13.24 input  -60.11 | X-H torsion
[ 7974 7965 7964 7962 ] final  178.03 input  175.53 | X-H torsion
[ 8008 7997 7996 7995 ] final   96.62 input   59.86 | X-H torsion
[ 10167 10162 10161 10158 ] final -146.16 input  -65.29 | X-H torsion
[ 10718 10713 10712 10709 ] final  137.48 input   66.30 | X-H torsion
[ 10763 10752 10751 10750 ] final   39.19 input  -60.55 | X-H torsion
[ 11005 11000 10999 10996 ] final   80.95 input  -57.11 | X-H torsion

> <Gold.Protein.ActiveResidues>
 VAL166  LYS551  ARG553  GLY616  TRP617  ASP618  TYR619  PRO620  LYS621  CYS622 
 ASP623  PHE694  ASN695  SER759  ASP760  ASP761  ALA762  ILE779  LEU786  VAL792 
 PHE793  MET794  SER795  GLU796  ALA797  LYS798  CYS799  TRP800  GLU811  SER814 

> <Gold.Protein.RotatedAtoms>
  151.3580  135.0898  159.9424 H   0  0  0  0  0  0  0  0  0  0  0  0  # atno 6907 bound_to 6896
  152.5169  133.9286  159.7580 H   0  0  0  0  0  0  0  0  0  0  0  0  # atno 6908 bound_to 6896
  150.9675  133.6325  159.2773 H   0  0  0  0  0  0  0  0  0  0  0  0  # atno 6909 bound_to 6896
  144.7161  140.0336  143.6438 H   0  0  0  0  0  0  0  0  0  0  0  0  # atno 7974 bound_to 7965
  156.0815  140.3270  155.7700 H   0  0  0  0  0  0  0  0  0  0  0  0  # atno 8008 bound_to 7997
  155.5145  140.0580  157.2935 H   0  0  0  0  0  0  0  0  0  0  0  0  # atno 8009 bound_to 7997
  154.4585  140.1954  156.0329 H   0  0  0  0  0  0  0  0  0  0  0  0  # atno 8010 bound_to 7997
  139.7739  143.8198  152.2629 H   0  0  0  0  0  0  0  0  0  0  0  0  # atno 10167 bound_to 10162
  157.4357  131.1053  151.0201 H   0  0  0  0  0  0  0  0  0  0  0  0  # atno 10718 bound_to 10713
  152.9975  135.6227  154.2426 H   0  0  0  0  0  0  0  0  0  0  0  0  # atno 10763 bound_to 10752
  154.2166  135.2797  155.2941 H   0  0  0  0  0  0  0  0  0  0  0  0  # atno 10764 bound_to 10752
  154.5563  135.5718  153.7025 H   0  0  0  0  0  0  0  0  0  0  0  0  # atno 10765 bound_to 10752
  139.9115  134.7960  156.1977 H   0  0  0  0  0  0  0  0  0  0  0  0  # atno 11005 bound_to 11000
  146.0082  139.3148  143.0886 LP  0  0  0  0  0  0  0  0  0  0  0  0  # atno 17320 bound_to 7965
  145.8713  140.9418  143.0649 LP  0  0  0  0  0  0  0  0  0  0  0  0  # atno 17321 bound_to 7965
  139.8240  144.7283  150.9535 LP  0  0  0  0  0  0  0  0  0  0  0  0  # atno 17342 bound_to 10162
  140.7815  143.4132  151.0959 LP  0  0  0  0  0  0  0  0  0  0  0  0  # atno 17343 bound_to 10162
  157.1081  130.6010  149.5475 LP  0  0  0  0  0  0  0  0  0  0  0  0  # atno 17370 bound_to 10713
  155.9929  130.4989  150.7360 LP  0  0  0  0  0  0  0  0  0  0  0  0  # atno 17371 bound_to 10713
  141.0544  133.6872  156.1833 LP  0  0  0  0  0  0  0  0  0  0  0  0  # atno 17394 bound_to 11000
  140.6760  134.4818  157.5588 LP  0  0  0  0  0  0  0  0  0  0  0  0  # atno 17395 bound_to 11000

$$$$
