#       Name:                AV-unprocessed.smi:2136
#       Creating user name   scv26
#       Creation time:       Fri Mar 27 11:46:12 2020


#       File generated by GOLD software.
#

@<TRIPOS>MOLECULE
AV-unprocessed.smi:2136
    45    46     1
SMALL
NO_CHARGES


@<TRIPOS>ATOM
      1 ****        -0.4139   2.8095  -0.0058 C.3            1 S1                 0.0000
      2 ****        -1.7349   1.9115   0.9097 S.o2           1 S1                 0.0000
      3 ****        -1.1145   0.9802   1.8643 O.2            1 S1                 0.0000
      4 ****        -2.6767   2.9279   1.4037 O.2            1 S1                 0.0000
      5 ****        -2.5409   0.9858  -0.3396 N.pl3          1 S1                 0.0000
      6 ****        -3.9941   1.2347  -0.4997 C.3            1 S1                 0.0000
      7 ****        -4.5561   0.7202  -1.8313 C.3            1 S1                 0.0000
      8 ****        -4.2068  -0.7485  -2.0414 C.3            1 S1                 0.0000
      9 ****        -2.6867  -0.8806  -2.0261 C.3            1 S1                 0.0000
     10 ****        -2.0682  -0.3904  -0.6942 C.3            1 S1                 0.0000
     11 ****        -0.5429  -0.5799  -0.7721 C.2            1 S1                 0.0000
     12 ****         0.0968  -0.1027  -1.7101 O.2            1 S1                 0.0000
     13 ****         0.0276  -1.2763   0.2235 N.am           1 S1                 0.0000
     14 ****         1.4560  -1.5290   0.3613 C.3            1 S1                 0.0000
     15 ****         2.1831  -0.3202   0.9723 C.3            1 S1                 0.0000
     16 ****         3.6653  -0.5790   1.1557 C.ar           1 S1                 0.0000
     17 ****         4.1805  -1.0078   2.3964 C.ar           1 S1                 0.0000
     18 ****         5.5647  -1.2401   2.5116 C.ar           1 S1                 0.0000
     19 ****         6.3765  -1.0326   1.3783 C.ar           1 S1                 0.0000
     20 ****         5.8938  -0.6207   0.1860 N.ar           1 S1                 0.0000
     21 ****         4.5654  -0.4004   0.0839 C.ar           1 S1                 0.0000
     22 ****         0.0652   3.5222   0.6648 H              1 S1                 0.0000
     23 ****        -0.8541   3.3462  -0.8457 H              1 S1                 0.0000
     24 ****         0.3376   2.1150  -0.3725 H              1 S1                 0.0000
     25 ****        -4.5198   0.7686   0.3346 H              1 S1                 0.0000
     26 ****        -4.1939   2.3043  -0.4423 H              1 S1                 0.0000
     27 ****        -5.6384   0.8518  -1.8495 H              1 S1                 0.0000
     28 ****        -4.1592   1.3167  -2.6539 H              1 S1                 0.0000
     29 ****        -4.6513  -1.3638  -1.2582 H              1 S1                 0.0000
     30 ****        -4.6084  -1.1007  -2.9919 H              1 S1                 0.0000
     31 ****        -2.4173  -1.9232  -2.2018 H              1 S1                 0.0000
     32 ****        -2.2774  -0.3152  -2.8655 H              1 S1                 0.0000
     33 ****        -2.4360  -1.0517   0.0926 H              1 S1                 0.0000
     34 ****        -0.5704  -1.6298   0.9565 H              1 S1                 0.0000
     35 ****         1.5835  -2.4013   1.0029 H              1 S1                 0.0000
     36 ****         1.8865  -1.7892  -0.6072 H              1 S1                 0.0000
     37 ****         2.0620   0.5562   0.3350 H              1 S1                 0.0000
     38 ****         1.7402  -0.0630   1.9356 H              1 S1                 0.0000
     39 ****         3.5289  -1.1576   3.2449 H              1 S1                 0.0000
     40 ****         5.9950  -1.5701   3.4455 H              1 S1                 0.0000
     41 ****         7.4419  -1.2012   1.4312 H              1 S1                 0.0000
     42 ****         4.2097  -0.0750  -0.8826 H              1 S1                 0.0000
     43 ****        -0.3747   0.4113  -2.4266 LP             1 S1                 0.0000
     44 ****         1.0878  -0.2292  -1.7551 LP             1 S1                 0.0000
     45 ****         6.5011  -0.4832  -0.5965 LP             1 S1                 0.0000
@<TRIPOS>BOND
    1    1    2 1     
    2    1   22 1     
    3    1   23 1     
    4    1   24 1     
    5    2    3 2     
    6    2    4 2     
    7    2    5 1     
    8    5   10 1     
    9    5    6 1     
   10    6    7 1     
   11    6   25 1     
   12    6   26 1     
   13    7    8 1     
   14    7   27 1     
   15    7   28 1     
   16    8    9 1     
   17    8   29 1     
   18    8   30 1     
   19    9   10 1     
   20    9   31 1     
   21    9   32 1     
   22   10   11 1     
   23   10   33 1     
   24   11   12 2     
   25   11   13 am    
   26   13   14 1     
   27   13   34 1     
   28   14   15 1     
   29   14   35 1     
   30   14   36 1     
   31   15   16 1     
   32   15   37 1     
   33   15   38 1     
   34   16   21 ar    
   35   16   17 ar    
   36   17   18 ar    
   37   17   39 1     
   38   18   19 ar    
   39   18   40 1     
   40   19   20 ar    
   41   19   41 1     
   42   20   21 ar    
   43   21   42 1     
   44   12   43 1     
   45   12   44 1     
   46   20   45 1     
@<TRIPOS>SUBSTRUCTURE
      1 S1             1
@<TRIPOS>SET
LONE_PAIRS      STATIC     ATOMS    <user>   **** ""
5 3 4 43 44 45
DONOR_HYDROGENS      STATIC     ATOMS    <user>   **** ""
1 34
ATOM$BLUE        STATIC     ATOMS    COLORGROUP SYSTEM
5 3 4 43 44 45
ATOM$RED        STATIC     ATOMS    COLORGROUP SYSTEM
1 34
