AV-unprocessed.smi:2054|AV-procd|sdf|8332|dock7
  -GOLD-   2272011 03D 1   1.00000     0.00000
 Structure written by MMmdl.
 42 43  0  0  0  0  0  0  0  0  1 V2000
  150.3149  132.6159  155.3151 C   0  0  0  0  0  0  0  0  0  0  0  0
  149.5636  133.6540  156.6364 S   0  0  0  0  0  0  0  0  0  0  0  0
  148.1158  133.7158  156.3834 O   0  0  0  0  0  0  0  0  0  0  0  0
  150.0619  133.2045  157.9452 O   0  0  0  0  0  0  0  0  0  0  0  0
  150.2275  135.2273  156.3293 N   0  0  0  0  0  0  0  0  0  0  0  0
  149.7739  135.9309  155.1128 C   0  0  0  0  0  0  0  0  0  0  0  0
  150.1005  137.4318  155.1731 C   0  0  0  0  0  0  0  0  0  0  0  0
  151.5993  137.6649  155.4215 C   0  0  0  0  0  0  0  0  0  0  0  0
  151.9280  139.1621  155.4895 C   0  0  0  0  0  0  0  0  0  0  0  0
  152.7961  139.6423  154.7602 O   0  0  0  0  0  0  0  0  0  0  0  0
  151.2257  139.8888  156.3723 N   0  0  0  0  0  0  0  0  0  0  0  0
  151.3793  141.3228  156.5897 C   0  0  0  0  0  0  0  0  0  0  0  0
  150.4654  141.8276  157.7185 C   0  0  0  0  0  0  0  0  0  0  0  0
  151.0963  142.9645  158.5003 C   0  0  0  0  0  0  0  0  0  0  0  0
  151.4430  144.1736  157.8600 C   0  0  0  0  0  0  0  0  0  0  0  0
  152.0356  145.1940  158.6289 C   0  0  0  0  0  0  0  0  0  0  0  0
  152.2584  144.9672  160.0008 C   0  0  0  0  0  0  0  0  0  0  0  0
  151.8772  143.7245  160.5449 C   0  0  0  0  0  0  0  0  0  0  0  0
  151.3090  142.7393  159.8165 N   0  0  0  0  0  0  0  0  0  0  0  0
  151.9872  136.9487  156.7249 C   0  0  0  0  0  0  0  0  0  0  0  0
  151.6488  135.4497  156.6640 C   0  0  0  0  0  0  0  0  0  0  0  0
  149.9006  131.6095  155.3711 H   0  0  0  0  0  0  0  0  0  0  0  0
  151.3947  132.5628  155.4462 H   0  0  0  0  0  0  0  0  0  0  0  0
  150.0861  133.0458  154.3404 H   0  0  0  0  0  0  0  0  0  0  0  0
  150.2493  135.4752  154.2432 H   0  0  0  0  0  0  0  0  0  0  0  0
  148.7003  135.7993  154.9871 H   0  0  0  0  0  0  0  0  0  0  0  0
  149.7950  137.9073  154.2403 H   0  0  0  0  0  0  0  0  0  0  0  0
  149.5078  137.8955  155.9636 H   0  0  0  0  0  0  0  0  0  0  0  0
  152.1622  137.2203  154.5986 H   0  0  0  0  0  0  0  0  0  0  0  0
  150.5318  139.4145  156.9320 H   0  0  0  0  0  0  0  0  0  0  0  0
  152.4227  141.5605  156.8045 H   0  0  0  0  0  0  0  0  0  0  0  0
  151.1311  141.8318  155.6580 H   0  0  0  0  0  0  0  0  0  0  0  0
  149.5131  142.1628  157.3051 H   0  0  0  0  0  0  0  0  0  0  0  0
  150.2306  141.0151  158.4079 H   0  0  0  0  0  0  0  0  0  0  0  0
  151.2626  144.3168  156.8048 H   0  0  0  0  0  0  0  0  0  0  0  0
  152.3151  146.1329  158.1742 H   0  0  0  0  0  0  0  0  0  0  0  0
  152.7111  145.7268  160.6207 H   0  0  0  0  0  0  0  0  0  0  0  0
  152.0341  143.5161  161.5929 H   0  0  0  0  0  0  0  0  0  0  0  0
  153.0535  137.0720  156.9191 H   0  0  0  0  0  0  0  0  0  0  0  0
  151.4665  137.3980  157.5722 H   0  0  0  0  0  0  0  0  0  0  0  0
  151.8790  134.9956  157.6275 H   0  0  0  0  0  0  0  0  0  0  0  0
  152.2700  134.9480  155.9209 H   0  0  0  0  0  0  0  0  0  0  0  0
  1  2  1  0  0  0  0
  1 22  1  0  0  0  0
  1 23  1  0  0  0  0
  1 24  1  0  0  0  0
  2  3  2  0  0  0  0
  2  4  2  0  0  0  0
  2  5  1  0  0  0  0
  5 21  1  0  0  0  0
  5  6  1  0  0  0  0
  6  7  1  0  0  0  0
  6 25  1  0  0  0  0
  6 26  1  0  0  0  0
  7  8  1  0  0  0  0
  7 27  1  0  0  0  0
  7 28  1  0  0  0  0
  8  9  1  0  0  0  0
  8 20  1  0  0  0  0
  8 29  1  0  0  0  0
  9 10  2  0  0  0  0
  9 11  1  0  0  0  0
 11 12  1  0  0  0  0
 11 30  1  0  0  0  0
 12 13  1  0  0  0  0
 12 31  1  0  0  0  0
 12 32  1  0  0  0  0
 13 14  1  0  0  0  0
 13 33  1  0  0  0  0
 13 34  1  0  0  0  0
 14 19  1  0  0  0  0
 14 15  2  0  0  0  0
 15 16  1  0  0  0  0
 15 35  1  0  0  0  0
 16 17  2  0  0  0  0
 16 36  1  0  0  0  0
 17 18  1  0  0  0  0
 17 37  1  0  0  0  0
 18 19  2  0  0  0  0
 18 38  1  0  0  0  0
 20 21  1  0  0  0  0
 20 39  1  0  0  0  0
 20 40  1  0  0  0  0
 21 41  1  0  0  0  0
 21 42  1  0  0  0  0
M  END
> <s_m_source_file>
AV-unprocessed.smi

> <i_m_source_file_index>
2054

> <i_lp_mmshare_version>
43012

> <i_f3d_flags>
0

> <s_epik_input>
W0NIM11TKD1PKSg9TylOMVtDSDJdW0NIMl1bQ0hdKFtDSDJdW0NIMl0xKUMoPU8pW05IXVtDSDJdW0NIMl1jMltjSF1bY0hdW2NIXVtjSF1uMg==

> <s_epik_cmdline>
J2VwaWtfcHl0aG9uJywgJy1waCcsICc3LjAnLCAnLXRuJywgJzgnLCAnLW1hJywgJzIwMCcsICctbWV0YWxfYmluZGluZycsICctaW1hZScsICc8aW5maWxlLm1hZT4nLCAnLW9tYWUnLCAnPG91dGZpbGUubWFlPic=

> <r_epik_Ionization_Penalty>
0.0277532

> <r_epik_Ionization_Penalty_Charging>
0

> <r_epik_Ionization_Penalty_Neutral>
0.0277532

> <r_epik_State_Penalty>
0.022734

> <r_epik_Charging_Adjusted_Penalty>
0.022734

> <i_epik_Tot_Q>
0

> <i_epik_Tot_abs_Q>
0

> <r_epik_Metal_State_Penalty>
0.021713

> <b_epik_Metal_Only>
0

> <s_lp_Force_Field>
OPLS_2005

> <r_lp_Energy>
2.16831

> <b_lp_Chiralities_Consistent>
1

> <s_lp_Variant>
AV-unprocessed.smi:2054-1

> <Gold.Version>
5.8.1

> <Gold.Id.Protein>
6NUR|6NUR_protein|mol2

> <Gold.PLP.Fitness>
43.8673

> <Gold.PLP.PLP>
-37.2163

> <Gold.PLP.part.hbond>
-3.9843

> <Gold.PLP.part.metal>
0.0000

> <Gold.PLP.part.buried>
-5.2421

> <Gold.PLP.part.nonpolar>
-28.5600

> <Gold.PLP.part.repulsive>
0.1671

> <Gold.PLP.ligand.clash>
0.0000

> <Gold.PLP.ligand.torsion>
0.6695

> <Gold.PLP.Chemscore.Hbond>
2.4056

> <Gold.PLP.Chemscore.CHOScore>
0.0000

> <Gold.PLP.Chemscore.Metal>
0.0000

> <Gold.Chemscore.Hbonds>
donor molecule, donor type, donor heavy atom, donor atom, acceptor molecule, acceptor atom, score
      P1  H  6896  6908       L1     4  1.00
      P1  H  7989  7998       L1    10  0.43
      P1  H  7997  8009       L1    10  0.89

> <Gold.PLP.Chemscore.Internal.Correction>
0.7732

> <Gold.Rescore>
     Score         DG    S(hbond)    S(metal)    S(lipo)     H(rot)  DE(clash)    DE(int)     intcor
     18.38     -19.08       2.03        0.00      98.57       1.84       0.09       0.61       ----

> <Gold.Chemscore.Fitness>
18.3813

> <Gold.Chemscore.DG>
-19.0845

> <Gold.Chemscore.ZeroCoef>
-5.4800

> <Gold.Chemscore.Hbond>
2.0321

> <Gold.Chemscore.Metal>
0.0000

> <Gold.Chemscore.Lipo>
98.5684

> <Gold.Chemscore.Internal_Hbond>
0.0000

> <Gold.Chemscore.DEClash>
0.0920

> <Gold.Chemscore.DEInternal>
0.6112

> <Gold.Chemscore.Rot>
1.8419

> <Gold.Chemscore.Internal.Correction>
   9.000000E+99

> <Gold.Chemscore.Hbonds>
donor molecule, donor type, donor heavy atom, donor atom, acceptor molecule, acceptor atom, score
      P1  H  6896  6908       L1     4  0.97
      P1  H  7989  7998       L1    10  0.16
      P1  H  7997  8009       L1    10  0.70

> <Gold.Chemscore.Hbond.Weighted>
-6.7873

> <Gold.Chemscore.Metal.Weighted>
-0.0000

> <Gold.Chemscore.Lipo.Weighted>
-11.5325

> <Gold.Chemscore.Internal_Hbond.Weighted>
0.0000

> <Gold.Chemscore.DEClash.Weighted>
0.0920

> <Gold.Chemscore.DEInternal.Weighted>
0.6112

> <Gold.Chemscore.Rot.Weighted>
4.7153

> <Gold.Chemscore.Internal.Correction.Weighted>
   9.000000E+99

> <Gold.Protein.RotatedTorsions>
[ 6907 6896 6895 6894 ] final   95.30 input  -60.11 | X-H torsion
[ 7974 7965 7964 7962 ] final -156.92 input  175.53 | X-H torsion
[ 8008 7997 7996 7995 ] final -132.11 input   59.86 | X-H torsion
[ 10167 10162 10161 10158 ] final  -33.15 input  -65.29 | X-H torsion
[ 10718 10713 10712 10709 ] final    6.24 input   66.30 | X-H torsion
[ 10763 10752 10751 10750 ] final   55.16 input  -60.55 | X-H torsion
[ 11005 11000 10999 10996 ] final  169.59 input  -57.11 | X-H torsion

> <Gold.Protein.ActiveResidues>
 VAL166  LYS551  ARG553  GLY616  TRP617  ASP618  TYR619  PRO620  LYS621  CYS622 
 ASP623  PHE694  ASN695  SER759  ASP760  ASP761  ALA762  ILE779  LEU786  VAL792 
 PHE793  MET794  SER795  GLU796  ALA797  LYS798  CYS799  TRP800  GLU811  SER814 

> <Gold.Protein.RotatedAtoms>
  152.5444  134.1061  159.8338 H   0  0  0  0  0  0  0  0  0  0  0  0  # atno 6907 bound_to 6896
  151.1133  133.5150  159.2612 H   0  0  0  0  0  0  0  0  0  0  0  0  # atno 6908 bound_to 6896
  151.1860  135.0391  159.8867 H   0  0  0  0  0  0  0  0  0  0  0  0  # atno 6909 bound_to 6896
  144.7571  140.4042  143.6004 H   0  0  0  0  0  0  0  0  0  0  0  0  # atno 7974 bound_to 7965
  155.3235  140.0463  157.3040 H   0  0  0  0  0  0  0  0  0  0  0  0  # atno 8008 bound_to 7997
  154.5367  140.2274  155.8676 H   0  0  0  0  0  0  0  0  0  0  0  0  # atno 8009 bound_to 7997
  156.1842  140.3066  155.9212 H   0  0  0  0  0  0  0  0  0  0  0  0  # atno 8010 bound_to 7997
  140.7209  143.3641  151.1905 H   0  0  0  0  0  0  0  0  0  0  0  0  # atno 10167 bound_to 10162
  156.9192  130.5784  149.5647 H   0  0  0  0  0  0  0  0  0  0  0  0  # atno 10718 bound_to 10713
  152.9813  135.5720  154.5022 H   0  0  0  0  0  0  0  0  0  0  0  0  # atno 10763 bound_to 10752
  154.4540  135.2779  155.1763 H   0  0  0  0  0  0  0  0  0  0  0  0  # atno 10764 bound_to 10752
  154.3379  135.6235  153.5635 H   0  0  0  0  0  0  0  0  0  0  0  0  # atno 10765 bound_to 10752
  140.2994  134.7608  157.3904 H   0  0  0  0  0  0  0  0  0  0  0  0  # atno 11005 bound_to 11000
  145.6742  139.1605  143.2737 LP  0  0  0  0  0  0  0  0  0  0  0  0  # atno 17320 bound_to 7965
  146.1594  140.6810  142.9285 LP  0  0  0  0  0  0  0  0  0  0  0  0  # atno 17321 bound_to 7965
  139.7199  143.9240  152.2981 LP  0  0  0  0  0  0  0  0  0  0  0  0  # atno 17342 bound_to 10162
  139.8993  144.6921  150.8683 LP  0  0  0  0  0  0  0  0  0  0  0  0  # atno 17343 bound_to 10162
  156.0499  130.5570  150.8965 LP  0  0  0  0  0  0  0  0  0  0  0  0  # atno 17370 bound_to 10713
  157.5918  131.0944  150.9106 LP  0  0  0  0  0  0  0  0  0  0  0  0  # atno 17371 bound_to 10713
  140.1123  134.5329  155.8255 LP  0  0  0  0  0  0  0  0  0  0  0  0  # atno 17394 bound_to 11000
  141.2131  133.6728  156.6712 LP  0  0  0  0  0  0  0  0  0  0  0  0  # atno 17395 bound_to 11000

$$$$
