AV-unprocessed.smi:3257|AV-procd|sdf|12467|dock9
  -GOLD-   2272018363D 1   1.00000     0.00000
 Structure written by MMmdl.
 38 39  0  0  0  0  0  0  0  0  1 V2000
  148.2545  126.7500  150.7381 C   0  0  0  0  0  0  0  0  0  0  0  0
  147.9306  127.8887  151.5706 N   0  0  0  0  0  0  0  0  0  0  0  0
  148.6940  128.4792  152.5544 C   0  0  0  0  0  0  0  0  0  0  0  0
  147.9718  129.5214  153.0642 C   0  0  0  0  0  0  0  0  0  0  0  0
  148.3523  130.4860  154.1519 C   0  0  0  0  0  0  0  0  0  0  0  0
  148.8324  131.8272  153.5741 C   0  0  0  0  0  0  0  0  0  0  0  0
  148.0454  132.2224  152.4122 N   0  0  0  0  0  0  0  0  0  0  0  0
  147.1917  133.2594  152.3662 C   0  0  0  0  0  0  0  0  0  0  0  0
  147.0006  133.9910  153.3386 O   0  0  0  0  0  0  0  0  0  0  0  0
  146.5777  133.4382  151.1685 N   0  0  0  0  0  0  0  0  0  0  0  0
  146.6164  132.5145  150.0200 C   0  0  0  0  0  0  0  0  0  0  0  0
  145.2459  131.8250  149.8897 C   0  0  0  0  0  0  0  0  0  0  0  0
  144.1223  132.8708  149.7461 C   0  0  0  0  0  0  0  0  0  0  0  0
  142.8639  132.2319  149.7868 O   0  0  0  0  0  0  0  0  0  0  0  0
  144.2018  133.9419  150.8520 C   0  0  0  0  0  0  0  0  0  0  0  0
  145.6220  134.5309  150.9406 C   0  0  0  0  0  0  0  0  0  0  0  0
  146.7604  129.4805  152.3165 C   0  0  0  0  0  0  0  0  0  0  0  0
  146.7386  128.5032  151.4247 N   0  0  0  0  0  0  0  0  0  0  0  0
  149.3139  126.5093  150.8313 H   0  0  0  0  0  0  0  0  0  0  0  0
  148.0344  126.9767  149.6942 H   0  0  0  0  0  0  0  0  0  0  0  0
  147.6653  125.8878  151.0506 H   0  0  0  0  0  0  0  0  0  0  0  0
  149.6789  128.1148  152.8071 H   0  0  0  0  0  0  0  0  0  0  0  0
  147.5063  130.6591  154.8182 H   0  0  0  0  0  0  0  0  0  0  0  0
  149.1386  130.0613  154.7772 H   0  0  0  0  0  0  0  0  0  0  0  0
  148.7350  132.6121  154.3247 H   0  0  0  0  0  0  0  0  0  0  0  0
  149.8912  131.7765  153.3133 H   0  0  0  0  0  0  0  0  0  0  0  0
  148.1565  131.6664  151.5770 H   0  0  0  0  0  0  0  0  0  0  0  0
  146.8329  133.0823  149.1141 H   0  0  0  0  0  0  0  0  0  0  0  0
  147.4029  131.7626  150.0804 H   0  0  0  0  0  0  0  0  0  0  0  0
  145.2453  131.1522  149.0315 H   0  0  0  0  0  0  0  0  0  0  0  0
  145.0692  131.2061  150.7709 H   0  0  0  0  0  0  0  0  0  0  0  0
  144.2174  133.3598  148.7758 H   0  0  0  0  0  0  0  0  0  0  0  0
  142.2141  132.8241  149.4399 H   0  0  0  0  0  0  0  0  0  0  0  0
  143.4787  134.7352  150.6599 H   0  0  0  0  0  0  0  0  0  0  0  0
  143.9337  133.5038  151.8149 H   0  0  0  0  0  0  0  0  0  0  0  0
  145.6589  135.2945  151.7186 H   0  0  0  0  0  0  0  0  0  0  0  0
  145.8739  135.0448  150.0119 H   0  0  0  0  0  0  0  0  0  0  0  0
  145.9008  130.1295  152.3957 H   0  0  0  0  0  0  0  0  0  0  0  0
  1  2  1  0  0  0  0
  1 19  1  0  0  0  0
  1 20  1  0  0  0  0
  1 21  1  0  0  0  0
  2 18  1  0  0  0  0
  2  3  1  0  0  0  0
  3  4  2  0  0  0  0
  3 22  1  0  0  0  0
  4  5  1  0  0  0  0
  4 17  1  0  0  0  0
  5  6  1  0  0  0  0
  5 23  1  0  0  0  0
  5 24  1  0  0  0  0
  6  7  1  0  0  0  0
  6 25  1  0  0  0  0
  6 26  1  0  0  0  0
  7  8  1  0  0  0  0
  7 27  1  0  0  0  0
  8  9  2  0  0  0  0
  8 10  1  0  0  0  0
 10 16  1  0  0  0  0
 10 11  1  0  0  0  0
 11 12  1  0  0  0  0
 11 28  1  0  0  0  0
 11 29  1  0  0  0  0
 12 13  1  0  0  0  0
 12 30  1  0  0  0  0
 12 31  1  0  0  0  0
 13 14  1  0  0  0  0
 13 15  1  0  0  0  0
 13 32  1  0  0  0  0
 14 33  1  0  0  0  0
 15 16  1  0  0  0  0
 15 34  1  0  0  0  0
 15 35  1  0  0  0  0
 16 36  1  0  0  0  0
 16 37  1  0  0  0  0
 17 18  2  0  0  0  0
 17 38  1  0  0  0  0
M  END
> <s_m_source_file>
AV-unprocessed.smi

> <i_m_source_file_index>
3257

> <i_lp_mmshare_version>
43012

> <i_f3d_flags>
0

> <s_epik_input>
W0NIM11uMVtjSF1jKFtjSF1uMSlbQ0gyXVtDSDJdW05IXUMoPU8pTjJbQ0gyXVtDSDJdW0NIXShbT0hdKVtDSDJdW0NIMl0y

> <s_epik_cmdline>
J2VwaWtfcHl0aG9uJywgJy1waCcsICc3LjAnLCAnLXRuJywgJzgnLCAnLW1hJywgJzIwMCcsICctbWV0YWxfYmluZGluZycsICctaW1hZScsICc8aW5maWxlLm1hZT4nLCAnLW9tYWUnLCAnPG91dGZpbGUubWFlPic=

> <r_lp_tautomer_probability>
1

> <r_epik_Ionization_Penalty>
0.000563034

> <r_epik_Ionization_Penalty_Charging>
0

> <r_epik_Ionization_Penalty_Neutral>
0.000563034

> <r_epik_State_Penalty>
-0

> <r_epik_Charging_Adjusted_Penalty>
0

> <i_epik_Tot_Q>
0

> <i_epik_Tot_abs_Q>
0

> <r_epik_Metal_State_Penalty>
-0

> <b_epik_Metal_Only>
0

> <s_lp_Force_Field>
OPLS_2005

> <r_lp_Energy>
25.1646

> <b_lp_Chiralities_Consistent>
1

> <s_lp_Variant>
AV-unprocessed.smi:3257-1

> <Gold.Version>
5.8.1

> <Gold.Id.Protein>
6NUR|6NUR_protein|mol2

> <Gold.PLP.Fitness>
49.7416

> <Gold.PLP.PLP>
-40.7400

> <Gold.PLP.part.hbond>
-3.3504

> <Gold.PLP.part.metal>
0.0000

> <Gold.PLP.part.buried>
-3.3040

> <Gold.PLP.part.nonpolar>
-33.5896

> <Gold.PLP.part.repulsive>
0.1852

> <Gold.PLP.ligand.clash>
0.0000

> <Gold.PLP.ligand.torsion>
0.4317

> <Gold.PLP.Chemscore.Hbond>
2.3000

> <Gold.PLP.Chemscore.CHOScore>
0.9761

> <Gold.PLP.Chemscore.Metal>
0.0000

> <Gold.Chemscore.Hbonds>
donor molecule, donor type, donor heavy atom, donor atom, acceptor molecule, acceptor atom, score
      L1  H     7    27       P1 10747  1.00
      L1  H    14    33       P1 10186  1.00
      P1  H 10785 10796       L1    14  0.18
      L1  C     3    22       P1 10737  0.76

> <Gold.PLP.Chemscore.Internal.Correction>
0.0367

> <Gold.Rescore>
     Score         DG    S(hbond)    S(metal)    S(lipo)     H(rot)  DE(clash)    DE(int)     intcor
     15.95     -17.13       2.04        0.00      83.81       1.95       0.60       0.58       ----

> <Gold.Chemscore.Fitness>
15.9469

> <Gold.Chemscore.DG>
-17.1287

> <Gold.Chemscore.ZeroCoef>
-5.4800

> <Gold.Chemscore.Hbond>
2.0430

> <Gold.Chemscore.Metal>
0.0000

> <Gold.Chemscore.Lipo>
83.8073

> <Gold.Chemscore.Internal_Hbond>
0.0000

> <Gold.Chemscore.DEClash>
0.6042

> <Gold.Chemscore.DEInternal>
0.5777

> <Gold.Chemscore.Rot>
1.9454

> <Gold.Chemscore.Internal.Correction>
   9.000000E+99

> <Gold.Chemscore.Hbonds>
donor molecule, donor type, donor heavy atom, donor atom, acceptor molecule, acceptor atom, score
      L1  H     7    27       P1 10747  0.99
      L1  H    14    33       P1 10186  0.94
      P1  H 10785 10796       L1    14  0.09

> <Gold.Chemscore.Hbond.Weighted>
-6.8235

> <Gold.Chemscore.Metal.Weighted>
-0.0000

> <Gold.Chemscore.Lipo.Weighted>
-9.8055

> <Gold.Chemscore.Internal_Hbond.Weighted>
0.0000

> <Gold.Chemscore.DEClash.Weighted>
0.6042

> <Gold.Chemscore.DEInternal.Weighted>
0.5777

> <Gold.Chemscore.Rot.Weighted>
4.9802

> <Gold.Chemscore.Internal.Correction.Weighted>
   9.000000E+99

> <Gold.Protein.RotatedTorsions>
[ 6907 6896 6895 6894 ] final   62.98 input  -60.11 | X-H torsion
[ 7974 7965 7964 7962 ] final  -12.85 input  175.53 | X-H torsion
[ 8008 7997 7996 7995 ] final -167.78 input   59.86 | X-H torsion
[ 10167 10162 10161 10158 ] final  -95.98 input  -65.29 | X-H torsion
[ 10718 10713 10712 10709 ] final -141.93 input   66.30 | X-H torsion
[ 10763 10752 10751 10750 ] final  158.49 input  -60.55 | X-H torsion
[ 11005 11000 10999 10996 ] final  -68.28 input  -57.11 | X-H torsion

> <Gold.Protein.ActiveResidues>
 VAL166  LYS551  ARG553  GLY616  TRP617  ASP618  TYR619  PRO620  LYS621  CYS622 
 ASP623  PHE694  ASN695  SER759  ASP760  ASP761  ALA762  ILE779  LEU786  VAL792 
 PHE793  MET794  SER795  GLU796  ALA797  LYS798  CYS799  TRP800  GLU811  SER814 

> <Gold.Protein.RotatedAtoms>
  152.4216  134.5944  159.9982 H   0  0  0  0  0  0  0  0  0  0  0  0  # atno 6907 bound_to 6896
  151.6093  133.3343  159.3072 H   0  0  0  0  0  0  0  0  0  0  0  0  # atno 6908 bound_to 6896
  150.8104  134.7294  159.6748 H   0  0  0  0  0  0  0  0  0  0  0  0  # atno 6909 bound_to 6896
  146.2136  140.3117  142.8383 H   0  0  0  0  0  0  0  0  0  0  0  0  # atno 7974 bound_to 7965
  155.8824  140.1011  157.1476 H   0  0  0  0  0  0  0  0  0  0  0  0  # atno 8008 bound_to 7997
  154.4006  140.1326  156.4277 H   0  0  0  0  0  0  0  0  0  0  0  0  # atno 8009 bound_to 7997
  155.7627  140.3462  155.5208 H   0  0  0  0  0  0  0  0  0  0  0  0  # atno 8010 bound_to 7997
  140.2986  143.3177  152.0272 H   0  0  0  0  0  0  0  0  0  0  0  0  # atno 10167 bound_to 10162
  156.3399  130.7632  151.1766 H   0  0  0  0  0  0  0  0  0  0  0  0  # atno 10718 bound_to 10713
  154.2168  135.2783  155.2939 H   0  0  0  0  0  0  0  0  0  0  0  0  # atno 10763 bound_to 10752
  154.5734  135.5611  153.7119 H   0  0  0  0  0  0  0  0  0  0  0  0  # atno 10764 bound_to 10752
  153.0051  135.6327  154.2308 H   0  0  0  0  0  0  0  0  0  0  0  0  # atno 10765 bound_to 10752
  141.1528  133.6737  156.6421 H   0  0  0  0  0  0  0  0  0  0  0  0  # atno 11005 bound_to 11000
  144.8983  140.7611  143.5883 LP  0  0  0  0  0  0  0  0  0  0  0  0  # atno 17320 bound_to 7965
  145.3042  139.1840  143.4673 LP  0  0  0  0  0  0  0  0  0  0  0  0  # atno 17321 bound_to 7965
  139.4920  144.6473  151.6752 LP  0  0  0  0  0  0  0  0  0  0  0  0  # atno 17342 bound_to 10162
  140.5671  144.0172  150.6198 LP  0  0  0  0  0  0  0  0  0  0  0  0  # atno 17343 bound_to 10162
  157.7445  131.0457  150.4858 LP  0  0  0  0  0  0  0  0  0  0  0  0  # atno 17370 bound_to 10713
  156.5037  130.4123  149.6339 LP  0  0  0  0  0  0  0  0  0  0  0  0  # atno 17371 bound_to 10713
  140.3385  134.7869  157.4380 LP  0  0  0  0  0  0  0  0  0  0  0  0  # atno 17394 bound_to 11000
  140.0957  134.5540  155.8400 LP  0  0  0  0  0  0  0  0  0  0  0  0  # atno 17395 bound_to 11000

$$$$
