#       Name:                AV-unprocessed.smi:267
#       Creating user name   scv26
#       Creation time:       Thu Mar 26 21:25:27 2020


#       File generated by GOLD software.
#

@<TRIPOS>MOLECULE
AV-unprocessed.smi:267
    62    65     1
SMALL
NO_CHARGES


@<TRIPOS>ATOM
      1 ****        -6.9014  -1.9230   2.7399 C.3            1 S1                 0.0000
      2 ****        -6.2543  -0.7609   2.2527 O.3            1 S1                 0.0000
      3 ****        -6.2004  -0.7208   0.8362 C.3            1 S1                 0.0000
      4 ****        -5.4926   0.5605   0.3644 C.3            1 S1                 0.0000
      5 ****        -4.0493   0.5271   0.6349 N.am           1 S1                 0.0000
      6 ****        -3.2285   0.0532  -0.4884 C.3            1 S1                 0.0000
      7 ****        -1.8383  -0.4299  -0.0580 C.3            1 S1                 0.0000
      8 ****        -1.2366   0.5563   0.8281 N.pl3          1 S1                 0.0000
      9 ****         0.1194   0.6014   0.8812 C.ar           1 S1                 0.0000
     10 ****         0.7493   0.4544   2.0773 N.ar           1 S1                 0.0000
     11 ****         2.0832   0.4911   2.1491 C.ar           1 S1                 0.0000
     12 ****         2.9673   0.6694   1.1659 N.ar           1 S1                 0.0000
     13 ****         2.3422   0.8325  -0.0345 C.ar           1 S1                 0.0000
     14 ****         0.9375   0.8125  -0.2657 C.ar           1 S1                 0.0000
     15 ****         0.6808   1.0300  -1.6152 N.2            1 S1                 0.0000
     16 ****         1.8636   1.1577  -2.1516 C.2            1 S1                 0.0000
     17 ****         2.9177   1.0488  -1.2736 N.pl3          1 S1                 0.0000
     18 ****         4.3309   1.1528  -1.5901 C.3            1 S1                 0.0000
     19 ****         5.0703  -0.2078  -1.6639 C.3            1 S1                 0.0000
     20 ****         6.2041  -0.2034  -0.6261 C.3            1 S1                 0.0000
     21 ****         7.1865   0.7662  -0.9338 O.3            1 S1                 0.0000
     22 ****         4.2484  -1.5136  -1.6803 C.3            1 S1                 0.0000
     23 ****         4.9996  -2.0276  -2.7991 O.3            1 S1                 0.0000
     24 ****         5.4748  -0.6914  -3.0657 C.3            1 S1                 0.0000
     25 ****        -2.0030   0.9149   2.0260 C.3            1 S1                 0.0000
     26 ****        -3.5273   0.9632   1.8089 C.2            1 S1                 0.0000
     27 ****        -4.2249   1.4007   2.7243 O.2            1 S1                 0.0000
     28 ****        -6.9122  -1.9070   3.8296 H              1 S1                 0.0000
     29 ****        -6.3806  -2.8269   2.4217 H              1 S1                 0.0000
     30 ****        -7.9347  -1.9730   2.3938 H              1 S1                 0.0000
     31 ****        -5.6887  -1.6030   0.4475 H              1 S1                 0.0000
     32 ****        -7.2164  -0.7365   0.4390 H              1 S1                 0.0000
     33 ****        -5.6494   0.6767  -0.7090 H              1 S1                 0.0000
     34 ****        -5.9587   1.4374   0.8168 H              1 S1                 0.0000
     35 ****        -3.7405  -0.7515  -1.0180 H              1 S1                 0.0000
     36 ****        -3.1229   0.8761  -1.1967 H              1 S1                 0.0000
     37 ****        -1.9260  -1.3716   0.4860 H              1 S1                 0.0000
     38 ****        -1.2327  -0.6409  -0.9381 H              1 S1                 0.0000
     39 ****         2.5012   0.3589   3.1360 H              1 S1                 0.0000
     40 ****         2.0001   1.3338  -3.2087 H              1 S1                 0.0000
     41 ****         4.4251   1.6877  -2.5359 H              1 S1                 0.0000
     42 ****         4.7714   1.8188  -0.8470 H              1 S1                 0.0000
     43 ****         5.8180  -0.0122   0.3759 H              1 S1                 0.0000
     44 ****         6.6968  -1.1757  -0.5863 H              1 S1                 0.0000
     45 ****         6.7866   1.6216  -0.8965 H              1 S1                 0.0000
     46 ****         4.3640  -2.1206  -0.7817 H              1 S1                 0.0000
     47 ****         3.1942  -1.4116  -1.9389 H              1 S1                 0.0000
     48 ****         4.9162  -0.2220  -3.8774 H              1 S1                 0.0000
     49 ****         6.5471  -0.6565  -3.2610 H              1 S1                 0.0000
     50 ****        -1.8045   0.1928   2.8194 H              1 S1                 0.0000
     51 ****        -1.6746   1.8913   2.3861 H              1 S1                 0.0000
     52 ****        -5.3203  -0.7408   2.6096 LP             1 S1                 0.0000
     53 ****        -6.7525   0.0431   2.5773 LP             1 S1                 0.0000
     54 ****         0.2108   0.3179   2.9088 LP             1 S1                 0.0000
     55 ****         3.9592   0.6818   1.2930 LP             1 S1                 0.0000
     56 ****        -0.2080   1.0777  -2.0709 LP             1 S1                 0.0000
     57 ****         7.5463   0.6020  -1.8523 LP             1 S1                 0.0000
     58 ****         7.9321   0.7133  -0.2695 LP             1 S1                 0.0000
     59 ****         4.4369  -2.4172  -3.5282 LP             1 S1                 0.0000
     60 ****         5.7176  -2.6772  -2.5489 LP             1 S1                 0.0000
     61 ****        -5.2183   1.4449   2.6186 LP             1 S1                 0.0000
     62 ****        -3.7980   1.7118   3.5734 LP             1 S1                 0.0000
@<TRIPOS>BOND
    1    1    2 1     
    2    1   28 1     
    3    1   29 1     
    4    1   30 1     
    5    2    3 1     
    6    3    4 1     
    7    3   31 1     
    8    3   32 1     
    9    4    5 1     
   10    4   33 1     
   11    4   34 1     
   12    5   26 am    
   13    5    6 1     
   14    6    7 1     
   15    6   35 1     
   16    6   36 1     
   17    7    8 1     
   18    7   37 1     
   19    7   38 1     
   20    8    9 1     
   21    8   25 1     
   22    9   14 ar    
   23    9   10 ar    
   24   10   11 ar    
   25   11   12 ar    
   26   11   39 1     
   27   12   13 ar    
   28   13   17 1     
   29   13   14 ar    
   30   14   15 1     
   31   15   16 2     
   32   16   17 1     
   33   16   40 1     
   34   17   18 1     
   35   18   19 1     
   36   18   41 1     
   37   18   42 1     
   38   19   24 1     
   39   19   20 1     
   40   19   22 1     
   41   20   21 1     
   42   20   43 1     
   43   20   44 1     
   44   21   45 1     
   45   22   23 1     
   46   22   46 1     
   47   22   47 1     
   48   23   24 1     
   49   24   48 1     
   50   24   49 1     
   51   25   26 1     
   52   25   50 1     
   53   25   51 1     
   54   26   27 2     
   55    2   52 1     
   56    2   53 1     
   57   10   54 1     
   58   12   55 1     
   59   15   56 1     
   60   21   57 1     
   61   21   58 1     
   62   23   59 1     
   63   23   60 1     
   64   27   61 1     
   65   27   62 1     
@<TRIPOS>SUBSTRUCTURE
      1 S1             1
@<TRIPOS>SET
LONE_PAIRS      STATIC     ATOMS    <user>   **** ""
11 52 53 54 55 56 57 58 59 60 61 62
DONOR_HYDROGENS      STATIC     ATOMS    <user>   **** ""
1 45
ATOM$BLUE        STATIC     ATOMS    COLORGROUP SYSTEM
11 52 53 54 55 56 57 58 59 60 61 62
ATOM$RED        STATIC     ATOMS    COLORGROUP SYSTEM
1 45
