#       Name:                AV-unprocessed.smi:25
#       Creating user name   scv26
#       Creation time:       Thu Mar 26 15:44:31 2020


#       File generated by GOLD software.
#

@<TRIPOS>MOLECULE
AV-unprocessed.smi:25
    55    58     1
SMALL
NO_CHARGES


@<TRIPOS>ATOM
      1 ****        -3.6228  -1.8106  -0.5129 C.3            1 S1                 0.0000
      2 ****        -3.0182  -2.3094   0.8156 C.3            1 S1                 0.0000
      3 ****        -3.2508  -3.8255   0.9998 C.3            1 S1                 0.0000
      4 ****        -1.8624  -4.3833   1.0394 C.ar           1 S1                 0.0000
      5 ****        -1.5255  -5.7442   1.1374 C.ar           1 S1                 0.0000
      6 ****        -0.1616  -6.0957   1.1611 C.ar           1 S1                 0.0000
      7 ****         0.8292  -5.0927   1.0874 C.ar           1 S1                 0.0000
      8 ****         0.4721  -3.7300   0.9888 C.ar           1 S1                 0.0000
      9 ****        -0.8997  -3.3774   0.9634 C.ar           1 S1                 0.0000
     10 ****        -1.5508  -2.1086   0.8722 N.am           1 S1                 0.0000
     11 ****        -1.0296  -0.8539   0.9645 C.2            1 S1                 0.0000
     12 ****        -1.7623   0.1265   1.1182 O.2            1 S1                 0.0000
     13 ****         0.4905  -0.6108   0.9063 C.3            1 S1                 0.0000
     14 ****         0.8602   0.8212   0.8136 N.am           1 S1                 0.0000
     15 ****         1.1722   1.5258   2.0027 C.2            1 S1                 0.0000
     16 ****         1.1244   0.9769   3.1044 O.2            1 S1                 0.0000
     17 ****         1.5518   2.9220   1.8238 C.2            1 S1                 0.0000
     18 ****         1.9303   3.6504   2.8878 F              1 S1                 0.0000
     19 ****         1.5473   3.4924   0.6017 C.2            1 S1                 0.0000
     20 ****         1.1651   2.8166  -0.5438 N.am           1 S1                 0.0000
     21 ****         1.2454   3.4601  -1.9131 C.3            1 S1                 0.0000
     22 ****         1.0054   4.9802  -1.9109 C.3            1 S1                 0.0000
     23 ****         2.4041   5.5285  -2.1147 C.3            1 S1                 0.0000
     24 ****         3.0431   4.4332  -2.9594 C.3            1 S1                 0.0000
     25 ****         2.5289   3.2266  -2.4113 O.3            1 S1                 0.0000
     26 ****         0.8662   1.4376  -0.4619 C.2            1 S1                 0.0000
     27 ****         0.6057   0.7866  -1.4764 O.2            1 S1                 0.0000
     28 ****        -4.6921  -2.0188  -0.5545 H              1 S1                 0.0000
     29 ****        -3.1557  -2.3028  -1.3667 H              1 S1                 0.0000
     30 ****        -3.5000  -0.7356  -0.6430 H              1 S1                 0.0000
     31 ****        -3.4914  -1.7820   1.6461 H              1 S1                 0.0000
     32 ****        -3.7648  -4.0417   1.9370 H              1 S1                 0.0000
     33 ****        -3.8179  -4.2724   0.1822 H              1 S1                 0.0000
     34 ****        -2.2929  -6.5022   1.1924 H              1 S1                 0.0000
     35 ****         0.1264  -7.1339   1.2351 H              1 S1                 0.0000
     36 ****         1.8726  -5.3713   1.1053 H              1 S1                 0.0000
     37 ****         1.2753  -3.0184   0.9334 H              1 S1                 0.0000
     38 ****         0.9485  -1.0698   1.7825 H              1 S1                 0.0000
     39 ****         0.8970  -1.1379   0.0429 H              1 S1                 0.0000
     40 ****         1.8649   4.5207   0.5373 H              1 S1                 0.0000
     41 ****         0.4936   2.9632  -2.5282 H              1 S1                 0.0000
     42 ****         0.3840   5.2258  -2.7732 H              1 S1                 0.0000
     43 ****         0.4937   5.3397  -1.0182 H              1 S1                 0.0000
     44 ****         2.4138   6.5030  -2.6031 H              1 S1                 0.0000
     45 ****         2.9266   5.6195  -1.1622 H              1 S1                 0.0000
     46 ****         2.7267   4.5166  -4.0003 H              1 S1                 0.0000
     47 ****         4.1323   4.4560  -2.9284 H              1 S1                 0.0000
     48 ****        -2.7532   0.0058   1.1767 LP             1 S1                 0.0000
     49 ****        -1.3653   1.0419   1.1843 LP             1 S1                 0.0000
     50 ****         0.8612   0.0146   3.1726 LP             1 S1                 0.0000
     51 ****         1.3488   1.4936   3.9306 LP             1 S1                 0.0000
     52 ****         2.4891   2.5258  -3.1235 LP             1 S1                 0.0000
     53 ****         3.1240   2.9153  -1.6704 LP             1 S1                 0.0000
     54 ****         0.3874  -0.1866  -1.4037 LP             1 S1                 0.0000
     55 ****         0.6129   1.2319  -2.3718 LP             1 S1                 0.0000
@<TRIPOS>BOND
    1    1    2 1     
    2    1   28 1     
    3    1   29 1     
    4    1   30 1     
    5    2   10 1     
    6    2    3 1     
    7    2   31 1     
    8    3    4 1     
    9    3   32 1     
   10    3   33 1     
   11    4    9 ar    
   12    4    5 ar    
   13    5    6 ar    
   14    5   34 1     
   15    6    7 ar    
   16    6   35 1     
   17    7    8 ar    
   18    7   36 1     
   19    8    9 ar    
   20    8   37 1     
   21    9   10 1     
   22   10   11 am    
   23   11   12 2     
   24   11   13 1     
   25   13   14 1     
   26   13   38 1     
   27   13   39 1     
   28   14   26 am    
   29   14   15 am    
   30   15   16 2     
   31   15   17 1     
   32   17   18 1     
   33   17   19 2     
   34   19   20 1     
   35   19   40 1     
   36   20   21 1     
   37   20   26 am    
   38   21   25 1     
   39   21   22 1     
   40   21   41 1     
   41   22   23 1     
   42   22   42 1     
   43   22   43 1     
   44   23   24 1     
   45   23   44 1     
   46   23   45 1     
   47   24   25 1     
   48   24   46 1     
   49   24   47 1     
   50   26   27 2     
   51   12   48 1     
   52   12   49 1     
   53   16   50 1     
   54   16   51 1     
   55   25   52 1     
   56   25   53 1     
   57   27   54 1     
   58   27   55 1     
@<TRIPOS>SUBSTRUCTURE
      1 S1             1
@<TRIPOS>SET
LONE_PAIRS      STATIC     ATOMS    <user>   **** ""
8 48 49 50 51 52 53 54 55
ATOM$BLUE        STATIC     ATOMS    COLORGROUP SYSTEM
8 48 49 50 51 52 53 54 55
