AV-unprocessed.smi:1244|AV-procd|sdf|5221|dock3
  -GOLD-   22720 4313D 1   1.00000     0.00000
 Structure written by MMmdl.
 54 56  0  0  0  0  0  0  0  0  1 V2000
  152.6561  140.6257  160.9764 C   0  0  0  0  0  0  0  0  0  0  0  0
  153.1989  141.0840  159.6119 C   0  0  2  0  0  0  0  0  0  0  0  0
  153.0869  142.6055  159.3888 C   0  0  0  0  0  0  0  0  0  0  0  0
  151.7180  143.0410  159.1322 N   0  0  0  0  0  0  0  0  0  0  0  0
  151.6598  144.4874  158.9260 C   0  0  0  0  0  0  0  0  0  0  0  0
  150.7281  145.2420  159.8938 C   0  0  0  0  0  0  0  0  0  0  0  0
  149.4035  145.4435  159.3186 N   0  0  0  0  0  0  0  0  0  0  0  0
  148.2472  145.1490  159.9293 C   0  0  0  0  0  0  0  0  0  0  0  0
  148.1774  144.6879  161.0687 O   0  0  0  0  0  0  0  0  0  0  0  0
  147.1963  145.4015  159.1310 N   0  0  0  0  0  0  0  0  0  0  0  0
  145.8146  145.2036  159.4121 C   0  0  0  0  0  0  0  0  0  0  0  0
  145.3771  144.7551  160.6825 C   0  0  0  0  0  0  0  0  0  0  0  0
  144.0046  144.5572  160.9103 C   0  0  0  0  0  0  0  0  0  0  0  0
  143.1128  144.8186  159.8574 C   0  0  0  0  0  0  0  0  0  0  0  0
  143.5107  145.2643  158.6493 N   0  0  0  0  0  0  0  0  0  0  0  0
  144.8303  145.4751  158.4181 C   0  0  0  0  0  0  0  0  0  0  0  0
  145.1817  145.9589  157.1365 N   0  0  0  0  0  0  0  0  0  0  0  0
  145.0112  145.1173  155.9566 C   0  0  0  0  0  0  0  0  0  0  0  0
  145.1154  146.0723  154.7710 C   0  0  0  0  0  0  0  0  0  0  0  0
  144.4541  147.3352  155.3138 C   0  0  0  0  0  0  0  0  0  0  0  0
  144.8399  147.3370  156.7969 C   0  0  0  0  0  0  0  0  0  0  0  0
  151.1865  142.2892  157.9995 C   0  0  0  0  0  0  0  0  0  0  0  0
  151.2419  140.7695  158.2403 C   0  0  1  0  0  0  0  0  0  0  0  0
  150.7719  139.9757  157.0168 C   0  0  0  0  0  0  0  0  0  0  0  0
  152.5830  140.3809  158.5318 O   0  0  0  0  0  0  0  0  0  0  0  0
  153.2185  141.0835  161.7905 H   0  0  0  0  0  0  0  0  0  0  0  0
  152.7403  139.5441  161.0848 H   0  0  0  0  0  0  0  0  0  0  0  0
  151.6090  140.8950  161.1132 H   0  0  0  0  0  0  0  0  0  0  0  0
  154.2564  140.8191  159.5854 H   0  0  0  0  0  0  0  0  0  0  0  0
  153.4901  143.1304  160.2558 H   0  0  0  0  0  0  0  0  0  0  0  0
  153.7178  142.8826  158.5428 H   0  0  0  0  0  0  0  0  0  0  0  0
  152.6653  144.8938  159.0439 H   0  0  0  0  0  0  0  0  0  0  0  0
  151.3703  144.7020  157.8962 H   0  0  0  0  0  0  0  0  0  0  0  0
  150.5943  144.6820  160.8184 H   0  0  0  0  0  0  0  0  0  0  0  0
  151.1632  146.2037  160.1706 H   0  0  0  0  0  0  0  0  0  0  0  0
  149.3660  145.8176  158.3818 H   0  0  0  0  0  0  0  0  0  0  0  0
  147.4109  145.6716  158.1825 H   0  0  0  0  0  0  0  0  0  0  0  0
  146.0720  144.5668  161.4867 H   0  0  0  0  0  0  0  0  0  0  0  0
  143.6455  144.2116  161.8684 H   0  0  0  0  0  0  0  0  0  0  0  0
  142.0509  144.6742  159.9902 H   0  0  0  0  0  0  0  0  0  0  0  0
  145.7672  144.3327  155.9146 H   0  0  0  0  0  0  0  0  0  0  0  0
  144.0271  144.6468  155.9553 H   0  0  0  0  0  0  0  0  0  0  0  0
  146.1632  146.2694  154.5396 H   0  0  0  0  0  0  0  0  0  0  0  0
  144.6335  145.6877  153.8717 H   0  0  0  0  0  0  0  0  0  0  0  0
  144.7685  148.2397  154.7924 H   0  0  0  0  0  0  0  0  0  0  0  0
  143.3709  147.2503  155.2167 H   0  0  0  0  0  0  0  0  0  0  0  0
  144.0328  147.7269  157.4187 H   0  0  0  0  0  0  0  0  0  0  0  0
  145.7192  147.9632  156.9491 H   0  0  0  0  0  0  0  0  0  0  0  0
  150.1509  142.5698  157.8120 H   0  0  0  0  0  0  0  0  0  0  0  0
  151.7466  142.5375  157.0968 H   0  0  0  0  0  0  0  0  0  0  0  0
  150.5998  140.5114  159.0830 H   0  0  0  0  0  0  0  0  0  0  0  0
  149.7434  140.2275  156.7568 H   0  0  0  0  0  0  0  0  0  0  0  0
  150.8127  138.9035  157.2095 H   0  0  0  0  0  0  0  0  0  0  0  0
  151.3976  140.1821  156.1480 H   0  0  0  0  0  0  0  0  0  0  0  0
  1  2  1  0  0  0  0
  1 26  1  0  0  0  0
  1 27  1  0  0  0  0
  1 28  1  0  0  0  0
  2 25  1  0  0  0  0
  2  3  1  0  0  0  0
  2 29  1  0  0  0  0
  3  4  1  0  0  0  0
  3 30  1  0  0  0  0
  3 31  1  0  0  0  0
  4  5  1  0  0  0  0
  4 22  1  0  0  0  0
  5  6  1  0  0  0  0
  5 32  1  0  0  0  0
  5 33  1  0  0  0  0
  6  7  1  0  0  0  0
  6 34  1  0  0  0  0
  6 35  1  0  0  0  0
  7  8  1  0  0  0  0
  7 36  1  0  0  0  0
  8  9  2  0  0  0  0
  8 10  1  0  0  0  0
 10 11  1  0  0  0  0
 10 37  1  0  0  0  0
 11 16  1  0  0  0  0
 11 12  2  0  0  0  0
 12 13  1  0  0  0  0
 12 38  1  0  0  0  0
 13 14  2  0  0  0  0
 13 39  1  0  0  0  0
 14 15  1  0  0  0  0
 14 40  1  0  0  0  0
 15 16  2  0  0  0  0
 16 17  1  0  0  0  0
 17 21  1  0  0  0  0
 17 18  1  0  0  0  0
 18 19  1  0  0  0  0
 18 41  1  0  0  0  0
 18 42  1  0  0  0  0
 19 20  1  0  0  0  0
 19 43  1  0  0  0  0
 19 44  1  0  0  0  0
 20 21  1  0  0  0  0
 20 45  1  0  0  0  0
 20 46  1  0  0  0  0
 21 47  1  0  0  0  0
 21 48  1  0  0  0  0
 22 23  1  0  0  0  0
 22 49  1  0  0  0  0
 22 50  1  0  0  0  0
 23 24  1  0  0  0  0
 23 25  1  0  0  0  0
 23 51  1  0  0  0  0
 24 52  1  0  0  0  0
 24 53  1  0  0  0  0
 24 54  1  0  0  0  0
M  END
> <s_m_source_file>
AV-unprocessed.smi

> <i_m_source_file_index>
1244

> <i_lp_mmshare_version>
43012

> <i_f3d_flags>
0

> <s_epik_input>
W0NIM11bQ0BASF0xW0NIMl1OKFtDSDJdW0NASF0oTzEpW0NIM10pW0NIMl1bQ0gyXVtOSF1DKD1PKVtOSF1jMltjSF1bY0hdW2NIXW5jMk4zW0NIMl1bQ0gyXVtDSDJdW0NIMl0z

> <s_epik_cmdline>
J2VwaWtfcHl0aG9uJywgJy1waCcsICc3LjAnLCAnLXRuJywgJzgnLCAnLW1hJywgJzIwMCcsICctbWV0YWxfYmluZGluZycsICctaW1hZScsICc8aW5maWxlLm1hZT4nLCAnLW9tYWUnLCAnPG91dGZpbGUubWFlPic=

> <r_lp_tautomer_probability>
1

> <r_epik_Ionization_Penalty>
0.363951

> <r_epik_Ionization_Penalty_Charging>
0

> <r_epik_Ionization_Penalty_Neutral>
0.363951

> <r_epik_State_Penalty>
0.349372

> <r_epik_Charging_Adjusted_Penalty>
0.349372

> <i_epik_Tot_Q>
0

> <i_epik_Tot_abs_Q>
0

> <r_epik_Metal_State_Penalty>
0.333054

> <b_epik_Metal_Only>
0

> <s_lp_Force_Field>
OPLS_2005

> <r_lp_Energy>
51.1959

> <b_lp_Chiralities_Consistent>
1

> <s_lp_Variant>
AV-unprocessed.smi:1244-1

> <Gold.Version>
5.8.1

> <Gold.Id.Protein>
6NUR|6NUR_protein|mol2

> <Gold.PLP.Fitness>
54.6740

> <Gold.PLP.PLP>
-47.0184

> <Gold.PLP.part.hbond>
-4.0000

> <Gold.PLP.part.metal>
0.0000

> <Gold.PLP.part.buried>
-8.8074

> <Gold.PLP.part.nonpolar>
-34.0608

> <Gold.PLP.part.repulsive>
0.6954

> <Gold.PLP.ligand.clash>
0.0000

> <Gold.PLP.ligand.torsion>
1.1955

> <Gold.PLP.Chemscore.Hbond>
3.2306

> <Gold.PLP.Chemscore.CHOScore>
0.0000

> <Gold.PLP.Chemscore.Metal>
0.0000

> <Gold.Chemscore.Hbonds>
donor molecule, donor type, donor heavy atom, donor atom, acceptor molecule, acceptor atom, score
      L1  H     7    36       P1  8029  0.58
      P1  H  6933  6944       L1     9  0.16

> <Gold.PLP.Chemscore.Internal.Correction>
0.3548

> <Gold.Rescore>
     Score         DG    S(hbond)    S(metal)    S(lipo)     H(rot)  DE(clash)    DE(int)     intcor
     21.62     -24.26       2.98        0.00     109.17       1.55       0.16       2.49       ----

> <Gold.Chemscore.Fitness>
21.6158

> <Gold.Chemscore.DG>
-24.2583

> <Gold.Chemscore.ZeroCoef>
-5.4800

> <Gold.Chemscore.Hbond>
2.9844

> <Gold.Chemscore.Metal>
0.0000

> <Gold.Chemscore.Lipo>
109.1704

> <Gold.Chemscore.Internal_Hbond>
0.0000

> <Gold.Chemscore.DEClash>
0.1569

> <Gold.Chemscore.DEInternal>
2.4856

> <Gold.Chemscore.Rot>
1.5479

> <Gold.Chemscore.Internal.Correction>
   9.000000E+99

> <Gold.Chemscore.Hbonds>
donor molecule, donor type, donor heavy atom, donor atom, acceptor molecule, acceptor atom, score
      L1  H     7    36       P1  8029  0.54
      L1  H    10    37       P1  8029  0.01
      P1  H  6933  6944       L1     9  0.17

> <Gold.Chemscore.Hbond.Weighted>
-9.9681

> <Gold.Chemscore.Metal.Weighted>
-0.0000

> <Gold.Chemscore.Lipo.Weighted>
-12.7729

> <Gold.Chemscore.Internal_Hbond.Weighted>
0.0000

> <Gold.Chemscore.DEClash.Weighted>
0.1569

> <Gold.Chemscore.DEInternal.Weighted>
2.4856

> <Gold.Chemscore.Rot.Weighted>
3.9627

> <Gold.Chemscore.Internal.Correction.Weighted>
   9.000000E+99

> <Gold.Protein.RotatedTorsions>
[ 6907 6896 6895 6894 ] final -138.88 input  -60.11 | X-H torsion
[ 7974 7965 7964 7962 ] final   -0.44 input  175.53 | X-H torsion
[ 8008 7997 7996 7995 ] final  -86.74 input   59.86 | X-H torsion
[ 10167 10162 10161 10158 ] final  -25.63 input  -65.29 | X-H torsion
[ 10718 10713 10712 10709 ] final  -41.04 input   66.30 | X-H torsion
[ 10763 10752 10751 10750 ] final  -49.91 input  -60.55 | X-H torsion
[ 11005 11000 10999 10996 ] final -157.30 input  -57.11 | X-H torsion

> <Gold.Protein.ActiveResidues>
 VAL166  LYS551  ARG553  GLY616  TRP617  ASP618  TYR619  PRO620  LYS621  CYS622 
 ASP623  PHE694  ASN695  SER759  ASP760  ASP761  ALA762  ILE779  LEU786  VAL792 
 PHE793  MET794  SER795  GLU796  ALA797  LYS798  CYS799  TRP800  GLU811  SER814 

> <Gold.Protein.RotatedAtoms>
  151.0407  133.5709  159.2651 H   0  0  0  0  0  0  0  0  0  0  0  0  # atno 6907 bound_to 6896
  151.2756  135.0697  159.9160 H   0  0  0  0  0  0  0  0  0  0  0  0  # atno 6908 bound_to 6896
  152.5363  134.0130  159.8001 H   0  0  0  0  0  0  0  0  0  0  0  0  # atno 6909 bound_to 6896
  146.2427  140.1270  142.8339 H   0  0  0  0  0  0  0  0  0  0  0  0  # atno 7974 bound_to 7965
  154.6553  140.0574  157.0002 H   0  0  0  0  0  0  0  0  0  0  0  0  # atno 8008 bound_to 7997
  155.1309  140.3256  155.4456 H   0  0  0  0  0  0  0  0  0  0  0  0  # atno 8009 bound_to 7997
  156.2594  140.1981  156.6428 H   0  0  0  0  0  0  0  0  0  0  0  0  # atno 8010 bound_to 7997
  140.7286  143.4248  151.0894 H   0  0  0  0  0  0  0  0  0  0  0  0  # atno 10167 bound_to 10162
  156.2747  130.4210  149.8400 H   0  0  0  0  0  0  0  0  0  0  0  0  # atno 10718 bound_to 10713
  154.1018  135.6562  153.4869 H   0  0  0  0  0  0  0  0  0  0  0  0  # atno 10763 bound_to 10752
  153.0286  135.5227  154.7279 H   0  0  0  0  0  0  0  0  0  0  0  0  # atno 10764 bound_to 10752
  154.6433  135.2991  155.0046 H   0  0  0  0  0  0  0  0  0  0  0  0  # atno 10765 bound_to 10752
  140.6662  134.4297  157.5233 H   0  0  0  0  0  0  0  0  0  0  0  0  # atno 11005 bound_to 11000
  145.0358  140.8907  143.5082 LP  0  0  0  0  0  0  0  0  0  0  0  0  # atno 17320 bound_to 7965
  145.1342  139.2613  143.5523 LP  0  0  0  0  0  0  0  0  0  0  0  0  # atno 17321 bound_to 7965
  139.7898  143.8235  152.3150 LP  0  0  0  0  0  0  0  0  0  0  0  0  # atno 17342 bound_to 10162
  139.8215  144.7294  150.9567 LP  0  0  0  0  0  0  0  0  0  0  0  0  # atno 17343 bound_to 10162
  156.5869  130.8490  151.3398 LP  0  0  0  0  0  0  0  0  0  0  0  0  # atno 17370 bound_to 10713
  157.7295  130.9672  150.1791 LP  0  0  0  0  0  0  0  0  0  0  0  0  # atno 17371 bound_to 10713
  139.8996  134.8586  156.1951 LP  0  0  0  0  0  0  0  0  0  0  0  0  # atno 17394 bound_to 11000
  141.0428  133.6929  156.1628 LP  0  0  0  0  0  0  0  0  0  0  0  0  # atno 17395 bound_to 11000

$$$$
