AV-unprocessed.smi:40|AV-procd|sdf|370|dock3
  -GOLD-   2262016213D 1   1.00000     0.00000
 Structure written by MMmdl.
 47 48  0  0  0  0  0  0  0  0  1 V2000
  150.2287  145.0517  160.0308 C   0  0  0  0  0  0  0  0  0  0  0  0
  151.7248  145.3508  159.8707 C   0  0  0  0  0  0  0  0  0  0  0  0
  152.5225  144.1994  159.2370 C   0  0  0  0  0  0  0  0  0  0  0  0
  152.8552  143.0590  160.2167 C   0  0  0  0  0  0  0  0  0  0  0  0
  153.6604  141.9264  159.5650 C   0  0  0  0  0  0  0  0  0  0  0  0
  153.4653  140.7370  160.3092 O   0  0  0  0  0  0  0  0  0  0  0  0
  154.2380  139.6554  160.0953 C   0  0  0  0  0  0  0  0  0  0  0  0
  155.1397  139.5984  159.2598 O   0  0  0  0  0  0  0  0  0  0  0  0
  153.8314  138.5632  160.9567 N   0  0  0  0  0  0  0  0  0  0  0  0
  154.3991  137.3385  160.9935 C   0  0  0  0  0  0  0  0  0  0  0  0
  155.0916  136.9494  159.9390 N   0  0  0  0  0  0  0  0  0  0  0  0
  155.6840  135.7189  159.8341 C   0  0  0  0  0  0  0  0  0  0  0  0
  156.2877  135.3971  158.8117 O   0  0  0  0  0  0  0  0  0  0  0  0
  155.5539  134.8374  160.9336 N   0  0  0  0  0  0  0  0  0  0  0  0
  156.1589  133.4535  160.8508 C   0  0  1  0  0  0  0  0  0  0  0  0
  156.4450  133.0133  162.1452 O   0  0  0  0  0  0  0  0  0  0  0  0
  156.0251  131.6621  162.2929 C   0  0  1  0  0  0  0  0  0  0  0  0
  155.8012  131.3048  163.7699 C   0  0  0  0  0  0  0  0  0  0  0  0
  154.8110  131.5302  161.3645 C   0  0  1  0  0  0  0  0  0  0  0  0
  153.6270  131.9668  162.0111 O   0  0  0  0  0  0  0  0  0  0  0  0
  155.2108  132.4247  160.1942 C   0  0  1  0  0  0  0  0  0  0  0  0
  154.1017  132.9627  159.4917 O   0  0  0  0  0  0  0  0  0  0  0  0
  154.8491  135.2389  162.0583 C   0  0  0  0  0  0  0  0  0  0  0  0
  154.2659  136.4530  162.1363 C   0  0  0  0  0  0  0  0  0  0  0  0
  153.5921  136.8165  163.2415 F   0  0  0  0  0  0  0  0  0  0  0  0
  157.1024  133.5573  160.3134 H   0  0  0  0  0  0  0  0  0  0  0  0
  156.8262  131.0345  161.8984 H   0  0  0  0  0  0  0  0  0  0  0  0
  154.6584  130.4985  161.0460 H   0  0  0  0  0  0  0  0  0  0  0  0
  155.8111  131.8430  159.4936 H   0  0  0  0  0  0  0  0  0  0  0  0
  149.7244  145.8717  160.5427 H   0  0  0  0  0  0  0  0  0  0  0  0
  150.0685  144.1466  160.6173 H   0  0  0  0  0  0  0  0  0  0  0  0
  149.7399  144.9190  159.0659 H   0  0  0  0  0  0  0  0  0  0  0  0
  151.8597  146.2614  159.2859 H   0  0  0  0  0  0  0  0  0  0  0  0
  152.1419  145.5620  160.8559 H   0  0  0  0  0  0  0  0  0  0  0  0
  151.9350  143.7980  158.4102 H   0  0  0  0  0  0  0  0  0  0  0  0
  153.4404  144.5871  158.7938 H   0  0  0  0  0  0  0  0  0  0  0  0
  153.4292  143.4519  161.0554 H   0  0  0  0  0  0  0  0  0  0  0  0
  151.9349  142.6524  160.6378 H   0  0  0  0  0  0  0  0  0  0  0  0
  153.3451  141.7787  158.5312 H   0  0  0  0  0  0  0  0  0  0  0  0
  154.7209  142.1815  159.5538 H   0  0  0  0  0  0  0  0  0  0  0  0
  153.1204  138.7913  161.6357 H   0  0  0  0  0  0  0  0  0  0  0  0
  155.4413  130.2812  163.8751 H   0  0  0  0  0  0  0  0  0  0  0  0
  155.0751  131.9684  164.2399 H   0  0  0  0  0  0  0  0  0  0  0  0
  156.7314  131.3896  164.3320 H   0  0  0  0  0  0  0  0  0  0  0  0
  153.3358  131.2849  162.5967 H   0  0  0  0  0  0  0  0  0  0  0  0
  154.2776  132.9019  158.5649 H   0  0  0  0  0  0  0  0  0  0  0  0
  154.7502  134.5733  162.9028 H   0  0  0  0  0  0  0  0  0  0  0  0
  1  2  1  0  0  0  0
  1 30  1  0  0  0  0
  1 31  1  0  0  0  0
  1 32  1  0  0  0  0
  2  3  1  0  0  0  0
  2 33  1  0  0  0  0
  2 34  1  0  0  0  0
  3  4  1  0  0  0  0
  3 35  1  0  0  0  0
  3 36  1  0  0  0  0
  4  5  1  0  0  0  0
  4 37  1  0  0  0  0
  4 38  1  0  0  0  0
  5  6  1  0  0  0  0
  5 39  1  0  0  0  0
  5 40  1  0  0  0  0
  6  7  1  0  0  0  0
  7  8  2  0  0  0  0
  7  9  1  0  0  0  0
  9 10  1  0  0  0  0
  9 41  1  0  0  0  0
 10 24  1  0  0  0  0
 10 11  2  0  0  0  0
 11 12  1  0  0  0  0
 12 13  2  0  0  0  0
 12 14  1  0  0  0  0
 14 15  1  0  0  0  0
 14 23  1  0  0  0  0
 15 26  1  0  0  0  0
 15 21  1  0  0  0  0
 15 16  1  0  0  0  0
 16 17  1  0  0  0  0
 17 27  1  0  0  0  0
 17 18  1  0  0  0  0
 17 19  1  0  0  0  0
 18 42  1  0  0  0  0
 18 43  1  0  0  0  0
 18 44  1  0  0  0  0
 19 28  1  0  0  0  0
 19 20  1  0  0  0  0
 19 21  1  0  0  0  0
 20 45  1  0  0  0  0
 21 29  1  0  0  0  0
 21 22  1  0  0  0  0
 22 46  1  0  0  0  0
 23 24  2  0  0  0  0
 23 47  1  0  0  0  0
 24 25  1  0  0  0  0
M  END
> <s_m_source_file>
AV-unprocessed.smi

> <i_m_source_file_index>
40

> <i_lp_mmshare_version>
43012

> <i_f3d_flags>
0

> <s_epik_input>
W0NIM11bQ0gyXVtDSDJdW0NIMl1bQ0gyXU9DKD1PKVtOSF1jMW5jKD1PKW4oW2NIXWMxRilbQ0BASF0yT1tDQEhdKFtDSDNdKVtDQEBIXShbT0hdKVtDQEhdMltPSF0=

> <s_epik_cmdline>
J2VwaWtfcHl0aG9uJywgJy1waCcsICc3LjAnLCAnLXRuJywgJzgnLCAnLW1hJywgJzIwMCcsICctbWV0YWxfYmluZGluZycsICctaW1hZScsICc8aW5maWxlLm1hZT4nLCAnLW9tYWUnLCAnPG91dGZpbGUubWFlPic=

> <r_lp_tautomer_probability>
1

> <r_epik_Ionization_Penalty>
2.29506e-06

> <r_epik_Ionization_Penalty_Charging>
8.26867e-09

> <r_epik_Ionization_Penalty_Neutral>
2.2868e-06

> <r_epik_State_Penalty>
-0

> <r_epik_Charging_Adjusted_Penalty>
8.26867e-09

> <i_epik_Tot_Q>
0

> <i_epik_Tot_abs_Q>
0

> <r_epik_Metal_State_Penalty>
-0

> <b_epik_Metal_Only>
0

> <s_epik_Chemistry_Notes>
This compound has an ester and may undergo hydrolysis at high or low pH. This compound contains an acetal/aminal-like group ( X-CH(R)-Y where X, Y are N, S, or O) that may be acid/base labile, releasing an aldehyde.

> <s_lp_Force_Field>
OPLS_2005

> <r_lp_Energy>
45.3247

> <b_lp_Chiralities_Consistent>
1

> <s_lp_Variant>
AV-unprocessed.smi:40-4

> <Gold.Version>
5.8.1

> <Gold.Id.Protein>
6NUR|6NUR_protein|mol2

> <Gold.PLP.Fitness>
38.9629

> <Gold.PLP.PLP>
-34.8842

> <Gold.PLP.part.hbond>
-2.0000

> <Gold.PLP.part.metal>
0.0000

> <Gold.PLP.part.buried>
-4.9343

> <Gold.PLP.part.nonpolar>
-27.6033

> <Gold.PLP.part.repulsive>
0.0177

> <Gold.PLP.ligand.clash>
0.0000

> <Gold.PLP.ligand.torsion>
1.0717

> <Gold.PLP.Chemscore.Hbond>
2.0000

> <Gold.PLP.Chemscore.CHOScore>
0.0000

> <Gold.PLP.Chemscore.Metal>
0.0000

> <Gold.Chemscore.Hbonds>
donor molecule, donor type, donor heavy atom, donor atom, acceptor molecule, acceptor atom, score
      P1  H  6896  6909       L1    22  0.98
      P1  H  7997  8009       L1     8  1.00

> <Gold.PLP.Chemscore.Internal.Correction>
0.2221

> <Gold.Rescore>
     Score         DG    S(hbond)    S(metal)    S(lipo)     H(rot)  DE(clash)    DE(int)     intcor
      8.56     -11.05       1.86        0.00      75.28       3.70       0.04       2.44       ----

> <Gold.Chemscore.Fitness>
8.5623

> <Gold.Chemscore.DG>
-11.0456

> <Gold.Chemscore.ZeroCoef>
-5.4800

> <Gold.Chemscore.Hbond>
1.8619

> <Gold.Chemscore.Metal>
0.0000

> <Gold.Chemscore.Lipo>
75.2792

> <Gold.Chemscore.Internal_Hbond>
0.0000

> <Gold.Chemscore.DEClash>
0.0442

> <Gold.Chemscore.DEInternal>
2.4390

> <Gold.Chemscore.Rot>
3.6957

> <Gold.Chemscore.Internal.Correction>
   9.000000E+99

> <Gold.Chemscore.Hbonds>
donor molecule, donor type, donor heavy atom, donor atom, acceptor molecule, acceptor atom, score
      P1  H  6896  6909       L1    22  0.69
      P1  H  7997  8009       L1     8  0.99

> <Gold.Chemscore.Hbond.Weighted>
-6.2189

> <Gold.Chemscore.Metal.Weighted>
-0.0000

> <Gold.Chemscore.Lipo.Weighted>
-8.8077

> <Gold.Chemscore.Internal_Hbond.Weighted>
0.0000

> <Gold.Chemscore.DEClash.Weighted>
0.0442

> <Gold.Chemscore.DEInternal.Weighted>
2.4390

> <Gold.Chemscore.Rot.Weighted>
9.4610

> <Gold.Chemscore.Internal.Correction.Weighted>
   9.000000E+99

> <Gold.Protein.RotatedTorsions>
[ 6907 6896 6895 6894 ] final -140.66 input  -60.11 | X-H torsion
[ 7974 7965 7964 7962 ] final   47.06 input  175.53 | X-H torsion
[ 8008 7997 7996 7995 ] final  110.63 input   59.86 | X-H torsion
[ 10167 10162 10161 10158 ] final -174.30 input  -65.29 | X-H torsion
[ 10718 10713 10712 10709 ] final   44.68 input   66.30 | X-H torsion
[ 10763 10752 10751 10750 ] final   -7.74 input  -60.55 | X-H torsion
[ 11005 11000 10999 10996 ] final -104.90 input  -57.11 | X-H torsion

> <Gold.Protein.ActiveResidues>
 VAL166  LYS551  ARG553  GLY616  TRP617  ASP618  TYR619  PRO620  LYS621  CYS622 
 ASP623  PHE694  ASN695  SER759  ASP760  ASP761  ALA762  ILE779  LEU786  VAL792 
 PHE793  MET794  SER795  GLU796  ALA797  LYS798  CYS799  TRP800  GLU811  SER814 

> <Gold.Protein.RotatedAtoms>
  151.0636  133.5524  159.2632 H   0  0  0  0  0  0  0  0  0  0  0  0  # atno 6907 bound_to 6896
  151.2490  135.0614  159.9064 H   0  0  0  0  0  0  0  0  0  0  0  0  # atno 6908 bound_to 6896
  152.5401  134.0399  159.8117 H   0  0  0  0  0  0  0  0  0  0  0  0  # atno 6909 bound_to 6896
  146.0333  139.4789  142.9824 H   0  0  0  0  0  0  0  0  0  0  0  0  # atno 7974 bound_to 7965
  156.2067  140.3035  155.9642 H   0  0  0  0  0  0  0  0  0  0  0  0  # atno 8008 bound_to 7997
  155.2825  140.0438  157.3033 H   0  0  0  0  0  0  0  0  0  0  0  0  # atno 8009 bound_to 7997
  154.5642  140.2329  155.8297 H   0  0  0  0  0  0  0  0  0  0  0  0  # atno 8010 bound_to 7997
  139.5641  144.1797  152.1285 H   0  0  0  0  0  0  0  0  0  0  0  0  # atno 10167 bound_to 10162
  157.4294  130.8016  149.7589 H   0  0  0  0  0  0  0  0  0  0  0  0  # atno 10718 bound_to 10713
  153.4306  135.7012  153.6233 H   0  0  0  0  0  0  0  0  0  0  0  0  # atno 10763 bound_to 10752
  153.4649  135.3728  155.2359 H   0  0  0  0  0  0  0  0  0  0  0  0  # atno 10764 bound_to 10752
  154.8725  135.4029  154.3690 H   0  0  0  0  0  0  0  0  0  0  0  0  # atno 10765 bound_to 10752
  141.1079  133.8762  157.1668 H   0  0  0  0  0  0  0  0  0  0  0  0  # atno 11005 bound_to 11000
  145.7006  141.0137  143.1506 LP  0  0  0  0  0  0  0  0  0  0  0  0  # atno 17320 bound_to 7965
  144.7040  139.8639  143.7435 LP  0  0  0  0  0  0  0  0  0  0  0  0  # atno 17321 bound_to 7965
  140.1317  144.5282  150.6798 LP  0  0  0  0  0  0  0  0  0  0  0  0  # atno 17342 bound_to 10162
  140.6924  143.2383  151.5095 LP  0  0  0  0  0  0  0  0  0  0  0  0  # atno 17343 bound_to 10162
  155.9908  130.3942  150.3013 LP  0  0  0  0  0  0  0  0  0  0  0  0  # atno 17370 bound_to 10713
  157.1168  131.0236  151.3026 LP  0  0  0  0  0  0  0  0  0  0  0  0  # atno 17371 bound_to 10713
  139.9957  135.0047  157.0078 LP  0  0  0  0  0  0  0  0  0  0  0  0  # atno 17394 bound_to 11000
  140.4854  134.1246  155.7224 LP  0  0  0  0  0  0  0  0  0  0  0  0  # atno 17395 bound_to 11000

$$$$
