AV-unprocessed.smi:2925|AV-procd|sdf|11224|dock5
  -GOLD-   2272016113D 1   1.00000     0.00000
 Structure written by MMmdl.
 44 45  0  0  0  0  0  0  0  0  1 V2000
  150.7489  133.5532  155.1264 C   0  0  0  0  0  0  0  0  0  0  0  0
  149.7365  134.1257  156.1295 C   0  0  0  0  0  0  0  0  0  0  0  0
  149.0496  135.4238  155.6561 C   0  0  2  0  0  0  0  0  0  0  0  0
  148.4480  135.2196  154.3380 N   0  0  0  0  0  0  0  0  0  0  0  0
  147.5353  134.2886  154.0258 C   0  0  0  0  0  0  0  0  0  0  0  0
  147.0814  133.4726  154.8287 O   0  0  0  0  0  0  0  0  0  0  0  0
  147.2121  134.3424  152.7216 N   0  0  0  0  0  0  0  0  0  0  0  0
  146.3536  133.4604  152.0477 C   0  0  0  0  0  0  0  0  0  0  0  0
  145.3452  133.9720  151.2938 C   0  0  0  0  0  0  0  0  0  0  0  0
  145.1458  135.4710  151.1339 C   0  0  0  0  0  0  0  0  0  0  0  0
  144.4534  133.0644  150.6025 C   0  0  0  0  0  0  0  0  0  0  0  0
  144.6353  131.7425  150.7231 C   0  0  0  0  0  0  0  0  0  0  0  0
  145.6594  131.2092  151.5191 N   0  0  0  0  0  0  0  0  0  0  0  0
  145.7629  129.7498  151.6016 C   0  0  0  0  0  0  0  0  0  0  0  0
  146.5159  131.9976  152.2300 C   0  0  0  0  0  0  0  0  0  0  0  0
  147.3539  131.4998  152.9855 O   0  0  0  0  0  0  0  0  0  0  0  0
  150.0363  136.6068  155.5920 C   0  0  1  0  0  0  0  0  0  0  0  0
  151.1165  136.4802  154.5151 C   0  0  0  0  0  0  0  0  0  0  0  0
  151.5095  137.9246  154.3083 C   0  0  0  0  0  0  0  0  0  0  0  0
  150.1642  138.6350  154.4256 C   0  0  0  0  0  0  0  0  0  0  0  0
  149.3557  137.8171  155.2682 O   0  0  0  0  0  0  0  0  0  0  0  0
  151.1553  132.6076  155.4854 H   0  0  0  0  0  0  0  0  0  0  0  0
  151.5880  134.2311  154.9691 H   0  0  0  0  0  0  0  0  0  0  0  0
  150.2815  133.3678  154.1588 H   0  0  0  0  0  0  0  0  0  0  0  0
  148.9776  133.3658  156.3182 H   0  0  0  0  0  0  0  0  0  0  0  0
  150.2343  134.2981  157.0847 H   0  0  0  0  0  0  0  0  0  0  0  0
  148.2779  135.6807  156.3842 H   0  0  0  0  0  0  0  0  0  0  0  0
  148.7614  135.8361  153.6028 H   0  0  0  0  0  0  0  0  0  0  0  0
  147.7368  134.9782  152.1393 H   0  0  0  0  0  0  0  0  0  0  0  0
  144.2984  135.6900  150.4838 H   0  0  0  0  0  0  0  0  0  0  0  0
  146.0325  135.9301  150.6953 H   0  0  0  0  0  0  0  0  0  0  0  0
  144.9556  135.9378  152.1009 H   0  0  0  0  0  0  0  0  0  0  0  0
  143.6518  133.4444  149.9856 H   0  0  0  0  0  0  0  0  0  0  0  0
  144.0055  131.0175  150.2286 H   0  0  0  0  0  0  0  0  0  0  0  0
  146.7833  129.4197  151.3999 H   0  0  0  0  0  0  0  0  0  0  0  0
  145.1161  129.2423  150.8850 H   0  0  0  0  0  0  0  0  0  0  0  0
  145.4845  129.4061  152.5988 H   0  0  0  0  0  0  0  0  0  0  0  0
  150.5189  136.7469  156.5609 H   0  0  0  0  0  0  0  0  0  0  0  0
  151.9525  135.8499  154.8195 H   0  0  0  0  0  0  0  0  0  0  0  0
  150.6970  136.0718  153.5943 H   0  0  0  0  0  0  0  0  0  0  0  0
  152.1768  138.2477  155.1087 H   0  0  0  0  0  0  0  0  0  0  0  0
  152.0062  138.1043  153.3544 H   0  0  0  0  0  0  0  0  0  0  0  0
  150.2641  139.6431  154.8283 H   0  0  0  0  0  0  0  0  0  0  0  0
  149.6823  138.7063  153.4498 H   0  0  0  0  0  0  0  0  0  0  0  0
  1  2  1  0  0  0  0
  1 22  1  0  0  0  0
  1 23  1  0  0  0  0
  1 24  1  0  0  0  0
  2  3  1  0  0  0  0
  2 25  1  0  0  0  0
  2 26  1  0  0  0  0
  3  4  1  0  0  0  0
  3 17  1  0  0  0  0
  3 27  1  0  0  0  0
  4  5  1  0  0  0  0
  4 28  1  0  0  0  0
  5  6  2  0  0  0  0
  5  7  1  0  0  0  0
  7  8  1  0  0  0  0
  7 29  1  0  0  0  0
  8 15  1  0  0  0  0
  8  9  2  0  0  0  0
  9 10  1  0  0  0  0
  9 11  1  0  0  0  0
 10 30  1  0  0  0  0
 10 31  1  0  0  0  0
 10 32  1  0  0  0  0
 11 12  2  0  0  0  0
 11 33  1  0  0  0  0
 12 13  1  0  0  0  0
 12 34  1  0  0  0  0
 13 14  1  0  0  0  0
 13 15  1  0  0  0  0
 14 35  1  0  0  0  0
 14 36  1  0  0  0  0
 14 37  1  0  0  0  0
 15 16  2  0  0  0  0
 17 21  1  0  0  0  0
 17 18  1  0  0  0  0
 17 38  1  0  0  0  0
 18 19  1  0  0  0  0
 18 39  1  0  0  0  0
 18 40  1  0  0  0  0
 19 20  1  0  0  0  0
 19 41  1  0  0  0  0
 19 42  1  0  0  0  0
 20 21  1  0  0  0  0
 20 43  1  0  0  0  0
 20 44  1  0  0  0  0
M  END
> <s_m_source_file>
AV-unprocessed.smi

> <i_m_source_file_index>
2925

> <i_lp_mmshare_version>
43012

> <i_f3d_flags>
0

> <s_epik_input>
TzFbQ0gyXVtDSDJdW0NIMl1bQ0BIXTFbQ0BIXShbQ0gyXVtDSDNdKVtOSF1DKD1PKVtOSF1jMmMoW0NIM10pW2NIXVtjSF1uKFtDSDNdKWMyPU8=

> <s_epik_cmdline>
J2VwaWtfcHl0aG9uJywgJy1waCcsICc3LjAnLCAnLXRuJywgJzgnLCAnLW1hJywgJzIwMCcsICctbWV0YWxfYmluZGluZycsICctaW1hZScsICc8aW5maWxlLm1hZT4nLCAnLW9tYWUnLCAnPG91dGZpbGUubWFlPic=

> <r_lp_tautomer_probability>
1

> <r_epik_Ionization_Penalty>
2.58789e-05

> <r_epik_Ionization_Penalty_Charging>
6.72534e-06

> <r_epik_Ionization_Penalty_Neutral>
1.91535e-05

> <r_epik_State_Penalty>
-0

> <r_epik_Charging_Adjusted_Penalty>
6.72534e-06

> <i_epik_Tot_Q>
0

> <i_epik_Tot_abs_Q>
0

> <r_epik_Metal_State_Penalty>
-0

> <b_epik_Metal_Only>
0

> <s_lp_Force_Field>
OPLS_2005

> <r_lp_Energy>
34.9681

> <b_lp_Chiralities_Consistent>
1

> <s_lp_Variant>
AV-unprocessed.smi:2925-3

> <Gold.Version>
5.8.1

> <Gold.Id.Protein>
6NUR|6NUR_protein|mol2

> <Gold.PLP.Fitness>
40.6864

> <Gold.PLP.PLP>
-35.0005

> <Gold.PLP.part.hbond>
-2.0000

> <Gold.PLP.part.metal>
0.0000

> <Gold.PLP.part.buried>
-6.2389

> <Gold.PLP.part.nonpolar>
-27.8494

> <Gold.PLP.part.repulsive>
0.2523

> <Gold.PLP.ligand.clash>
0.0000

> <Gold.PLP.ligand.torsion>
0.4900

> <Gold.PLP.Chemscore.Hbond>
2.0000

> <Gold.PLP.Chemscore.CHOScore>
0.0000

> <Gold.PLP.Chemscore.Metal>
0.0000

> <Gold.Chemscore.Hbonds>
donor molecule, donor type, donor heavy atom, donor atom, acceptor molecule, acceptor atom, score
      L1  H     4    28       P1  7948  1.00
      L1  H     7    29       P1  7948  1.00

> <Gold.PLP.Chemscore.Internal.Correction>
0.6659

> <Gold.Rescore>
     Score         DG    S(hbond)    S(metal)    S(lipo)     H(rot)  DE(clash)    DE(int)     intcor
     16.73     -17.50       1.91        0.00      77.83       1.36       0.00       0.76       ----

> <Gold.Chemscore.Fitness>
16.7349

> <Gold.Chemscore.DG>
-17.4958

> <Gold.Chemscore.ZeroCoef>
-5.4800

> <Gold.Chemscore.Hbond>
1.9118

> <Gold.Chemscore.Metal>
0.0000

> <Gold.Chemscore.Lipo>
77.8349

> <Gold.Chemscore.Internal_Hbond>
0.0000

> <Gold.Chemscore.DEClash>
0.0030

> <Gold.Chemscore.DEInternal>
0.7580

> <Gold.Chemscore.Rot>
1.3579

> <Gold.Chemscore.Internal.Correction>
   9.000000E+99

> <Gold.Chemscore.Hbonds>
donor molecule, donor type, donor heavy atom, donor atom, acceptor molecule, acceptor atom, score
      L1  H     4    28       P1  7948  0.94
      L1  H     7    29       P1  7948  0.84

> <Gold.Chemscore.Hbond.Weighted>
-6.3855

> <Gold.Chemscore.Metal.Weighted>
-0.0000

> <Gold.Chemscore.Lipo.Weighted>
-9.1067

> <Gold.Chemscore.Internal_Hbond.Weighted>
0.0000

> <Gold.Chemscore.DEClash.Weighted>
0.0030

> <Gold.Chemscore.DEInternal.Weighted>
0.7580

> <Gold.Chemscore.Rot.Weighted>
3.4763

> <Gold.Chemscore.Internal.Correction.Weighted>
   9.000000E+99

> <Gold.Protein.RotatedTorsions>
[ 6907 6896 6895 6894 ] final  152.41 input  -60.11 | X-H torsion
[ 7974 7965 7964 7962 ] final  -11.64 input  175.53 | X-H torsion
[ 8008 7997 7996 7995 ] final   56.11 input   59.86 | X-H torsion
[ 10167 10162 10161 10158 ] final -104.15 input  -65.29 | X-H torsion
[ 10718 10713 10712 10709 ] final   74.79 input   66.30 | X-H torsion
[ 10763 10752 10751 10750 ] final    4.66 input  -60.55 | X-H torsion
[ 11005 11000 10999 10996 ] final -166.55 input  -57.11 | X-H torsion

> <Gold.Protein.ActiveResidues>
 VAL166  LYS551  ARG553  GLY616  TRP617  ASP618  TYR619  PRO620  LYS621  CYS622 
 ASP623  PHE694  ASN695  SER759  ASP760  ASP761  ALA762  ILE779  LEU786  VAL792 
 PHE793  MET794  SER795  GLU796  ALA797  LYS798  CYS799  TRP800  GLU811  SER814 

> <Gold.Protein.RotatedAtoms>
  152.0870  133.4181  159.4526 H   0  0  0  0  0  0  0  0  0  0  0  0  # atno 6907 bound_to 6896
  150.6862  134.2915  159.4678 H   0  0  0  0  0  0  0  0  0  0  0  0  # atno 6908 bound_to 6896
  152.0763  134.9500  160.0624 H   0  0  0  0  0  0  0  0  0  0  0  0  # atno 6909 bound_to 6896
  146.2180  140.2941  142.8370 H   0  0  0  0  0  0  0  0  0  0  0  0  # atno 7974 bound_to 7965
  155.5121  140.3477  155.4390 H   0  0  0  0  0  0  0  0  0  0  0  0  # atno 8008 bound_to 7997
  156.0842  140.1394  156.9701 H   0  0  0  0  0  0  0  0  0  0  0  0  # atno 8009 bound_to 7997
  154.4597  140.0939  156.6834 H   0  0  0  0  0  0  0  0  0  0  0  0  # atno 8010 bound_to 7997
  140.2123  143.3737  152.1040 H   0  0  0  0  0  0  0  0  0  0  0  0  # atno 10167 bound_to 10162
  157.6607  130.9695  150.1261 H   0  0  0  0  0  0  0  0  0  0  0  0  # atno 10718 bound_to 10713
  153.2686  135.6930  153.7504 H   0  0  0  0  0  0  0  0  0  0  0  0  # atno 10763 bound_to 10752
  153.6536  135.3372  155.3108 H   0  0  0  0  0  0  0  0  0  0  0  0  # atno 10764 bound_to 10752
  154.8456  135.4460  154.1701 H   0  0  0  0  0  0  0  0  0  0  0  0  # atno 10765 bound_to 10752
  140.5632  134.5312  157.5147 H   0  0  0  0  0  0  0  0  0  0  0  0  # atno 11005 bound_to 11000
  144.9105  140.7752  143.5810 LP  0  0  0  0  0  0  0  0  0  0  0  0  # atno 17320 bound_to 7965
  145.2871  139.1897  143.4760 LP  0  0  0  0  0  0  0  0  0  0  0  0  # atno 17321 bound_to 7965
  139.5175  144.6993  151.5541 LP  0  0  0  0  0  0  0  0  0  0  0  0  # atno 17342 bound_to 10162
  140.6314  143.9068  150.6609 LP  0  0  0  0  0  0  0  0  0  0  0  0  # atno 17343 bound_to 10162
  156.2120  130.3667  149.8659 LP  0  0  0  0  0  0  0  0  0  0  0  0  # atno 17370 bound_to 10713
  156.6535  130.8753  151.3535 LP  0  0  0  0  0  0  0  0  0  0  0  0  # atno 17371 bound_to 10713
  139.9397  134.7809  156.0709 LP  0  0  0  0  0  0  0  0  0  0  0  0  # atno 17394 bound_to 11000
  141.1102  133.6646  156.2959 LP  0  0  0  0  0  0  0  0  0  0  0  0  # atno 17395 bound_to 11000

$$$$
