AV-unprocessed.smi:3261|AV-procd|sdf|12483|dock1
  -GOLD-   2272018383D 1   1.00000     0.00000
 Structure written by MMmdl.
 30 31  0  0  0  0  0  0  0  0  3 V2000
  147.1151  132.9394  153.8322 O   0  0  0  0  0  0  0  0  0  0  0  0
  147.7070  132.2121  153.0362 C   0  0  0  0  0  0  0  0  0  0  0  0
  147.2309  132.1006  151.7715 N   0  0  0  0  0  0  0  0  0  0  0  0
  146.0636  132.6767  151.2019 C   0  0  0  0  0  0  0  0  0  0  0  0
  145.3139  131.8897  150.3002 C   0  0  0  0  0  0  0  0  0  0  0  0
  144.1384  132.4183  149.7292 C   0  0  0  0  0  0  0  0  0  0  0  0
  143.7317  133.6635  150.0583 N   0  3  0  0  0  0  0  0  0  0  0  0
  144.4044  134.4446  150.9308 C   0  0  0  0  0  0  0  0  0  0  0  0
  145.5869  133.9699  151.5333 C   0  0  0  0  0  0  0  0  0  0  0  0
  148.8410  131.5385  153.3987 N   0  5  0  0  0  0  0  0  0  0  0  0
  150.0199  132.0250  154.1375 C   0  0  1  0  0  0  0  0  0  0  0  0
  149.7652  133.4770  154.5991 C   0  0  0  0  0  0  0  0  0  0  0  0
  148.8939  133.4689  155.8625 C   0  0  0  0  0  0  0  0  0  0  0  0
  149.4142  131.9842  156.7971 S   0  0  0  0  0  0  0  0  0  0  0  0
  150.4264  132.3705  157.7928 O   0  0  0  0  0  0  0  0  0  0  0  0
  148.2239  131.2162  157.1945 O   0  0  0  0  0  0  0  0  0  0  0  0
  150.2566  131.1550  155.3892 C   0  0  0  0  0  0  0  0  0  0  0  0
  147.8216  131.5896  151.1320 H   0  0  0  0  0  0  0  0  0  0  0  0
  145.6399  130.8928  150.0406 H   0  0  0  0  0  0  0  0  0  0  0  0
  143.5150  131.8855  149.0263 H   0  0  0  0  0  0  0  0  0  0  0  0
  143.9766  135.4171  151.1254 H   0  0  0  0  0  0  0  0  0  0  0  0
  146.1022  134.5968  152.2456 H   0  0  0  0  0  0  0  0  0  0  0  0
  150.9123  132.0049  153.5099 H   0  0  0  0  0  0  0  0  0  0  0  0
  150.7253  133.9299  154.8492 H   0  0  0  0  0  0  0  0  0  0  0  0
  149.3289  134.0937  153.8120 H   0  0  0  0  0  0  0  0  0  0  0  0
  149.0164  134.3628  156.4734 H   0  0  0  0  0  0  0  0  0  0  0  0
  147.8373  133.3613  155.6112 H   0  0  0  0  0  0  0  0  0  0  0  0
  149.8933  130.1318  155.2884 H   0  0  0  0  0  0  0  0  0  0  0  0
  151.3199  131.1116  155.6243 H   0  0  0  0  0  0  0  0  0  0  0  0
  142.8776  134.0269  149.6349 H   0  0  0  0  0  0  0  0  0  0  0  0
  1  2  2  0  0  0  0
  2  3  1  0  0  0  0
  2 10  1  0  0  0  0
  3  4  1  0  0  0  0
  3 18  1  0  0  0  0
  4  9  1  0  0  0  0
  4  5  2  0  0  0  0
  5  6  1  0  0  0  0
  5 19  1  0  0  0  0
  6  7  2  0  0  0  0
  6 20  1  0  0  0  0
  7  8  1  0  0  0  0
  7 30  1  0  0  0  0
  8  9  2  0  0  0  0
  8 21  1  0  0  0  0
  9 22  1  0  0  0  0
 10 11  1  0  0  0  0
 11 17  1  0  0  0  0
 11 12  1  0  0  0  0
 11 23  1  0  0  0  0
 12 13  1  0  0  0  0
 12 24  1  0  0  0  0
 12 25  1  0  0  0  0
 13 14  1  0  0  0  0
 13 26  1  0  0  0  0
 13 27  1  0  0  0  0
 14 15  2  0  0  0  0
 14 16  2  0  0  0  0
 14 17  1  0  0  0  0
 17 28  1  0  0  0  0
 17 29  1  0  0  0  0
M  CHG  1   7   1
M  CHG  1  10  -1
M  END
> <s_m_source_file>
AV-unprocessed.smi

> <i_m_source_file_index>
3261

> <i_lp_mmshare_version>
43012

> <i_f3d_flags>
0

> <s_epik_input>
Tz1TMSg9TylbQ0gyXVtDSDJdW0NASF0oW0NIMl0xKVtOSF1DKD1PKVtOSF1jMltjSF1bY0hdbltjSF1bY0hdMg==

> <s_epik_cmdline>
J2VwaWtfcHl0aG9uJywgJy1waCcsICc3LjAnLCAnLXRuJywgJzgnLCAnLW1hJywgJzIwMCcsICctbWV0YWxfYmluZGluZycsICctaW1hZScsICc8aW5maWxlLm1hZT4nLCAnLW9tYWUnLCAnPG91dGZpbGUubWFlPic=

> <r_epik_Ionization_Penalty>
8.1176

> <r_epik_Ionization_Penalty_Charging>
8.1176

> <r_epik_Ionization_Penalty_Neutral>
3.03687e-06

> <r_epik_State_Penalty>
7.79629

> <r_epik_Charging_Adjusted_Penalty>
15.9139

> <i_epik_Tot_Q>
0

> <i_epik_Tot_abs_Q>
2

> <r_epik_Metal_State_Penalty>
3.7997

> <b_epik_Metal_Only>
1

> <s_lp_Force_Field>
OPLS_2005

> <r_lp_Energy>
21.8236

> <b_lp_Chiralities_Consistent>
1

> <s_lp_Variant>
AV-unprocessed.smi:3261-6

> <Gold.Version>
5.8.1

> <Gold.Id.Protein>
6NUR|6NUR_protein|mol2

> <Gold.PLP.Fitness>
38.1229

> <Gold.PLP.PLP>
-27.5436

> <Gold.PLP.part.hbond>
-3.0000

> <Gold.PLP.part.metal>
0.0000

> <Gold.PLP.part.buried>
-5.8926

> <Gold.PLP.part.nonpolar>
-19.3959

> <Gold.PLP.part.repulsive>
0.2403

> <Gold.PLP.ligand.clash>
0.0000

> <Gold.PLP.ligand.torsion>
0.6882

> <Gold.PLP.Chemscore.Hbond>
3.9840

> <Gold.PLP.Chemscore.CHOScore>
0.0000

> <Gold.PLP.Chemscore.Metal>
0.0000

> <Gold.Chemscore.Hbonds>
donor molecule, donor type, donor heavy atom, donor atom, acceptor molecule, acceptor atom, score
      L1  H     3    18       P1 10747  1.00
      L1  H     7    30       P1 10186  2.00
      P1  H  6896  6907       L1    15  1.00

> <Gold.PLP.Chemscore.Internal.Correction>
0.0036

> <Gold.Rescore>
     Score         DG    S(hbond)    S(metal)    S(lipo)     H(rot)  DE(clash)    DE(int)     intcor
     15.26     -19.97       2.99        0.00      60.35       1.00       0.02       4.70       ----

> <Gold.Chemscore.Fitness>
15.2554

> <Gold.Chemscore.DG>
-19.9721

> <Gold.Chemscore.ZeroCoef>
-5.4800

> <Gold.Chemscore.Hbond>
2.9915

> <Gold.Chemscore.Metal>
0.0000

> <Gold.Chemscore.Lipo>
60.3474

> <Gold.Chemscore.Internal_Hbond>
0.0000

> <Gold.Chemscore.DEClash>
0.0186

> <Gold.Chemscore.DEInternal>
4.6981

> <Gold.Chemscore.Rot>
1.0000

> <Gold.Chemscore.Internal.Correction>
   9.000000E+99

> <Gold.Chemscore.Hbonds>
donor molecule, donor type, donor heavy atom, donor atom, acceptor molecule, acceptor atom, score
      L1  H     3    18       P1 10747  0.99
      L1  H     7    30       P1 10186  0.98
      P1  H  6896  6907       L1    15  1.00

> <Gold.Chemscore.Hbond.Weighted>
-9.9915

> <Gold.Chemscore.Metal.Weighted>
-0.0000

> <Gold.Chemscore.Lipo.Weighted>
-7.0606

> <Gold.Chemscore.Internal_Hbond.Weighted>
0.0000

> <Gold.Chemscore.DEClash.Weighted>
0.0186

> <Gold.Chemscore.DEInternal.Weighted>
4.6981

> <Gold.Chemscore.Rot.Weighted>
2.5600

> <Gold.Chemscore.Internal.Correction.Weighted>
   9.000000E+99

> <Gold.Protein.RotatedTorsions>
[ 6907 6896 6895 6894 ] final -154.19 input  -60.11 | X-H torsion
[ 7974 7965 7964 7962 ] final -116.54 input  175.53 | X-H torsion
[ 8008 7997 7996 7995 ] final  -12.46 input   59.86 | X-H torsion
[ 10167 10162 10161 10158 ] final  -12.29 input  -65.29 | X-H torsion
[ 10718 10713 10712 10709 ] final -100.57 input   66.30 | X-H torsion
[ 10763 10752 10751 10750 ] final -108.30 input  -60.55 | X-H torsion
[ 11005 11000 10999 10996 ] final   88.31 input  -57.11 | X-H torsion

> <Gold.Protein.ActiveResidues>
 VAL166  LYS551  ARG553  GLY616  TRP617  ASP618  TYR619  PRO620  LYS621  CYS622 
 ASP623  PHE694  ASN695  SER759  ASP760  ASP761  ALA762  ILE779  LEU786  VAL792 
 PHE793  MET794  SER795  GLU796  ALA797  LYS798  CYS799  TRP800  GLU811  SER814 

> <Gold.Protein.RotatedAtoms>
  151.2538  133.4336  159.2612 H   0  0  0  0  0  0  0  0  0  0  0  0  # atno 6907 bound_to 6896
  151.0593  134.9726  159.8262 H   0  0  0  0  0  0  0  0  0  0  0  0  # atno 6908 bound_to 6896
  152.5395  134.2489  159.8944 H   0  0  0  0  0  0  0  0  0  0  0  0  # atno 6909 bound_to 6896
  145.0956  140.8518  143.3957 H   0  0  0  0  0  0  0  0  0  0  0  0  # atno 7974 bound_to 7965
  154.5376  140.2275  155.8697 H   0  0  0  0  0  0  0  0  0  0  0  0  # atno 8008 bound_to 7997
  156.1826  140.3096  155.9140 H   0  0  0  0  0  0  0  0  0  0  0  0  # atno 8009 bound_to 7997
  155.3324  140.0446  157.3033 H   0  0  0  0  0  0  0  0  0  0  0  0  # atno 8010 bound_to 7997
  140.7158  143.5548  150.9261 H   0  0  0  0  0  0  0  0  0  0  0  0  # atno 10167 bound_to 10162
  156.0167  130.5334  150.6837 H   0  0  0  0  0  0  0  0  0  0  0  0  # atno 10718 bound_to 10713
  154.8127  135.4643  154.0560 H   0  0  0  0  0  0  0  0  0  0  0  0  # atno 10763 bound_to 10752
  153.1977  135.6864  153.8277 H   0  0  0  0  0  0  0  0  0  0  0  0  # atno 10764 bound_to 10752
  153.7773  135.3261  155.3338 H   0  0  0  0  0  0  0  0  0  0  0  0  # atno 10765 bound_to 10752
  139.8899  134.8479  156.2982 H   0  0  0  0  0  0  0  0  0  0  0  0  # atno 11005 bound_to 11000
  145.1015  139.2819  143.5684 LP  0  0  0  0  0  0  0  0  0  0  0  0  # atno 17320 bound_to 7965
  146.3531  140.0584  142.8631 LP  0  0  0  0  0  0  0  0  0  0  0  0  # atno 17321 bound_to 7965
  139.9273  143.6535  152.3084 LP  0  0  0  0  0  0  0  0  0  0  0  0  # atno 17342 bound_to 10162
  139.6973  144.7639  151.1334 LP  0  0  0  0  0  0  0  0  0  0  0  0  # atno 17343 bound_to 10162
  157.4534  131.0875  151.0822 LP  0  0  0  0  0  0  0  0  0  0  0  0  # atno 17370 bound_to 10713
  157.1331  130.6111  149.5535 LP  0  0  0  0  0  0  0  0  0  0  0  0  # atno 17371 bound_to 10713
  140.9931  133.7197  156.0844 LP  0  0  0  0  0  0  0  0  0  0  0  0  # atno 17394 bound_to 11000
  140.7599  134.3951  157.5527 LP  0  0  0  0  0  0  0  0  0  0  0  0  # atno 17395 bound_to 11000

$$$$
