AV-unprocessed.smi:2963|AV-procd|sdf|11320|dock10
  -GOLD-   2272016223D 1   1.00000     0.00000
 Structure written by MMmdl.
 42 44  0  0  0  0  0  0  0  0  2 V2000
  151.5402  138.9039  154.7648 C   0  0  0  0  0  0  0  0  0  0  0  0
  150.7521  140.0835  154.7843 O   0  0  0  0  0  0  0  0  0  0  0  0
  151.0127  140.9361  155.8895 C   0  0  0  0  0  0  0  0  0  0  0  0
  150.8432  140.2007  157.2300 C   0  0  0  0  0  0  0  0  0  0  0  0
  151.7101  140.7649  158.2725 N   0  0  0  0  0  0  0  0  0  0  0  0
  152.5934  140.1597  159.1150 C   0  0  0  0  0  0  0  0  0  0  0  0
  152.9574  138.4348  159.1831 S   0  0  0  0  0  0  0  0  0  0  0  0
  154.3294  138.2665  160.3650 C   0  0  0  0  0  0  0  0  0  0  0  0
  154.4123  136.8942  161.0552 C   0  0  0  0  0  0  0  0  0  0  0  0
  154.1973  135.8818  160.3839 O   0  0  0  0  0  0  0  0  0  0  0  0
  154.7262  136.8711  162.3785 N   0  0  0  0  0  0  0  0  0  0  0  0
  154.9712  138.0773  163.1712 C   0  0  0  0  0  0  0  0  0  0  0  0
  155.2864  137.5536  164.5683 C   0  0  0  0  0  0  0  0  0  0  0  0
  155.1755  136.1277  164.3874 N   0  0  0  0  0  0  0  0  0  0  0  0
  154.8575  135.7608  163.1438 C   0  0  0  0  0  0  0  0  0  0  0  0
  154.7189  134.5875  162.7967 O   0  0  0  0  0  0  0  0  0  0  0  0
  153.1539  141.1289  159.8910 N   0  3  0  0  0  0  0  0  0  0  0  0
  152.6283  142.3724  159.5357 C   0  0  0  0  0  0  0  0  0  0  0  0
  152.8886  143.6473  160.0292 C   0  0  0  0  0  0  0  0  0  0  0  0
  152.1785  144.7124  159.4369 C   0  0  0  0  0  0  0  0  0  0  0  0
  151.2516  144.4897  158.3978 C   0  0  0  0  0  0  0  0  0  0  0  0
  150.9945  143.1929  157.9059 C   0  0  0  0  0  0  0  0  0  0  0  0
  151.7009  142.1458  158.4966 C   0  0  0  0  0  0  0  0  0  0  0  0
  151.2399  138.2822  153.9215 H   0  0  0  0  0  0  0  0  0  0  0  0
  151.4010  138.3202  155.6758 H   0  0  0  0  0  0  0  0  0  0  0  0
  152.6008  139.1262  154.6494 H   0  0  0  0  0  0  0  0  0  0  0  0
  152.0453  141.2752  155.7991 H   0  0  0  0  0  0  0  0  0  0  0  0
  150.3894  141.8305  155.8436 H   0  0  0  0  0  0  0  0  0  0  0  0
  149.8129  140.2292  157.5844 H   0  0  0  0  0  0  0  0  0  0  0  0
  151.1017  139.1478  157.1139 H   0  0  0  0  0  0  0  0  0  0  0  0
  155.2611  138.4511  159.8296 H   0  0  0  0  0  0  0  0  0  0  0  0
  154.2189  139.0473  161.1174 H   0  0  0  0  0  0  0  0  0  0  0  0
  155.8112  138.6482  162.7726 H   0  0  0  0  0  0  0  0  0  0  0  0
  154.0899  138.7204  163.1904 H   0  0  0  0  0  0  0  0  0  0  0  0
  156.2930  137.8224  164.8913 H   0  0  0  0  0  0  0  0  0  0  0  0
  154.5682  137.9032  165.3108 H   0  0  0  0  0  0  0  0  0  0  0  0
  155.3286  135.4744  165.1423 H   0  0  0  0  0  0  0  0  0  0  0  0
  153.5989  143.8223  160.8240 H   0  0  0  0  0  0  0  0  0  0  0  0
  152.3489  145.7207  159.7862 H   0  0  0  0  0  0  0  0  0  0  0  0
  150.7276  145.3311  157.9679 H   0  0  0  0  0  0  0  0  0  0  0  0
  150.2846  143.0327  157.1076 H   0  0  0  0  0  0  0  0  0  0  0  0
  153.8475  140.9506  160.6055 H   0  0  0  0  0  0  0  0  0  0  0  0
  1  2  1  0  0  0  0
  1 24  1  0  0  0  0
  1 25  1  0  0  0  0
  1 26  1  0  0  0  0
  2  3  1  0  0  0  0
  3  4  1  0  0  0  0
  3 27  1  0  0  0  0
  3 28  1  0  0  0  0
  4  5  1  0  0  0  0
  4 29  1  0  0  0  0
  4 30  1  0  0  0  0
  5 23  1  0  0  0  0
  5  6  1  0  0  0  0
  6  7  1  0  0  0  0
  6 17  2  0  0  0  0
  7  8  1  0  0  0  0
  8  9  1  0  0  0  0
  8 31  1  0  0  0  0
  8 32  1  0  0  0  0
  9 10  2  0  0  0  0
  9 11  1  0  0  0  0
 11 15  1  0  0  0  0
 11 12  1  0  0  0  0
 12 13  1  0  0  0  0
 12 33  1  0  0  0  0
 12 34  1  0  0  0  0
 13 14  1  0  0  0  0
 13 35  1  0  0  0  0
 13 36  1  0  0  0  0
 14 15  1  0  0  0  0
 14 37  1  0  0  0  0
 15 16  2  0  0  0  0
 17 18  1  0  0  0  0
 17 42  1  0  0  0  0
 18 23  2  0  0  0  0
 18 19  1  0  0  0  0
 19 20  2  0  0  0  0
 19 38  1  0  0  0  0
 20 21  1  0  0  0  0
 20 39  1  0  0  0  0
 21 22  2  0  0  0  0
 21 40  1  0  0  0  0
 22 23  1  0  0  0  0
 22 41  1  0  0  0  0
M  CHG  1  17   1
M  END
> <s_m_source_file>
AV-unprocessed.smi

> <i_m_source_file_index>
2963

> <i_lp_mmshare_version>
43012

> <i_f3d_flags>
0

> <s_epik_input>
W2NIXTFbY0hdW2NIXVtjSF1jKGMxMiluKFtDSDJdW0NIMl1PW0NIM10pYyhuMilTW0NIMl1DKD1PKU4zW0NIMl1bQ0gyXVtOSF1DMz1P

> <s_epik_cmdline>
J2VwaWtfcHl0aG9uJywgJy1waCcsICc3LjAnLCAnLXRuJywgJzgnLCAnLW1hJywgJzIwMCcsICctbWV0YWxfYmluZGluZycsICctaW1hZScsICc8aW5maWxlLm1hZT4nLCAnLW9tYWUnLCAnPG91dGZpbGUubWFlPic=

> <r_lp_tautomer_probability>
0.9999

> <r_epik_Ionization_Penalty>
1.70838

> <r_epik_Ionization_Penalty_Charging>
1.70836

> <r_epik_Ionization_Penalty_Neutral>
2.53969e-05

> <r_epik_State_Penalty>
1.81492

> <r_epik_Charging_Adjusted_Penalty>
3.52327

> <i_epik_Tot_Q>
1

> <i_epik_Tot_abs_Q>
1

> <r_epik_Metal_State_Penalty>
1.84772

> <b_epik_Metal_Only>
0

> <s_lp_Force_Field>
OPLS_2005

> <r_lp_Energy>
48.5569

> <b_lp_Chiralities_Consistent>
1

> <s_lp_Variant>
AV-unprocessed.smi:2963-2

> <Gold.Version>
5.8.1

> <Gold.Id.Protein>
6NUR|6NUR_protein|mol2

> <Gold.PLP.Fitness>
54.8408

> <Gold.PLP.PLP>
-50.2462

> <Gold.PLP.part.hbond>
-2.6431

> <Gold.PLP.part.metal>
0.0000

> <Gold.PLP.part.buried>
-7.7040

> <Gold.PLP.part.nonpolar>
-40.3309

> <Gold.PLP.part.repulsive>
0.2431

> <Gold.PLP.ligand.clash>
0.0000

> <Gold.PLP.ligand.torsion>
0.7128

> <Gold.PLP.Chemscore.Hbond>
1.9913

> <Gold.PLP.Chemscore.CHOScore>
0.0000

> <Gold.PLP.Chemscore.Metal>
0.0000

> <Gold.Chemscore.Hbonds>
donor molecule, donor type, donor heavy atom, donor atom, acceptor molecule, acceptor atom, score
      P1  H  6896  6907       L1    10  0.70
      P1  H  7989  7998       L1     2  0.75

> <Gold.PLP.Chemscore.Internal.Correction>
0.0465

> <Gold.Rescore>
     Score         DG    S(hbond)    S(metal)    S(lipo)     H(rot)  DE(clash)    DE(int)     intcor
     16.16     -18.45       1.69        0.00     114.84       2.39       0.26       2.03       ----

> <Gold.Chemscore.Fitness>
16.1642

> <Gold.Chemscore.DG>
-18.4468

> <Gold.Chemscore.ZeroCoef>
-5.4800

> <Gold.Chemscore.Hbond>
1.6940

> <Gold.Chemscore.Metal>
0.0000

> <Gold.Chemscore.Lipo>
114.8370

> <Gold.Chemscore.Internal_Hbond>
0.0000

> <Gold.Chemscore.DEClash>
0.2574

> <Gold.Chemscore.DEInternal>
2.0252

> <Gold.Chemscore.Rot>
2.3933

> <Gold.Chemscore.Internal.Correction>
   9.000000E+99

> <Gold.Chemscore.Hbonds>
donor molecule, donor type, donor heavy atom, donor atom, acceptor molecule, acceptor atom, score
      P1  H  6896  6907       L1    10  0.69
      P1  H  7989  7998       L1     2  0.03

> <Gold.Chemscore.Hbond.Weighted>
-5.6578

> <Gold.Chemscore.Metal.Weighted>
-0.0000

> <Gold.Chemscore.Lipo.Weighted>
-13.4359

> <Gold.Chemscore.Internal_Hbond.Weighted>
0.0000

> <Gold.Chemscore.DEClash.Weighted>
0.2574

> <Gold.Chemscore.DEInternal.Weighted>
2.0252

> <Gold.Chemscore.Rot.Weighted>
6.1270

> <Gold.Chemscore.Internal.Correction.Weighted>
   9.000000E+99

> <Gold.Protein.RotatedTorsions>
[ 6907 6896 6895 6894 ] final   53.35 input  -60.11 | X-H torsion
[ 7974 7965 7964 7962 ] final   36.47 input  175.53 | X-H torsion
[ 8008 7997 7996 7995 ] final  -35.97 input   59.86 | X-H torsion
[ 10167 10162 10161 10158 ] final  108.08 input  -65.29 | X-H torsion
[ 10718 10713 10712 10709 ] final -159.69 input   66.30 | X-H torsion
[ 10763 10752 10751 10750 ] final  -72.66 input  -60.55 | X-H torsion
[ 11005 11000 10999 10996 ] final   95.11 input  -57.11 | X-H torsion

> <Gold.Protein.ActiveResidues>
 VAL166  LYS551  ARG553  GLY616  TRP617  ASP618  TYR619  PRO620  LYS621  CYS622 
 ASP623  PHE694  ASN695  SER759  ASP760  ASP761  ALA762  ILE779  LEU786  VAL792 
 PHE793  MET794  SER795  GLU796  ALA797  LYS798  CYS799  TRP800  GLU811  SER814 

> <Gold.Protein.RotatedAtoms>
  152.3328  134.7237  160.0284 H   0  0  0  0  0  0  0  0  0  0  0  0  # atno 6907 bound_to 6896
  151.7648  133.3331  159.3436 H   0  0  0  0  0  0  0  0  0  0  0  0  # atno 6908 bound_to 6896
  150.7433  134.6004  159.6078 H   0  0  0  0  0  0  0  0  0  0  0  0  # atno 6909 bound_to 6896
  146.1209  139.6013  142.9290 H   0  0  0  0  0  0  0  0  0  0  0  0  # atno 7974 bound_to 7965
  154.4083  140.1643  156.2299 H   0  0  0  0  0  0  0  0  0  0  0  0  # atno 8008 bound_to 7997
  155.9292  140.3416  155.6212 H   0  0  0  0  0  0  0  0  0  0  0  0  # atno 8009 bound_to 7997
  155.7128  140.0758  157.2355 H   0  0  0  0  0  0  0  0  0  0  0  0  # atno 8010 bound_to 7997
  139.6875  144.7112  151.1406 H   0  0  0  0  0  0  0  0  0  0  0  0  # atno 10167 bound_to 10162
  156.5716  130.8691  151.2839 H   0  0  0  0  0  0  0  0  0  0  0  0  # atno 10718 bound_to 10713
  154.4488  135.5922  153.6178 H   0  0  0  0  0  0  0  0  0  0  0  0  # atno 10763 bound_to 10752
  152.9811  135.6016  154.3631 H   0  0  0  0  0  0  0  0  0  0  0  0  # atno 10764 bound_to 10752
  154.3489  135.2841  155.2361 H   0  0  0  0  0  0  0  0  0  0  0  0  # atno 10765 bound_to 10752
  139.8792  134.8881  156.3963 H   0  0  0  0  0  0  0  0  0  0  0  0  # atno 11005 bound_to 11000
  145.5469  141.0416  143.2300 LP  0  0  0  0  0  0  0  0  0  0  0  0  # atno 17320 bound_to 7965
  144.7596  139.6989  143.7240 LP  0  0  0  0  0  0  0  0  0  0  0  0  # atno 17321 bound_to 7965
  140.7672  143.5608  150.9101 LP  0  0  0  0  0  0  0  0  0  0  0  0  # atno 17342 bound_to 10162
  139.9283  143.6523  152.3082 LP  0  0  0  0  0  0  0  0  0  0  0  0  # atno 17343 bound_to 10162
  157.7347  130.9750  150.2042 LP  0  0  0  0  0  0  0  0  0  0  0  0  # atno 17370 bound_to 10713
  156.2710  130.3722  149.8032 LP  0  0  0  0  0  0  0  0  0  0  0  0  # atno 17371 bound_to 10713
  140.9298  133.7587  156.0010 LP  0  0  0  0  0  0  0  0  0  0  0  0  # atno 17394 bound_to 11000
  140.8344  134.3140  157.5337 LP  0  0  0  0  0  0  0  0  0  0  0  0  # atno 17395 bound_to 11000

$$$$
