AV-unprocessed.smi:2007|AV-procd|sdf|8135|dock7
  -GOLD-   2272010373D 1   1.00000     0.00000
 Structure written by MMmdl.
 37 38  0  0  0  0  0  0  0  0  2 V2000
  146.9035  139.0320  152.3517 C   0  0  0  0  0  0  0  0  0  0  0  0
  146.4811  137.9354  153.3387 C   0  0  2  0  0  0  0  0  0  0  0  0
  147.3160  138.0044  154.6391 C   0  0  0  0  0  0  0  0  0  0  0  0
  148.6254  137.3117  154.5333 N   0  3  0  0  0  0  0  0  0  0  0  0
  149.7785  138.2095  154.7773 C   0  0  0  0  0  0  0  0  0  0  0  0
  151.1002  137.4468  154.5817 C   0  0  0  0  0  0  0  0  0  0  0  0
  151.1311  136.3122  155.4390 O   0  0  0  0  0  0  0  0  0  0  0  0
  150.0750  135.4024  155.1560 C   0  0  0  0  0  0  0  0  0  0  0  0
  148.7237  136.0998  155.3826 C   0  0  0  0  0  0  0  0  0  0  0  0
  146.6104  136.6325  152.6839 N   0  0  0  0  0  0  0  0  0  0  0  0
  145.6122  135.7695  152.4414 C   0  0  0  0  0  0  0  0  0  0  0  0
  144.4464  135.9684  152.7840 O   0  0  0  0  0  0  0  0  0  0  0  0
  146.0564  134.6771  151.7963 N   0  0  0  0  0  0  0  0  0  0  0  0
  145.3170  133.5297  151.4057 C   0  0  0  0  0  0  0  0  0  0  0  0
  145.5155  132.3014  151.8983 N   0  0  0  0  0  0  0  0  0  0  0  0
  144.6490  131.3631  151.3317 C   0  0  0  0  0  0  0  0  0  0  0  0
  143.7951  131.8975  150.3991 C   0  0  0  0  0  0  0  0  0  0  0  0
  144.0436  133.6113  150.1971 S   0  0  0  0  0  0  0  0  0  0  0  0
  146.7809  140.0224  152.7909 H   0  0  0  0  0  0  0  0  0  0  0  0
  146.2991  138.9993  151.4444 H   0  0  0  0  0  0  0  0  0  0  0  0
  147.9491  138.9254  152.0599 H   0  0  0  0  0  0  0  0  0  0  0  0
  145.4308  138.1128  153.5732 H   0  0  0  0  0  0  0  0  0  0  0  0
  147.4868  139.0560  154.8757 H   0  0  0  0  0  0  0  0  0  0  0  0
  146.7550  137.5936  155.4800 H   0  0  0  0  0  0  0  0  0  0  0  0
  149.7415  139.0564  154.0908 H   0  0  0  0  0  0  0  0  0  0  0  0
  149.7222  138.6116  155.7900 H   0  0  0  0  0  0  0  0  0  0  0  0
  151.2202  137.1355  153.5427 H   0  0  0  0  0  0  0  0  0  0  0  0
  151.9454  138.0927  154.8203 H   0  0  0  0  0  0  0  0  0  0  0  0
  150.1575  135.0348  154.1317 H   0  0  0  0  0  0  0  0  0  0  0  0
  150.1666  134.5378  155.8133 H   0  0  0  0  0  0  0  0  0  0  0  0
  148.6171  136.3757  156.4328 H   0  0  0  0  0  0  0  0  0  0  0  0
  147.9158  135.4059  155.1518 H   0  0  0  0  0  0  0  0  0  0  0  0
  147.5349  136.3816  152.3646 H   0  0  0  0  0  0  0  0  0  0  0  0
  147.0385  134.6585  151.5631 H   0  0  0  0  0  0  0  0  0  0  0  0
  144.7096  130.3330  151.6505 H   0  0  0  0  0  0  0  0  0  0  0  0
  143.0372  131.3889  149.8216 H   0  0  0  0  0  0  0  0  0  0  0  0
  148.7065  137.0025  153.5748 H   0  0  0  0  0  0  0  0  0  0  0  0
  1  2  1  0  0  0  0
  1 19  1  0  0  0  0
  1 20  1  0  0  0  0
  1 21  1  0  0  0  0
  2  3  1  0  0  0  0
  2 10  1  0  0  0  0
  2 22  1  0  0  0  0
  3  4  1  0  0  0  0
  3 23  1  0  0  0  0
  3 24  1  0  0  0  0
  4  9  1  0  0  0  0
  4  5  1  0  0  0  0
  4 37  1  0  0  0  0
  5  6  1  0  0  0  0
  5 25  1  0  0  0  0
  5 26  1  0  0  0  0
  6  7  1  0  0  0  0
  6 27  1  0  0  0  0
  6 28  1  0  0  0  0
  7  8  1  0  0  0  0
  8  9  1  0  0  0  0
  8 29  1  0  0  0  0
  8 30  1  0  0  0  0
  9 31  1  0  0  0  0
  9 32  1  0  0  0  0
 10 11  1  0  0  0  0
 10 33  1  0  0  0  0
 11 12  2  0  0  0  0
 11 13  1  0  0  0  0
 13 14  1  0  0  0  0
 13 34  1  0  0  0  0
 14 18  1  0  0  0  0
 14 15  2  0  0  0  0
 15 16  1  0  0  0  0
 16 17  2  0  0  0  0
 16 35  1  0  0  0  0
 17 18  1  0  0  0  0
 17 36  1  0  0  0  0
M  CHG  1   4   1
M  END
> <s_m_source_file>
AV-unprocessed.smi

> <i_m_source_file_index>
2007

> <i_lp_mmshare_version>
43012

> <i_f3d_flags>
0

> <s_epik_input>
W0NIMl0xW0NIMl1PW0NIMl1bQ0gyXU4xW0NIMl1bQ0BASF0oW0NIM10pW05IXUMoPU8pW05IXWMybltjSF1bY0hdczI=

> <s_epik_cmdline>
J2VwaWtfcHl0aG9uJywgJy1waCcsICc3LjAnLCAnLXRuJywgJzgnLCAnLW1hJywgJzIwMCcsICctbWV0YWxfYmluZGluZycsICctaW1hZScsICc8aW5maWxlLm1hZT4nLCAnLW9tYWUnLCAnPG91dGZpbGUubWFlPic=

> <r_lp_tautomer_probability>
0.999

> <r_epik_Ionization_Penalty>
0.695848

> <r_epik_Ionization_Penalty_Charging>
0.695697

> <r_epik_Ionization_Penalty_Neutral>
0.000150585

> <r_epik_State_Penalty>
0.717972

> <r_epik_Charging_Adjusted_Penalty>
1.41367

> <i_epik_Tot_Q>
1

> <i_epik_Tot_abs_Q>
1

> <r_epik_Metal_State_Penalty>
0.763271

> <b_epik_Metal_Only>
0

> <s_lp_Force_Field>
OPLS_2005

> <r_lp_Energy>
20.6348

> <b_lp_Chiralities_Consistent>
1

> <s_lp_Variant>
AV-unprocessed.smi:2007-3

> <Gold.Version>
5.8.1

> <Gold.Id.Protein>
6NUR|6NUR_protein|mol2

> <Gold.PLP.Fitness>
39.7296

> <Gold.PLP.PLP>
-28.0724

> <Gold.PLP.part.hbond>
-3.2948

> <Gold.PLP.part.metal>
0.0000

> <Gold.PLP.part.buried>
-5.1470

> <Gold.PLP.part.nonpolar>
-21.8713

> <Gold.PLP.part.repulsive>
0.3744

> <Gold.PLP.ligand.clash>
0.0000

> <Gold.PLP.ligand.torsion>
1.5945

> <Gold.PLP.Chemscore.Hbond>
3.9569

> <Gold.PLP.Chemscore.CHOScore>
0.9793

> <Gold.PLP.Chemscore.Metal>
0.0000

> <Gold.Chemscore.Hbonds>
donor molecule, donor type, donor heavy atom, donor atom, acceptor molecule, acceptor atom, score
      L1  H     4    37       P1  7948  2.00
      L1  H    10    33       P1  7948  0.93
      P1  H 10752 10764       L1     7  0.61
      L1  C    17    36       P1 10952  1.00

> <Gold.PLP.Chemscore.Internal.Correction>
0.0374

> <Gold.Rescore>
     Score         DG    S(hbond)    S(metal)    S(lipo)     H(rot)  DE(clash)    DE(int)     intcor
     16.09     -17.94       2.60        0.00      67.92       1.63       0.19       1.66       ----

> <Gold.Chemscore.Fitness>
16.0879

> <Gold.Chemscore.DG>
-17.9436

> <Gold.Chemscore.ZeroCoef>
-5.4800

> <Gold.Chemscore.Hbond>
2.6023

> <Gold.Chemscore.Metal>
0.0000

> <Gold.Chemscore.Lipo>
67.9155

> <Gold.Chemscore.Internal_Hbond>
0.0000

> <Gold.Chemscore.DEClash>
0.1922

> <Gold.Chemscore.DEInternal>
1.6635

> <Gold.Chemscore.Rot>
1.6306

> <Gold.Chemscore.Internal.Correction>
   9.000000E+99

> <Gold.Chemscore.Hbonds>
donor molecule, donor type, donor heavy atom, donor atom, acceptor molecule, acceptor atom, score
      L1  H     4    37       P1  7948  1.00
      L1  H    10    33       P1  7948  0.89
      L1  H    13    34       P1  7948  0.03
      P1  H 10752 10764       L1     7  0.06

> <Gold.Chemscore.Hbond.Weighted>
-8.6917

> <Gold.Chemscore.Metal.Weighted>
-0.0000

> <Gold.Chemscore.Lipo.Weighted>
-7.9461

> <Gold.Chemscore.Internal_Hbond.Weighted>
0.0000

> <Gold.Chemscore.DEClash.Weighted>
0.1922

> <Gold.Chemscore.DEInternal.Weighted>
1.6635

> <Gold.Chemscore.Rot.Weighted>
4.1743

> <Gold.Chemscore.Internal.Correction.Weighted>
   9.000000E+99

> <Gold.Protein.RotatedTorsions>
[ 6907 6896 6895 6894 ] final   78.63 input  -60.11 | X-H torsion
[ 7974 7965 7964 7962 ] final  108.23 input  175.53 | X-H torsion
[ 8008 7997 7996 7995 ] final -162.35 input   59.86 | X-H torsion
[ 10167 10162 10161 10158 ] final -120.29 input  -65.29 | X-H torsion
[ 10718 10713 10712 10709 ] final  154.86 input   66.30 | X-H torsion
[ 10763 10752 10751 10750 ] final  -53.59 input  -60.55 | X-H torsion
[ 11005 11000 10999 10996 ] final  -73.26 input  -57.11 | X-H torsion

> <Gold.Protein.ActiveResidues>
 VAL166  LYS551  ARG553  GLY616  TRP617  ASP618  TYR619  PRO620  LYS621  CYS622 
 ASP623  PHE694  ASN695  SER759  ASP760  ASP761  ALA762  ILE779  LEU786  VAL792 
 PHE793  MET794  SER795  GLU796  ALA797  LYS798  CYS799  TRP800  GLU811  SER814 

> <Gold.Protein.RotatedAtoms>
  152.5167  134.3635  159.9292 H   0  0  0  0  0  0  0  0  0  0  0  0  # atno 6907 bound_to 6896
  151.3587  133.3891  159.2695 H   0  0  0  0  0  0  0  0  0  0  0  0  # atno 6908 bound_to 6896
  150.9669  134.9067  159.7822 H   0  0  0  0  0  0  0  0  0  0  0  0  # atno 6909 bound_to 6896
  145.2833  139.2625  143.3904 H   0  0  0  0  0  0  0  0  0  0  0  0  # atno 7974 bound_to 7965
  155.8055  140.0898  157.1933 H   0  0  0  0  0  0  0  0  0  0  0  0  # atno 8008 bound_to 7997
  154.3981  140.1464  156.3384 H   0  0  0  0  0  0  0  0  0  0  0  0  # atno 8009 bound_to 7997
  155.8419  140.3438  155.5640 H   0  0  0  0  0  0  0  0  0  0  0  0  # atno 8010 bound_to 7997
  140.0375  143.5187  152.2146 H   0  0  0  0  0  0  0  0  0  0  0  0  # atno 10167 bound_to 10162
  157.2260  131.0729  151.1883 H   0  0  0  0  0  0  0  0  0  0  0  0  # atno 10718 bound_to 10713
  154.1612  135.6474  153.4986 H   0  0  0  0  0  0  0  0  0  0  0  0  # atno 10763 bound_to 10752
  153.0110  135.5361  154.6708 H   0  0  0  0  0  0  0  0  0  0  0  0  # atno 10764 bound_to 10752
  154.6023  135.2945  155.0494 H   0  0  0  0  0  0  0  0  0  0  0  0  # atno 10765 bound_to 10752
  141.1620  133.6873  156.7185 H   0  0  0  0  0  0  0  0  0  0  0  0  # atno 11005 bound_to 11000
  146.3209  140.3306  142.8640 LP  0  0  0  0  0  0  0  0  0  0  0  0  # atno 17320 bound_to 7965
  144.9234  140.7894  143.5734 LP  0  0  0  0  0  0  0  0  0  0  0  0  # atno 17321 bound_to 7965
  139.6036  144.7590  151.3115 LP  0  0  0  0  0  0  0  0  0  0  0  0  # atno 17342 bound_to 10162
  140.7275  143.6961  150.7882 LP  0  0  0  0  0  0  0  0  0  0  0  0  # atno 17343 bound_to 10162
  157.3527  130.7090  149.6451 LP  0  0  0  0  0  0  0  0  0  0  0  0  # atno 17370 bound_to 10713
  155.9679  130.4248  150.4624 LP  0  0  0  0  0  0  0  0  0  0  0  0  # atno 17371 bound_to 10713
  140.2834  134.8299  157.3953 LP  0  0  0  0  0  0  0  0  0  0  0  0  # atno 17394 bound_to 11000
  140.1413  134.4968  155.8029 LP  0  0  0  0  0  0  0  0  0  0  0  0  # atno 17395 bound_to 11000

$$$$
