AV-unprocessed.smi:3300|AV-procd|sdf|12650|dock6
  -GOLD-   2272018583D 1   1.00000     0.00000
 Structure written by MMmdl.
 36 37  0  0  0  0  0  0  0  0  1 V2000
  152.6394  143.6534  161.7156 C   0  0  0  0  0  0  0  0  0  0  0  0
  152.6292  142.3566  160.8982 C   0  0  0  0  0  0  0  0  0  0  0  0
  152.1464  142.5762  159.4765 C   0  0  0  0  0  0  0  0  0  0  0  0
  152.1555  143.8496  159.0228 N   0  0  0  0  0  0  0  0  0  0  0  0
  151.7425  144.0443  157.7684 C   0  0  0  0  0  0  0  0  0  0  0  0
  151.3211  143.1106  156.9122 N   0  0  0  0  0  0  0  0  0  0  0  0
  151.2981  141.8283  157.3527 C   0  0  0  0  0  0  0  0  0  0  0  0
  150.8810  140.8095  156.4753 N   0  0  0  0  0  0  0  0  0  0  0  0
  152.0476  140.0736  155.9979 C   0  0  0  0  0  0  0  0  0  0  0  0
  151.6195  138.8601  155.1630 C   0  0  0  0  0  0  0  0  0  0  0  0
  150.8008  139.3065  154.0918 O   0  0  0  0  0  0  0  0  0  0  0  0
  149.6086  139.9221  154.5642 C   0  0  0  0  0  0  0  0  0  0  0  0
  149.9337  141.1766  155.4119 C   0  0  1  0  0  0  0  0  0  0  0  0
  148.6330  141.8063  155.9767 C   0  0  0  0  0  0  0  0  0  0  0  0
  147.5797  142.1245  154.9035 C   0  0  0  0  0  0  0  0  0  0  0  0
  148.0990  143.0664  153.9896 O   0  0  0  0  0  0  0  0  0  0  0  0
  151.7235  141.5040  158.6610 C   0  0  0  0  0  0  0  0  0  0  0  0
  151.7247  140.2251  159.1107 F   0  0  0  0  0  0  0  0  0  0  0  0
  152.9858  143.4682  162.7325 H   0  0  0  0  0  0  0  0  0  0  0  0
  151.6417  144.0890  161.7780 H   0  0  0  0  0  0  0  0  0  0  0  0
  153.3019  144.3944  161.2674 H   0  0  0  0  0  0  0  0  0  0  0  0
  153.6290  141.9217  160.8822 H   0  0  0  0  0  0  0  0  0  0  0  0
  151.9855  141.6211  161.3824 H   0  0  0  0  0  0  0  0  0  0  0  0
  151.7530  145.0620  157.4076 H   0  0  0  0  0  0  0  0  0  0  0  0
  152.6713  140.7360  155.3957 H   0  0  0  0  0  0  0  0  0  0  0  0
  152.6551  139.7397  156.8402 H   0  0  0  0  0  0  0  0  0  0  0  0
  152.4957  138.3559  154.7552 H   0  0  0  0  0  0  0  0  0  0  0  0
  151.0848  138.1307  155.7739 H   0  0  0  0  0  0  0  0  0  0  0  0
  149.0112  140.1880  153.6930 H   0  0  0  0  0  0  0  0  0  0  0  0
  149.0247  139.2014  155.1395 H   0  0  0  0  0  0  0  0  0  0  0  0
  150.4245  141.9041  154.7636 H   0  0  0  0  0  0  0  0  0  0  0  0
  148.2026  141.1447  156.7302 H   0  0  0  0  0  0  0  0  0  0  0  0
  148.8554  142.7385  156.4953 H   0  0  0  0  0  0  0  0  0  0  0  0
  147.3014  141.2214  154.3597 H   0  0  0  0  0  0  0  0  0  0  0  0
  146.6730  142.5376  155.3439 H   0  0  0  0  0  0  0  0  0  0  0  0
  148.6579  143.6658  154.4603 H   0  0  0  0  0  0  0  0  0  0  0  0
  1  2  1  0  0  0  0
  1 19  1  0  0  0  0
  1 20  1  0  0  0  0
  1 21  1  0  0  0  0
  2  3  1  0  0  0  0
  2 22  1  0  0  0  0
  2 23  1  0  0  0  0
  3 17  1  0  0  0  0
  3  4  2  0  0  0  0
  4  5  1  0  0  0  0
  5  6  2  0  0  0  0
  5 24  1  0  0  0  0
  6  7  1  0  0  0  0
  7  8  1  0  0  0  0
  7 17  2  0  0  0  0
  8 13  1  0  0  0  0
  8  9  1  0  0  0  0
  9 10  1  0  0  0  0
  9 25  1  0  0  0  0
  9 26  1  0  0  0  0
 10 11  1  0  0  0  0
 10 27  1  0  0  0  0
 10 28  1  0  0  0  0
 11 12  1  0  0  0  0
 12 13  1  0  0  0  0
 12 29  1  0  0  0  0
 12 30  1  0  0  0  0
 13 14  1  0  0  0  0
 13 31  1  0  0  0  0
 14 15  1  0  0  0  0
 14 32  1  0  0  0  0
 14 33  1  0  0  0  0
 15 16  1  0  0  0  0
 15 34  1  0  0  0  0
 15 35  1  0  0  0  0
 16 36  1  0  0  0  0
 17 18  1  0  0  0  0
M  END
> <s_m_source_file>
AV-unprocessed.smi

> <i_m_source_file_index>
3300

> <i_lp_mmshare_version>
43012

> <i_f3d_flags>
0

> <s_epik_input>
W0NIM11bQ0gyXWMxbltjSF1uYyhjMUYpTjJbQ0gyXVtDSDJdT1tDSDJdW0NASF0yW0NIMl1bQ0gyXVtPSF0=

> <s_epik_cmdline>
J2VwaWtfcHl0aG9uJywgJy1waCcsICc3LjAnLCAnLXRuJywgJzgnLCAnLW1hJywgJzIwMCcsICctbWV0YWxfYmluZGluZycsICctaW1hZScsICc8aW5maWxlLm1hZT4nLCAnLW9tYWUnLCAnPG91dGZpbGUubWFlPic=

> <r_lp_tautomer_probability>
1

> <r_epik_Ionization_Penalty>
2.51351e-05

> <r_epik_Ionization_Penalty_Charging>
0

> <r_epik_Ionization_Penalty_Neutral>
2.51351e-05

> <r_epik_State_Penalty>
-0

> <r_epik_Charging_Adjusted_Penalty>
0

> <i_epik_Tot_Q>
0

> <i_epik_Tot_abs_Q>
0

> <r_epik_Metal_State_Penalty>
-0

> <b_epik_Metal_Only>
0

> <s_lp_Force_Field>
OPLS_2005

> <r_lp_Energy>
16.6738

> <b_lp_Chiralities_Consistent>
1

> <s_lp_Variant>
AV-unprocessed.smi:3300-1

> <Gold.Version>
5.8.1

> <Gold.Id.Protein>
6NUR|6NUR_protein|mol2

> <Gold.PLP.Fitness>
42.5530

> <Gold.PLP.PLP>
-38.0091

> <Gold.PLP.part.hbond>
-4.0000

> <Gold.PLP.part.metal>
0.0000

> <Gold.PLP.part.buried>
-2.1931

> <Gold.PLP.part.nonpolar>
-32.0990

> <Gold.PLP.part.repulsive>
0.7559

> <Gold.PLP.ligand.clash>
0.0000

> <Gold.PLP.ligand.torsion>
0.8025

> <Gold.PLP.Chemscore.Hbond>
2.0000

> <Gold.PLP.Chemscore.CHOScore>
0.0000

> <Gold.PLP.Chemscore.Metal>
0.0000

> <Gold.Chemscore.Hbonds>
donor molecule, donor type, donor heavy atom, donor atom, acceptor molecule, acceptor atom, score
      L1  H    16    36       P1  8028  0.99
      P1  H  7989  7998       L1    11  0.85

> <Gold.PLP.Chemscore.Internal.Correction>
0.1489

> <Gold.Rescore>
     Score         DG    S(hbond)    S(metal)    S(lipo)     H(rot)  DE(clash)    DE(int)     intcor
     11.74     -12.82       1.20        0.00      79.78       2.35       0.38       0.70       ----

> <Gold.Chemscore.Fitness>
11.7367

> <Gold.Chemscore.DG>
-12.8163

> <Gold.Chemscore.ZeroCoef>
-5.4800

> <Gold.Chemscore.Hbond>
1.1996

> <Gold.Chemscore.Metal>
0.0000

> <Gold.Chemscore.Lipo>
79.7828

> <Gold.Chemscore.Internal_Hbond>
0.0000

> <Gold.Chemscore.DEClash>
0.3776

> <Gold.Chemscore.DEInternal>
0.7020

> <Gold.Chemscore.Rot>
2.3458

> <Gold.Chemscore.Internal.Correction>
   9.000000E+99

> <Gold.Chemscore.Hbonds>
donor molecule, donor type, donor heavy atom, donor atom, acceptor molecule, acceptor atom, score
      L1  H    16    36       P1  8028  0.91
      P1  H  7989  7998       L1    11  0.07

> <Gold.Chemscore.Hbond.Weighted>
-4.0068

> <Gold.Chemscore.Metal.Weighted>
-0.0000

> <Gold.Chemscore.Lipo.Weighted>
-9.3346

> <Gold.Chemscore.Internal_Hbond.Weighted>
0.0000

> <Gold.Chemscore.DEClash.Weighted>
0.3776

> <Gold.Chemscore.DEInternal.Weighted>
0.7020

> <Gold.Chemscore.Rot.Weighted>
6.0051

> <Gold.Chemscore.Internal.Correction.Weighted>
   9.000000E+99

> <Gold.Protein.RotatedTorsions>
[ 6907 6896 6895 6894 ] final  133.73 input  -60.11 | X-H torsion
[ 7974 7965 7964 7962 ] final -142.44 input  175.53 | X-H torsion
[ 8008 7997 7996 7995 ] final  -99.00 input   59.86 | X-H torsion
[ 10167 10162 10161 10158 ] final  153.97 input  -65.29 | X-H torsion
[ 10718 10713 10712 10709 ] final  -45.41 input   66.30 | X-H torsion
[ 10763 10752 10751 10750 ] final  135.35 input  -60.55 | X-H torsion
[ 11005 11000 10999 10996 ] final   16.43 input  -57.11 | X-H torsion

> <Gold.Protein.ActiveResidues>
 VAL166  LYS551  ARG553  GLY616  TRP617  ASP618  TYR619  PRO620  LYS621  CYS622 
 ASP623  PHE694  ASN695  SER759  ASP760  ASP761  ALA762  ILE779  LEU786  VAL792 
 PHE793  MET794  SER795  GLU796  ALA797  LYS798  CYS799  TRP800  GLU811  SER814 

> <Gold.Protein.RotatedAtoms>
  152.3188  133.5832  159.5730 H   0  0  0  0  0  0  0  0  0  0  0  0  # atno 6907 bound_to 6896
  150.7361  134.0042  159.3657 H   0  0  0  0  0  0  0  0  0  0  0  0  # atno 6908 bound_to 6896
  151.7928  135.0731  160.0440 H   0  0  0  0  0  0  0  0  0  0  0  0  # atno 6909 bound_to 6896
  144.8443  140.5957  143.5432 H   0  0  0  0  0  0  0  0  0  0  0  0  # atno 7974 bound_to 7965
  154.8089  140.0451  157.1328 H   0  0  0  0  0  0  0  0  0  0  0  0  # atno 8008 bound_to 7997
  154.9392  140.3050  155.5109 H   0  0  0  0  0  0  0  0  0  0  0  0  # atno 8009 bound_to 7997
  156.2969  140.2309  156.4459 H   0  0  0  0  0  0  0  0  0  0  0  0  # atno 8010 bound_to 7997
  139.4825  144.5227  151.7850 H   0  0  0  0  0  0  0  0  0  0  0  0  # atno 10167 bound_to 10162
  156.2286  130.4171  149.8902 H   0  0  0  0  0  0  0  0  0  0  0  0  # atno 10718 bound_to 10713
  153.8386  135.3094  155.3424 H   0  0  0  0  0  0  0  0  0  0  0  0  # atno 10763 bound_to 10752
  154.7942  135.4765  154.0126 H   0  0  0  0  0  0  0  0  0  0  0  0  # atno 10764 bound_to 10752
  153.1590  135.6857  153.8862 H   0  0  0  0  0  0  0  0  0  0  0  0  # atno 10765 bound_to 10752
  140.4472  134.1262  155.7697 H   0  0  0  0  0  0  0  0  0  0  0  0  # atno 11005 bound_to 11000
  145.4629  139.1511  143.3856 LP  0  0  0  0  0  0  0  0  0  0  0  0  # atno 17320 bound_to 7965
  146.2730  140.4760  142.8807 LP  0  0  0  0  0  0  0  0  0  0  0  0  # atno 17321 bound_to 7965
  140.4743  144.1541  150.5922 LP  0  0  0  0  0  0  0  0  0  0  0  0  # atno 17342 bound_to 10162
  140.4348  143.2552  151.9550 LP  0  0  0  0  0  0  0  0  0  0  0  0  # atno 17343 bound_to 10162
  156.6524  130.8749  151.3533 LP  0  0  0  0  0  0  0  0  0  0  0  0  # atno 17370 bound_to 10713
  157.7122  130.9454  150.1130 LP  0  0  0  0  0  0  0  0  0  0  0  0  # atno 17371 bound_to 10713
  141.1680  133.8665  157.1657 LP  0  0  0  0  0  0  0  0  0  0  0  0  # atno 17394 bound_to 11000
  140.0031  135.0020  157.0233 LP  0  0  0  0  0  0  0  0  0  0  0  0  # atno 17395 bound_to 11000

$$$$
