AV-unprocessed.smi:1520|AV-procd|sdf|6129|dock6
  -GOLD-   22720 6273D 1   1.00000     0.00000
 Structure written by MMmdl.
 37 38  0  0  0  0  0  0  0  0  1 V2000
  151.6809  141.8466  158.5370 O   0  0  0  0  0  0  0  0  0  0  0  0
  151.0880  142.7740  157.9857 C   0  0  0  0  0  0  0  0  0  0  0  0
  151.4709  144.2331  158.2630 C   0  0  0  0  0  0  0  0  0  0  0  0
  151.3238  144.6747  159.7334 C   0  0  0  0  0  0  0  0  0  0  0  0
  150.0315  144.6836  160.0581 F   0  0  0  0  0  0  0  0  0  0  0  0
  151.9605  143.8326  160.5487 F   0  0  0  0  0  0  0  0  0  0  0  0
  151.8147  145.9022  159.9104 F   0  0  0  0  0  0  0  0  0  0  0  0
  150.0836  142.5878  157.1151 N   0  0  0  0  0  0  0  0  0  0  0  0
  149.5776  141.2910  156.6810 C   0  0  0  0  0  0  0  0  0  0  0  0
  148.5204  141.4171  155.5999 C   0  0  0  0  0  0  0  0  0  0  0  0
  148.8018  141.0477  154.2691 C   0  0  0  0  0  0  0  0  0  0  0  0
  147.7895  141.2003  153.3023 C   0  0  0  0  0  0  0  0  0  0  0  0
  146.5601  141.6805  153.5867 N   0  0  0  0  0  0  0  0  0  0  0  0
  146.2900  142.0348  154.8662 C   0  0  0  0  0  0  0  0  0  0  0  0
  145.0115  142.5258  155.1669 N   0  0  0  0  0  0  0  0  0  0  0  0
  144.2515  141.6660  156.0662 C   0  0  0  0  0  0  0  0  0  0  0  0
  142.8263  142.2190  156.2431 C   0  0  0  0  0  0  0  0  0  0  0  0
  142.8891  143.5657  156.7044 O   0  0  0  0  0  0  0  0  0  0  0  0
  143.5711  144.4150  155.7857 C   0  0  0  0  0  0  0  0  0  0  0  0
  145.0149  143.9182  155.5981 C   0  0  0  0  0  0  0  0  0  0  0  0
  147.2400  141.9233  155.9032 C   0  0  0  0  0  0  0  0  0  0  0  0
  152.5040  144.3807  157.9456 H   0  0  0  0  0  0  0  0  0  0  0  0
  150.8571  144.8739  157.6286 H   0  0  0  0  0  0  0  0  0  0  0  0
  149.6505  143.4038  156.7075 H   0  0  0  0  0  0  0  0  0  0  0  0
  150.3912  140.6545  156.3287 H   0  0  0  0  0  0  0  0  0  0  0  0
  149.1492  140.7835  157.5456 H   0  0  0  0  0  0  0  0  0  0  0  0
  149.7710  140.6599  153.9921 H   0  0  0  0  0  0  0  0  0  0  0  0
  147.9719  140.9289  152.2730 H   0  0  0  0  0  0  0  0  0  0  0  0
  144.2133  140.6525  155.6649 H   0  0  0  0  0  0  0  0  0  0  0  0
  144.7494  141.6113  157.0353 H   0  0  0  0  0  0  0  0  0  0  0  0
  142.2708  142.1706  155.3052 H   0  0  0  0  0  0  0  0  0  0  0  0
  142.2776  141.6199  156.9699 H   0  0  0  0  0  0  0  0  0  0  0  0
  143.0405  144.4383  154.8324 H   0  0  0  0  0  0  0  0  0  0  0  0
  143.5718  145.4328  156.1757 H   0  0  0  0  0  0  0  0  0  0  0  0
  145.5629  144.0133  156.5365 H   0  0  0  0  0  0  0  0  0  0  0  0
  145.5302  144.5328  154.8590 H   0  0  0  0  0  0  0  0  0  0  0  0
  146.9897  142.2191  156.9118 H   0  0  0  0  0  0  0  0  0  0  0  0
  1  2  2  0  0  0  0
  2  3  1  0  0  0  0
  2  8  1  0  0  0  0
  3  4  1  0  0  0  0
  3 22  1  0  0  0  0
  3 23  1  0  0  0  0
  4  5  1  0  0  0  0
  4  6  1  0  0  0  0
  4  7  1  0  0  0  0
  8  9  1  0  0  0  0
  8 24  1  0  0  0  0
  9 10  1  0  0  0  0
  9 25  1  0  0  0  0
  9 26  1  0  0  0  0
 10 21  1  0  0  0  0
 10 11  2  0  0  0  0
 11 12  1  0  0  0  0
 11 27  1  0  0  0  0
 12 13  2  0  0  0  0
 12 28  1  0  0  0  0
 13 14  1  0  0  0  0
 14 15  1  0  0  0  0
 14 21  2  0  0  0  0
 15 20  1  0  0  0  0
 15 16  1  0  0  0  0
 16 17  1  0  0  0  0
 16 29  1  0  0  0  0
 16 30  1  0  0  0  0
 17 18  1  0  0  0  0
 17 31  1  0  0  0  0
 17 32  1  0  0  0  0
 18 19  1  0  0  0  0
 19 20  1  0  0  0  0
 19 33  1  0  0  0  0
 19 34  1  0  0  0  0
 20 35  1  0  0  0  0
 20 36  1  0  0  0  0
 21 37  1  0  0  0  0
M  END
> <s_m_source_file>
AV-unprocessed.smi

> <i_m_source_file_index>
1520

> <i_lp_mmshare_version>
43012

> <i_f3d_flags>
0

> <s_epik_input>
RkMoRikoRilbQ0gyXUMoPU8pW05IXVtDSDJdYzFbY0hdW2NIXW5jKFtjSF0xKU4yW0NIMl1bQ0gyXU9bQ0gyXVtDSDJdMg==

> <s_epik_cmdline>
J2VwaWtfcHl0aG9uJywgJy1waCcsICc3LjAnLCAnLXRuJywgJzgnLCAnLW1hJywgJzIwMCcsICctbWV0YWxfYmluZGluZycsICctaW1hZScsICc8aW5maWxlLm1hZT4nLCAnLW9tYWUnLCAnPG91dGZpbGUubWFlPic=

> <r_lp_tautomer_probability>
1

> <r_epik_Ionization_Penalty>
0.00358568

> <r_epik_Ionization_Penalty_Charging>
0

> <r_epik_Ionization_Penalty_Neutral>
0.00358568

> <r_epik_State_Penalty>
0.00254794

> <r_epik_Charging_Adjusted_Penalty>
0.00254794

> <i_epik_Tot_Q>
0

> <i_epik_Tot_abs_Q>
0

> <r_epik_Metal_State_Penalty>
-0

> <b_epik_Metal_Only>
0

> <s_lp_Force_Field>
OPLS_2005

> <r_lp_Energy>
12.9291

> <b_lp_Chiralities_Consistent>
1

> <s_lp_Variant>
AV-unprocessed.smi:1520-1

> <Gold.Version>
5.8.1

> <Gold.Id.Protein>
6NUR|6NUR_protein|mol2

> <Gold.PLP.Fitness>
42.3560

> <Gold.PLP.PLP>
-36.6775

> <Gold.PLP.part.hbond>
-1.0000

> <Gold.PLP.part.metal>
0.0000

> <Gold.PLP.part.buried>
-4.9141

> <Gold.PLP.part.nonpolar>
-31.3259

> <Gold.PLP.part.repulsive>
0.3816

> <Gold.PLP.ligand.clash>
0.0000

> <Gold.PLP.ligand.torsion>
0.2209

> <Gold.PLP.Chemscore.Hbond>
1.0000

> <Gold.PLP.Chemscore.CHOScore>
1.0000

> <Gold.PLP.Chemscore.Metal>
0.0000

> <Gold.Chemscore.Hbonds>
donor molecule, donor type, donor heavy atom, donor atom, acceptor molecule, acceptor atom, score
      L1  H     8    24       P1  8028  1.00
      L1  C    12    28       P1  7957  1.00

> <Gold.PLP.Chemscore.Internal.Correction>
0.1203

> <Gold.Rescore>
     Score         DG    S(hbond)    S(metal)    S(lipo)     H(rot)  DE(clash)    DE(int)     intcor
      9.46     -11.04       1.00        0.00      62.97       2.01       0.13       1.45       ----

> <Gold.Chemscore.Fitness>
9.4607

> <Gold.Chemscore.DG>
-11.0401

> <Gold.Chemscore.ZeroCoef>
-5.4800

> <Gold.Chemscore.Hbond>
0.9997

> <Gold.Chemscore.Metal>
0.0000

> <Gold.Chemscore.Lipo>
62.9655

> <Gold.Chemscore.Internal_Hbond>
0.0000

> <Gold.Chemscore.DEClash>
0.1273

> <Gold.Chemscore.DEInternal>
1.4522

> <Gold.Chemscore.Rot>
2.0101

> <Gold.Chemscore.Internal.Correction>
   9.000000E+99

> <Gold.Chemscore.Hbonds>
donor molecule, donor type, donor heavy atom, donor atom, acceptor molecule, acceptor atom, score
      L1  H     8    24       P1  8028  1.00

> <Gold.Chemscore.Hbond.Weighted>
-3.3390

> <Gold.Chemscore.Metal.Weighted>
-0.0000

> <Gold.Chemscore.Lipo.Weighted>
-7.3670

> <Gold.Chemscore.Internal_Hbond.Weighted>
0.0000

> <Gold.Chemscore.DEClash.Weighted>
0.1273

> <Gold.Chemscore.DEInternal.Weighted>
1.4522

> <Gold.Chemscore.Rot.Weighted>
5.1458

> <Gold.Chemscore.Internal.Correction.Weighted>
   9.000000E+99

> <Gold.Protein.RotatedTorsions>
[ 6907 6896 6895 6894 ] final   58.60 input  -60.11 | X-H torsion
[ 7974 7965 7964 7962 ] final   22.46 input  175.53 | X-H torsion
[ 8008 7997 7996 7995 ] final  -65.71 input   59.86 | X-H torsion
[ 10167 10162 10161 10158 ] final  -65.38 input  -65.29 | X-H torsion
[ 10718 10713 10712 10709 ] final   77.67 input   66.30 | X-H torsion
[ 10763 10752 10751 10750 ] final   31.98 input  -60.55 | X-H torsion
[ 11005 11000 10999 10996 ] final   37.07 input  -57.11 | X-H torsion

> <Gold.Protein.ActiveResidues>
 VAL166  LYS551  ARG553  GLY616  TRP617  ASP618  TYR619  PRO620  LYS621  CYS622 
 ASP623  PHE694  ASN695  SER759  ASP760  ASP761  ALA762  ILE779  LEU786  VAL792 
 PHE793  MET794  SER795  GLU796  ALA797  LYS798  CYS799  TRP800  GLU811  SER814 

> <Gold.Protein.RotatedAtoms>
  152.3838  134.6548  160.0132 H   0  0  0  0  0  0  0  0  0  0  0  0  # atno 6907 bound_to 6896
  151.6803  133.3306  159.3226 H   0  0  0  0  0  0  0  0  0  0  0  0  # atno 6908 bound_to 6896
  150.7769  134.6722  159.6443 H   0  0  0  0  0  0  0  0  0  0  0  0  # atno 6909 bound_to 6896
  146.2027  139.7881  142.8749 H   0  0  0  0  0  0  0  0  0  0  0  0  # atno 7974 bound_to 7965
  154.4689  140.0927  156.7092 H   0  0  0  0  0  0  0  0  0  0  0  0  # atno 8008 bound_to 7997
  155.4780  140.3466  155.4317 H   0  0  0  0  0  0  0  0  0  0  0  0  # atno 8009 bound_to 7997
  156.1004  140.1421  156.9463 H   0  0  0  0  0  0  0  0  0  0  0  0  # atno 8010 bound_to 7997
  140.5734  143.2319  151.6492 H   0  0  0  0  0  0  0  0  0  0  0  0  # atno 10167 bound_to 10162
  157.6719  130.9833  150.1676 H   0  0  0  0  0  0  0  0  0  0  0  0  # atno 10718 bound_to 10713
  153.0287  135.6425  154.1283 H   0  0  0  0  0  0  0  0  0  0  0  0  # atno 10763 bound_to 10752
  154.1008  135.2859  155.3253 H   0  0  0  0  0  0  0  0  0  0  0  0  # atno 10764 bound_to 10752
  154.6400  135.5463  153.7841 H   0  0  0  0  0  0  0  0  0  0  0  0  # atno 10765 bound_to 10752
  140.2262  134.3582  155.7983 H   0  0  0  0  0  0  0  0  0  0  0  0  # atno 11005 bound_to 11000
  145.3426  141.0291  143.3383 LP  0  0  0  0  0  0  0  0  0  0  0  0  # atno 17320 bound_to 7965
  144.8721  139.5023  143.6763 LP  0  0  0  0  0  0  0  0  0  0  0  0  # atno 17321 bound_to 7965
  139.5129  144.3460  152.0697 LP  0  0  0  0  0  0  0  0  0  0  0  0  # atno 17342 bound_to 10162
  140.2600  144.4077  150.6189 LP  0  0  0  0  0  0  0  0  0  0  0  0  # atno 17343 bound_to 10162
  156.2437  130.3693  149.8308 LP  0  0  0  0  0  0  0  0  0  0  0  0  # atno 17370 bound_to 10713
  156.6101  130.8583  151.3452 LP  0  0  0  0  0  0  0  0  0  0  0  0  # atno 17371 bound_to 10713
  141.2220  133.7220  156.8657 LP  0  0  0  0  0  0  0  0  0  0  0  0  # atno 17394 bound_to 11000
  140.1798  134.9041  157.2935 LP  0  0  0  0  0  0  0  0  0  0  0  0  # atno 17395 bound_to 11000

$$$$
