AV-unprocessed.smi:212|AV-procd|sdf|1619|dock10
  -GOLD-   2262019553D 1   1.00000     0.00000
 Structure written by MMmdl.
 65 68  0  0  0  0  0  0  0  0  2 V2000
  150.8668  131.9744  156.9108 C   0  0  0  0  0  0  0  0  0  0  0  0
  150.0403  133.2692  156.9877 C   0  0  2  0  0  0  0  0  0  0  0  0
  148.5575  133.0359  156.6276 C   0  0  0  0  0  0  0  0  0  0  0  0
  148.3764  132.7886  155.1708 N   0  3  1  0  0  0  0  0  0  0  0  0
  146.9774  132.4599  154.7817 C   0  0  0  0  0  0  0  0  0  0  0  0
  146.7969  132.0875  153.2865 C   0  0  0  0  0  0  0  0  0  0  0  0
  145.5135  131.2579  153.1073 C   0  0  0  0  0  0  0  0  0  0  0  0
  146.7647  133.3189  152.3614 C   0  0  0  0  0  0  0  0  0  0  0  0
  147.8542  131.2460  152.8738 O   0  0  0  0  0  0  0  0  0  0  0  0
  148.9427  133.8924  154.3524 C   0  0  0  0  0  0  0  0  0  0  0  0
  150.4193  134.1526  154.7027 C   0  0  0  0  0  0  0  0  0  0  0  0
  150.6062  134.3228  156.1432 N   0  0  0  0  0  0  0  0  0  0  0  0
  150.5654  135.5758  156.6644 C   0  0  0  0  0  0  0  0  0  0  0  0
  150.1803  135.7657  157.9541 N   0  0  0  0  0  0  0  0  0  0  0  0
  150.1562  136.9958  158.4752 C   0  0  0  0  0  0  0  0  0  0  0  0
  150.4718  138.1540  157.8931 N   0  0  0  0  0  0  0  0  0  0  0  0
  150.8546  137.9726  156.5973 C   0  0  0  0  0  0  0  0  0  0  0  0
  150.9237  136.7279  155.9104 C   0  0  0  0  0  0  0  0  0  0  0  0
  151.3323  136.9321  154.5988 N   0  0  0  0  0  0  0  0  0  0  0  0
  151.4968  138.2237  154.5156 C   0  0  0  0  0  0  0  0  0  0  0  0
  151.2533  138.9267  155.6752 N   0  0  0  0  0  0  0  0  0  0  0  0
  151.3662  140.3680  155.8606 C   0  0  0  0  0  0  0  0  0  0  0  0
  150.5961  140.9159  157.0918 C   0  0  2  0  0  0  0  0  0  0  0  0
  149.0958  141.1000  156.7587 C   0  0  0  0  0  0  0  0  0  0  0  0
  148.8984  141.9832  155.6746 O   0  0  0  0  0  0  0  0  0  0  0  0
  151.2514  142.2069  157.6573 C   0  0  2  0  0  0  0  0  0  0  0  0
  152.5722  141.9771  158.3748 C   0  0  0  0  0  0  0  0  0  0  0  0
  152.7461  143.2666  159.1710 C   0  0  0  0  0  0  0  0  0  0  0  0
  151.4299  143.7337  159.4458 O   0  0  0  0  0  0  0  0  0  0  0  0
  150.4788  142.9159  158.7737 C   0  0  0  0  0  0  0  0  0  0  0  0
  150.4676  131.2179  157.5870 H   0  0  0  0  0  0  0  0  0  0  0  0
  151.9022  132.1575  157.1997 H   0  0  0  0  0  0  0  0  0  0  0  0
  150.8709  131.5475  155.9079 H   0  0  0  0  0  0  0  0  0  0  0  0
  150.0635  133.5866  158.0307 H   0  0  0  0  0  0  0  0  0  0  0  0
  148.1803  132.2032  157.2174 H   0  0  0  0  0  0  0  0  0  0  0  0
  147.9689  133.9094  156.9127 H   0  0  0  0  0  0  0  0  0  0  0  0
  146.5752  131.6844  155.4359 H   0  0  0  0  0  0  0  0  0  0  0  0
  146.3633  133.3430  154.9649 H   0  0  0  0  0  0  0  0  0  0  0  0
  144.6292  131.8336  153.3830 H   0  0  0  0  0  0  0  0  0  0  0  0
  145.5278  130.3616  153.7288 H   0  0  0  0  0  0  0  0  0  0  0  0
  145.3840  130.9381  152.0724 H   0  0  0  0  0  0  0  0  0  0  0  0
  145.9751  134.0114  152.6548 H   0  0  0  0  0  0  0  0  0  0  0  0
  146.5803  133.0314  151.3255 H   0  0  0  0  0  0  0  0  0  0  0  0
  147.7086  133.8651  152.3782 H   0  0  0  0  0  0  0  0  0  0  0  0
  147.7140  131.0054  151.9704 H   0  0  0  0  0  0  0  0  0  0  0  0
  148.8688  133.6471  153.2924 H   0  0  0  0  0  0  0  0  0  0  0  0
  148.3499  134.7946  154.5095 H   0  0  0  0  0  0  0  0  0  0  0  0
  151.0284  133.3099  154.3749 H   0  0  0  0  0  0  0  0  0  0  0  0
  150.7952  135.0188  154.1562 H   0  0  0  0  0  0  0  0  0  0  0  0
  149.8419  137.0615  159.5064 H   0  0  0  0  0  0  0  0  0  0  0  0
  151.8082  138.7003  153.5974 H   0  0  0  0  0  0  0  0  0  0  0  0
  152.4256  140.6094  155.9543 H   0  0  0  0  0  0  0  0  0  0  0  0
  151.0347  140.8636  154.9481 H   0  0  0  0  0  0  0  0  0  0  0  0
  150.6631  140.1429  157.8592 H   0  0  0  0  0  0  0  0  0  0  0  0
  148.6206  140.1430  156.5405 H   0  0  0  0  0  0  0  0  0  0  0  0
  148.5697  141.5328  157.6100 H   0  0  0  0  0  0  0  0  0  0  0  0
  149.0160  142.8692  155.9822 H   0  0  0  0  0  0  0  0  0  0  0  0
  151.4069  142.9248  156.8508 H   0  0  0  0  0  0  0  0  0  0  0  0
  152.4899  141.1300  159.0570 H   0  0  0  0  0  0  0  0  0  0  0  0
  153.4117  141.7876  157.7082 H   0  0  0  0  0  0  0  0  0  0  0  0
  153.3144  143.1133  160.0886 H   0  0  0  0  0  0  0  0  0  0  0  0
  153.2627  144.0186  158.5733 H   0  0  0  0  0  0  0  0  0  0  0  0
  149.6490  143.5144  158.3970 H   0  0  0  0  0  0  0  0  0  0  0  0
  150.0827  142.1941  159.4896 H   0  0  0  0  0  0  0  0  0  0  0  0
  148.9276  131.9722  154.9484 H   0  0  0  0  0  0  0  0  0  0  0  0
  1  2  1  0  0  0  0
  1 31  1  0  0  0  0
  1 32  1  0  0  0  0
  1 33  1  0  0  0  0
  2 12  1  0  0  0  0
  2  3  1  0  0  0  0
  2 34  1  0  0  0  0
  3  4  1  0  0  0  0
  3 35  1  0  0  0  0
  3 36  1  0  0  0  0
  4  5  1  0  0  0  0
  4 10  1  0  0  0  0
  4 65  1  0  0  0  0
  5  6  1  0  0  0  0
  5 37  1  0  0  0  0
  5 38  1  0  0  0  0
  6  7  1  0  0  0  0
  6  8  1  0  0  0  0
  6  9  1  0  0  0  0
  7 39  1  0  0  0  0
  7 40  1  0  0  0  0
  7 41  1  0  0  0  0
  8 42  1  0  0  0  0
  8 43  1  0  0  0  0
  8 44  1  0  0  0  0
  9 45  1  0  0  0  0
 10 11  1  0  0  0  0
 10 46  1  0  0  0  0
 10 47  1  0  0  0  0
 11 12  1  0  0  0  0
 11 48  1  0  0  0  0
 11 49  1  0  0  0  0
 12 13  1  0  0  0  0
 13 18  1  0  0  0  0
 13 14  2  0  0  0  0
 14 15  1  0  0  0  0
 15 16  2  0  0  0  0
 15 50  1  0  0  0  0
 16 17  1  0  0  0  0
 17 21  1  0  0  0  0
 17 18  2  0  0  0  0
 18 19  1  0  0  0  0
 19 20  2  0  0  0  0
 20 21  1  0  0  0  0
 20 51  1  0  0  0  0
 21 22  1  0  0  0  0
 22 23  1  0  0  0  0
 22 52  1  0  0  0  0
 22 53  1  0  0  0  0
 23 24  1  0  0  0  0
 23 26  1  0  0  0  0
 23 54  1  0  0  0  0
 24 25  1  0  0  0  0
 24 55  1  0  0  0  0
 24 56  1  0  0  0  0
 25 57  1  0  0  0  0
 26 30  1  0  0  0  0
 26 27  1  0  0  0  0
 26 58  1  0  0  0  0
 27 28  1  0  0  0  0
 27 59  1  0  0  0  0
 27 60  1  0  0  0  0
 28 29  1  0  0  0  0
 28 61  1  0  0  0  0
 28 62  1  0  0  0  0
 29 30  1  0  0  0  0
 30 63  1  0  0  0  0
 30 64  1  0  0  0  0
M  CHG  1   4   1
M  END
> <s_m_source_file>
AV-unprocessed.smi

> <i_m_source_file_index>
212

> <i_lp_mmshare_version>
43012

> <i_f3d_flags>
0

> <s_epik_input>
W0NIM11bQ0BASF0xW0NIMl1OKFtDSDJdQyhbQ0gzXSkoW0NIM10pW09IXSlbQ0gyXVtDSDJdTjFjKG5bY0hdbjIpYyhjMjMpbltjSF1uM1tDSDJdW0NASF0oW0NIMl1bT0hdKVtDQEBIXTRbQ0gyXVtDSDJdT1tDSDJdNA==

> <s_epik_cmdline>
J2VwaWtfcHl0aG9uJywgJy1waCcsICc3LjAnLCAnLXRuJywgJzgnLCAnLW1hJywgJzIwMCcsICctbWV0YWxfYmluZGluZycsICctaW1hZScsICc8aW5maWxlLm1hZT4nLCAnLW9tYWUnLCAnPG91dGZpbGUubWFlPic=

> <r_lp_tautomer_probability>
1

> <r_epik_Ionization_Penalty>
0.00182193

> <r_epik_Ionization_Penalty_Charging>
0.00173996

> <r_epik_Ionization_Penalty_Neutral>
8.19718e-05

> <r_epik_State_Penalty>
-0

> <r_epik_Charging_Adjusted_Penalty>
0.00173996

> <i_epik_Tot_Q>
1

> <i_epik_Tot_abs_Q>
1

> <r_epik_Metal_State_Penalty>
-0

> <b_epik_Metal_Only>
0

> <s_lp_Force_Field>
OPLS_2005

> <r_lp_Energy>
58.2747

> <b_lp_Chiralities_Consistent>
1

> <s_lp_Variant>
AV-unprocessed.smi:212-3

> <Gold.Version>
5.8.1

> <Gold.Id.Protein>
6NUR|6NUR_protein|mol2

> <Gold.PLP.Fitness>
51.8443

> <Gold.PLP.PLP>
-42.3305

> <Gold.PLP.part.hbond>
-3.9354

> <Gold.PLP.part.metal>
0.0000

> <Gold.PLP.part.buried>
-8.6712

> <Gold.PLP.part.nonpolar>
-30.5622

> <Gold.PLP.part.repulsive>
0.1845

> <Gold.PLP.ligand.clash>
0.0000

> <Gold.PLP.ligand.torsion>
1.1586

> <Gold.PLP.Chemscore.Hbond>
3.7137

> <Gold.PLP.Chemscore.CHOScore>
0.0000

> <Gold.PLP.Chemscore.Metal>
0.0000

> <Gold.Chemscore.Hbonds>
donor molecule, donor type, donor heavy atom, donor atom, acceptor molecule, acceptor atom, score
      L1  H     9    45       P1 10747  0.54
      L1  H    25    57       P1  8028  0.98
      P1  H  6896  6908       L1    14  0.80
      P1  H 10752 10764       L1    19  0.91

> <Gold.PLP.Chemscore.Internal.Correction>
0.6898

> <Gold.Rescore>
     Score         DG    S(hbond)    S(metal)    S(lipo)     H(rot)  DE(clash)    DE(int)     intcor
     14.78     -18.83       3.23        0.00      96.35       3.40       0.42       3.64       ----

> <Gold.Chemscore.Fitness>
14.7774

> <Gold.Chemscore.DG>
-18.8300

> <Gold.Chemscore.ZeroCoef>
-5.4800

> <Gold.Chemscore.Hbond>
3.2269

> <Gold.Chemscore.Metal>
0.0000

> <Gold.Chemscore.Lipo>
96.3478

> <Gold.Chemscore.Internal_Hbond>
0.0000

> <Gold.Chemscore.DEClash>
0.4165

> <Gold.Chemscore.DEInternal>
3.6361

> <Gold.Chemscore.Rot>
3.3986

> <Gold.Chemscore.Internal.Correction>
   9.000000E+99

> <Gold.Chemscore.Hbonds>
donor molecule, donor type, donor heavy atom, donor atom, acceptor molecule, acceptor atom, score
      L1  H     9    45       P1 10747  0.53
      L1  H    25    57       P1  8028  0.93
      P1  H  6896  6908       L1    14  0.26
      P1  H 10752 10764       L1    19  0.44

> <Gold.Chemscore.Hbond.Weighted>
-10.7778

> <Gold.Chemscore.Metal.Weighted>
-0.0000

> <Gold.Chemscore.Lipo.Weighted>
-11.2727

> <Gold.Chemscore.Internal_Hbond.Weighted>
0.0000

> <Gold.Chemscore.DEClash.Weighted>
0.4165

> <Gold.Chemscore.DEInternal.Weighted>
3.6361

> <Gold.Chemscore.Rot.Weighted>
8.7005

> <Gold.Chemscore.Internal.Correction.Weighted>
   9.000000E+99

> <Gold.Protein.RotatedTorsions>
[ 6907 6896 6895 6894 ] final  172.24 input  -60.11 | X-H torsion
[ 7974 7965 7964 7962 ] final -175.49 input  175.53 | X-H torsion
[ 8008 7997 7996 7995 ] final  106.27 input   59.86 | X-H torsion
[ 10167 10162 10161 10158 ] final  141.69 input  -65.29 | X-H torsion
[ 10718 10713 10712 10709 ] final  176.34 input   66.30 | X-H torsion
[ 10763 10752 10751 10750 ] final  -74.70 input  -60.55 | X-H torsion
[ 11005 11000 10999 10996 ] final  -25.63 input  -57.11 | X-H torsion

> <Gold.Protein.ActiveResidues>
 VAL166  LYS551  ARG553  GLY616  TRP617  ASP618  TYR619  PRO620  LYS621  CYS622 
 ASP623  PHE694  ASN695  SER759  ASP760  ASP761  ALA762  ILE779  LEU786  VAL792 
 PHE793  MET794  SER795  GLU796  ALA797  LYS798  CYS799  TRP800  GLU811  SER814 

> <Gold.Protein.RotatedAtoms>
  151.7875  133.3356  159.3488 H   0  0  0  0  0  0  0  0  0  0  0  0  # atno 6907 bound_to 6896
  150.7404  134.5874  159.5979 H   0  0  0  0  0  0  0  0  0  0  0  0  # atno 6908 bound_to 6896
  152.3233  134.7353  160.0359 H   0  0  0  0  0  0  0  0  0  0  0  0  # atno 6909 bound_to 6896
  144.7128  140.1313  143.6398 H   0  0  0  0  0  0  0  0  0  0  0  0  # atno 7974 bound_to 7965
  156.1729  140.3116  155.9006 H   0  0  0  0  0  0  0  0  0  0  0  0  # atno 8008 bound_to 7997
  155.3549  140.0473  157.3063 H   0  0  0  0  0  0  0  0  0  0  0  0  # atno 8009 bound_to 7997
  154.5260  140.2214  155.8900 H   0  0  0  0  0  0  0  0  0  0  0  0  # atno 8010 bound_to 7997
  139.5014  144.6155  151.6174 H   0  0  0  0  0  0  0  0  0  0  0  0  # atno 10167 bound_to 10162
  156.9216  130.9942  151.3003 H   0  0  0  0  0  0  0  0  0  0  0  0  # atno 10718 bound_to 10713
  154.4766  135.5856  153.6359 H   0  0  0  0  0  0  0  0  0  0  0  0  # atno 10763 bound_to 10752
  152.9841  135.6079  154.3300 H   0  0  0  0  0  0  0  0  0  0  0  0  # atno 10764 bound_to 10752
  154.3187  135.2844  155.2509 H   0  0  0  0  0  0  0  0  0  0  0  0  # atno 10765 bound_to 10752
  140.8955  133.7559  156.0476 H   0  0  0  0  0  0  0  0  0  0  0  0  # atno 11005 bound_to 11000
  145.9284  139.2590  143.1340 LP  0  0  0  0  0  0  0  0  0  0  0  0  # atno 17320 bound_to 7965
  145.9548  140.8881  143.0240 LP  0  0  0  0  0  0  0  0  0  0  0  0  # atno 17321 bound_to 7965
  140.5842  143.9894  150.6285 LP  0  0  0  0  0  0  0  0  0  0  0  0  # atno 17342 bound_to 10162
  140.3053  143.3234  152.0932 LP  0  0  0  0  0  0  0  0  0  0  0  0  # atno 17343 bound_to 10162
  157.5904  130.8440  149.8651 LP  0  0  0  0  0  0  0  0  0  0  0  0  # atno 17370 bound_to 10713
  156.0488  130.3722  150.1251 LP  0  0  0  0  0  0  0  0  0  0  0  0  # atno 17371 bound_to 10713
  140.8294  134.3196  157.5354 LP  0  0  0  0  0  0  0  0  0  0  0  0  # atno 17394 bound_to 11000
  139.8735  134.9355  156.3634 LP  0  0  0  0  0  0  0  0  0  0  0  0  # atno 17395 bound_to 11000

$$$$
