AV-unprocessed.smi:309|AV-procd|sdf|2292|dock3
  -GOLD-   2262022193D 1   1.00000     0.00000
 Structure written by MMmdl.
 36 38  0  0  0  0  0  0  0  0  1 V2000
  152.0719  137.0813  153.8460 O   0  0  0  0  0  0  0  0  0  0  0  0
  152.0607  138.2756  154.6017 C   0  0  0  0  0  0  0  0  0  0  0  0
  150.7557  139.0195  154.5544 C   0  0  0  0  0  0  0  0  0  0  0  0
  149.7322  138.6411  153.7847 N   0  0  0  0  0  0  0  0  0  0  0  0
  148.7686  139.5892  154.0654 C   0  0  0  0  0  0  0  0  0  0  0  0
  147.4553  139.7407  153.5659 C   0  0  0  0  0  0  0  0  0  0  0  0
  146.6425  140.8054  154.0071 C   0  0  0  0  0  0  0  0  0  0  0  0
  147.1298  141.7313  154.9523 C   0  0  0  0  0  0  0  0  0  0  0  0
  148.4352  141.5977  155.4629 C   0  0  0  0  0  0  0  0  0  0  0  0
  149.2426  140.5337  155.0181 C   0  0  0  0  0  0  0  0  0  0  0  0
  150.5434  140.1311  155.3048 N   0  0  0  0  0  0  0  0  0  0  0  0
  151.4539  140.7908  156.2314 C   0  0  0  0  0  0  0  0  0  0  0  0
  151.1665  140.4301  157.7042 C   0  0  1  0  0  0  0  0  0  0  0  0
  151.6433  139.1186  157.9304 O   0  0  0  0  0  0  0  0  0  0  0  0
  151.7661  141.4395  158.6823 C   0  0  0  0  0  0  0  0  0  0  0  0
  151.3654  142.7934  158.6057 C   0  0  0  0  0  0  0  0  0  0  0  0
  151.8776  143.7477  159.5043 C   0  0  0  0  0  0  0  0  0  0  0  0
  151.3685  145.3926  159.3986 Cl  0  0  0  0  0  0  0  0  0  0  0  0
  152.8004  143.3583  160.4916 C   0  0  0  0  0  0  0  0  0  0  0  0
  153.2068  142.0144  160.5779 C   0  0  0  0  0  0  0  0  0  0  0  0
  152.6965  141.0534  159.6823 C   0  0  0  0  0  0  0  0  0  0  0  0
  153.2324  139.4183  159.8520 Cl  0  0  0  0  0  0  0  0  0  0  0  0
  151.4707  137.1768  153.1234 H   0  0  0  0  0  0  0  0  0  0  0  0
  152.2942  138.0309  155.6381 H   0  0  0  0  0  0  0  0  0  0  0  0
  152.8559  138.9188  154.2282 H   0  0  0  0  0  0  0  0  0  0  0  0
  147.0730  139.0368  152.8416 H   0  0  0  0  0  0  0  0  0  0  0  0
  145.6404  140.9125  153.6184 H   0  0  0  0  0  0  0  0  0  0  0  0
  146.5011  142.5446  155.2844 H   0  0  0  0  0  0  0  0  0  0  0  0
  148.8126  142.3072  156.1842 H   0  0  0  0  0  0  0  0  0  0  0  0
  152.4651  140.4780  155.9666 H   0  0  0  0  0  0  0  0  0  0  0  0
  151.4257  141.8700  156.0819 H   0  0  0  0  0  0  0  0  0  0  0  0
  150.0900  140.3639  157.8535 H   0  0  0  0  0  0  0  0  0  0  0  0
  152.4049  139.1672  158.4876 H   0  0  0  0  0  0  0  0  0  0  0  0
  150.6500  143.1059  157.8590 H   0  0  0  0  0  0  0  0  0  0  0  0
  153.1956  144.0867  161.1842 H   0  0  0  0  0  0  0  0  0  0  0  0
  153.9143  141.7192  161.3388 H   0  0  0  0  0  0  0  0  0  0  0  0
  1  2  1  0  0  0  0
  1 23  1  0  0  0  0
  2  3  1  0  0  0  0
  2 24  1  0  0  0  0
  2 25  1  0  0  0  0
  3 11  1  0  0  0  0
  3  4  2  0  0  0  0
  4  5  1  0  0  0  0
  5 10  2  0  0  0  0
  5  6  1  0  0  0  0
  6  7  2  0  0  0  0
  6 26  1  0  0  0  0
  7  8  1  0  0  0  0
  7 27  1  0  0  0  0
  8  9  2  0  0  0  0
  8 28  1  0  0  0  0
  9 10  1  0  0  0  0
  9 29  1  0  0  0  0
 10 11  1  0  0  0  0
 11 12  1  0  0  0  0
 12 13  1  0  0  0  0
 12 30  1  0  0  0  0
 12 31  1  0  0  0  0
 13 14  1  0  0  0  0
 13 15  1  0  0  0  0
 13 32  1  0  0  0  0
 14 33  1  0  0  0  0
 15 21  1  0  0  0  0
 15 16  2  0  0  0  0
 16 17  1  0  0  0  0
 16 34  1  0  0  0  0
 17 18  1  0  0  0  0
 17 19  2  0  0  0  0
 19 20  1  0  0  0  0
 19 35  1  0  0  0  0
 20 21  2  0  0  0  0
 20 36  1  0  0  0  0
 21 22  1  0  0  0  0
M  END
> <s_m_source_file>
AV-unprocessed.smi

> <i_m_source_file_index>
309

> <i_lp_mmshare_version>
43012

> <i_f3d_flags>
0

> <s_epik_input>
W2NIXTFbY0hdW2NIXVtjSF1jKGMxMiluKGMobjIpW0NIMl1bT0hdKVtDSDJdW0NASF0oW09IXSljM1tjSF1jKENsKVtjSF1bY0hdYzNDbA==

> <s_epik_cmdline>
J2VwaWtfcHl0aG9uJywgJy1waCcsICc3LjAnLCAnLXRuJywgJzgnLCAnLW1hJywgJzIwMCcsICctbWV0YWxfYmluZGluZycsICctaW1hZScsICc8aW5maWxlLm1hZT4nLCAnLW9tYWUnLCAnPG91dGZpbGUubWFlPic=

> <r_epik_Ionization_Penalty>
0.0634742

> <r_epik_Ionization_Penalty_Charging>
0

> <r_epik_Ionization_Penalty_Neutral>
0.0634742

> <r_epik_State_Penalty>
0.0551572

> <r_epik_Charging_Adjusted_Penalty>
0.0551572

> <i_epik_Tot_Q>
0

> <i_epik_Tot_abs_Q>
0

> <r_epik_Metal_State_Penalty>
5.78034e-05

> <b_epik_Metal_Only>
0

> <s_lp_Force_Field>
OPLS_2005

> <r_lp_Energy>
12.2325

> <b_lp_Chiralities_Consistent>
1

> <s_lp_Variant>
AV-unprocessed.smi:309-2

> <Gold.Version>
5.8.1

> <Gold.Id.Protein>
6NUR|6NUR_protein|mol2

> <Gold.PLP.Fitness>
54.0532

> <Gold.PLP.PLP>
-50.2506

> <Gold.PLP.part.hbond>
-2.0000

> <Gold.PLP.part.metal>
0.0000

> <Gold.PLP.part.buried>
-2.9045

> <Gold.PLP.part.nonpolar>
-45.3708

> <Gold.PLP.part.repulsive>
1.3848

> <Gold.PLP.ligand.clash>
0.0000

> <Gold.PLP.ligand.torsion>
0.4494

> <Gold.PLP.Chemscore.Hbond>
1.5600

> <Gold.PLP.Chemscore.CHOScore>
0.0000

> <Gold.PLP.Chemscore.Metal>
0.0000

> <Gold.Chemscore.Hbonds>
donor molecule, donor type, donor heavy atom, donor atom, acceptor molecule, acceptor atom, score
      L1  H     1    23       P1  7949  0.59
      P1  H 10752 10764       L1     1  0.98

> <Gold.PLP.Chemscore.Internal.Correction>
0.0215

> <Gold.Rescore>
     Score         DG    S(hbond)    S(metal)    S(lipo)     H(rot)  DE(clash)    DE(int)     intcor
     16.73     -19.11       1.41        0.00     133.74       2.62       0.16       2.23       ----

> <Gold.Chemscore.Fitness>
16.7251

> <Gold.Chemscore.DG>
-19.1144

> <Gold.Chemscore.ZeroCoef>
-5.4800

> <Gold.Chemscore.Hbond>
1.4078

> <Gold.Chemscore.Metal>
0.0000

> <Gold.Chemscore.Lipo>
133.7408

> <Gold.Chemscore.Internal_Hbond>
0.0000

> <Gold.Chemscore.DEClash>
0.1626

> <Gold.Chemscore.DEInternal>
2.2268

> <Gold.Chemscore.Rot>
2.6232

> <Gold.Chemscore.Internal.Correction>
   9.000000E+99

> <Gold.Chemscore.Hbonds>
donor molecule, donor type, donor heavy atom, donor atom, acceptor molecule, acceptor atom, score
      L1  H     1    23       P1  7949  0.48
      P1  H 10752 10764       L1     1  0.89

> <Gold.Chemscore.Hbond.Weighted>
-4.7022

> <Gold.Chemscore.Metal.Weighted>
-0.0000

> <Gold.Chemscore.Lipo.Weighted>
-15.6477

> <Gold.Chemscore.Internal_Hbond.Weighted>
0.0000

> <Gold.Chemscore.DEClash.Weighted>
0.1626

> <Gold.Chemscore.DEInternal.Weighted>
2.2268

> <Gold.Chemscore.Rot.Weighted>
6.7154

> <Gold.Chemscore.Internal.Correction.Weighted>
   9.000000E+99

> <Gold.Protein.RotatedTorsions>
[ 6907 6896 6895 6894 ] final  -75.99 input  -60.11 | X-H torsion
[ 7974 7965 7964 7962 ] final -144.57 input  175.53 | X-H torsion
[ 8008 7997 7996 7995 ] final   32.35 input   59.86 | X-H torsion
[ 10167 10162 10161 10158 ] final   18.15 input  -65.29 | X-H torsion
[ 10718 10713 10712 10709 ] final  153.49 input   66.30 | X-H torsion
[ 10763 10752 10751 10750 ] final -105.15 input  -60.55 | X-H torsion
[ 11005 11000 10999 10996 ] final   86.23 input  -57.11 | X-H torsion

> <Gold.Protein.ActiveResidues>
 VAL166  LYS551  ARG553  GLY616  TRP617  ASP618  TYR619  PRO620  LYS621  CYS622 
 ASP623  PHE694  ASN695  SER759  ASP760  ASP761  ALA762  ILE779  LEU786  VAL792 
 PHE793  MET794  SER795  GLU796  ALA797  LYS798  CYS799  TRP800  GLU811  SER814 

> <Gold.Protein.RotatedAtoms>
  150.7041  134.4639  159.5393 H   0  0  0  0  0  0  0  0  0  0  0  0  # atno 6907 bound_to 6896
  152.2308  134.8321  160.0483 H   0  0  0  0  0  0  0  0  0  0  0  0  # atno 6908 bound_to 6896
  151.9137  133.3532  159.3909 H   0  0  0  0  0  0  0  0  0  0  0  0  # atno 6909 bound_to 6896
  144.8288  140.5693  143.5529 H   0  0  0  0  0  0  0  0  0  0  0  0  # atno 7974 bound_to 7965
  155.1210  140.3248  155.4497 H   0  0  0  0  0  0  0  0  0  0  0  0  # atno 8008 bound_to 7997
  156.2663  140.2027  156.6281 H   0  0  0  0  0  0  0  0  0  0  0  0  # atno 8009 bound_to 7997
  154.6683  140.0539  157.0125 H   0  0  0  0  0  0  0  0  0  0  0  0  # atno 8010 bound_to 7997
  140.5674  143.9225  150.6687 H   0  0  0  0  0  0  0  0  0  0  0  0  # atno 10167 bound_to 10162
  157.2440  131.0765  151.1773 H   0  0  0  0  0  0  0  0  0  0  0  0  # atno 10718 bound_to 10713
  154.7927  135.4760  154.0089 H   0  0  0  0  0  0  0  0  0  0  0  0  # atno 10763 bound_to 10752
  153.1655  135.6816  153.8688 H   0  0  0  0  0  0  0  0  0  0  0  0  # atno 10764 bound_to 10752
  153.8287  135.3194  155.3395 H   0  0  0  0  0  0  0  0  0  0  0  0  # atno 10765 bound_to 10752
  139.8950  134.8341  156.2692 H   0  0  0  0  0  0  0  0  0  0  0  0  # atno 11005 bound_to 11000
  145.4942  139.1487  143.3693 LP  0  0  0  0  0  0  0  0  0  0  0  0  # atno 17320 bound_to 7965
  146.2592  140.5080  142.8861 LP  0  0  0  0  0  0  0  0  0  0  0  0  # atno 17321 bound_to 7965
  140.2692  143.3468  152.1253 LP  0  0  0  0  0  0  0  0  0  0  0  0  # atno 17342 bound_to 10162
  139.5100  144.6876  151.5845 LP  0  0  0  0  0  0  0  0  0  0  0  0  # atno 17343 bound_to 10162
  157.3348  130.7003  149.6346 LP  0  0  0  0  0  0  0  0  0  0  0  0  # atno 17370 bound_to 10713
  155.9669  130.4297  150.4843 LP  0  0  0  0  0  0  0  0  0  0  0  0  # atno 17371 bound_to 10713
  141.0112  133.7095  156.1114 LP  0  0  0  0  0  0  0  0  0  0  0  0  # atno 17394 bound_to 11000
  140.7365  134.4197  157.5560 LP  0  0  0  0  0  0  0  0  0  0  0  0  # atno 17395 bound_to 11000

$$$$
