AV-unprocessed.smi:249|AV-procd|sdf|1927|dock6
  -GOLD-   2262021 43D 1   1.00000     0.00000
 Structure written by MMmdl.
 64 67  0  0  0  0  0  0  0  0  2 V2000
  144.4225  134.9785  151.4063 C   0  0  0  0  0  0  0  0  0  0  0  0
  143.7535  133.7986  152.1308 C   0  0  0  0  0  0  0  0  0  0  0  0
  144.5294  133.2985  153.3030 N   0  3  1  0  0  0  0  0  0  0  0  0
  145.7132  132.4946  152.8814 C   0  0  0  0  0  0  0  0  0  0  0  0
  146.4757  131.9075  154.0795 C   0  0  0  0  0  0  0  0  0  0  0  0
  146.9543  133.0113  155.0371 C   0  0  1  0  0  0  0  0  0  0  0  0
  147.9947  133.8613  154.4351 N   0  0  0  0  0  0  0  0  0  0  0  0
  149.1342  133.1884  153.8190 C   0  0  0  0  0  0  0  0  0  0  0  0
  148.4155  134.8943  155.1984 C   0  0  0  0  0  0  0  0  0  0  0  0
  149.4542  134.6638  156.0382 N   0  0  0  0  0  0  0  0  0  0  0  0
  149.9182  135.6517  156.8100 C   0  0  0  0  0  0  0  0  0  0  0  0
  149.4942  136.9148  156.8948 N   0  0  0  0  0  0  0  0  0  0  0  0
  148.4438  137.1439  156.0550 C   0  0  0  0  0  0  0  0  0  0  0  0
  147.8440  136.1970  155.1793 C   0  0  0  0  0  0  0  0  0  0  0  0
  146.7980  136.7884  154.4816 N   0  0  0  0  0  0  0  0  0  0  0  0
  146.7774  138.0166  154.9235 C   0  0  0  0  0  0  0  0  0  0  0  0
  147.7300  138.3149  155.8712 N   0  0  0  0  0  0  0  0  0  0  0  0
  147.9276  139.5944  156.5275 C   0  0  0  0  0  0  0  0  0  0  0  0
  149.1014  140.4227  155.9350 C   0  0  1  0  0  0  0  0  0  0  0  0
  148.7011  141.2591  154.6944 C   0  0  0  0  0  0  0  0  0  0  0  0
  149.5283  140.9883  153.5811 O   0  0  0  0  0  0  0  0  0  0  0  0
  149.8042  141.3287  156.9812 C   0  0  1  0  0  0  0  0  0  0  0  0
  150.3451  140.6431  158.2349 C   0  0  0  0  0  0  0  0  0  0  0  0
  151.6130  141.4342  158.5736 C   0  0  0  0  0  0  0  0  0  0  0  0
  151.6001  142.5602  157.7061 O   0  0  0  0  0  0  0  0  0  0  0  0
  150.9997  142.1473  156.4905 C   0  0  0  0  0  0  0  0  0  0  0  0
  145.6920  133.7867  155.4729 C   0  0  0  0  0  0  0  0  0  0  0  0
  144.9044  134.3740  154.2784 C   0  0  2  0  0  0  0  0  0  0  0  0
  143.6867  135.1467  154.8267 C   0  0  0  0  0  0  0  0  0  0  0  0
  143.9063  135.1898  150.4698 H   0  0  0  0  0  0  0  0  0  0  0  0
  145.4627  134.7579  151.1647 H   0  0  0  0  0  0  0  0  0  0  0  0
  144.3940  135.8958  151.9936 H   0  0  0  0  0  0  0  0  0  0  0  0
  142.7431  134.0679  152.4417 H   0  0  0  0  0  0  0  0  0  0  0  0
  143.6497  133.0139  151.3850 H   0  0  0  0  0  0  0  0  0  0  0  0
  145.4035  131.6611  152.2533 H   0  0  0  0  0  0  0  0  0  0  0  0
  146.3777  133.1130  152.2759 H   0  0  0  0  0  0  0  0  0  0  0  0
  145.8191  131.2231  154.6185 H   0  0  0  0  0  0  0  0  0  0  0  0
  147.3093  131.2962  153.7336 H   0  0  0  0  0  0  0  0  0  0  0  0
  147.3878  132.5320  155.9154 H   0  0  0  0  0  0  0  0  0  0  0  0
  149.9727  133.8682  153.6566 H   0  0  0  0  0  0  0  0  0  0  0  0
  148.8529  132.7850  152.8464 H   0  0  0  0  0  0  0  0  0  0  0  0
  149.4816  132.3653  154.4446 H   0  0  0  0  0  0  0  0  0  0  0  0
  150.7482  135.3938  157.4510 H   0  0  0  0  0  0  0  0  0  0  0  0
  146.0592  138.7431  154.5723 H   0  0  0  0  0  0  0  0  0  0  0  0
  146.9917  140.1488  156.4721 H   0  0  0  0  0  0  0  0  0  0  0  0
  148.0963  139.3856  157.5828 H   0  0  0  0  0  0  0  0  0  0  0  0
  149.8614  139.7111  155.6079 H   0  0  0  0  0  0  0  0  0  0  0  0
  147.6582  141.0839  154.4283 H   0  0  0  0  0  0  0  0  0  0  0  0
  148.7970  142.3251  154.9028 H   0  0  0  0  0  0  0  0  0  0  0  0
  149.1154  140.3197  153.0559 H   0  0  0  0  0  0  0  0  0  0  0  0
  149.0702  142.0620  157.3203 H   0  0  0  0  0  0  0  0  0  0  0  0
  149.6158  140.6910  159.0446 H   0  0  0  0  0  0  0  0  0  0  0  0
  150.5889  139.5930  158.0786 H   0  0  0  0  0  0  0  0  0  0  0  0
  151.6460  141.7454  159.6179 H   0  0  0  0  0  0  0  0  0  0  0  0
  152.5019  140.8355  158.3697 H   0  0  0  0  0  0  0  0  0  0  0  0
  151.7210  141.5525  155.9305 H   0  0  0  0  0  0  0  0  0  0  0  0
  150.7043  142.9999  155.8784 H   0  0  0  0  0  0  0  0  0  0  0  0
  145.0402  133.1091  156.0268 H   0  0  0  0  0  0  0  0  0  0  0  0
  145.9472  134.5738  156.1831 H   0  0  0  0  0  0  0  0  0  0  0  0
  145.5447  135.0880  153.7587 H   0  0  0  0  0  0  0  0  0  0  0  0
  143.9811  135.8076  155.6428 H   0  0  0  0  0  0  0  0  0  0  0  0
  142.9248  134.4691  155.2131 H   0  0  0  0  0  0  0  0  0  0  0  0
  143.2273  135.7877  154.0752 H   0  0  0  0  0  0  0  0  0  0  0  0
  143.9184  132.6684  153.8028 H   0  0  0  0  0  0  0  0  0  0  0  0
  1  2  1  0  0  0  0
  1 30  1  0  0  0  0
  1 31  1  0  0  0  0
  1 32  1  0  0  0  0
  2  3  1  0  0  0  0
  2 33  1  0  0  0  0
  2 34  1  0  0  0  0
  3 28  1  0  0  0  0
  3  4  1  0  0  0  0
  3 64  1  0  0  0  0
  4  5  1  0  0  0  0
  4 35  1  0  0  0  0
  4 36  1  0  0  0  0
  5  6  1  0  0  0  0
  5 37  1  0  0  0  0
  5 38  1  0  0  0  0
  6  7  1  0  0  0  0
  6 27  1  0  0  0  0
  6 39  1  0  0  0  0
  7  8  1  0  0  0  0
  7  9  1  0  0  0  0
  8 40  1  0  0  0  0
  8 41  1  0  0  0  0
  8 42  1  0  0  0  0
  9 14  1  0  0  0  0
  9 10  2  0  0  0  0
 10 11  1  0  0  0  0
 11 12  2  0  0  0  0
 11 43  1  0  0  0  0
 12 13  1  0  0  0  0
 13 17  1  0  0  0  0
 13 14  2  0  0  0  0
 14 15  1  0  0  0  0
 15 16  2  0  0  0  0
 16 17  1  0  0  0  0
 16 44  1  0  0  0  0
 17 18  1  0  0  0  0
 18 19  1  0  0  0  0
 18 45  1  0  0  0  0
 18 46  1  0  0  0  0
 19 20  1  0  0  0  0
 19 22  1  0  0  0  0
 19 47  1  0  0  0  0
 20 21  1  0  0  0  0
 20 48  1  0  0  0  0
 20 49  1  0  0  0  0
 21 50  1  0  0  0  0
 22 26  1  0  0  0  0
 22 23  1  0  0  0  0
 22 51  1  0  0  0  0
 23 24  1  0  0  0  0
 23 52  1  0  0  0  0
 23 53  1  0  0  0  0
 24 25  1  0  0  0  0
 24 54  1  0  0  0  0
 24 55  1  0  0  0  0
 25 26  1  0  0  0  0
 26 56  1  0  0  0  0
 26 57  1  0  0  0  0
 27 28  1  0  0  0  0
 27 58  1  0  0  0  0
 27 59  1  0  0  0  0
 28 29  1  0  0  0  0
 28 60  1  0  0  0  0
 29 61  1  0  0  0  0
 29 62  1  0  0  0  0
 29 63  1  0  0  0  0
M  CHG  1   3   1
M  END
> <s_m_source_file>
AV-unprocessed.smi

> <i_m_source_file_index>
249

> <i_lp_mmshare_version>
43012

> <i_f3d_flags>
0

> <s_epik_input>
W0NIM11bQ0gyXU4xW0NIMl1bQ0gyXVtDQEhdKFtDSDJdW0NASF0xW0NIM10pTihbQ0gzXSljKG5bY0hdbjIpYyhjMjMpbltjSF1uM1tDSDJdW0NASF0oW0NIMl1bT0hdKVtDQEBIXTRbQ0gyXVtDSDJdT1tDSDJdNA==

> <s_epik_cmdline>
J2VwaWtfcHl0aG9uJywgJy1waCcsICc3LjAnLCAnLXRuJywgJzgnLCAnLW1hJywgJzIwMCcsICctbWV0YWxfYmluZGluZycsICctaW1hZScsICc8aW5maWxlLm1hZT4nLCAnLW9tYWUnLCAnPG91dGZpbGUubWFlPic=

> <r_lp_tautomer_probability>
1

> <r_epik_Ionization_Penalty>
0.00294688

> <r_epik_Ionization_Penalty_Charging>
0.00169971

> <r_epik_Ionization_Penalty_Neutral>
0.00124717

> <r_epik_State_Penalty>
-0

> <r_epik_Charging_Adjusted_Penalty>
0.00169971

> <i_epik_Tot_Q>
1

> <i_epik_Tot_abs_Q>
1

> <r_epik_Metal_State_Penalty>
-0

> <b_epik_Metal_Only>
0

> <s_lp_Force_Field>
OPLS_2005

> <r_lp_Energy>
57.5801

> <b_lp_Chiralities_Consistent>
1

> <s_lp_Variant>
AV-unprocessed.smi:249-30

> <Gold.Version>
5.8.1

> <Gold.Id.Protein>
6NUR|6NUR_protein|mol2

> <Gold.PLP.Fitness>
39.5025

> <Gold.PLP.PLP>
-31.6770

> <Gold.PLP.part.hbond>
-4.0000

> <Gold.PLP.part.metal>
0.0000

> <Gold.PLP.part.buried>
-6.1829

> <Gold.PLP.part.nonpolar>
-20.4605

> <Gold.PLP.part.repulsive>
0.2913

> <Gold.PLP.ligand.clash>
0.0000

> <Gold.PLP.ligand.torsion>
1.9719

> <Gold.PLP.Chemscore.Hbond>
3.6949

> <Gold.PLP.Chemscore.CHOScore>
0.0000

> <Gold.PLP.Chemscore.Metal>
0.0000

> <Gold.Chemscore.Hbonds>
donor molecule, donor type, donor heavy atom, donor atom, acceptor molecule, acceptor atom, score
      L1  H     3    64       P1 10957  2.00
      L1  H    21    50       P1  7957  0.43
      P1  H  7989  7998       L1    21  0.27
      P1  H  8011  8017       L1    21  1.00

> <Gold.PLP.Chemscore.Internal.Correction>
0.6846

> <Gold.Rescore>
     Score         DG    S(hbond)    S(metal)    S(lipo)     H(rot)  DE(clash)    DE(int)     intcor
     11.55     -13.50       2.16        0.00      70.34       2.90       0.05       1.89       ----

> <Gold.Chemscore.Fitness>
11.5543

> <Gold.Chemscore.DG>
-13.4971

> <Gold.Chemscore.ZeroCoef>
-5.4800

> <Gold.Chemscore.Hbond>
2.1595

> <Gold.Chemscore.Metal>
0.0000

> <Gold.Chemscore.Lipo>
70.3413

> <Gold.Chemscore.Internal_Hbond>
0.0000

> <Gold.Chemscore.DEClash>
0.0531

> <Gold.Chemscore.DEInternal>
1.8897

> <Gold.Chemscore.Rot>
2.9006

> <Gold.Chemscore.Internal.Correction>
   9.000000E+99

> <Gold.Chemscore.Hbonds>
donor molecule, donor type, donor heavy atom, donor atom, acceptor molecule, acceptor atom, score
      L1  H     3    64       P1 10957  0.74
      L1  H    21    50       P1  7957  0.41
      P1  H  7989  7998       L1    21  0.21
      P1  H  8011  8017       L1    21  0.36

> <Gold.Chemscore.Hbond.Weighted>
-7.2128

> <Gold.Chemscore.Metal.Weighted>
-0.0000

> <Gold.Chemscore.Lipo.Weighted>
-8.2299

> <Gold.Chemscore.Internal_Hbond.Weighted>
0.0000

> <Gold.Chemscore.DEClash.Weighted>
0.0531

> <Gold.Chemscore.DEInternal.Weighted>
1.8897

> <Gold.Chemscore.Rot.Weighted>
7.4256

> <Gold.Chemscore.Internal.Correction.Weighted>
   9.000000E+99

> <Gold.Protein.RotatedTorsions>
[ 6907 6896 6895 6894 ] final   31.97 input  -60.11 | X-H torsion
[ 7974 7965 7964 7962 ] final -140.59 input  175.53 | X-H torsion
[ 8008 7997 7996 7995 ] final  -50.16 input   59.86 | X-H torsion
[ 10167 10162 10161 10158 ] final  -27.22 input  -65.29 | X-H torsion
[ 10718 10713 10712 10709 ] final   22.37 input   66.30 | X-H torsion
[ 10763 10752 10751 10750 ] final   69.42 input  -60.55 | X-H torsion
[ 11005 11000 10999 10996 ] final  -76.36 input  -57.11 | X-H torsion

> <Gold.Protein.ActiveResidues>
 VAL166  LYS551  ARG553  GLY616  TRP617  ASP618  TYR619  PRO620  LYS621  CYS622 
 ASP623  PHE694  ASN695  SER759  ASP760  ASP761  ALA762  ILE779  LEU786  VAL792 
 PHE793  MET794  SER795  GLU796  ALA797  LYS798  CYS799  TRP800  GLU811  SER814 

> <Gold.Protein.RotatedAtoms>
  152.0678  134.9553  160.0574 H   0  0  0  0  0  0  0  0  0  0  0  0  # atno 6907 bound_to 6896
  152.0891  133.4186  159.4544 H   0  0  0  0  0  0  0  0  0  0  0  0  # atno 6908 bound_to 6896
  150.6836  134.2813  159.4671 H   0  0  0  0  0  0  0  0  0  0  0  0  # atno 6909 bound_to 6896
  144.8585  140.6181  143.5344 H   0  0  0  0  0  0  0  0  0  0  0  0  # atno 7974 bound_to 7965
  154.4057  140.1279  156.4621 H   0  0  0  0  0  0  0  0  0  0  0  0  # atno 8008 bound_to 7997
  155.7263  140.3492  155.5019 H   0  0  0  0  0  0  0  0  0  0  0  0  # atno 8009 bound_to 7997
  155.9169  140.1045  157.1227 H   0  0  0  0  0  0  0  0  0  0  0  0  # atno 8010 bound_to 7997
  140.7278  143.4112  151.1103 H   0  0  0  0  0  0  0  0  0  0  0  0  # atno 10167 bound_to 10162
  157.1514  130.6676  149.6013 H   0  0  0  0  0  0  0  0  0  0  0  0  # atno 10718 bound_to 10713
  153.0286  135.5211  154.7285 H   0  0  0  0  0  0  0  0  0  0  0  0  # atno 10763 bound_to 10752
  154.6320  135.2901  155.0208 H   0  0  0  0  0  0  0  0  0  0  0  0  # atno 10764 bound_to 10752
  154.1157  135.6615  153.4946 H   0  0  0  0  0  0  0  0  0  0  0  0  # atno 10765 bound_to 10752
  141.1653  133.6981  156.7658 H   0  0  0  0  0  0  0  0  0  0  0  0  # atno 11005 bound_to 11000
  145.4359  139.1542  143.3997 LP  0  0  0  0  0  0  0  0  0  0  0  0  # atno 17320 bound_to 7965
  146.2842  140.4478  142.8764 LP  0  0  0  0  0  0  0  0  0  0  0  0  # atno 17321 bound_to 7965
  139.7745  143.8445  152.3127 LP  0  0  0  0  0  0  0  0  0  0  0  0  # atno 17342 bound_to 10162
  139.8375  144.7225  150.9373 LP  0  0  0  0  0  0  0  0  0  0  0  0  # atno 17343 bound_to 10162
  155.9770  130.4743  150.6564 LP  0  0  0  0  0  0  0  0  0  0  0  0  # atno 17370 bound_to 10713
  157.4217  131.0837  151.1124 LP  0  0  0  0  0  0  0  0  0  0  0  0  # atno 17371 bound_to 10713
  140.2500  134.8547  157.3658 LP  0  0  0  0  0  0  0  0  0  0  0  0  # atno 17394 bound_to 11000
  140.1711  134.4607  155.7831 LP  0  0  0  0  0  0  0  0  0  0  0  0  # atno 17395 bound_to 11000

$$$$
