AV-unprocessed.smi:1590|AV-procd|sdf|6396|dock5
  -GOLD-   22720 7 33D 1   1.00000     0.00000
 Structure written by MMmdl.
 34 35  0  0  0  0  0  0  0  0  2 V2000
  152.7189  144.1630  158.7596 C   0  0  0  0  0  0  0  0  0  0  0  0
  152.0780  142.8411  159.2058 C   0  0  0  0  0  0  0  0  0  0  0  0
  152.8149  142.2025  160.3921 C   0  0  0  0  0  0  0  0  0  0  0  0
  151.9217  141.8846  158.0641 C   0  0  0  0  0  0  0  0  0  0  0  0
  152.4219  140.6459  158.0873 N   0  0  0  0  0  0  0  0  0  0  0  0
  152.1479  139.9464  156.9214 N   0  0  0  0  0  0  0  0  0  0  0  0
  151.4367  140.6577  156.0357 C   0  0  0  0  0  0  0  0  0  0  0  0
  151.0688  140.1611  154.8429 N   0  5  0  0  0  0  0  0  0  0  0  0
  149.7613  140.1314  154.4974 C   0  0  0  0  0  0  0  0  0  0  0  0
  148.9695  139.2099  154.7093 O   0  0  0  0  0  0  0  0  0  0  0  0
  149.3428  141.2380  153.8689 N   0  0  0  0  0  0  0  0  0  0  0  0
  147.9868  141.4677  153.3889 C   0  0  0  0  0  0  0  0  0  0  0  0
  147.4005  142.7208  154.0280 C   0  0  0  0  0  0  0  0  0  0  0  0
  146.3443  142.5842  155.1345 C   0  0  0  0  0  0  0  0  0  0  0  0
  145.6762  143.8502  154.5906 C   0  0  0  0  0  0  0  0  0  0  0  0
  146.3723  143.5635  153.2576 C   0  0  0  0  0  0  0  0  0  0  0  0
  151.0659  142.2918  156.5830 S   0  0  0  0  0  0  0  0  0  0  0  0
  152.1378  144.6299  157.9638 H   0  0  0  0  0  0  0  0  0  0  0  0
  153.7318  144.0091  158.3861 H   0  0  0  0  0  0  0  0  0  0  0  0
  152.7745  144.8710  159.5867 H   0  0  0  0  0  0  0  0  0  0  0  0
  151.0739  143.0839  159.5570 H   0  0  0  0  0  0  0  0  0  0  0  0
  152.3016  141.3031  160.7334 H   0  0  0  0  0  0  0  0  0  0  0  0
  152.8700  142.8907  161.2357 H   0  0  0  0  0  0  0  0  0  0  0  0
  153.8345  141.9231  160.1250 H   0  0  0  0  0  0  0  0  0  0  0  0
  150.0181  141.9715  153.7112 H   0  0  0  0  0  0  0  0  0  0  0  0
  148.0007  141.5629  152.3022 H   0  0  0  0  0  0  0  0  0  0  0  0
  147.3703  140.5992  153.6242 H   0  0  0  0  0  0  0  0  0  0  0  0
  148.1950  143.3792  154.3865 H   0  0  0  0  0  0  0  0  0  0  0  0
  145.7202  141.6966  155.0181 H   0  0  0  0  0  0  0  0  0  0  0  0
  146.7327  142.6716  156.1497 H   0  0  0  0  0  0  0  0  0  0  0  0
  144.5870  143.8137  154.5554 H   0  0  0  0  0  0  0  0  0  0  0  0
  146.0386  144.7608  155.0703 H   0  0  0  0  0  0  0  0  0  0  0  0
  146.7845  144.4405  152.7579 H   0  0  0  0  0  0  0  0  0  0  0  0
  145.7579  142.9677  152.5804 H   0  0  0  0  0  0  0  0  0  0  0  0
  1  2  1  0  0  0  0
  1 18  1  0  0  0  0
  1 19  1  0  0  0  0
  1 20  1  0  0  0  0
  2  3  1  0  0  0  0
  2  4  1  0  0  0  0
  2 21  1  0  0  0  0
  3 22  1  0  0  0  0
  3 23  1  0  0  0  0
  3 24  1  0  0  0  0
  4 17  1  0  0  0  0
  4  5  2  0  0  0  0
  5  6  1  0  0  0  0
  6  7  2  0  0  0  0
  7  8  1  0  0  0  0
  7 17  1  0  0  0  0
  8  9  1  0  0  0  0
  9 10  2  0  0  0  0
  9 11  1  0  0  0  0
 11 12  1  0  0  0  0
 11 25  1  0  0  0  0
 12 13  1  0  0  0  0
 12 26  1  0  0  0  0
 12 27  1  0  0  0  0
 13 16  1  0  0  0  0
 13 14  1  0  0  0  0
 13 28  1  0  0  0  0
 14 15  1  0  0  0  0
 14 29  1  0  0  0  0
 14 30  1  0  0  0  0
 15 16  1  0  0  0  0
 15 31  1  0  0  0  0
 15 32  1  0  0  0  0
 16 33  1  0  0  0  0
 16 34  1  0  0  0  0
M  CHG  1   8  -1
M  END
> <s_m_source_file>
AV-unprocessed.smi

> <i_m_source_file_index>
1590

> <i_lp_mmshare_version>
43012

> <i_f3d_flags>
0

> <s_epik_input>
W0NIM11bQ0hdKFtDSDNdKWMxbm5jKHMxKVtOSF1DKD1PKVtOSF1bQ0gyXVtDSF0yW0NIMl1bQ0gyXVtDSDJdMg==

> <s_epik_cmdline>
J2VwaWtfcHl0aG9uJywgJy1waCcsICc3LjAnLCAnLXRuJywgJzgnLCAnLW1hJywgJzIwMCcsICctbWV0YWxfYmluZGluZycsICctaW1hZScsICc8aW5maWxlLm1hZT4nLCAnLW9tYWUnLCAnPG91dGZpbGUubWFlPic=

> <r_lp_tautomer_probability>
1

> <r_epik_Ionization_Penalty>
4.56565

> <r_epik_Ionization_Penalty_Charging>
4.40687

> <r_epik_Ionization_Penalty_Neutral>
0.158778

> <r_epik_State_Penalty>
4.40652

> <r_epik_Charging_Adjusted_Penalty>
8.8134

> <i_epik_Tot_Q>
-1

> <i_epik_Tot_abs_Q>
1

> <r_epik_Metal_State_Penalty>
0.774635

> <b_epik_Metal_Only>
1

> <s_lp_Force_Field>
OPLS_2005

> <r_lp_Energy>
4.00522

> <b_lp_Chiralities_Consistent>
1

> <s_lp_Variant>
AV-unprocessed.smi:1590-2

> <Gold.Version>
5.8.1

> <Gold.Id.Protein>
6NUR|6NUR_protein|mol2

> <Gold.PLP.Fitness>
40.2875

> <Gold.PLP.PLP>
-39.6164

> <Gold.PLP.part.hbond>
-3.4926

> <Gold.PLP.part.metal>
0.0000

> <Gold.PLP.part.buried>
-3.9876

> <Gold.PLP.part.nonpolar>
-31.5956

> <Gold.PLP.part.repulsive>
0.7889

> <Gold.PLP.ligand.clash>
0.0000

> <Gold.PLP.ligand.torsion>
1.8249

> <Gold.PLP.Chemscore.Hbond>
1.3900

> <Gold.PLP.Chemscore.CHOScore>
0.0000

> <Gold.PLP.Chemscore.Metal>
0.0000

> <Gold.Chemscore.Hbonds>
donor molecule, donor type, donor heavy atom, donor atom, acceptor molecule, acceptor atom, score
      P1  H  7989  7998       L1     8  0.90
      P1  H  7997  8009       L1     6  0.19

> <Gold.PLP.Chemscore.Internal.Correction>
0.1509

> <Gold.Rescore>
     Score         DG    S(hbond)    S(metal)    S(lipo)     H(rot)  DE(clash)    DE(int)     intcor
     12.41     -14.25       0.66        0.00      85.97       1.36       0.03       1.80       ----

> <Gold.Chemscore.Fitness>
12.4139

> <Gold.Chemscore.DG>
-14.2459

> <Gold.Chemscore.ZeroCoef>
-5.4800

> <Gold.Chemscore.Hbond>
0.6556

> <Gold.Chemscore.Metal>
0.0000

> <Gold.Chemscore.Lipo>
85.9733

> <Gold.Chemscore.Internal_Hbond>
0.0000

> <Gold.Chemscore.DEClash>
0.0347

> <Gold.Chemscore.DEInternal>
1.7973

> <Gold.Chemscore.Rot>
1.3604

> <Gold.Chemscore.Internal.Correction>
   9.000000E+99

> <Gold.Chemscore.Hbonds>
donor molecule, donor type, donor heavy atom, donor atom, acceptor molecule, acceptor atom, score
      P1  H  7989  7998       L1     8  0.17

> <Gold.Chemscore.Hbond.Weighted>
-2.1896

> <Gold.Chemscore.Metal.Weighted>
-0.0000

> <Gold.Chemscore.Lipo.Weighted>
-10.0589

> <Gold.Chemscore.Internal_Hbond.Weighted>
0.0000

> <Gold.Chemscore.DEClash.Weighted>
0.0347

> <Gold.Chemscore.DEInternal.Weighted>
1.7973

> <Gold.Chemscore.Rot.Weighted>
3.4826

> <Gold.Chemscore.Internal.Correction.Weighted>
   9.000000E+99

> <Gold.Protein.RotatedTorsions>
[ 6907 6896 6895 6894 ] final   15.44 input  -60.11 | X-H torsion
[ 7974 7965 7964 7962 ] final   -3.66 input  175.53 | X-H torsion
[ 8008 7997 7996 7995 ] final -162.27 input   59.86 | X-H torsion
[ 10167 10162 10161 10158 ] final  -21.51 input  -65.29 | X-H torsion
[ 10718 10713 10712 10709 ] final   30.00 input   66.30 | X-H torsion
[ 10763 10752 10751 10750 ] final  143.49 input  -60.55 | X-H torsion
[ 11005 11000 10999 10996 ] final  172.13 input  -57.11 | X-H torsion

> <Gold.Protein.ActiveResidues>
 VAL166  LYS551  ARG553  GLY616  TRP617  ASP618  TYR619  PRO620  LYS621  CYS622 
 ASP623  PHE694  ASN695  SER759  ASP760  ASP761  ALA762  ILE779  LEU786  VAL792 
 PHE793  MET794  SER795  GLU796  ALA797  LYS798  CYS799  TRP800  GLU811  SER814 

> <Gold.Protein.RotatedAtoms>
  151.8181  135.0660  160.0421 H   0  0  0  0  0  0  0  0  0  0  0  0  # atno 6907 bound_to 6896
  152.2971  133.5614  159.5603 H   0  0  0  0  0  0  0  0  0  0  0  0  # atno 6908 bound_to 6896
  150.7256  134.0261  159.3760 H   0  0  0  0  0  0  0  0  0  0  0  0  # atno 6909 bound_to 6896
  146.2386  140.1754  142.8332 H   0  0  0  0  0  0  0  0  0  0  0  0  # atno 7974 bound_to 7965
  155.8043  140.0896  157.1939 H   0  0  0  0  0  0  0  0  0  0  0  0  # atno 8008 bound_to 7997
  154.3981  140.1466  156.3370 H   0  0  0  0  0  0  0  0  0  0  0  0  # atno 8009 bound_to 7997
  155.8430  140.3438  155.5647 H   0  0  0  0  0  0  0  0  0  0  0  0  # atno 8010 bound_to 7997
  140.7282  143.4621  151.0365 H   0  0  0  0  0  0  0  0  0  0  0  0  # atno 10167 bound_to 10162
  157.2539  130.7128  149.6419 H   0  0  0  0  0  0  0  0  0  0  0  0  # atno 10718 bound_to 10713
  153.9733  135.2948  155.3426 H   0  0  0  0  0  0  0  0  0  0  0  0  # atno 10763 bound_to 10752
  154.7310  135.5067  153.8967 H   0  0  0  0  0  0  0  0  0  0  0  0  # atno 10764 bound_to 10752
  153.0890  135.6702  154.0005 H   0  0  0  0  0  0  0  0  0  0  0  0  # atno 10765 bound_to 10752
  140.3264  134.7394  157.4102 H   0  0  0  0  0  0  0  0  0  0  0  0  # atno 11005 bound_to 11000
  144.9977  140.8604  143.5301 LP  0  0  0  0  0  0  0  0  0  0  0  0  # atno 17320 bound_to 7965
  145.1769  139.2373  143.5312 LP  0  0  0  0  0  0  0  0  0  0  0  0  # atno 17321 bound_to 7965
  139.8306  143.7696  152.3179 LP  0  0  0  0  0  0  0  0  0  0  0  0  # atno 17342 bound_to 10162
  139.7810  144.7444  151.0088 LP  0  0  0  0  0  0  0  0  0  0  0  0  # atno 17343 bound_to 10162
  155.9665  130.4419  150.5358 LP  0  0  0  0  0  0  0  0  0  0  0  0  # atno 17370 bound_to 10713
  157.3248  131.0688  151.1905 LP  0  0  0  0  0  0  0  0  0  0  0  0  # atno 17371 bound_to 10713
  140.0898  134.5617  155.8456 LP  0  0  0  0  0  0  0  0  0  0  0  0  # atno 17394 bound_to 11000
  141.2074  133.6664  156.6304 LP  0  0  0  0  0  0  0  0  0  0  0  0  # atno 17395 bound_to 11000

$$$$
