AV-unprocessed.smi:2271|AV-procd|sdf|9160|dock4
  -GOLD-   2272012373D 1   1.00000     0.00000
 Structure written by MMmdl.
 46 47  0  0  0  0  0  0  0  0  2 V2000
  153.5003  141.0272  160.2019 C   0  0  0  0  0  0  0  0  0  0  0  0
  152.8627  142.2301  159.5389 C   0  0  0  0  0  0  0  0  0  0  0  0
  153.1320  143.5365  159.9920 C   0  0  0  0  0  0  0  0  0  0  0  0
  152.5093  144.6093  159.3294 C   0  0  0  0  0  0  0  0  0  0  0  0
  151.6497  144.3342  158.2483 C   0  0  0  0  0  0  0  0  0  0  0  0
  151.4339  142.9938  157.8562 C   0  0  0  0  0  0  0  0  0  0  0  0
  150.5456  142.8214  156.7612 N   0  0  0  0  0  0  0  0  0  0  0  0
  150.4127  141.7483  155.9620 C   0  0  0  0  0  0  0  0  0  0  0  0
  151.0998  140.7279  156.0192 O   0  0  0  0  0  0  0  0  0  0  0  0
  149.4171  141.9191  155.0794 N   0  0  0  0  0  0  0  0  0  0  0  0
  149.0071  140.9472  154.0694 C   0  0  0  0  0  0  0  0  0  0  0  0
  148.7268  139.5508  154.6657 C   0  0  2  0  0  0  0  0  0  0  0  0
  149.9185  138.5805  154.5328 C   0  0  0  0  0  0  0  0  0  0  0  0
  149.5795  137.1839  155.0778 C   0  0  0  0  0  0  0  0  0  0  0  0
  148.3822  136.6213  154.4050 N   0  3  1  0  0  0  0  0  0  0  0  0
  148.1179  135.2155  154.8038 C   0  0  0  0  0  0  0  0  0  0  0  0
  146.8739  134.6333  154.1125 C   0  0  0  0  0  0  0  0  0  0  0  0
  147.0971  134.5381  152.7217 O   0  0  0  0  0  0  0  0  0  0  0  0
  147.2037  137.5122  154.5654 C   0  0  0  0  0  0  0  0  0  0  0  0
  147.4918  138.9139  154.0034 C   0  0  0  0  0  0  0  0  0  0  0  0
  152.0385  141.9659  158.5025 N   0  0  0  0  0  0  0  0  0  0  0  0
  154.0438  141.3134  161.1026 H   0  0  0  0  0  0  0  0  0  0  0  0
  154.2011  140.5476  159.5179 H   0  0  0  0  0  0  0  0  0  0  0  0
  152.7397  140.2977  160.4823 H   0  0  0  0  0  0  0  0  0  0  0  0
  153.7971  143.7145  160.8244 H   0  0  0  0  0  0  0  0  0  0  0  0
  152.6871  145.6270  159.6441 H   0  0  0  0  0  0  0  0  0  0  0  0
  151.1636  145.1472  157.7288 H   0  0  0  0  0  0  0  0  0  0  0  0
  149.9267  143.5973  156.5792 H   0  0  0  0  0  0  0  0  0  0  0  0
  148.9063  142.7896  155.1040 H   0  0  0  0  0  0  0  0  0  0  0  0
  148.1003  141.3325  153.6019 H   0  0  0  0  0  0  0  0  0  0  0  0
  149.7491  140.8796  153.2718 H   0  0  0  0  0  0  0  0  0  0  0  0
  148.5104  139.6766  155.7279 H   0  0  0  0  0  0  0  0  0  0  0  0
  150.2164  138.5025  153.4861 H   0  0  0  0  0  0  0  0  0  0  0  0
  150.7847  138.9629  155.0725 H   0  0  0  0  0  0  0  0  0  0  0  0
  150.4348  136.5255  154.9207 H   0  0  0  0  0  0  0  0  0  0  0  0
  149.4073  137.2300  156.1543 H   0  0  0  0  0  0  0  0  0  0  0  0
  148.9741  134.5888  154.5494 H   0  0  0  0  0  0  0  0  0  0  0  0
  148.0120  135.1585  155.8880 H   0  0  0  0  0  0  0  0  0  0  0  0
  146.6743  133.6321  154.4950 H   0  0  0  0  0  0  0  0  0  0  0  0
  145.9804  135.2267  154.3022 H   0  0  0  0  0  0  0  0  0  0  0  0
  147.5291  135.3271  152.4305 H   0  0  0  0  0  0  0  0  0  0  0  0
  146.3399  137.0963  154.0485 H   0  0  0  0  0  0  0  0  0  0  0  0
  146.9363  137.5787  155.6213 H   0  0  0  0  0  0  0  0  0  0  0  0
  146.6196  139.5517  154.1516 H   0  0  0  0  0  0  0  0  0  0  0  0
  147.6440  138.8472  152.9249 H   0  0  0  0  0  0  0  0  0  0  0  0
  148.6023  136.5946  153.4191 H   0  0  0  0  0  0  0  0  0  0  0  0
  1  2  1  0  0  0  0
  1 22  1  0  0  0  0
  1 23  1  0  0  0  0
  1 24  1  0  0  0  0
  2 21  1  0  0  0  0
  2  3  2  0  0  0  0
  3  4  1  0  0  0  0
  3 25  1  0  0  0  0
  4  5  2  0  0  0  0
  4 26  1  0  0  0  0
  5  6  1  0  0  0  0
  5 27  1  0  0  0  0
  6  7  1  0  0  0  0
  6 21  2  0  0  0  0
  7  8  1  0  0  0  0
  7 28  1  0  0  0  0
  8  9  2  0  0  0  0
  8 10  1  0  0  0  0
 10 11  1  0  0  0  0
 10 29  1  0  0  0  0
 11 12  1  0  0  0  0
 11 30  1  0  0  0  0
 11 31  1  0  0  0  0
 12 20  1  0  0  0  0
 12 13  1  0  0  0  0
 12 32  1  0  0  0  0
 13 14  1  0  0  0  0
 13 33  1  0  0  0  0
 13 34  1  0  0  0  0
 14 15  1  0  0  0  0
 14 35  1  0  0  0  0
 14 36  1  0  0  0  0
 15 16  1  0  0  0  0
 15 19  1  0  0  0  0
 15 46  1  0  0  0  0
 16 17  1  0  0  0  0
 16 37  1  0  0  0  0
 16 38  1  0  0  0  0
 17 18  1  0  0  0  0
 17 39  1  0  0  0  0
 17 40  1  0  0  0  0
 18 41  1  0  0  0  0
 19 20  1  0  0  0  0
 19 42  1  0  0  0  0
 19 43  1  0  0  0  0
 20 44  1  0  0  0  0
 20 45  1  0  0  0  0
M  CHG  1  15   1
M  END
> <s_m_source_file>
AV-unprocessed.smi

> <i_m_source_file_index>
2271

> <i_lp_mmshare_version>
43012

> <i_f3d_flags>
0

> <s_epik_input>
W0NIM11jMVtjSF1bY0hdW2NIXWMobjEpW05IXUMoPU8pW05IXVtDSDJdW0NIXTJbQ0gyXVtDSDJdTihbQ0gyXVtDSDJdMilbQ0gyXVtDSDJdW09IXQ==

> <s_epik_cmdline>
J2VwaWtfcHl0aG9uJywgJy1waCcsICc3LjAnLCAnLXRuJywgJzgnLCAnLW1hJywgJzIwMCcsICctbWV0YWxfYmluZGluZycsICctaW1hZScsICc8aW5maWxlLm1hZT4nLCAnLW9tYWUnLCAnPG91dGZpbGUubWFlPic=

> <r_epik_Ionization_Penalty>
0.00184663

> <r_epik_Ionization_Penalty_Charging>
0.00177223

> <r_epik_Ionization_Penalty_Neutral>
7.44064e-05

> <r_epik_State_Penalty>
0.00120075

> <r_epik_Charging_Adjusted_Penalty>
0.00297297

> <i_epik_Tot_Q>
1

> <i_epik_Tot_abs_Q>
1

> <r_epik_Metal_State_Penalty>
-0

> <b_epik_Metal_Only>
0

> <s_lp_Force_Field>
OPLS_2005

> <r_lp_Energy>
18.6881

> <b_lp_Chiralities_Consistent>
1

> <s_lp_Variant>
AV-unprocessed.smi:2271-1

> <Gold.Version>
5.8.1

> <Gold.Id.Protein>
6NUR|6NUR_protein|mol2

> <Gold.PLP.Fitness>
53.1113

> <Gold.PLP.PLP>
-39.5187

> <Gold.PLP.part.hbond>
-4.0000

> <Gold.PLP.part.metal>
0.0000

> <Gold.PLP.part.buried>
-5.1205

> <Gold.PLP.part.nonpolar>
-31.0354

> <Gold.PLP.part.repulsive>
0.2616

> <Gold.PLP.ligand.clash>
0.0000

> <Gold.PLP.ligand.torsion>
0.6648

> <Gold.PLP.Chemscore.Hbond>
4.9600

> <Gold.PLP.Chemscore.CHOScore>
0.0000

> <Gold.PLP.Chemscore.Metal>
0.0000

> <Gold.Chemscore.Hbonds>
donor molecule, donor type, donor heavy atom, donor atom, acceptor molecule, acceptor atom, score
      L1  H     7    28       P1  8028  1.00
      L1  H    10    29       P1  8028  0.96
      L1  H    15    46       P1  7948  2.00
      L1  H    18    41       P1  7948  1.00

> <Gold.PLP.Chemscore.Internal.Correction>
0.0422

> <Gold.Rescore>
     Score         DG    S(hbond)    S(metal)    S(lipo)     H(rot)  DE(clash)    DE(int)     intcor
     19.37     -23.47       3.91        0.00      94.52       2.39       0.05       4.05       ----

> <Gold.Chemscore.Fitness>
19.3742

> <Gold.Chemscore.DG>
-23.4732

> <Gold.Chemscore.ZeroCoef>
-5.4800

> <Gold.Chemscore.Hbond>
3.9107

> <Gold.Chemscore.Metal>
0.0000

> <Gold.Chemscore.Lipo>
94.5201

> <Gold.Chemscore.Internal_Hbond>
0.0000

> <Gold.Chemscore.DEClash>
0.0482

> <Gold.Chemscore.DEInternal>
4.0508

> <Gold.Chemscore.Rot>
2.3935

> <Gold.Chemscore.Internal.Correction>
   9.000000E+99

> <Gold.Chemscore.Hbonds>
donor molecule, donor type, donor heavy atom, donor atom, acceptor molecule, acceptor atom, score
      L1  H     7    28       P1  8028  1.00
      L1  H    10    29       P1  8028  0.89
      L1  H    15    46       P1  7948  0.99
      L1  H    18    41       P1  7948  0.96

> <Gold.Chemscore.Hbond.Weighted>
-13.0618

> <Gold.Chemscore.Metal.Weighted>
-0.0000

> <Gold.Chemscore.Lipo.Weighted>
-11.0589

> <Gold.Chemscore.Internal_Hbond.Weighted>
0.0000

> <Gold.Chemscore.DEClash.Weighted>
0.0482

> <Gold.Chemscore.DEInternal.Weighted>
4.0508

> <Gold.Chemscore.Rot.Weighted>
6.1274

> <Gold.Chemscore.Internal.Correction.Weighted>
   9.000000E+99

> <Gold.Protein.RotatedTorsions>
[ 6907 6896 6895 6894 ] final    7.59 input  -60.11 | X-H torsion
[ 7974 7965 7964 7962 ] final  -63.79 input  175.53 | X-H torsion
[ 8008 7997 7996 7995 ] final   26.03 input   59.86 | X-H torsion
[ 10167 10162 10161 10158 ] final   28.36 input  -65.29 | X-H torsion
[ 10718 10713 10712 10709 ] final   82.73 input   66.30 | X-H torsion
[ 10763 10752 10751 10750 ] final   83.77 input  -60.55 | X-H torsion
[ 11005 11000 10999 10996 ] final  -11.01 input  -57.11 | X-H torsion

> <Gold.Protein.ActiveResidues>
 VAL166  LYS551  ARG553  GLY616  TRP617  ASP618  TYR619  PRO620  LYS621  CYS622 
 ASP623  PHE694  ASN695  SER759  ASP760  ASP761  ALA762  ILE779  LEU786  VAL792 
 PHE793  MET794  SER795  GLU796  ALA797  LYS798  CYS799  TRP800  GLU811  SER814 

> <Gold.Protein.RotatedAtoms>
  151.6923  135.0944  160.0235 H   0  0  0  0  0  0  0  0  0  0  0  0  # atno 6907 bound_to 6896
  152.3771  133.6492  159.6140 H   0  0  0  0  0  0  0  0  0  0  0  0  # atno 6908 bound_to 6896
  150.7718  133.9091  159.3405 H   0  0  0  0  0  0  0  0  0  0  0  0  # atno 6909 bound_to 6896
  145.7747  140.8794  143.0361 H   0  0  0  0  0  0  0  0  0  0  0  0  # atno 7974 bound_to 7965
  155.0210  140.3147  155.4793 H   0  0  0  0  0  0  0  0  0  0  0  0  # atno 8008 bound_to 7997
  156.2892  140.2197  156.5270 H   0  0  0  0  0  0  0  0  0  0  0  0  # atno 8009 bound_to 7997
  154.7452  140.0470  157.0834 H   0  0  0  0  0  0  0  0  0  0  0  0  # atno 8010 bound_to 7997
  140.4859  144.0542  150.6280 H   0  0  0  0  0  0  0  0  0  0  0  0  # atno 10167 bound_to 10162
  157.6864  131.0060  150.2418 H   0  0  0  0  0  0  0  0  0  0  0  0  # atno 10718 bound_to 10713
  153.1321  135.4679  154.9365 H   0  0  0  0  0  0  0  0  0  0  0  0  # atno 10763 bound_to 10752
  154.7673  135.3148  154.8262 H   0  0  0  0  0  0  0  0  0  0  0  0  # atno 10764 bound_to 10752
  153.8803  135.6895  153.4821 H   0  0  0  0  0  0  0  0  0  0  0  0  # atno 10765 bound_to 10752
  140.7508  133.8594  155.9043 H   0  0  0  0  0  0  0  0  0  0  0  0  # atno 11005 bound_to 11000
  144.6806  139.9905  143.7484 LP  0  0  0  0  0  0  0  0  0  0  0  0  # atno 17320 bound_to 7965
  146.0134  139.3189  143.0856 LP  0  0  0  0  0  0  0  0  0  0  0  0  # atno 17321 bound_to 7965
  140.3798  143.2809  152.0183 LP  0  0  0  0  0  0  0  0  0  0  0  0  # atno 17342 bound_to 10162
  139.4842  144.6164  151.7338 LP  0  0  0  0  0  0  0  0  0  0  0  0  # atno 17343 bound_to 10162
  156.3031  130.3761  149.7731 LP  0  0  0  0  0  0  0  0  0  0  0  0  # atno 17370 bound_to 10713
  156.5355  130.8276  151.3251 LP  0  0  0  0  0  0  0  0  0  0  0  0  # atno 17371 bound_to 10713
  140.9753  134.1478  157.4542 LP  0  0  0  0  0  0  0  0  0  0  0  0  # atno 17394 bound_to 11000
  139.8788  134.9992  156.5943 LP  0  0  0  0  0  0  0  0  0  0  0  0  # atno 17395 bound_to 11000

$$$$
