#       Name:                AV-unprocessed.smi:1240
#       Creating user name   scv26
#       Creation time:       Fri Mar 27 04:30:23 2020


#       File generated by GOLD software.
#

@<TRIPOS>MOLECULE
AV-unprocessed.smi:1240
    55    57     1
SMALL
NO_CHARGES


@<TRIPOS>ATOM
      1 ****        -3.1898   0.0408  -0.1941 O.2            1 S1                 0.0000
      2 ****        -2.2825   0.7867   0.1922 C.2            1 S1                 0.0000
      3 ****        -0.9631   0.4877   0.3265 N.pl3          1 S1                -1.0000
      4 ****        -0.3713  -0.8121   0.0129 C.3            1 S1                 0.0000
      5 ****         1.1944  -0.7569   0.1134 C.3            1 S1                 0.0000
      6 ****         1.9000  -0.0031  -1.0626 C.3            1 S1                 0.0000
      7 ****         3.4182   0.0208  -0.9519 C.3            1 S1                 0.0000
      8 ****         3.8067   1.1264  -1.9263 C.3            1 S1                 0.0000
      9 ****         2.7360   2.0607  -1.8899 O.3            1 S1                 0.0000
     10 ****         1.6337   1.5083  -1.1782 C.3            1 S1                 0.0000
     11 ****         1.8496  -2.0984   0.3115 N.4            1 S1                 1.0000
     12 ****         1.7435  -2.6794   1.6763 C.3            1 S1                 0.0000
     13 ****         2.7083  -3.8686   1.8164 C.3            1 S1                 0.0000
     14 ****         2.4357  -4.8334   0.8064 O.3            1 S1                 0.0000
     15 ****         2.6192  -4.3073  -0.5030 C.3            1 S1                 0.0000
     16 ****         1.6436  -3.1423  -0.7326 C.3            1 S1                 0.0000
     17 ****        -2.5462   2.0662   0.5129 N.am           1 S1                 0.0000
     18 ****        -3.7938   2.7456   0.5189 C.ar           1 S1                 0.0000
     19 ****        -3.7845   4.1391   0.2895 C.ar           1 S1                 0.0000
     20 ****        -4.9990   4.8541   0.3090 C.ar           1 S1                 0.0000
     21 ****        -6.1570   4.2062   0.5596 N.pl3          1 S1                 1.0000
     22 ****        -6.2134   2.8789   0.8030 C.ar           1 S1                 0.0000
     23 ****        -5.0311   2.1113   0.7961 C.ar           1 S1                 0.0000
     24 ****        -0.7430  -1.5701   0.7023 H              1 S1                 0.0000
     25 ****        -0.6488  -1.1642  -0.9814 H              1 S1                 0.0000
     26 ****         1.4349  -0.1953   1.0179 H              1 S1                 0.0000
     27 ****         1.6428  -0.4632  -2.0189 H              1 S1                 0.0000
     28 ****         3.7210   0.2939   0.0604 H              1 S1                 0.0000
     29 ****         3.8860  -0.9321  -1.2016 H              1 S1                 0.0000
     30 ****         4.7561   1.5961  -1.6678 H              1 S1                 0.0000
     31 ****         3.8881   0.7301  -2.9392 H              1 S1                 0.0000
     32 ****         0.6973   1.7330  -1.6895 H              1 S1                 0.0000
     33 ****         1.5996   1.9723  -0.1914 H              1 S1                 0.0000
     34 ****         1.9844  -1.9249   2.4259 H              1 S1                 0.0000
     35 ****         0.7236  -3.0129   1.8712 H              1 S1                 0.0000
     36 ****         3.7461  -3.5380   1.7478 H              1 S1                 0.0000
     37 ****         2.5881  -4.3366   2.7935 H              1 S1                 0.0000
     38 ****         3.6522  -3.9824  -0.6374 H              1 S1                 0.0000
     39 ****         2.4372  -5.0984  -1.2306 H              1 S1                 0.0000
     40 ****         0.6215  -3.5217  -0.7012 H              1 S1                 0.0000
     41 ****         1.8030  -2.7289  -1.7279 H              1 S1                 0.0000
     42 ****        -1.7373   2.6367   0.7111 H              1 S1                 0.0000
     43 ****        -2.8562   4.6559   0.0926 H              1 S1                 0.0000
     44 ****        -5.0776   5.9174   0.1357 H              1 S1                 0.0000
     45 ****        -7.1948   2.4738   1.0019 H              1 S1                 0.0000
     46 ****        -5.0888   1.0556   1.0146 H              1 S1                 0.0000
     47 ****         2.8304  -1.8719   0.2340 H              1 S1                 0.0000
     48 ****        -7.0248   4.7425   0.5713 H              1 S1                 0.0000
     49 ****        -2.9853  -0.9038  -0.4508 LP             1 S1                 0.0000
     50 ****        -4.1280   0.3822  -0.2498 LP             1 S1                 0.0000
     51 ****        -0.3550   1.2067   0.6632 LP             1 S1                 0.0000
     52 ****         2.4526   2.2766  -2.8243 LP             1 S1                 0.0000
     53 ****         3.0406   2.8962  -1.4326 LP             1 S1                 0.0000
     54 ****         1.4884  -5.1394   0.9007 LP             1 S1                 0.0000
     55 ****         3.0513  -5.6117   0.9300 LP             1 S1                 0.0000
@<TRIPOS>BOND
    1    1    2 2     
    2    2    3 1     
    3    2   17 am    
    4    3    4 1     
    5    4    5 1     
    6    4   24 1     
    7    4   25 1     
    8    5    6 1     
    9    5   11 1     
   10    5   26 1     
   11    6   10 1     
   12    6    7 1     
   13    6   27 1     
   14    7    8 1     
   15    7   28 1     
   16    7   29 1     
   17    8    9 1     
   18    8   30 1     
   19    8   31 1     
   20    9   10 1     
   21   10   32 1     
   22   10   33 1     
   23   11   16 1     
   24   11   12 1     
   25   11   47 1     
   26   12   13 1     
   27   12   34 1     
   28   12   35 1     
   29   13   14 1     
   30   13   36 1     
   31   13   37 1     
   32   14   15 1     
   33   15   16 1     
   34   15   38 1     
   35   15   39 1     
   36   16   40 1     
   37   16   41 1     
   38   17   18 1     
   39   17   42 1     
   40   18   23 ar    
   41   18   19 ar    
   42   19   20 ar    
   43   19   43 1     
   44   20   21 ar    
   45   20   44 1     
   46   21   22 ar    
   47   21   48 1     
   48   22   23 ar    
   49   22   45 1     
   50   23   46 1     
   51    1   49 1     
   52    1   50 1     
   53    3   51 1     
   54    9   52 1     
   55    9   53 1     
   56   14   54 1     
   57   14   55 1     
@<TRIPOS>SUBSTRUCTURE
      1 S1             1
@<TRIPOS>SET
LONE_PAIRS      STATIC     ATOMS    <user>   **** ""
7 49 50 51 52 53 54 55
DONOR_HYDROGENS      STATIC     ATOMS    <user>   **** ""
3 47 42 48
ATOM$BLUE        STATIC     ATOMS    COLORGROUP SYSTEM
7 49 50 51 52 53 54 55
ATOM$RED        STATIC     ATOMS    COLORGROUP SYSTEM
3 47 42 48
