AV-unprocessed.smi:1679|AV-procd|sdf|6736|dock8
  -GOLD-   22720 7483D 1   1.00000     0.00000
 Structure written by MMmdl.
 44 45  0  0  0  0  0  0  0  0  2 V2000
  147.5827  133.0394  152.4283 C   0  0  0  0  0  0  0  0  0  0  0  0
  146.5942  133.2436  151.2681 C   0  0  1  0  0  0  0  0  0  0  0  0
  145.8920  131.9174  150.9121 C   0  0  0  0  0  0  0  0  0  0  0  0
  144.8928  132.0932  149.7588 C   0  0  0  0  0  0  0  0  0  0  0  0
  143.8593  133.1797  150.0865 C   0  0  0  0  0  0  0  0  0  0  0  0
  144.5472  134.5090  150.4304 C   0  0  0  0  0  0  0  0  0  0  0  0
  145.5559  134.3435  151.5871 C   0  0  2  0  0  0  0  0  0  0  0  0
  146.2648  135.5601  151.7874 O   0  0  0  0  0  0  0  0  0  0  0  0
  145.4433  136.7044  151.9703 C   0  0  0  0  0  0  0  0  0  0  0  0
  146.3171  137.8668  152.4529 C   0  0  0  0  0  0  0  0  0  0  0  0
  147.2064  137.4273  153.5191 N   0  0  0  0  0  0  0  0  0  0  0  0
  147.2590  137.9750  154.7406 C   0  0  0  0  0  0  0  0  0  0  0  0
  146.5290  138.9021  155.0944 O   0  0  0  0  0  0  0  0  0  0  0  0
  148.2739  137.3561  155.7120 C   0  0  0  0  0  0  0  0  0  0  0  0
  149.6623  137.7527  155.4271 N   0  0  0  0  0  0  0  0  0  0  0  0
  149.9836  139.1186  155.5162 C   0  0  0  0  0  0  0  0  0  0  0  0
  151.2268  139.5737  155.2697 C   0  0  0  0  0  0  0  0  0  0  0  0
  152.2552  138.6081  154.9020 C   0  0  0  0  0  0  0  0  0  0  0  0
  153.3973  139.0051  154.6787 O   0  0  0  0  0  0  0  0  0  0  0  0
  151.8931  137.2941  154.8239 N   0  5  0  0  0  0  0  0  0  0  0  0
  150.6234  136.8461  155.0747 C   0  0  0  0  0  0  0  0  0  0  0  0
  150.3172  135.6557  154.9956 O   0  0  0  0  0  0  0  0  0  0  0  0
  147.0674  132.7334  153.3393 H   0  0  0  0  0  0  0  0  0  0  0  0
  148.1324  133.9549  152.6492 H   0  0  0  0  0  0  0  0  0  0  0  0
  148.3170  132.2704  152.1870 H   0  0  0  0  0  0  0  0  0  0  0  0
  147.1684  133.5623  150.3965 H   0  0  0  0  0  0  0  0  0  0  0  0
  146.6329  131.1649  150.6395 H   0  0  0  0  0  0  0  0  0  0  0  0
  145.3690  131.5307  151.7880 H   0  0  0  0  0  0  0  0  0  0  0  0
  145.4285  132.3593  148.8466 H   0  0  0  0  0  0  0  0  0  0  0  0
  144.3876  131.1481  149.5569 H   0  0  0  0  0  0  0  0  0  0  0  0
  143.1841  133.3178  149.2415 H   0  0  0  0  0  0  0  0  0  0  0  0
  143.2428  132.8581  150.9269 H   0  0  0  0  0  0  0  0  0  0  0  0
  145.0633  134.8888  149.5475 H   0  0  0  0  0  0  0  0  0  0  0  0
  143.7881  135.2482  150.6848 H   0  0  0  0  0  0  0  0  0  0  0  0
  145.0252  134.0618  152.4988 H   0  0  0  0  0  0  0  0  0  0  0  0
  144.9581  136.9768  151.0331 H   0  0  0  0  0  0  0  0  0  0  0  0
  144.6575  136.5020  152.6998 H   0  0  0  0  0  0  0  0  0  0  0  0
  146.9044  138.2685  151.6259 H   0  0  0  0  0  0  0  0  0  0  0  0
  145.6820  138.6741  152.8207 H   0  0  0  0  0  0  0  0  0  0  0  0
  147.8405  136.6711  153.3059 H   0  0  0  0  0  0  0  0  0  0  0  0
  147.9949  137.6494  156.7250 H   0  0  0  0  0  0  0  0  0  0  0  0
  148.1843  136.2680  155.6942 H   0  0  0  0  0  0  0  0  0  0  0  0
  149.1638  139.7672  155.7884 H   0  0  0  0  0  0  0  0  0  0  0  0
  151.4565  140.6268  155.3397 H   0  0  0  0  0  0  0  0  0  0  0  0
  1  2  1  0  0  0  0
  1 23  1  0  0  0  0
  1 24  1  0  0  0  0
  1 25  1  0  0  0  0
  2  7  1  0  0  0  0
  2  3  1  0  0  0  0
  2 26  1  0  0  0  0
  3  4  1  0  0  0  0
  3 27  1  0  0  0  0
  3 28  1  0  0  0  0
  4  5  1  0  0  0  0
  4 29  1  0  0  0  0
  4 30  1  0  0  0  0
  5  6  1  0  0  0  0
  5 31  1  0  0  0  0
  5 32  1  0  0  0  0
  6  7  1  0  0  0  0
  6 33  1  0  0  0  0
  6 34  1  0  0  0  0
  7  8  1  0  0  0  0
  7 35  1  0  0  0  0
  8  9  1  0  0  0  0
  9 10  1  0  0  0  0
  9 36  1  0  0  0  0
  9 37  1  0  0  0  0
 10 11  1  0  0  0  0
 10 38  1  0  0  0  0
 10 39  1  0  0  0  0
 11 12  1  0  0  0  0
 11 40  1  0  0  0  0
 12 13  2  0  0  0  0
 12 14  1  0  0  0  0
 14 15  1  0  0  0  0
 14 41  1  0  0  0  0
 14 42  1  0  0  0  0
 15 21  1  0  0  0  0
 15 16  1  0  0  0  0
 16 17  2  0  0  0  0
 16 43  1  0  0  0  0
 17 18  1  0  0  0  0
 17 44  1  0  0  0  0
 18 19  2  0  0  0  0
 18 20  1  0  0  0  0
 20 21  1  0  0  0  0
 21 22  2  0  0  0  0
M  CHG  1  20  -1
M  END
> <s_m_source_file>
AV-unprocessed.smi

> <i_m_source_file_index>
1679

> <i_lp_mmshare_version>
43012

> <i_f3d_flags>
0

> <s_epik_input>
W0NIM11bQ0BASF0xW0NIMl1bQ0gyXVtDSDJdW0NIMl1bQ0BIXTFPW0NIMl1bQ0gyXVtOSF1DKD1PKVtDSDJdbjJbY0hdW2NIXWMoPU8pW25IXWMyPU8=

> <s_epik_cmdline>
J2VwaWtfcHl0aG9uJywgJy1waCcsICc3LjAnLCAnLXRuJywgJzgnLCAnLW1hJywgJzIwMCcsICctbWV0YWxfYmluZGluZycsICctaW1hZScsICc8aW5maWxlLm1hZT4nLCAnLW9tYWUnLCAnPG91dGZpbGUubWFlPic=

> <r_lp_tautomer_probability>
0.999537

> <r_epik_Ionization_Penalty>
3.07454

> <r_epik_Ionization_Penalty_Charging>
2.80088e-08

> <r_epik_Ionization_Penalty_Neutral>
3.07454

> <r_epik_State_Penalty>
3.07357

> <r_epik_Charging_Adjusted_Penalty>
3.07357

> <i_epik_Tot_Q>
-1

> <i_epik_Tot_abs_Q>
1

> <r_epik_Metal_State_Penalty>
0.45948

> <b_epik_Metal_Only>
1

> <s_lp_Force_Field>
OPLS_2005

> <r_lp_Energy>
20.702

> <b_lp_Chiralities_Consistent>
1

> <s_lp_Variant>
AV-unprocessed.smi:1679-8

> <Gold.Version>
5.8.1

> <Gold.Id.Protein>
6NUR|6NUR_protein|mol2

> <Gold.PLP.Fitness>
44.7594

> <Gold.PLP.PLP>
-34.4549

> <Gold.PLP.part.hbond>
-3.0148

> <Gold.PLP.part.metal>
0.0000

> <Gold.PLP.part.buried>
-5.2153

> <Gold.PLP.part.nonpolar>
-30.0090

> <Gold.PLP.part.repulsive>
2.8195

> <Gold.PLP.ligand.clash>
0.0000

> <Gold.PLP.ligand.torsion>
0.3002

> <Gold.PLP.Chemscore.Hbond>
3.6080

> <Gold.PLP.Chemscore.CHOScore>
0.0000

> <Gold.PLP.Chemscore.Metal>
0.0000

> <Gold.Chemscore.Hbonds>
donor molecule, donor type, donor heavy atom, donor atom, acceptor molecule, acceptor atom, score
      L1  H    11    40       P1  7948  0.70
      P1  H  7997  8009       L1    19  1.00
      P1  H 10752 10764       L1    20  1.89

> <Gold.PLP.Chemscore.Internal.Correction>
0.0809

> <Gold.Rescore>
     Score         DG    S(hbond)    S(metal)    S(lipo)     H(rot)  DE(clash)    DE(int)     intcor
     14.52     -16.12       2.26        0.00      79.95       2.45       1.34       0.26       ----

> <Gold.Chemscore.Fitness>
14.5229

> <Gold.Chemscore.DG>
-16.1214

> <Gold.Chemscore.ZeroCoef>
-5.4800

> <Gold.Chemscore.Hbond>
2.2626

> <Gold.Chemscore.Metal>
0.0000

> <Gold.Chemscore.Lipo>
79.9468

> <Gold.Chemscore.Internal_Hbond>
0.0000

> <Gold.Chemscore.DEClash>
1.3426

> <Gold.Chemscore.DEInternal>
0.2560

> <Gold.Chemscore.Rot>
2.4490

> <Gold.Chemscore.Internal.Correction>
   9.000000E+99

> <Gold.Chemscore.Hbonds>
donor molecule, donor type, donor heavy atom, donor atom, acceptor molecule, acceptor atom, score
      L1  H    11    40       P1  7948  0.70
      P1  H  7997  8009       L1    19  0.96
      P1  H 10752 10764       L1    20  0.39

> <Gold.Chemscore.Hbond.Weighted>
-7.5570

> <Gold.Chemscore.Metal.Weighted>
-0.0000

> <Gold.Chemscore.Lipo.Weighted>
-9.3538

> <Gold.Chemscore.Internal_Hbond.Weighted>
0.0000

> <Gold.Chemscore.DEClash.Weighted>
1.3426

> <Gold.Chemscore.DEInternal.Weighted>
0.2560

> <Gold.Chemscore.Rot.Weighted>
6.2694

> <Gold.Chemscore.Internal.Correction.Weighted>
   9.000000E+99

> <Gold.Protein.RotatedTorsions>
[ 6907 6896 6895 6894 ] final   62.12 input  -60.11 | X-H torsion
[ 7974 7965 7964 7962 ] final  -43.92 input  175.53 | X-H torsion
[ 8008 7997 7996 7995 ] final -133.66 input   59.86 | X-H torsion
[ 10167 10162 10161 10158 ] final   33.38 input  -65.29 | X-H torsion
[ 10718 10713 10712 10709 ] final  132.82 input   66.30 | X-H torsion
[ 10763 10752 10751 10750 ] final  -64.31 input  -60.55 | X-H torsion
[ 11005 11000 10999 10996 ] final  142.56 input  -57.11 | X-H torsion

> <Gold.Protein.ActiveResidues>
 VAL166  LYS551  ARG553  GLY616  TRP617  ASP618  TYR619  PRO620  LYS621  CYS622 
 ASP623  PHE694  ASN695  SER759  ASP760  ASP761  ALA762  ILE779  LEU786  VAL792 
 PHE793  MET794  SER795  GLU796  ALA797  LYS798  CYS799  TRP800  GLU811  SER814 

> <Gold.Protein.RotatedAtoms>
  152.4146  134.6064  160.0013 H   0  0  0  0  0  0  0  0  0  0  0  0  # atno 6907 bound_to 6896
  151.6231  133.3332  159.3100 H   0  0  0  0  0  0  0  0  0  0  0  0  # atno 6908 bound_to 6896
  150.8035  134.7184  159.6689 H   0  0  0  0  0  0  0  0  0  0  0  0  # atno 6909 bound_to 6896
  145.9972  140.7115  142.9288 H   0  0  0  0  0  0  0  0  0  0  0  0  # atno 7974 bound_to 7965
  155.3492  140.0476  157.3046 H   0  0  0  0  0  0  0  0  0  0  0  0  # atno 8008 bound_to 7997
  154.5236  140.2233  155.8895 H   0  0  0  0  0  0  0  0  0  0  0  0  # atno 8009 bound_to 7997
  156.1715  140.3094  155.8989 H   0  0  0  0  0  0  0  0  0  0  0  0  # atno 8010 bound_to 7997
  140.4412  144.1184  150.6174 H   0  0  0  0  0  0  0  0  0  0  0  0  # atno 10167 bound_to 10162
  157.4833  131.1087  150.9653 H   0  0  0  0  0  0  0  0  0  0  0  0  # atno 10718 bound_to 10713
  154.3282  135.6182  153.5539 H   0  0  0  0  0  0  0  0  0  0  0  0  # atno 10763 bound_to 10752
  152.9813  135.5740  154.4992 H   0  0  0  0  0  0  0  0  0  0  0  0  # atno 10764 bound_to 10752
  154.4673  135.2858  155.1645 H   0  0  0  0  0  0  0  0  0  0  0  0  # atno 10765 bound_to 10752
  140.0486  134.9267  157.0976 H   0  0  0  0  0  0  0  0  0  0  0  0  # atno 11005 bound_to 11000
  144.6907  140.3170  143.7238 LP  0  0  0  0  0  0  0  0  0  0  0  0  # atno 17320 bound_to 7965
  145.7542  139.1803  143.2304 LP  0  0  0  0  0  0  0  0  0  0  0  0  # atno 17321 bound_to 7965
  140.4316  143.2566  151.9588 LP  0  0  0  0  0  0  0  0  0  0  0  0  # atno 17342 bound_to 10162
  139.4790  144.5739  151.8044 LP  0  0  0  0  0  0  0  0  0  0  0  0  # atno 17343 bound_to 10162
  157.0379  130.5737  149.5352 LP  0  0  0  0  0  0  0  0  0  0  0  0  # atno 17370 bound_to 10713
  156.0133  130.5226  150.8057 LP  0  0  0  0  0  0  0  0  0  0  0  0  # atno 17371 bound_to 10713
  140.3953  134.2140  155.7165 LP  0  0  0  0  0  0  0  0  0  0  0  0  # atno 17394 bound_to 11000
  141.1919  133.8184  157.0860 LP  0  0  0  0  0  0  0  0  0  0  0  0  # atno 17395 bound_to 11000

$$$$
