#       Name:                AV-unprocessed.smi:1048
#       Creating user name   scv26
#       Creation time:       Fri Mar 27 03:10:23 2020


#       File generated by GOLD software.
#

@<TRIPOS>MOLECULE
AV-unprocessed.smi:1048
    51    52     1
SMALL
NO_CHARGES


@<TRIPOS>ATOM
      1 ****        -4.5663   3.3856  -2.4774 C.3            1 S1                 0.0000
      2 ****        -3.7824   3.5216  -1.1604 C.3            1 S1                 0.0000
      3 ****        -2.2634   3.3531  -1.3497 C.3            1 S1                 0.0000
      4 ****        -1.8641   1.8860  -1.5892 C.3            1 S1                 0.0000
      5 ****        -2.3563   1.0108  -0.4930 N.4            1 S1                 1.0000
      6 ****        -1.8809  -0.3922  -0.6042 C.3            1 S1                 0.0000
      7 ****        -0.4407  -0.5681  -0.0805 C.3            1 S1                 0.0000
      8 ****        -0.4687  -0.2757   1.3030 O.3            1 S1                 0.0000
      9 ****         0.0529  -2.0179  -0.2644 C.3            1 S1                 0.0000
     10 ****         1.5096  -2.1110  -0.2370 N.am           1 S1                 0.0000
     11 ****         2.2496  -2.2595   0.8711 C.2            1 S1                 0.0000
     12 ****         1.7700  -2.2996   2.0034 O.2            1 S1                 0.0000
     13 ****         3.5592  -2.3336   0.5780 N.am           1 S1                 0.0000
     14 ****         4.6537  -2.5274   1.4640 C.ar           1 S1                 0.0000
     15 ****         5.9405  -2.1658   1.0145 C.ar           1 S1                 0.0000
     16 ****         7.0459  -2.3642   1.8635 C.ar           1 S1                 0.0000
     17 ****         6.8213  -2.9287   3.1339 C.ar           1 S1                 0.0000
     18 ****         5.5996  -3.2954   3.5746 N.ar           1 S1                 0.0000
     19 ****         4.5434  -3.1008   2.7557 C.ar           1 S1                 0.0000
     20 ****        -3.8307   1.1007  -0.3397 C.3            1 S1                 0.0000
     21 ****        -4.2746   2.5501  -0.0722 C.3            1 S1                 0.0000
     22 ****        -4.4578   2.3969  -2.9224 H              1 S1                 0.0000
     23 ****        -4.2250   4.1164  -3.2109 H              1 S1                 0.0000
     24 ****        -5.6307   3.5586  -2.3167 H              1 S1                 0.0000
     25 ****        -3.9588   4.5362  -0.8004 H              1 S1                 0.0000
     26 ****        -1.9139   3.9763  -2.1737 H              1 S1                 0.0000
     27 ****        -1.7503   3.7169  -0.4584 H              1 S1                 0.0000
     28 ****        -2.2588   1.5354  -2.5438 H              1 S1                 0.0000
     29 ****        -0.7788   1.8236  -1.6611 H              1 S1                 0.0000
     30 ****        -2.5365  -1.0538  -0.0353 H              1 S1                 0.0000
     31 ****        -1.9572  -0.7156  -1.6434 H              1 S1                 0.0000
     32 ****         0.2381   0.1195  -0.5856 H              1 S1                 0.0000
     33 ****         0.3794  -0.4781   1.6707 H              1 S1                 0.0000
     34 ****        -0.4055  -2.6943   0.4598 H              1 S1                 0.0000
     35 ****        -0.2503  -2.3812  -1.2468 H              1 S1                 0.0000
     36 ****         1.9857  -2.0809  -1.1268 H              1 S1                 0.0000
     37 ****         3.8073  -2.1974  -0.3909 H              1 S1                 0.0000
     38 ****         6.0818  -1.7374   0.0328 H              1 S1                 0.0000
     39 ****         8.0422  -2.0912   1.5486 H              1 S1                 0.0000
     40 ****         7.6454  -3.0955   3.8116 H              1 S1                 0.0000
     41 ****         3.5996  -3.4384   3.1538 H              1 S1                 0.0000
     42 ****        -4.3186   0.7053  -1.2317 H              1 S1                 0.0000
     43 ****        -4.1500   0.4761   0.4956 H              1 S1                 0.0000
     44 ****        -3.8790   2.8669   0.8938 H              1 S1                 0.0000
     45 ****        -5.3604   2.5993   0.0167 H              1 S1                 0.0000
     46 ****        -1.9666   1.3673   0.3683 H              1 S1                 0.0000
     47 ****        -1.1710  -0.8294   1.7505 LP             1 S1                 0.0000
     48 ****        -0.6722   0.6940   1.4386 LP             1 S1                 0.0000
     49 ****         0.7814  -2.2196   2.1308 LP             1 S1                 0.0000
     50 ****         2.3688  -2.4121   2.7964 LP             1 S1                 0.0000
     51 ****         5.4798  -3.6996   4.4814 LP             1 S1                 0.0000
@<TRIPOS>BOND
    1    1    2 1     
    2    1   22 1     
    3    1   23 1     
    4    1   24 1     
    5    2   21 1     
    6    2    3 1     
    7    2   25 1     
    8    3    4 1     
    9    3   26 1     
   10    3   27 1     
   11    4    5 1     
   12    4   28 1     
   13    4   29 1     
   14    5    6 1     
   15    5   20 1     
   16    5   46 1     
   17    6    7 1     
   18    6   30 1     
   19    6   31 1     
   20    7    8 1     
   21    7    9 1     
   22    7   32 1     
   23    8   33 1     
   24    9   10 1     
   25    9   34 1     
   26    9   35 1     
   27   10   11 am    
   28   10   36 1     
   29   11   12 2     
   30   11   13 am    
   31   13   14 1     
   32   13   37 1     
   33   14   19 ar    
   34   14   15 ar    
   35   15   16 ar    
   36   15   38 1     
   37   16   17 ar    
   38   16   39 1     
   39   17   18 ar    
   40   17   40 1     
   41   18   19 ar    
   42   19   41 1     
   43   20   21 1     
   44   20   42 1     
   45   20   43 1     
   46   21   44 1     
   47   21   45 1     
   48    8   47 1     
   49    8   48 1     
   50   12   49 1     
   51   12   50 1     
   52   18   51 1     
@<TRIPOS>SUBSTRUCTURE
      1 S1             1
@<TRIPOS>SET
LONE_PAIRS      STATIC     ATOMS    <user>   **** ""
5 47 48 49 50 51
DONOR_HYDROGENS      STATIC     ATOMS    <user>   **** ""
4 46 33 36 37
ATOM$BLUE        STATIC     ATOMS    COLORGROUP SYSTEM
5 47 48 49 50 51
ATOM$RED        STATIC     ATOMS    COLORGROUP SYSTEM
4 46 33 36 37
