AV-unprocessed.smi:104|AV-procd|sdf|1002|dock4
  -GOLD-   2262017593D 1   1.00000     0.00000
 Structure written by MMmdl.
 47 49  0  0  0  0  0  0  0  0  1 V2000
  154.7139  136.2394  158.0825 C   0  0  0  0  0  0  0  0  0  0  0  0
  153.7587  137.1559  158.8351 C   0  0  0  0  0  0  0  0  0  0  0  0
  153.0097  136.7259  159.7123 O   0  0  0  0  0  0  0  0  0  0  0  0
  153.8473  138.4288  158.4276 O   0  0  0  0  0  0  0  0  0  0  0  0
  152.9229  139.3899  158.9113 C   0  0  0  0  0  0  0  0  0  0  0  0
  152.5438  140.3737  157.7958 C   0  0  1  0  0  0  0  0  0  0  0  0
  152.0052  139.6905  156.6762 O   0  0  0  0  0  0  0  0  0  0  0  0
  151.2666  140.5903  155.9112 C   0  0  1  0  0  0  0  0  0  0  0  0
  150.0552  139.8671  155.4044 N   0  0  0  0  0  0  0  0  0  0  0  0
  149.6780  138.5580  155.6011 C   0  0  0  0  0  0  0  0  0  0  0  0
  150.7235  137.3365  156.6219 Br  0  0  0  0  0  0  0  0  0  0  0  0
  148.5673  138.1674  155.0411 N   0  0  0  0  0  0  0  0  0  0  0  0
  148.1342  139.3143  154.3876 C   0  0  0  0  0  0  0  0  0  0  0  0
  147.0125  139.6226  153.5770 C   0  0  0  0  0  0  0  0  0  0  0  0
  146.0588  138.7298  153.2783 N   0  0  0  0  0  0  0  0  0  0  0  0
  146.8994  140.8757  153.0777 N   0  0  0  0  0  0  0  0  0  0  0  0
  147.8389  141.7844  153.3583 C   0  0  0  0  0  0  0  0  0  0  0  0
  148.9399  141.6457  154.1011 N   0  0  0  0  0  0  0  0  0  0  0  0
  149.0526  140.3822  154.6062 C   0  0  0  0  0  0  0  0  0  0  0  0
  150.9139  141.8042  156.8027 C   0  0  1  0  0  0  0  0  0  0  0  0
  149.5105  142.0392  156.8734 O   0  0  0  0  0  0  0  0  0  0  0  0
  148.7077  141.1842  157.5251 C   0  0  0  0  0  0  0  0  0  0  0  0
  147.2770  141.6958  157.6202 C   0  0  0  0  0  0  0  0  0  0  0  0
  149.0387  140.1008  158.0067 O   0  0  0  0  0  0  0  0  0  0  0  0
  151.4763  141.4069  158.1615 C   0  0  2  0  0  0  0  0  0  0  0  0
  152.0472  142.5455  158.7925 O   0  0  0  0  0  0  0  0  0  0  0  0
  151.2618  143.4360  159.4214 C   0  0  0  0  0  0  0  0  0  0  0  0
  152.0508  144.6167  159.9706 C   0  0  0  0  0  0  0  0  0  0  0  0
  150.0422  143.3532  159.5683 O   0  0  0  0  0  0  0  0  0  0  0  0
  154.5301  136.2990  157.0097 H   0  0  0  0  0  0  0  0  0  0  0  0
  154.5826  135.2047  158.3992 H   0  0  0  0  0  0  0  0  0  0  0  0
  155.7461  136.5312  158.2752 H   0  0  0  0  0  0  0  0  0  0  0  0
  152.0255  138.8838  159.2702 H   0  0  0  0  0  0  0  0  0  0  0  0
  153.3547  139.9261  159.7572 H   0  0  0  0  0  0  0  0  0  0  0  0
  153.4429  140.8882  157.4515 H   0  0  0  0  0  0  0  0  0  0  0  0
  151.8310  140.8729  155.0235 H   0  0  0  0  0  0  0  0  0  0  0  0
  146.1217  137.7874  153.6365 H   0  0  0  0  0  0  0  0  0  0  0  0
  145.2783  139.0004  152.6977 H   0  0  0  0  0  0  0  0  0  0  0  0
  147.6883  142.7615  152.9237 H   0  0  0  0  0  0  0  0  0  0  0  0
  151.4456  142.6655  156.3950 H   0  0  0  0  0  0  0  0  0  0  0  0
  147.2310  142.5705  158.2691 H   0  0  0  0  0  0  0  0  0  0  0  0
  146.6208  140.9268  158.0281 H   0  0  0  0  0  0  0  0  0  0  0  0
  146.9084  141.9763  156.6332 H   0  0  0  0  0  0  0  0  0  0  0  0
  150.6828  140.9505  158.7554 H   0  0  0  0  0  0  0  0  0  0  0  0
  152.7100  144.2898  160.7746 H   0  0  0  0  0  0  0  0  0  0  0  0
  151.3769  145.3782  160.3637 H   0  0  0  0  0  0  0  0  0  0  0  0
  152.6582  145.0656  159.1844 H   0  0  0  0  0  0  0  0  0  0  0  0
  1  2  1  0  0  0  0
  1 30  1  0  0  0  0
  1 31  1  0  0  0  0
  1 32  1  0  0  0  0
  2  3  2  0  0  0  0
  2  4  1  0  0  0  0
  4  5  1  0  0  0  0
  5  6  1  0  0  0  0
  5 33  1  0  0  0  0
  5 34  1  0  0  0  0
  6 25  1  0  0  0  0
  6  7  1  0  0  0  0
  6 35  1  0  0  0  0
  7  8  1  0  0  0  0
  8  9  1  0  0  0  0
  8 20  1  0  0  0  0
  8 36  1  0  0  0  0
  9 19  1  0  0  0  0
  9 10  1  0  0  0  0
 10 11  1  0  0  0  0
 10 12  2  0  0  0  0
 12 13  1  0  0  0  0
 13 19  2  0  0  0  0
 13 14  1  0  0  0  0
 14 15  1  0  0  0  0
 14 16  2  0  0  0  0
 15 37  1  0  0  0  0
 15 38  1  0  0  0  0
 16 17  1  0  0  0  0
 17 18  2  0  0  0  0
 17 39  1  0  0  0  0
 18 19  1  0  0  0  0
 20 21  1  0  0  0  0
 20 25  1  0  0  0  0
 20 40  1  0  0  0  0
 21 22  1  0  0  0  0
 22 23  1  0  0  0  0
 22 24  2  0  0  0  0
 23 41  1  0  0  0  0
 23 42  1  0  0  0  0
 23 43  1  0  0  0  0
 25 26  1  0  0  0  0
 25 44  1  0  0  0  0
 26 27  1  0  0  0  0
 27 28  1  0  0  0  0
 27 29  2  0  0  0  0
 28 45  1  0  0  0  0
 28 46  1  0  0  0  0
 28 47  1  0  0  0  0
M  END
> <s_m_source_file>
AV-unprocessed.smi

> <i_m_source_file_index>
104

> <i_lp_mmshare_version>
43012

> <i_f3d_flags>
0

> <s_epik_input>
W0NIM11DKD1PKU9bQ0gyXVtDQEBIXTFPW0NASF0oW0NAQEhdKE9DKD1PKVtDSDNdKVtDQEhdMU9DKD1PKVtDSDNdKW4oYyhCciluMiljKGMyMyluW2NIXW5jM1tOSDJd

> <s_epik_cmdline>
J2VwaWtfcHl0aG9uJywgJy1waCcsICc3LjAnLCAnLXRuJywgJzgnLCAnLW1hJywgJzIwMCcsICctbWV0YWxfYmluZGluZycsICctaW1hZScsICc8aW5maWxlLm1hZT4nLCAnLW9tYWUnLCAnPG91dGZpbGUubWFlPic=

> <r_lp_tautomer_probability>
1

> <r_epik_Ionization_Penalty>
7.36622e-05

> <r_epik_Ionization_Penalty_Charging>
0

> <r_epik_Ionization_Penalty_Neutral>
7.36622e-05

> <r_epik_State_Penalty>
-0

> <r_epik_Charging_Adjusted_Penalty>
0

> <i_epik_Tot_Q>
0

> <i_epik_Tot_abs_Q>
0

> <r_epik_Metal_State_Penalty>
-0

> <b_epik_Metal_Only>
0

> <s_epik_Chemistry_Notes>
This compound has an ester and may undergo hydrolysis at high or low pH. This compound contains an acetal/aminal-like group ( X-CH(R)-Y where X, Y are N, S, or O) that may be acid/base labile, releasing an aldehyde.

> <s_lp_Force_Field>
OPLS_2005

> <r_lp_Energy>
14.3188

> <b_lp_Chiralities_Consistent>
1

> <s_lp_Variant>
AV-unprocessed.smi:104-10

> <Gold.Version>
5.8.1

> <Gold.Id.Protein>
6NUR|6NUR_protein|mol2

> <Gold.PLP.Fitness>
38.9013

> <Gold.PLP.PLP>
-33.8807

> <Gold.PLP.part.hbond>
-4.5966

> <Gold.PLP.part.metal>
0.0000

> <Gold.PLP.part.buried>
-6.9087

> <Gold.PLP.part.nonpolar>
-23.1922

> <Gold.PLP.part.repulsive>
1.6881

> <Gold.PLP.ligand.clash>
0.0000

> <Gold.PLP.ligand.torsion>
0.5850

> <Gold.PLP.Chemscore.Hbond>
2.0265

> <Gold.PLP.Chemscore.CHOScore>
0.0000

> <Gold.PLP.Chemscore.Metal>
0.0000

> <Gold.Chemscore.Hbonds>
donor molecule, donor type, donor heavy atom, donor atom, acceptor molecule, acceptor atom, score
      L1  H    15    38       P1 10175  0.56
      P1  H  6896  6907       L1     3  1.00

> <Gold.PLP.Chemscore.Internal.Correction>
0.1112

> <Gold.Rescore>
     Score         DG    S(hbond)    S(metal)    S(lipo)     H(rot)  DE(clash)    DE(int)     intcor
     -4.92      -6.46       1.99        0.00      45.75       4.31       1.34      10.05       ----

> <Gold.Chemscore.Fitness>
-4.9242

> <Gold.Chemscore.DG>
-6.4596

> <Gold.Chemscore.ZeroCoef>
-5.4800

> <Gold.Chemscore.Hbond>
1.9918

> <Gold.Chemscore.Metal>
0.0000

> <Gold.Chemscore.Lipo>
45.7524

> <Gold.Chemscore.Internal_Hbond>
0.0000

> <Gold.Chemscore.DEClash>
1.3378

> <Gold.Chemscore.DEInternal>
10.0459

> <Gold.Chemscore.Rot>
4.3070

> <Gold.Chemscore.Internal.Correction>
   9.000000E+99

> <Gold.Chemscore.Hbonds>
donor molecule, donor type, donor heavy atom, donor atom, acceptor molecule, acceptor atom, score
      L1  H    15    38       P1 10175  0.54
      P1  H  6896  6907       L1     3  0.98

> <Gold.Chemscore.Hbond.Weighted>
-6.6525

> <Gold.Chemscore.Metal.Weighted>
-0.0000

> <Gold.Chemscore.Lipo.Weighted>
-5.3530

> <Gold.Chemscore.Internal_Hbond.Weighted>
0.0000

> <Gold.Chemscore.DEClash.Weighted>
1.3378

> <Gold.Chemscore.DEInternal.Weighted>
10.0459

> <Gold.Chemscore.Rot.Weighted>
11.0259

> <Gold.Chemscore.Internal.Correction.Weighted>
   9.000000E+99

> <Gold.Protein.RotatedTorsions>
[ 6907 6896 6895 6894 ] final   30.06 input  -60.11 | X-H torsion
[ 7974 7965 7964 7962 ] final  -89.57 input  175.53 | X-H torsion
[ 8008 7997 7996 7995 ] final -157.47 input   59.86 | X-H torsion
[ 10167 10162 10161 10158 ] final -144.22 input  -65.29 | X-H torsion
[ 10718 10713 10712 10709 ] final -148.13 input   66.30 | X-H torsion
[ 10763 10752 10751 10750 ] final  -90.51 input  -60.55 | X-H torsion
[ 11005 11000 10999 10996 ] final -159.71 input  -57.11 | X-H torsion

> <Gold.Protein.ActiveResidues>
 VAL166  LYS551  ARG553  GLY616  TRP617  ASP618  TYR619  PRO620  LYS621  CYS622 
 ASP623  PHE694  ASN695  SER759  ASP760  ASP761  ALA762  ILE779  LEU786  VAL792 
 PHE793  MET794  SER795  GLU796  ALA797  LYS798  CYS799  TRP800  GLU811  SER814 

> <Gold.Protein.RotatedAtoms>
  152.0405  134.9714  160.0573 H   0  0  0  0  0  0  0  0  0  0  0  0  # atno 6907 bound_to 6896
  152.1155  133.4319  159.4659 H   0  0  0  0  0  0  0  0  0  0  0  0  # atno 6908 bound_to 6896
  150.6846  134.2516  159.4556 H   0  0  0  0  0  0  0  0  0  0  0  0  # atno 6909 bound_to 6896
  145.4380  140.9558  143.2091 H   0  0  0  0  0  0  0  0  0  0  0  0  # atno 7974 bound_to 7965
  155.7328  140.0804  157.2281 H   0  0  0  0  0  0  0  0  0  0  0  0  # atno 8008 bound_to 7997
  154.4031  140.1592  156.2583 H   0  0  0  0  0  0  0  0  0  0  0  0  # atno 8009 bound_to 7997
  155.9093  140.3405  155.6089 H   0  0  0  0  0  0  0  0  0  0  0  0  # atno 8010 bound_to 7997
  139.7919  143.7954  152.2650 H   0  0  0  0  0  0  0  0  0  0  0  0  # atno 10167 bound_to 10162
  156.4163  130.8006  151.2227 H   0  0  0  0  0  0  0  0  0  0  0  0  # atno 10718 bound_to 10713
  154.6665  135.5302  153.8083 H   0  0  0  0  0  0  0  0  0  0  0  0  # atno 10763 bound_to 10752
  153.0474  135.6518  154.0791 H   0  0  0  0  0  0  0  0  0  0  0  0  # atno 10764 bound_to 10752
  154.0695  135.2955  155.3290 H   0  0  0  0  0  0  0  0  0  0  0  0  # atno 10765 bound_to 10752
  140.6396  134.4565  157.5233 H   0  0  0  0  0  0  0  0  0  0  0  0  # atno 11005 bound_to 11000
  144.8140  139.5910  143.7017 LP  0  0  0  0  0  0  0  0  0  0  0  0  # atno 17320 bound_to 7965
  146.2572  139.6328  142.9387 LP  0  0  0  0  0  0  0  0  0  0  0  0  # atno 17321 bound_to 7965
  139.8048  144.7360  150.9776 LP  0  0  0  0  0  0  0  0  0  0  0  0  # atno 17342 bound_to 10162
  140.7820  143.4309  151.0696 LP  0  0  0  0  0  0  0  0  0  0  0  0  # atno 17343 bound_to 10162
  157.7508  131.0242  150.3866 LP  0  0  0  0  0  0  0  0  0  0  0  0  # atno 17370 bound_to 10713
  156.4174  130.3946  149.6849 LP  0  0  0  0  0  0  0  0  0  0  0  0  # atno 17371 bound_to 10713
  139.9085  134.8396  156.1615 LP  0  0  0  0  0  0  0  0  0  0  0  0  # atno 17394 bound_to 11000
  141.0617  133.6839  156.1965 LP  0  0  0  0  0  0  0  0  0  0  0  0  # atno 17395 bound_to 11000

$$$$
