AV-unprocessed.smi:3|AV-procd|sdf|32|dock2
  -GOLD-   2262015143D 1   1.00000     0.00000
 Structure written by MMmdl.
 33 35  0  0  0  0  0  0  0  0  1 V2000
  152.4600  138.9054  158.9755 C   0  0  0  0  0  0  0  0  0  0  0  0
  152.0964  140.2155  158.4556 N   0  0  0  0  0  0  0  0  0  0  0  0
  151.0493  140.3098  157.4418 C   0  0  0  0  0  0  0  0  0  0  0  0
  150.8195  138.9791  156.7282 C   0  0  1  0  0  0  0  0  0  0  0  0
  150.0432  138.9430  155.4028 C   0  0  0  0  0  0  0  0  0  0  0  0
  151.0197  137.8855  154.8809 C   0  0  2  0  0  0  0  0  0  0  0  0
  150.5818  136.5441  154.8981 O   0  0  0  0  0  0  0  0  0  0  0  0
  151.9881  138.3146  155.9876 C   0  0  0  0  0  0  0  0  0  0  0  0
  152.4148  141.3824  159.1817 C   0  0  0  0  0  0  0  0  0  0  0  0
  153.0776  141.2173  160.3542 N   0  0  0  0  0  0  0  0  0  0  0  0
  153.3940  142.3279  161.0660 C   0  0  0  0  0  0  0  0  0  0  0  0
  153.1356  143.6204  160.7516 N   0  0  0  0  0  0  0  0  0  0  0  0
  152.4793  143.8133  159.5696 C   0  0  0  0  0  0  0  0  0  0  0  0
  152.1239  144.9690  159.0181 N   0  0  0  0  0  0  0  0  0  0  0  0
  151.5308  144.6628  157.8527 C   0  0  0  0  0  0  0  0  0  0  0  0
  151.4786  143.2403  157.5934 C   0  0  0  0  0  0  0  0  0  0  0  0
  152.1054  142.7088  158.7640 C   0  0  0  0  0  0  0  0  0  0  0  0
  150.3883  138.2397  157.4057 H   0  0  0  0  0  0  0  0  0  0  0  0
  151.3994  138.1252  153.8872 H   0  0  0  0  0  0  0  0  0  0  0  0
  153.3781  138.9510  159.5619 H   0  0  0  0  0  0  0  0  0  0  0  0
  152.6306  138.2113  158.1521 H   0  0  0  0  0  0  0  0  0  0  0  0
  151.6606  138.4988  159.5946 H   0  0  0  0  0  0  0  0  0  0  0  0
  150.1198  140.6769  157.8775 H   0  0  0  0  0  0  0  0  0  0  0  0
  151.3476  141.0679  156.7172 H   0  0  0  0  0  0  0  0  0  0  0  0
  149.0101  138.6080  155.5027 H   0  0  0  0  0  0  0  0  0  0  0  0
  150.1047  139.8796  154.8463 H   0  0  0  0  0  0  0  0  0  0  0  0
  150.0443  136.4186  154.1311 H   0  0  0  0  0  0  0  0  0  0  0  0
  152.7323  139.0306  155.6357 H   0  0  0  0  0  0  0  0  0  0  0  0
  152.4534  137.4934  156.5337 H   0  0  0  0  0  0  0  0  0  0  0  0
  153.9175  142.1612  161.9957 H   0  0  0  0  0  0  0  0  0  0  0  0
  151.1494  145.4363  157.1976 H   0  0  0  0  0  0  0  0  0  0  0  0
  151.0705  142.7321  156.7301 H   0  0  0  0  0  0  0  0  0  0  0  0
  153.4357  144.3541  161.3773 H   0  0  0  0  0  0  0  0  0  0  0  0
  1  2  1  0  0  0  0
  1 20  1  0  0  0  0
  1 21  1  0  0  0  0
  1 22  1  0  0  0  0
  2  3  1  0  0  0  0
  2  9  1  0  0  0  0
  3  4  1  0  0  0  0
  3 23  1  0  0  0  0
  3 24  1  0  0  0  0
  4 18  1  0  0  0  0
  4  8  1  0  0  0  0
  4  5  1  0  0  0  0
  5  6  1  0  0  0  0
  5 25  1  0  0  0  0
  5 26  1  0  0  0  0
  6 19  1  0  0  0  0
  6  7  1  0  0  0  0
  6  8  1  0  0  0  0
  7 27  1  0  0  0  0
  8 28  1  0  0  0  0
  8 29  1  0  0  0  0
  9 17  2  0  0  0  0
  9 10  1  0  0  0  0
 10 11  2  0  0  0  0
 11 12  1  0  0  0  0
 11 30  1  0  0  0  0
 12 13  1  0  0  0  0
 12 33  1  0  0  0  0
 13 17  1  0  0  0  0
 13 14  2  0  0  0  0
 14 15  1  0  0  0  0
 15 16  2  0  0  0  0
 15 31  1  0  0  0  0
 16 17  1  0  0  0  0
 16 32  1  0  0  0  0
M  END
> <s_m_source_file>
AV-unprocessed.smi

> <i_m_source_file_index>
3

> <i_lp_mmshare_version>
43012

> <i_f3d_flags>
0

> <s_epik_input>
W25IXTFbY0hdW2NIXWMoYzEyKWMobltjSF1uMilOKFtDSDNdKVtDSDJdW0NASF0zW0NIMl1bQ0BASF0oW09IXSlbQ0gyXTM=

> <s_epik_cmdline>
J2VwaWtfcHl0aG9uJywgJy1waCcsICc3LjAnLCAnLXRuJywgJzgnLCAnLW1hJywgJzIwMCcsICctbWV0YWxfYmluZGluZycsICctaW1hZScsICc8aW5maWxlLm1hZT4nLCAnLW9tYWUnLCAnPG91dGZpbGUubWFlPic=

> <r_lp_tautomer_probability>
1.75997e-05

> <r_epik_Ionization_Penalty>
5.52529

> <r_epik_Ionization_Penalty_Charging>
0

> <r_epik_Ionization_Penalty_Neutral>
5.52529

> <r_epik_State_Penalty>
8.99615

> <r_epik_Charging_Adjusted_Penalty>
8.99615

> <i_epik_Tot_Q>
0

> <i_epik_Tot_abs_Q>
0

> <r_epik_Metal_State_Penalty>
6.01519

> <b_epik_Metal_Only>
1

> <s_lp_Force_Field>
OPLS_2005

> <r_lp_Energy>
26.4435

> <b_lp_Chiralities_Consistent>
1

> <s_lp_Variant>
AV-unprocessed.smi:3-6

> <Gold.Version>
5.8.1

> <Gold.Id.Protein>
6NUR|6NUR_protein|mol2

> <Gold.PLP.Fitness>
44.9366

> <Gold.PLP.PLP>
-37.7447

> <Gold.PLP.part.hbond>
-2.0000

> <Gold.PLP.part.metal>
0.0000

> <Gold.PLP.part.buried>
-5.2337

> <Gold.PLP.part.nonpolar>
-30.3806

> <Gold.PLP.part.repulsive>
0.1174

> <Gold.PLP.ligand.clash>
1.1392

> <Gold.PLP.ligand.torsion>
0.2833

> <Gold.PLP.Chemscore.Hbond>
2.0000

> <Gold.PLP.Chemscore.CHOScore>
0.4551

> <Gold.PLP.Chemscore.Metal>
0.0000

> <Gold.Chemscore.Hbonds>
donor molecule, donor type, donor heavy atom, donor atom, acceptor molecule, acceptor atom, score
      L1  C    15    31       P1  8028  0.29

> <Gold.PLP.Chemscore.Internal.Correction>
1.5322

> <Gold.Rescore>
     Score         DG    S(hbond)    S(metal)    S(lipo)     H(rot)  DE(clash)    DE(int)     intcor
     13.16     -14.67       1.54        0.00      74.70       1.84       0.16       1.35       ----

> <Gold.Chemscore.Fitness>
13.1632

> <Gold.Chemscore.DG>
-14.6699

> <Gold.Chemscore.ZeroCoef>
-5.4800

> <Gold.Chemscore.Hbond>
1.5446

> <Gold.Chemscore.Metal>
0.0000

> <Gold.Chemscore.Lipo>
74.7048

> <Gold.Chemscore.Internal_Hbond>
0.0000

> <Gold.Chemscore.DEClash>
0.1560

> <Gold.Chemscore.DEInternal>
1.3508

> <Gold.Chemscore.Rot>
1.8396

> <Gold.Chemscore.Internal.Correction>
   9.000000E+99

> <Gold.Chemscore.Hbonds>
donor molecule, donor type, donor heavy atom, donor atom, acceptor molecule, acceptor atom, score
      L1  H     7    27       P1  7948  0.01

> <Gold.Chemscore.Hbond.Weighted>
-5.1589

> <Gold.Chemscore.Metal.Weighted>
-0.0000

> <Gold.Chemscore.Lipo.Weighted>
-8.7405

> <Gold.Chemscore.Internal_Hbond.Weighted>
0.0000

> <Gold.Chemscore.DEClash.Weighted>
0.1560

> <Gold.Chemscore.DEInternal.Weighted>
1.3508

> <Gold.Chemscore.Rot.Weighted>
4.7095

> <Gold.Chemscore.Internal.Correction.Weighted>
   9.000000E+99

> <Gold.Protein.RotatedTorsions>
[ 6907 6896 6895 6894 ] final  -29.85 input  -60.11 | X-H torsion
[ 7974 7965 7964 7962 ] final    5.65 input  175.53 | X-H torsion
[ 8008 7997 7996 7995 ] final  -48.97 input   59.86 | X-H torsion
[ 10167 10162 10161 10158 ] final  109.82 input  -65.29 | X-H torsion
[ 10718 10713 10712 10709 ] final  -67.05 input   66.30 | X-H torsion
[ 10763 10752 10751 10750 ] final  164.36 input  -60.55 | X-H torsion
[ 11005 11000 10999 10996 ] final  -46.62 input  -57.11 | X-H torsion

> <Gold.Protein.ActiveResidues>
 VAL166  LYS551  ARG553  GLY616  TRP617  ASP618  TYR619  PRO620  LYS621  CYS622 
 ASP623  PHE694  ASN695  SER759  ASP760  ASP761  ALA762  ILE779  LEU786  VAL792 
 PHE793  MET794  SER795  GLU796  ALA797  LYS798  CYS799  TRP800  GLU811  SER814 

> <Gold.Protein.RotatedAtoms>
  151.1136  135.0040  159.8505 H   0  0  0  0  0  0  0  0  0  0  0  0  # atno 6907 bound_to 6896
  152.5444  134.1807  159.8644 H   0  0  0  0  0  0  0  0  0  0  0  0  # atno 6908 bound_to 6896
  151.1859  133.4652  159.2627 H   0  0  0  0  0  0  0  0  0  0  0  0  # atno 6909 bound_to 6896
  146.2439  140.0352  142.8386 H   0  0  0  0  0  0  0  0  0  0  0  0  # atno 7974 bound_to 7965
  154.4036  140.1308  156.4425 H   0  0  0  0  0  0  0  0  0  0  0  0  # atno 8008 bound_to 7997
  155.7445  140.3489  155.5100 H   0  0  0  0  0  0  0  0  0  0  0  0  # atno 8009 bound_to 7997
  155.9008  140.1019  157.1341 H   0  0  0  0  0  0  0  0  0  0  0  0  # atno 8010 bound_to 7997
  139.6736  144.7123  151.1642 H   0  0  0  0  0  0  0  0  0  0  0  0  # atno 10167 bound_to 10162
  156.0579  130.4271  150.1797 H   0  0  0  0  0  0  0  0  0  0  0  0  # atno 10718 bound_to 10713
  154.3078  135.2758  155.2580 H   0  0  0  0  0  0  0  0  0  0  0  0  # atno 10763 bound_to 10752
  154.4989  135.5813  153.6519 H   0  0  0  0  0  0  0  0  0  0  0  0  # atno 10764 bound_to 10752
  152.9892  135.6153  154.3253 H   0  0  0  0  0  0  0  0  0  0  0  0  # atno 10765 bound_to 10752
  141.0590  133.6716  156.3180 H   0  0  0  0  0  0  0  0  0  0  0  0  # atno 11005 bound_to 11000
  145.1119  140.9410  143.4651 LP  0  0  0  0  0  0  0  0  0  0  0  0  # atno 17320 bound_to 7965
  145.0567  139.3138  143.5901 LP  0  0  0  0  0  0  0  0  0  0  0  0  # atno 17321 bound_to 7965
  140.7627  143.5805  150.8900 LP  0  0  0  0  0  0  0  0  0  0  0  0  # atno 17342 bound_to 10162
  139.9472  143.6313  152.3038 LP  0  0  0  0  0  0  0  0  0  0  0  0  # atno 17343 bound_to 10162
  156.9871  130.9882  151.3424 LP  0  0  0  0  0  0  0  0  0  0  0  0  # atno 17370 bound_to 10713
  157.5564  130.8216  149.8209 LP  0  0  0  0  0  0  0  0  0  0  0  0  # atno 17371 bound_to 10713
  140.5907  134.5654  157.5499 LP  0  0  0  0  0  0  0  0  0  0  0  0  # atno 17394 bound_to 11000
  139.9415  134.7778  156.0666 LP  0  0  0  0  0  0  0  0  0  0  0  0  # atno 17395 bound_to 11000

$$$$
