AV-unprocessed.smi:760|AV-procd|sdf|3629|dock2
  -GOLD-   22720 1 23D 1   1.00000     0.00000
 Structure written by MMmdl.
 43 44  0  0  0  0  0  0  0  0  1 V2000
  152.4400  140.5821  159.3701 C   0  0  0  0  0  0  0  0  0  0  0  0
  151.9847  141.7716  158.9437 C   0  0  0  0  0  0  0  0  0  0  0  0
  152.4233  143.0765  159.5839 C   0  0  0  0  0  0  0  0  0  0  0  0
  150.9777  141.8797  157.8080 C   0  0  0  0  0  0  0  0  0  0  0  0
  150.6819  140.6087  157.1421 N   0  0  0  0  0  0  0  0  0  0  0  0
  151.6504  140.2729  156.0934 C   0  0  0  0  0  0  0  0  0  0  0  0
  151.3210  138.9075  155.4643 C   0  0  0  0  0  0  0  0  0  0  0  0
  149.8985  138.8836  154.8879 C   0  0  0  0  0  0  0  0  0  0  0  0
  149.5776  137.5388  154.4196 N   0  0  0  0  0  0  0  0  0  0  0  0
  149.4886  136.4492  155.1953 C   0  0  0  0  0  0  0  0  0  0  0  0
  149.6678  136.4628  156.4133 O   0  0  0  0  0  0  0  0  0  0  0  0
  149.1844  135.3598  154.4712 N   0  0  0  0  0  0  0  0  0  0  0  0
  149.0143  134.0330  154.9410 C   0  0  0  0  0  0  0  0  0  0  0  0
  149.2448  133.6119  156.2765 C   0  0  0  0  0  0  0  0  0  0  0  0
  149.0035  132.3175  156.4194 N   0  0  0  0  0  0  0  0  0  0  0  0
  148.6170  131.8954  155.1908 N   0  0  0  0  0  0  0  0  0  0  0  0
  148.2736  130.5030  154.9960 C   0  0  0  0  0  0  0  0  0  0  0  0
  148.6123  132.9172  154.2623 C   0  0  0  0  0  0  0  0  0  0  0  0
  148.9120  139.3367  155.9767 C   0  0  0  0  0  0  0  0  0  0  0  0
  149.3340  140.6895  156.5743 C   0  0  0  0  0  0  0  0  0  0  0  0
  153.1470  140.5089  160.1836 H   0  0  0  0  0  0  0  0  0  0  0  0
  152.1109  139.6623  158.9091 H   0  0  0  0  0  0  0  0  0  0  0  0
  151.5668  143.5737  160.0397 H   0  0  0  0  0  0  0  0  0  0  0  0
  152.8561  143.7552  158.8501 H   0  0  0  0  0  0  0  0  0  0  0  0
  153.1667  142.9048  160.3631 H   0  0  0  0  0  0  0  0  0  0  0  0
  150.0501  142.2766  158.2232 H   0  0  0  0  0  0  0  0  0  0  0  0
  151.3331  142.6142  157.0833 H   0  0  0  0  0  0  0  0  0  0  0  0
  151.6623  141.0529  155.3306 H   0  0  0  0  0  0  0  0  0  0  0  0
  152.6532  140.2134  156.5143 H   0  0  0  0  0  0  0  0  0  0  0  0
  152.0449  138.6802  154.6808 H   0  0  0  0  0  0  0  0  0  0  0  0
  151.4303  138.1286  156.2209 H   0  0  0  0  0  0  0  0  0  0  0  0
  149.8535  139.5811  154.0490 H   0  0  0  0  0  0  0  0  0  0  0  0
  149.4130  137.4315  153.4296 H   0  0  0  0  0  0  0  0  0  0  0  0
  149.0637  135.4928  153.4778 H   0  0  0  0  0  0  0  0  0  0  0  0
  149.5725  134.1888  157.1287 H   0  0  0  0  0  0  0  0  0  0  0  0
  147.9089  130.3462  153.9804 H   0  0  0  0  0  0  0  0  0  0  0  0
  147.4942  130.2117  155.7009 H   0  0  0  0  0  0  0  0  0  0  0  0
  149.1543  129.8805  155.1569 H   0  0  0  0  0  0  0  0  0  0  0  0
  148.3301  132.7565  153.2324 H   0  0  0  0  0  0  0  0  0  0  0  0
  147.9060  139.4179  155.5639 H   0  0  0  0  0  0  0  0  0  0  0  0
  148.8613  138.5898  156.7706 H   0  0  0  0  0  0  0  0  0  0  0  0
  148.6240  140.9706  157.3533 H   0  0  0  0  0  0  0  0  0  0  0  0
  149.2946  141.4678  155.8105 H   0  0  0  0  0  0  0  0  0  0  0  0
  1  2  2  0  0  0  0
  1 21  1  0  0  0  0
  1 22  1  0  0  0  0
  2  3  1  0  0  0  0
  2  4  1  0  0  0  0
  3 23  1  0  0  0  0
  3 24  1  0  0  0  0
  3 25  1  0  0  0  0
  4  5  1  0  0  0  0
  4 26  1  0  0  0  0
  4 27  1  0  0  0  0
  5 20  1  0  0  0  0
  5  6  1  0  0  0  0
  6  7  1  0  0  0  0
  6 28  1  0  0  0  0
  6 29  1  0  0  0  0
  7  8  1  0  0  0  0
  7 30  1  0  0  0  0
  7 31  1  0  0  0  0
  8  9  1  0  0  0  0
  8 19  1  0  0  0  0
  8 32  1  0  0  0  0
  9 10  1  0  0  0  0
  9 33  1  0  0  0  0
 10 11  2  0  0  0  0
 10 12  1  0  0  0  0
 12 13  1  0  0  0  0
 12 34  1  0  0  0  0
 13 18  2  0  0  0  0
 13 14  1  0  0  0  0
 14 15  2  0  0  0  0
 14 35  1  0  0  0  0
 15 16  1  0  0  0  0
 16 17  1  0  0  0  0
 16 18  1  0  0  0  0
 17 36  1  0  0  0  0
 17 37  1  0  0  0  0
 17 38  1  0  0  0  0
 18 39  1  0  0  0  0
 19 20  1  0  0  0  0
 19 40  1  0  0  0  0
 19 41  1  0  0  0  0
 20 42  1  0  0  0  0
 20 43  1  0  0  0  0
M  END
> <s_m_source_file>
AV-unprocessed.smi

> <i_m_source_file_index>
760

> <i_lp_mmshare_version>
43012

> <i_f3d_flags>
0

> <s_epik_input>
W0NIMl09QyhbQ0gzXSlbQ0gyXU4xW0NIMl1bQ0gyXVtDSF0oW0NIMl1bQ0gyXTEpW05IXUMoPU8pW05IXWMyW2NIXW5uKFtDSDNdKVtjSF0y

> <s_epik_cmdline>
J2VwaWtfcHl0aG9uJywgJy1waCcsICc3LjAnLCAnLXRuJywgJzgnLCAnLW1hJywgJzIwMCcsICctbWV0YWxfYmluZGluZycsICctaW1hZScsICc8aW5maWxlLm1hZT4nLCAnLW9tYWUnLCAnPG91dGZpbGUubWFlPic=

> <r_lp_tautomer_probability>
1

> <r_epik_Ionization_Penalty>
2.03709

> <r_epik_Ionization_Penalty_Charging>
0

> <r_epik_Ionization_Penalty_Neutral>
2.03709

> <r_epik_State_Penalty>
2.16834

> <r_epik_Charging_Adjusted_Penalty>
2.16834

> <i_epik_Tot_Q>
0

> <i_epik_Tot_abs_Q>
0

> <r_epik_Metal_State_Penalty>
2.16831

> <b_epik_Metal_Only>
0

> <s_lp_Force_Field>
OPLS_2005

> <r_lp_Energy>
20.5491

> <b_lp_Chiralities_Consistent>
1

> <s_lp_Variant>
AV-unprocessed.smi:760-3

> <Gold.Version>
5.8.1

> <Gold.Id.Protein>
6NUR|6NUR_protein|mol2

> <Gold.PLP.Fitness>
39.3217

> <Gold.PLP.PLP>
-34.0362

> <Gold.PLP.part.hbond>
-2.1484

> <Gold.PLP.part.metal>
0.0000

> <Gold.PLP.part.buried>
-4.1975

> <Gold.PLP.part.nonpolar>
-27.8617

> <Gold.PLP.part.repulsive>
0.0879

> <Gold.PLP.ligand.clash>
0.0000

> <Gold.PLP.ligand.torsion>
0.3447

> <Gold.PLP.Chemscore.Hbond>
1.9760

> <Gold.PLP.Chemscore.CHOScore>
0.0000

> <Gold.PLP.Chemscore.Metal>
0.0000

> <Gold.Chemscore.Hbonds>
donor molecule, donor type, donor heavy atom, donor atom, acceptor molecule, acceptor atom, score
      L1  H     9    33       P1  7948  0.99
      L1  H    12    34       P1  7948  1.00

> <Gold.PLP.Chemscore.Internal.Correction>
0.0470

> <Gold.Rescore>
     Score         DG    S(hbond)    S(metal)    S(lipo)     H(rot)  DE(clash)    DE(int)     intcor
     14.64     -17.52       1.80        0.00      81.04       1.35       0.04       2.84       ----

> <Gold.Chemscore.Fitness>
14.6434

> <Gold.Chemscore.DG>
-17.5172

> <Gold.Chemscore.ZeroCoef>
-5.4800

> <Gold.Chemscore.Hbond>
1.7993

> <Gold.Chemscore.Metal>
0.0000

> <Gold.Chemscore.Lipo>
81.0360

> <Gold.Chemscore.Internal_Hbond>
0.0000

> <Gold.Chemscore.DEClash>
0.0383

> <Gold.Chemscore.DEInternal>
2.8355

> <Gold.Chemscore.Rot>
1.3491

> <Gold.Chemscore.Internal.Correction>
   9.000000E+99

> <Gold.Chemscore.Hbonds>
donor molecule, donor type, donor heavy atom, donor atom, acceptor molecule, acceptor atom, score
      L1  H     9    33       P1  7948  0.87
      L1  H    12    34       P1  7948  0.65

> <Gold.Chemscore.Hbond.Weighted>
-6.0098

> <Gold.Chemscore.Metal.Weighted>
-0.0000

> <Gold.Chemscore.Lipo.Weighted>
-9.4812

> <Gold.Chemscore.Internal_Hbond.Weighted>
0.0000

> <Gold.Chemscore.DEClash.Weighted>
0.0383

> <Gold.Chemscore.DEInternal.Weighted>
2.8355

> <Gold.Chemscore.Rot.Weighted>
3.4538

> <Gold.Chemscore.Internal.Correction.Weighted>
   9.000000E+99

> <Gold.Protein.RotatedTorsions>
[ 6907 6896 6895 6894 ] final  174.37 input  -60.11 | X-H torsion
[ 7974 7965 7964 7962 ] final  144.03 input  175.53 | X-H torsion
[ 8008 7997 7996 7995 ] final   88.05 input   59.86 | X-H torsion
[ 10167 10162 10161 10158 ] final   81.62 input  -65.29 | X-H torsion
[ 10718 10713 10712 10709 ] final  -83.05 input   66.30 | X-H torsion
[ 10763 10752 10751 10750 ] final   81.82 input  -60.55 | X-H torsion
[ 11005 11000 10999 10996 ] final -155.84 input  -57.11 | X-H torsion

> <Gold.Protein.ActiveResidues>
 VAL166  LYS551  ARG553  GLY616  TRP617  ASP618  TYR619  PRO620  LYS621  CYS622 
 ASP623  PHE694  ASN695  SER759  ASP760  ASP761  ALA762  ILE779  LEU786  VAL792 
 PHE793  MET794  SER795  GLU796  ALA797  LYS798  CYS799  TRP800  GLU811  SER814 

> <Gold.Protein.RotatedAtoms>
  151.7533  133.3329  159.3397 H   0  0  0  0  0  0  0  0  0  0  0  0  # atno 6907 bound_to 6896
  150.7526  134.6172  159.6126 H   0  0  0  0  0  0  0  0  0  0  0  0  # atno 6908 bound_to 6896
  152.3454  134.7080  160.0303 H   0  0  0  0  0  0  0  0  0  0  0  0  # atno 6909 bound_to 6896
  144.8870  139.5613  143.5816 H   0  0  0  0  0  0  0  0  0  0  0  0  # atno 7974 bound_to 7965
  155.9829  140.3375  155.6680 H   0  0  0  0  0  0  0  0  0  0  0  0  # atno 8008 bound_to 7997
  155.6524  140.0707  157.2600 H   0  0  0  0  0  0  0  0  0  0  0  0  # atno 8009 bound_to 7997
  154.4197  140.1723  156.1676 H   0  0  0  0  0  0  0  0  0  0  0  0  # atno 8010 bound_to 7997
  139.9374  144.6112  150.8285 H   0  0  0  0  0  0  0  0  0  0  0  0  # atno 10167 bound_to 10162
  156.0024  130.4653  150.4199 H   0  0  0  0  0  0  0  0  0  0  0  0  # atno 10718 bound_to 10713
  153.1149  135.4751  154.9098 H   0  0  0  0  0  0  0  0  0  0  0  0  # atno 10763 bound_to 10752
  154.7518  135.3108  154.8545 H   0  0  0  0  0  0  0  0  0  0  0  0  # atno 10764 bound_to 10752
  153.9125  135.6863  153.4804 H   0  0  0  0  0  0  0  0  0  0  0  0  # atno 10765 bound_to 10752
  140.6821  134.4133  157.5226 H   0  0  0  0  0  0  0  0  0  0  0  0  # atno 11005 bound_to 11000
  146.3031  139.7490  142.9077 LP  0  0  0  0  0  0  0  0  0  0  0  0  # atno 17320 bound_to 7965
  145.3850  141.0364  143.3156 LP  0  0  0  0  0  0  0  0  0  0  0  0  # atno 17321 bound_to 7965
  140.7621  143.3189  151.2668 LP  0  0  0  0  0  0  0  0  0  0  0  0  # atno 17342 bound_to 10162
  139.6732  143.9983  152.2766 LP  0  0  0  0  0  0  0  0  0  0  0  0  # atno 17343 bound_to 10162
  157.2255  131.0492  151.2522 LP  0  0  0  0  0  0  0  0  0  0  0  0  # atno 17370 bound_to 10713
  157.3760  130.7206  149.6597 LP  0  0  0  0  0  0  0  0  0  0  0  0  # atno 17371 bound_to 10713
  139.8948  134.8697  156.2158 LP  0  0  0  0  0  0  0  0  0  0  0  0  # atno 17394 bound_to 11000
  141.0309  133.6989  156.1428 LP  0  0  0  0  0  0  0  0  0  0  0  0  # atno 17395 bound_to 11000

$$$$
