AV-unprocessed.smi:359|AV-procd|sdf|2418|dock8
  -GOLD-   2262022353D 1   1.00000     0.00000
 Structure written by MMmdl.
 33 34  0  0  0  0  0  0  0  0  1 V2000
  146.8059  138.6017  152.7230 C   0  0  0  0  0  0  0  0  0  0  0  0
  148.1610  138.5506  153.2442 N   0  0  0  0  0  0  0  0  0  0  0  0
  148.8239  139.5221  153.9828 C   0  0  0  0  0  0  0  0  0  0  0  0
  148.2028  140.7863  154.3460 C   0  0  0  0  0  0  0  0  0  0  0  0
  148.8114  141.6909  155.0316 N   0  0  0  0  0  0  0  0  0  0  0  0
  150.1066  141.4694  155.4545 N   0  0  0  0  0  0  0  0  0  0  0  0
  150.6704  142.5653  156.2515 C   0  0  0  0  0  0  0  0  0  0  0  0
  151.1726  142.0760  157.6200 C   0  0  0  0  0  0  0  0  0  0  0  0
  151.5471  143.2006  158.4052 O   0  0  0  0  0  0  0  0  0  0  0  0
  152.1819  142.9772  159.6077 C   0  0  0  0  0  0  0  0  0  0  0  0
  151.9741  143.9303  160.6262 C   0  0  0  0  0  0  0  0  0  0  0  0
  152.5797  143.7806  161.8887 C   0  0  0  0  0  0  0  0  0  0  0  0
  153.4054  142.6702  162.1453 C   0  0  0  0  0  0  0  0  0  0  0  0
  154.1459  142.4816  163.6924 Cl  0  0  0  0  0  0  0  0  0  0  0  0
  153.6257  141.7139  161.1361 C   0  0  0  0  0  0  0  0  0  0  0  0
  153.0190  141.8640  159.8735 C   0  0  0  0  0  0  0  0  0  0  0  0
  150.8270  140.3384  155.1947 C   0  0  0  0  0  0  0  0  0  0  0  0
  151.9809  140.1841  155.5974 O   0  0  0  0  0  0  0  0  0  0  0  0
  150.1026  139.3315  154.4055 C   0  0  0  0  0  0  0  0  0  0  0  0
  150.9390  137.8624  154.0270 Cl  0  0  0  0  0  0  0  0  0  0  0  0
  146.5717  137.6748  152.1994 H   0  0  0  0  0  0  0  0  0  0  0  0
  146.6931  139.4297  152.0226 H   0  0  0  0  0  0  0  0  0  0  0  0
  146.0881  138.7280  153.5339 H   0  0  0  0  0  0  0  0  0  0  0  0
  148.6618  137.6924  153.0600 H   0  0  0  0  0  0  0  0  0  0  0  0
  147.1790  140.9332  154.0028 H   0  0  0  0  0  0  0  0  0  0  0  0
  151.4890  143.0397  155.7074 H   0  0  0  0  0  0  0  0  0  0  0  0
  149.9272  143.3519  156.3952 H   0  0  0  0  0  0  0  0  0  0  0  0
  150.3979  141.4940  158.1216 H   0  0  0  0  0  0  0  0  0  0  0  0
  152.0373  141.4272  157.4737 H   0  0  0  0  0  0  0  0  0  0  0  0
  151.3412  144.7851  160.4382 H   0  0  0  0  0  0  0  0  0  0  0  0
  152.4084  144.5184  162.6587 H   0  0  0  0  0  0  0  0  0  0  0  0
  154.2612  140.8620  161.3286 H   0  0  0  0  0  0  0  0  0  0  0  0
  153.2128  141.1108  159.1251 H   0  0  0  0  0  0  0  0  0  0  0  0
  1  2  1  0  0  0  0
  1 21  1  0  0  0  0
  1 22  1  0  0  0  0
  1 23  1  0  0  0  0
  2  3  1  0  0  0  0
  2 24  1  0  0  0  0
  3 19  2  0  0  0  0
  3  4  1  0  0  0  0
  4  5  2  0  0  0  0
  4 25  1  0  0  0  0
  5  6  1  0  0  0  0
  6  7  1  0  0  0  0
  6 17  1  0  0  0  0
  7  8  1  0  0  0  0
  7 26  1  0  0  0  0
  7 27  1  0  0  0  0
  8  9  1  0  0  0  0
  8 28  1  0  0  0  0
  8 29  1  0  0  0  0
  9 10  1  0  0  0  0
 10 16  1  0  0  0  0
 10 11  2  0  0  0  0
 11 12  1  0  0  0  0
 11 30  1  0  0  0  0
 12 13  2  0  0  0  0
 12 31  1  0  0  0  0
 13 14  1  0  0  0  0
 13 15  1  0  0  0  0
 15 16  2  0  0  0  0
 15 32  1  0  0  0  0
 16 33  1  0  0  0  0
 17 18  2  0  0  0  0
 17 19  1  0  0  0  0
 19 20  1  0  0  0  0
M  END
> <s_m_source_file>
AV-unprocessed.smi

> <i_m_source_file_index>
359

> <i_lp_mmshare_version>
43012

> <i_f3d_flags>
0

> <s_epik_input>
W0NIM11bTkhdYzFbY0hdbm4oYyg9TyljMUNsKVtDSDJdW0NIMl1PYzJbY0hdW2NIXWMoQ2wpW2NIXVtjSF0y

> <s_epik_cmdline>
J2VwaWtfcHl0aG9uJywgJy1waCcsICc3LjAnLCAnLXRuJywgJzgnLCAnLW1hJywgJzIwMCcsICctbWV0YWxfYmluZGluZycsICctaW1hZScsICc8aW5maWxlLm1hZT4nLCAnLW9tYWUnLCAnPG91dGZpbGUubWFlPic=

> <r_lp_tautomer_probability>
1

> <r_epik_Ionization_Penalty>
1.57682e-05

> <r_epik_Ionization_Penalty_Charging>
1.04488e-09

> <r_epik_Ionization_Penalty_Neutral>
1.57671e-05

> <r_epik_State_Penalty>
-0

> <r_epik_Charging_Adjusted_Penalty>
1.04488e-09

> <i_epik_Tot_Q>
0

> <i_epik_Tot_abs_Q>
0

> <r_epik_Metal_State_Penalty>
-0

> <b_epik_Metal_Only>
0

> <s_lp_Force_Field>
OPLS_2005

> <r_lp_Energy>
30.271

> <b_lp_Chiralities_Consistent>
1

> <s_lp_Variant>
AV-unprocessed.smi:359-1

> <Gold.Version>
5.8.1

> <Gold.Id.Protein>
6NUR|6NUR_protein|mol2

> <Gold.PLP.Fitness>
51.1607

> <Gold.PLP.PLP>
-49.2297

> <Gold.PLP.part.hbond>
-2.7090

> <Gold.PLP.part.metal>
0.0000

> <Gold.PLP.part.buried>
0.9066

> <Gold.PLP.part.nonpolar>
-46.0155

> <Gold.PLP.part.repulsive>
0.6151

> <Gold.PLP.ligand.clash>
0.0000

> <Gold.PLP.ligand.torsion>
0.4291

> <Gold.PLP.Chemscore.Hbond>
0.9280

> <Gold.PLP.Chemscore.CHOScore>
0.0000

> <Gold.PLP.Chemscore.Metal>
0.0000

> <Gold.Chemscore.Hbonds>
donor molecule, donor type, donor heavy atom, donor atom, acceptor molecule, acceptor atom, score
      L1  H     2    24       P1  7948  0.94

> <Gold.PLP.Chemscore.Internal.Correction>
0.0052

> <Gold.Rescore>
     Score         DG    S(hbond)    S(metal)    S(lipo)     H(rot)  DE(clash)    DE(int)     intcor
     16.28     -19.88       0.89        0.00     132.05       1.58       1.91       1.68       ----

> <Gold.Chemscore.Fitness>
16.2791

> <Gold.Chemscore.DG>
-19.8767

> <Gold.Chemscore.ZeroCoef>
-5.4800

> <Gold.Chemscore.Hbond>
0.8944

> <Gold.Chemscore.Metal>
0.0000

> <Gold.Chemscore.Lipo>
132.0546

> <Gold.Chemscore.Internal_Hbond>
0.0000

> <Gold.Chemscore.DEClash>
1.9149

> <Gold.Chemscore.DEInternal>
1.6827

> <Gold.Chemscore.Rot>
1.5785

> <Gold.Chemscore.Internal.Correction>
   9.000000E+99

> <Gold.Chemscore.Hbonds>
donor molecule, donor type, donor heavy atom, donor atom, acceptor molecule, acceptor atom, score
      L1  H     2    24       P1  7948  0.91

> <Gold.Chemscore.Hbond.Weighted>
-2.9874

> <Gold.Chemscore.Metal.Weighted>
-0.0000

> <Gold.Chemscore.Lipo.Weighted>
-15.4504

> <Gold.Chemscore.Internal_Hbond.Weighted>
0.0000

> <Gold.Chemscore.DEClash.Weighted>
1.9149

> <Gold.Chemscore.DEInternal.Weighted>
1.6827

> <Gold.Chemscore.Rot.Weighted>
4.0411

> <Gold.Chemscore.Internal.Correction.Weighted>
   9.000000E+99

> <Gold.Protein.RotatedTorsions>
[ 6907 6896 6895 6894 ] final  -51.78 input  -60.11 | X-H torsion
[ 7974 7965 7964 7962 ] final  175.88 input  175.53 | X-H torsion
[ 8008 7997 7996 7995 ] final -109.41 input   59.86 | X-H torsion
[ 10167 10162 10161 10158 ] final   87.86 input  -65.29 | X-H torsion
[ 10718 10713 10712 10709 ] final   28.23 input   66.30 | X-H torsion
[ 10763 10752 10751 10750 ] final  161.48 input  -60.55 | X-H torsion
[ 11005 11000 10999 10996 ] final   60.83 input  -57.11 | X-H torsion

> <Gold.Protein.ActiveResidues>
 VAL166  LYS551  ARG553  GLY616  TRP617  ASP618  TYR619  PRO620  LYS621  CYS622 
 ASP623  PHE694  ASN695  SER759  ASP760  ASP761  ALA762  ILE779  LEU786  VAL792 
 PHE793  MET794  SER795  GLU796  ALA797  LYS798  CYS799  TRP800  GLU811  SER814 

> <Gold.Protein.RotatedAtoms>
  150.8579  134.7923  159.7059 H   0  0  0  0  0  0  0  0  0  0  0  0  # atno 6907 bound_to 6896
  152.4625  134.5148  159.9774 H   0  0  0  0  0  0  0  0  0  0  0  0  # atno 6908 bound_to 6896
  151.5257  133.3420  159.2945 H   0  0  0  0  0  0  0  0  0  0  0  0  # atno 6909 bound_to 6896
  144.7194  140.0012  143.6440 H   0  0  0  0  0  0  0  0  0  0  0  0  # atno 7974 bound_to 7965
  154.9590  140.0399  157.2181 H   0  0  0  0  0  0  0  0  0  0  0  0  # atno 8008 bound_to 7997
  154.7907  140.2835  155.5972 H   0  0  0  0  0  0  0  0  0  0  0  0  # atno 8009 bound_to 7997
  156.2949  140.2574  156.2754 H   0  0  0  0  0  0  0  0  0  0  0  0  # atno 8010 bound_to 7997
  139.8731  144.6482  150.8927 H   0  0  0  0  0  0  0  0  0  0  0  0  # atno 10167 bound_to 10162
  157.2307  130.7022  149.6312 H   0  0  0  0  0  0  0  0  0  0  0  0  # atno 10718 bound_to 10713
  154.2635  135.2768  155.2768 H   0  0  0  0  0  0  0  0  0  0  0  0  # atno 10763 bound_to 10752
  154.5363  135.5715  153.6804 H   0  0  0  0  0  0  0  0  0  0  0  0  # atno 10764 bound_to 10752
  152.9958  135.6240  154.2787 H   0  0  0  0  0  0  0  0  0  0  0  0  # atno 10765 bound_to 10752
  140.0204  134.6161  155.9648 H   0  0  0  0  0  0  0  0  0  0  0  0  # atno 11005 bound_to 11000
  146.0333  139.3355  143.0741 LP  0  0  0  0  0  0  0  0  0  0  0  0  # atno 17320 bound_to 7965
  145.8425  140.9573  143.0792 LP  0  0  0  0  0  0  0  0  0  0  0  0  # atno 17321 bound_to 7965
  140.7757  143.3647  151.1761 LP  0  0  0  0  0  0  0  0  0  0  0  0  # atno 17342 bound_to 10162
  139.7265  143.9140  152.3004 LP  0  0  0  0  0  0  0  0  0  0  0  0  # atno 17343 bound_to 10162
  155.9675  130.4490  150.5641 LP  0  0  0  0  0  0  0  0  0  0  0  0  # atno 17370 bound_to 10713
  157.3481  131.0729  151.1735 LP  0  0  0  0  0  0  0  0  0  0  0  0  # atno 17371 bound_to 10713
  141.1770  133.6541  156.4868 LP  0  0  0  0  0  0  0  0  0  0  0  0  # atno 17394 bound_to 11000
  140.4397  134.7027  157.4985 LP  0  0  0  0  0  0  0  0  0  0  0  0  # atno 17395 bound_to 11000

$$$$
