#       Name:                AV-unprocessed.smi:2764
#       Creating user name   scv26
#       Creation time:       Fri Mar 27 15:09:05 2020


#       File generated by GOLD software.
#

@<TRIPOS>MOLECULE
AV-unprocessed.smi:2764
    52    54     1
SMALL
NO_CHARGES


@<TRIPOS>ATOM
      1 ****        -2.2738   0.7664   0.2163 O.2            1 S1                 0.0000
      2 ****        -2.7289  -0.3372   0.5173 C.2            1 S1                 0.0000
      3 ****        -4.0364  -0.6351   0.6183 N.am           1 S1                 0.0000
      4 ****        -5.1514   0.2081   0.3653 C.ar           1 S1                 0.0000
      5 ****        -6.4144  -0.3979   0.5546 C.ar           1 S1                 0.0000
      6 ****        -7.5844   0.3520   0.3243 C.ar           1 S1                 0.0000
      7 ****        -7.4588   1.6896  -0.0904 C.ar           1 S1                 0.0000
      8 ****        -8.5547   2.4493  -0.3253 F              1 S1                 0.0000
      9 ****        -6.1651   2.2177  -0.2554 C.ar           1 S1                 0.0000
     10 ****        -5.0428   1.5002  -0.0345 N.ar           1 S1                 0.0000
     11 ****        -1.9666  -1.4094   0.7900 N.am           1 S1                 0.0000
     12 ****        -0.5041  -1.4930   0.7712 C.3            1 S1                 0.0000
     13 ****         0.1610  -0.5861   1.8244 C.3            1 S1                 0.0000
     14 ****         1.6915  -0.7351   1.7862 C.3            1 S1                 0.0000
     15 ****         2.2253  -0.4545   0.4270 N.4            1 S1                 1.0000
     16 ****         3.7107  -0.4352   0.3821 C.3            1 S1                 0.0000
     17 ****         4.2497   0.7667  -0.4172 C.3            1 S1                 0.0000
     18 ****         4.0807   0.6825  -1.9224 C.3            1 S1                 0.0000
     19 ****         5.1115   1.6917  -2.4202 C.3            1 S1                 0.0000
     20 ****         6.1513   1.7017  -1.4468 O.3            1 S1                 0.0000
     21 ****         5.7666   0.9290  -0.3151 C.3            1 S1                 0.0000
     22 ****         1.6248  -1.3555  -0.5926 C.3            1 S1                 0.0000
     23 ****         0.0943  -1.2158  -0.6219 C.3            1 S1                 0.0000
     24 ****        -4.2622  -1.5802   0.8908 H              1 S1                 0.0000
     25 ****        -6.4916  -1.4276   0.8723 H              1 S1                 0.0000
     26 ****        -8.5590  -0.0924   0.4627 H              1 S1                 0.0000
     27 ****        -6.0261   3.2403  -0.5738 H              1 S1                 0.0000
     28 ****        -2.4499  -2.2631   1.0295 H              1 S1                 0.0000
     29 ****        -0.2711  -2.5265   1.0310 H              1 S1                 0.0000
     30 ****        -0.0957   0.4592   1.6504 H              1 S1                 0.0000
     31 ****        -0.2084  -0.8336   2.8202 H              1 S1                 0.0000
     32 ****         2.1315  -0.0425   2.5049 H              1 S1                 0.0000
     33 ****         1.9824  -1.7412   2.0931 H              1 S1                 0.0000
     34 ****         4.1037  -0.3543   1.3968 H              1 S1                 0.0000
     35 ****         4.1004  -1.3775  -0.0071 H              1 S1                 0.0000
     36 ****         3.7823   1.6854  -0.0579 H              1 S1                 0.0000
     37 ****         4.3356  -0.3160  -2.2808 H              1 S1                 0.0000
     38 ****         3.0708   0.9207  -2.2572 H              1 S1                 0.0000
     39 ****         5.4939   1.4398  -3.4094 H              1 S1                 0.0000
     40 ****         4.6747   2.6898  -2.4697 H              1 S1                 0.0000
     41 ****         6.0744   1.4068   0.6153 H              1 S1                 0.0000
     42 ****         6.2639  -0.0401  -0.3764 H              1 S1                 0.0000
     43 ****         2.0235  -1.1269  -1.5800 H              1 S1                 0.0000
     44 ****         1.9018  -2.3884  -0.3752 H              1 S1                 0.0000
     45 ****        -0.3255  -1.9058  -1.3547 H              1 S1                 0.0000
     46 ****        -0.1606  -0.2113  -0.9608 H              1 S1                 0.0000
     47 ****         1.9257   0.4836   0.2019 H              1 S1                 0.0000
     48 ****        -2.8935   1.5274   0.0243 LP             1 S1                 0.0000
     49 ****        -1.2844   0.9019   0.1638 LP             1 S1                 0.0000
     50 ****        -4.1426   1.9160  -0.1640 LP             1 S1                 0.0000
     51 ****         6.3276   2.6435  -1.1603 LP             1 S1                 0.0000
     52 ****         6.9821   1.3137  -1.8458 LP             1 S1                 0.0000
@<TRIPOS>BOND
    1    1    2 2     
    2    2    3 am    
    3    2   11 am    
    4    3    4 1     
    5    3   24 1     
    6    4   10 ar    
    7    4    5 ar    
    8    5    6 ar    
    9    5   25 1     
   10    6    7 ar    
   11    6   26 1     
   12    7    8 1     
   13    7    9 ar    
   14    9   10 ar    
   15    9   27 1     
   16   11   12 1     
   17   11   28 1     
   18   12   23 1     
   19   12   13 1     
   20   12   29 1     
   21   13   14 1     
   22   13   30 1     
   23   13   31 1     
   24   14   15 1     
   25   14   32 1     
   26   14   33 1     
   27   15   16 1     
   28   15   22 1     
   29   15   47 1     
   30   16   17 1     
   31   16   34 1     
   32   16   35 1     
   33   17   21 1     
   34   17   18 1     
   35   17   36 1     
   36   18   19 1     
   37   18   37 1     
   38   18   38 1     
   39   19   20 1     
   40   19   39 1     
   41   19   40 1     
   42   20   21 1     
   43   21   41 1     
   44   21   42 1     
   45   22   23 1     
   46   22   43 1     
   47   22   44 1     
   48   23   45 1     
   49   23   46 1     
   50    1   48 1     
   51    1   49 1     
   52   10   50 1     
   53   20   51 1     
   54   20   52 1     
@<TRIPOS>SUBSTRUCTURE
      1 S1             1
@<TRIPOS>SET
LONE_PAIRS      STATIC     ATOMS    <user>   **** ""
5 48 49 50 51 52
DONOR_HYDROGENS      STATIC     ATOMS    <user>   **** ""
3 24 28 47
ATOM$BLUE        STATIC     ATOMS    COLORGROUP SYSTEM
5 48 49 50 51 52
ATOM$RED        STATIC     ATOMS    COLORGROUP SYSTEM
3 24 28 47
