AV-unprocessed.smi:2558|AV-procd|sdf|10033|dock1
  -GOLD-   2272014 73D 1   1.00000     0.00000
 Structure written by MMmdl.
 42 43  0  0  0  0  0  0  0  0  2 V2000
  150.6107  139.2802  155.2195 C   0  0  0  0  0  0  0  0  0  0  0  0
  152.0000  138.3889  156.0344 S   0  0  0  0  0  0  0  0  0  0  0  0
  151.8540  136.9502  155.7605 O   0  0  0  0  0  0  0  0  0  0  0  0
  153.2553  139.0660  155.6713 O   0  0  0  0  0  0  0  0  0  0  0  0
  151.6954  138.6826  157.7342 N   0  0  0  0  0  0  0  0  0  0  0  0
  150.9634  137.7947  158.5594 C   0  0  0  0  0  0  0  0  0  0  0  0
  151.3110  137.6426  159.7325 O   0  0  0  0  0  0  0  0  0  0  0  0
  149.8551  137.2979  157.9463 N   0  5  0  0  0  0  0  0  0  0  0  0
  149.0176  136.3742  158.4813 C   0  0  0  0  0  0  0  0  0  0  0  0
  148.4739  135.4361  157.8940 O   0  0  0  0  0  0  0  0  0  0  0  0
  148.7875  136.5857  159.7895 N   0  0  0  0  0  0  0  0  0  0  0  0
  148.0187  135.8047  160.6930 C   0  0  0  0  0  0  0  0  0  0  0  0
  148.0163  136.1705  162.0543 C   0  0  0  0  0  0  0  0  0  0  0  0
  147.2837  135.3923  162.9708 C   0  0  0  0  0  0  0  0  0  0  0  0
  146.5894  134.2665  162.4875 C   0  0  0  0  0  0  0  0  0  0  0  0
  146.5960  133.8913  161.1911 N   0  0  0  0  0  0  0  0  0  0  0  0
  147.2982  134.6444  160.3166 C   0  0  0  0  0  0  0  0  0  0  0  0
  152.1870  139.9785  158.2779 C   0  0  0  0  0  0  0  0  0  0  0  0
  153.1634  139.7851  159.4573 C   0  0  0  0  0  0  0  0  0  0  0  0
  153.7241  141.1375  159.9274 C   0  0  0  0  0  0  0  0  0  0  0  0
  152.5946  142.1222  160.2766 C   0  0  0  0  0  0  0  0  0  0  0  0
  151.6300  142.3160  159.0937 C   0  0  0  0  0  0  0  0  0  0  0  0
  151.0520  140.9723  158.6210 C   0  0  0  0  0  0  0  0  0  0  0  0
  150.7090  139.1915  154.1380 H   0  0  0  0  0  0  0  0  0  0  0  0
  150.6373  140.3323  155.5020 H   0  0  0  0  0  0  0  0  0  0  0  0
  149.6624  138.8453  155.5340 H   0  0  0  0  0  0  0  0  0  0  0  0
  149.1675  137.4412  160.1669 H   0  0  0  0  0  0  0  0  0  0  0  0
  148.5633  137.0383  162.3930 H   0  0  0  0  0  0  0  0  0  0  0  0
  147.2561  135.6513  164.0188 H   0  0  0  0  0  0  0  0  0  0  0  0
  146.0186  133.6458  163.1623 H   0  0  0  0  0  0  0  0  0  0  0  0
  147.2949  134.2837  159.2993 H   0  0  0  0  0  0  0  0  0  0  0  0
  152.7581  140.4642  157.4866 H   0  0  0  0  0  0  0  0  0  0  0  0
  152.6667  139.2994  160.2964 H   0  0  0  0  0  0  0  0  0  0  0  0
  153.9828  139.1293  159.1614 H   0  0  0  0  0  0  0  0  0  0  0  0
  154.3697  140.9902  160.7934 H   0  0  0  0  0  0  0  0  0  0  0  0
  154.3512  141.5646  159.1438 H   0  0  0  0  0  0  0  0  0  0  0  0
  152.0418  141.7504  161.1404 H   0  0  0  0  0  0  0  0  0  0  0  0
  153.0183  143.0827  160.5712 H   0  0  0  0  0  0  0  0  0  0  0  0
  150.8204  142.9878  159.3800 H   0  0  0  0  0  0  0  0  0  0  0  0
  152.1552  142.7991  158.2687 H   0  0  0  0  0  0  0  0  0  0  0  0
  150.4150  141.1291  157.7498 H   0  0  0  0  0  0  0  0  0  0  0  0
  150.4101  140.5767  159.4086 H   0  0  0  0  0  0  0  0  0  0  0  0
  1  2  1  0  0  0  0
  1 24  1  0  0  0  0
  1 25  1  0  0  0  0
  1 26  1  0  0  0  0
  2  3  2  0  0  0  0
  2  4  2  0  0  0  0
  2  5  1  0  0  0  0
  5  6  1  0  0  0  0
  5 18  1  0  0  0  0
  6  7  2  0  0  0  0
  6  8  1  0  0  0  0
  8  9  1  0  0  0  0
  9 10  2  0  0  0  0
  9 11  1  0  0  0  0
 11 12  1  0  0  0  0
 11 27  1  0  0  0  0
 12 17  1  0  0  0  0
 12 13  2  0  0  0  0
 13 14  1  0  0  0  0
 13 28  1  0  0  0  0
 14 15  2  0  0  0  0
 14 29  1  0  0  0  0
 15 16  1  0  0  0  0
 15 30  1  0  0  0  0
 16 17  2  0  0  0  0
 17 31  1  0  0  0  0
 18 23  1  0  0  0  0
 18 19  1  0  0  0  0
 18 32  1  0  0  0  0
 19 20  1  0  0  0  0
 19 33  1  0  0  0  0
 19 34  1  0  0  0  0
 20 21  1  0  0  0  0
 20 35  1  0  0  0  0
 20 36  1  0  0  0  0
 21 22  1  0  0  0  0
 21 37  1  0  0  0  0
 21 38  1  0  0  0  0
 22 23  1  0  0  0  0
 22 39  1  0  0  0  0
 22 40  1  0  0  0  0
 23 41  1  0  0  0  0
 23 42  1  0  0  0  0
M  CHG  1   8  -1
M  END
> <s_m_source_file>
AV-unprocessed.smi

> <i_m_source_file_index>
2558

> <i_lp_mmshare_version>
43012

> <i_f3d_flags>
0

> <s_epik_input>
W0NIMl0xW0NIMl1bQ0gyXVtDSDJdW0NIMl1bQ0hdMU4oUyg9TykoPU8pW0NIM10pQyg9TylbTkhdQyg9TylbTkhdYzJbY0hdW2NIXVtjSF1uW2NIXTI=

> <s_epik_cmdline>
J2VwaWtfcHl0aG9uJywgJy1waCcsICc3LjAnLCAnLXRuJywgJzgnLCAnLW1hJywgJzIwMCcsICctbWV0YWxfYmluZGluZycsICctaW1hZScsICc8aW5maWxlLm1hZT4nLCAnLW9tYWUnLCAnPG91dGZpbGUubWFlPic=

> <r_epik_Ionization_Penalty>
6.14208

> <r_epik_Ionization_Penalty_Charging>
6.14039

> <r_epik_Ionization_Penalty_Neutral>
0.00168563

> <r_epik_State_Penalty>
6.14513

> <r_epik_Charging_Adjusted_Penalty>
12.2855

> <i_epik_Tot_Q>
-1

> <i_epik_Tot_abs_Q>
1

> <r_epik_Metal_State_Penalty>
2.09011

> <b_epik_Metal_Only>
1

> <s_lp_Force_Field>
OPLS_2005

> <r_lp_Energy>
23.9967

> <b_lp_Chiralities_Consistent>
1

> <s_lp_Variant>
AV-unprocessed.smi:2558-2

> <Gold.Version>
5.8.1

> <Gold.Id.Protein>
6NUR|6NUR_protein|mol2

> <Gold.PLP.Fitness>
46.2951

> <Gold.PLP.PLP>
-40.9702

> <Gold.PLP.part.hbond>
-2.0240

> <Gold.PLP.part.metal>
0.0000

> <Gold.PLP.part.buried>
-6.3961

> <Gold.PLP.part.nonpolar>
-33.7355

> <Gold.PLP.part.repulsive>
0.2417

> <Gold.PLP.ligand.clash>
0.0000

> <Gold.PLP.ligand.torsion>
2.0650

> <Gold.PLP.Chemscore.Hbond>
2.0000

> <Gold.PLP.Chemscore.CHOScore>
0.0000

> <Gold.PLP.Chemscore.Metal>
0.0000

> <Gold.Chemscore.Hbonds>
donor molecule, donor type, donor heavy atom, donor atom, acceptor molecule, acceptor atom, score
      P1  H  7997  8008       L1     4  1.00
      P1  H 10752 10764       L1     3  0.96

> <Gold.PLP.Chemscore.Internal.Correction>
3.4548

> <Gold.Rescore>
     Score         DG    S(hbond)    S(metal)    S(lipo)     H(rot)  DE(clash)    DE(int)     intcor
     16.12     -20.71       1.98        0.00      95.57       1.00       0.05       4.54       ----

> <Gold.Chemscore.Fitness>
16.1212

> <Gold.Chemscore.DG>
-20.7124

> <Gold.Chemscore.ZeroCoef>
-5.4800

> <Gold.Chemscore.Hbond>
1.9792

> <Gold.Chemscore.Metal>
0.0000

> <Gold.Chemscore.Lipo>
95.5702

> <Gold.Chemscore.Internal_Hbond>
0.0000

> <Gold.Chemscore.DEClash>
0.0546

> <Gold.Chemscore.DEInternal>
4.5366

> <Gold.Chemscore.Rot>
1.0000

> <Gold.Chemscore.Internal.Correction>
   9.000000E+99

> <Gold.Chemscore.Hbonds>
donor molecule, donor type, donor heavy atom, donor atom, acceptor molecule, acceptor atom, score
      P1  H  7997  8008       L1     4  0.98
      P1  H 10752 10764       L1     3  0.89

> <Gold.Chemscore.Hbond.Weighted>
-6.6107

> <Gold.Chemscore.Metal.Weighted>
-0.0000

> <Gold.Chemscore.Lipo.Weighted>
-11.1817

> <Gold.Chemscore.Internal_Hbond.Weighted>
0.0000

> <Gold.Chemscore.DEClash.Weighted>
0.0546

> <Gold.Chemscore.DEInternal.Weighted>
4.5366

> <Gold.Chemscore.Rot.Weighted>
2.5600

> <Gold.Chemscore.Internal.Correction.Weighted>
   9.000000E+99

> <Gold.Protein.RotatedTorsions>
[ 6907 6896 6895 6894 ] final -101.01 input  -60.11 | X-H torsion
[ 7974 7965 7964 7962 ] final  -59.62 input  175.53 | X-H torsion
[ 8008 7997 7996 7995 ] final  -23.77 input   59.86 | X-H torsion
[ 10167 10162 10161 10158 ] final   99.51 input  -65.29 | X-H torsion
[ 10718 10713 10712 10709 ] final  125.48 input   66.30 | X-H torsion
[ 10763 10752 10751 10750 ] final  -38.75 input  -60.55 | X-H torsion
[ 11005 11000 10999 10996 ] final -178.68 input  -57.11 | X-H torsion

> <Gold.Protein.ActiveResidues>
 VAL166  LYS551  ARG553  GLY616  TRP617  ASP618  TYR619  PRO620  LYS621  CYS622 
 ASP623  PHE694  ASN695  SER759  ASP760  ASP761  ALA762  ILE779  LEU786  VAL792 
 PHE793  MET794  SER795  GLU796  ALA797  LYS798  CYS799  TRP800  GLU811  SER814 

> <Gold.Protein.RotatedAtoms>
  150.7138  134.0799  159.3894 H   0  0  0  0  0  0  0  0  0  0  0  0  # atno 6907 bound_to 6896
  151.8783  135.0461  160.0495 H   0  0  0  0  0  0  0  0  0  0  0  0  # atno 6908 bound_to 6896
  152.2588  133.5243  159.5406 H   0  0  0  0  0  0  0  0  0  0  0  0  # atno 6909 bound_to 6896
  145.8253  140.8514  143.0111 H   0  0  0  0  0  0  0  0  0  0  0  0  # atno 7974 bound_to 7965
  154.4566  140.1972  156.0361 H   0  0  0  0  0  0  0  0  0  0  0  0  # atno 8008 bound_to 7997
  156.0759  140.3278  155.7605 H   0  0  0  0  0  0  0  0  0  0  0  0  # atno 8009 bound_to 7997
  155.5189  140.0568  157.2901 H   0  0  0  0  0  0  0  0  0  0  0  0  # atno 8010 bound_to 7997
  139.7611  144.6954  151.0292 H   0  0  0  0  0  0  0  0  0  0  0  0  # atno 10167 bound_to 10162
  157.5499  131.1094  150.8719 H   0  0  0  0  0  0  0  0  0  0  0  0  # atno 10718 bound_to 10713
  153.9180  135.6785  153.4748 H   0  0  0  0  0  0  0  0  0  0  0  0  # atno 10763 bound_to 10752
  153.1044  135.4813  154.8921 H   0  0  0  0  0  0  0  0  0  0  0  0  # atno 10764 bound_to 10752
  154.7493  135.3180  154.8543 H   0  0  0  0  0  0  0  0  0  0  0  0  # atno 10765 bound_to 10752
  140.4271  134.6553  157.4693 H   0  0  0  0  0  0  0  0  0  0  0  0  # atno 11005 bound_to 11000
  144.6744  140.0593  143.7476 LP  0  0  0  0  0  0  0  0  0  0  0  0  # atno 17320 bound_to 7965
  145.9630  139.2814  143.1144 LP  0  0  0  0  0  0  0  0  0  0  0  0  # atno 17321 bound_to 7965
  140.7807  143.4696  151.0164 LP  0  0  0  0  0  0  0  0  0  0  0  0  # atno 17342 bound_to 10162
  139.8382  143.7599  152.3180 LP  0  0  0  0  0  0  0  0  0  0  0  0  # atno 17343 bound_to 10162
  156.9246  130.5327  149.5279 LP  0  0  0  0  0  0  0  0  0  0  0  0  # atno 17370 bound_to 10713
  156.0568  130.5628  150.9108 LP  0  0  0  0  0  0  0  0  0  0  0  0  # atno 17371 bound_to 10713
  140.0160  134.6619  155.9310 LP  0  0  0  0  0  0  0  0  0  0  0  0  # atno 17394 bound_to 11000
  141.1761  133.6540  156.4833 LP  0  0  0  0  0  0  0  0  0  0  0  0  # atno 17395 bound_to 11000

$$$$
