AV-unprocessed.smi:2026|AV-procd|sdf|8201|dock4
  -GOLD-   2272010453D 1   1.00000     0.00000
 Structure written by MMmdl.
 46 48  0  0  0  0  0  0  0  0  1 V2000
  151.6933  144.7106  160.0039 C   0  0  0  0  0  0  0  0  0  0  0  0
  151.7184  143.4402  159.1729 C   0  0  0  0  0  0  0  0  0  0  0  0
  150.9863  143.3945  157.9642 C   0  0  0  0  0  0  0  0  0  0  0  0
  150.9864  142.2326  157.1610 C   0  0  0  0  0  0  0  0  0  0  0  0
  150.3548  141.9671  155.9573 N   0  0  0  0  0  0  0  0  0  0  0  0
  150.7442  140.7170  155.7191 C   0  0  0  0  0  0  0  0  0  0  0  0
  151.5532  140.1418  156.6290 N   0  0  0  0  0  0  0  0  0  0  0  0
  152.1059  138.8017  156.6063 C   0  0  0  0  0  0  0  0  0  0  0  0
  151.3237  137.8409  157.5249 C   0  0  2  0  0  0  0  0  0  0  0  0
  151.6510  138.1095  158.8731 O   0  0  0  0  0  0  0  0  0  0  0  0
  151.5907  136.3484  157.2384 C   0  0  0  0  0  0  0  0  0  0  0  0
  150.6424  135.7881  156.2673 N   0  0  0  0  0  0  0  0  0  0  0  0
  150.5955  136.1231  154.9651 C   0  0  0  0  0  0  0  0  0  0  0  0
  151.3286  136.9245  154.3879 O   0  0  0  0  0  0  0  0  0  0  0  0
  149.5974  135.4396  154.3899 N   0  0  0  0  0  0  0  0  0  0  0  0
  148.8902  134.5813  155.3208 C   0  0  0  0  0  0  0  0  0  0  0  0
  147.4211  135.0193  155.4627 C   0  0  0  0  0  0  0  0  0  0  0  0
  149.0231  133.1028  154.9145 C   0  0  0  0  0  0  0  0  0  0  0  0
  149.6920  134.8943  156.5743 C   0  0  0  0  0  0  0  0  0  0  0  0
  149.4675  134.3953  157.6772 O   0  0  0  0  0  0  0  0  0  0  0  0
  151.7429  141.1105  157.6064 C   0  0  0  0  0  0  0  0  0  0  0  0
  152.4740  141.1426  158.8063 C   0  0  0  0  0  0  0  0  0  0  0  0
  152.4637  142.3102  159.5965 C   0  0  0  0  0  0  0  0  0  0  0  0
  153.2592  142.3337  160.8899 C   0  0  0  0  0  0  0  0  0  0  0  0
  151.1402  145.5046  159.5016 H   0  0  0  0  0  0  0  0  0  0  0  0
  152.7060  145.0726  160.1826 H   0  0  0  0  0  0  0  0  0  0  0  0
  151.2165  144.5251  160.9666 H   0  0  0  0  0  0  0  0  0  0  0  0
  150.4177  144.2545  157.6423 H   0  0  0  0  0  0  0  0  0  0  0  0
  150.4238  140.1895  154.8326 H   0  0  0  0  0  0  0  0  0  0  0  0
  152.0733  138.4599  155.5721 H   0  0  0  0  0  0  0  0  0  0  0  0
  153.1591  138.8402  156.8879 H   0  0  0  0  0  0  0  0  0  0  0  0
  150.2555  138.0323  157.4184 H   0  0  0  0  0  0  0  0  0  0  0  0
  151.2942  138.9524  159.1076 H   0  0  0  0  0  0  0  0  0  0  0  0
  152.6192  136.2125  156.8995 H   0  0  0  0  0  0  0  0  0  0  0  0
  151.5105  135.7766  158.1649 H   0  0  0  0  0  0  0  0  0  0  0  0
  149.3456  135.5135  153.4149 H   0  0  0  0  0  0  0  0  0  0  0  0
  146.8916  134.3995  156.1872 H   0  0  0  0  0  0  0  0  0  0  0  0
  146.8940  134.9360  154.5118 H   0  0  0  0  0  0  0  0  0  0  0  0
  147.3378  136.0555  155.7933 H   0  0  0  0  0  0  0  0  0  0  0  0
  148.4935  132.4521  155.6114 H   0  0  0  0  0  0  0  0  0  0  0  0
  150.0653  132.7812  154.8909 H   0  0  0  0  0  0  0  0  0  0  0  0
  148.6043  132.9307  153.9225 H   0  0  0  0  0  0  0  0  0  0  0  0
  153.0413  140.2760  159.1118 H   0  0  0  0  0  0  0  0  0  0  0  0
  153.7147  141.3638  161.0938 H   0  0  0  0  0  0  0  0  0  0  0  0
  152.6151  142.5834  161.7332 H   0  0  0  0  0  0  0  0  0  0  0  0
  154.0576  143.0737  160.8317 H   0  0  0  0  0  0  0  0  0  0  0  0
  1  2  1  0  0  0  0
  1 25  1  0  0  0  0
  1 26  1  0  0  0  0
  1 27  1  0  0  0  0
  2 23  1  0  0  0  0
  2  3  2  0  0  0  0
  3  4  1  0  0  0  0
  3 28  1  0  0  0  0
  4 21  2  0  0  0  0
  4  5  1  0  0  0  0
  5  6  2  0  0  0  0
  6  7  1  0  0  0  0
  6 29  1  0  0  0  0
  7  8  1  0  0  0  0
  7 21  1  0  0  0  0
  8  9  1  0  0  0  0
  8 30  1  0  0  0  0
  8 31  1  0  0  0  0
  9 10  1  0  0  0  0
  9 11  1  0  0  0  0
  9 32  1  0  0  0  0
 10 33  1  0  0  0  0
 11 12  1  0  0  0  0
 11 34  1  0  0  0  0
 11 35  1  0  0  0  0
 12 19  1  0  0  0  0
 12 13  1  0  0  0  0
 13 14  2  0  0  0  0
 13 15  1  0  0  0  0
 15 16  1  0  0  0  0
 15 36  1  0  0  0  0
 16 17  1  0  0  0  0
 16 18  1  0  0  0  0
 16 19  1  0  0  0  0
 17 37  1  0  0  0  0
 17 38  1  0  0  0  0
 17 39  1  0  0  0  0
 18 40  1  0  0  0  0
 18 41  1  0  0  0  0
 18 42  1  0  0  0  0
 19 20  2  0  0  0  0
 21 22  1  0  0  0  0
 22 23  2  0  0  0  0
 22 43  1  0  0  0  0
 23 24  1  0  0  0  0
 24 44  1  0  0  0  0
 24 45  1  0  0  0  0
 24 46  1  0  0  0  0
M  END
> <s_m_source_file>
AV-unprocessed.smi

> <i_m_source_file_index>
2026

> <i_lp_mmshare_version>
43012

> <i_f3d_flags>
0

> <s_epik_input>
W0NIM11jKFtjSF0xKWMoW0NIM10pW2NIXWMoYzEyKW4oW2NIXW4yKVtDSDJdW0NASF0oW09IXSlbQ0gyXU4oQzM9TylDKD1PKVtOSF1DMyhbQ0gzXSlbQ0gzXQ==

> <s_epik_cmdline>
J2VwaWtfcHl0aG9uJywgJy1waCcsICc3LjAnLCAnLXRuJywgJzgnLCAnLW1hJywgJzIwMCcsICctbWV0YWxfYmluZGluZycsICctaW1hZScsICc8aW5maWxlLm1hZT4nLCAnLW9tYWUnLCAnPG91dGZpbGUubWFlPic=

> <r_lp_tautomer_probability>
1

> <r_epik_Ionization_Penalty>
0.103994

> <r_epik_Ionization_Penalty_Charging>
0

> <r_epik_Ionization_Penalty_Neutral>
0.103994

> <r_epik_State_Penalty>
0.0938482

> <r_epik_Charging_Adjusted_Penalty>
0.0938482

> <i_epik_Tot_Q>
0

> <i_epik_Tot_abs_Q>
0

> <r_epik_Metal_State_Penalty>
0.106997

> <b_epik_Metal_Only>
0

> <s_lp_Force_Field>
OPLS_2005

> <r_lp_Energy>
21.0149

> <b_lp_Chiralities_Consistent>
1

> <s_lp_Variant>
AV-unprocessed.smi:2026-1

> <Gold.Version>
5.8.1

> <Gold.Id.Protein>
6NUR|6NUR_protein|mol2

> <Gold.PLP.Fitness>
48.4379

> <Gold.PLP.PLP>
-41.2001

> <Gold.PLP.part.hbond>
-3.0061

> <Gold.PLP.part.metal>
0.0000

> <Gold.PLP.part.buried>
-5.4598

> <Gold.PLP.part.nonpolar>
-33.8800

> <Gold.PLP.part.repulsive>
0.7687

> <Gold.PLP.ligand.clash>
0.0000

> <Gold.PLP.ligand.torsion>
0.8868

> <Gold.PLP.Chemscore.Hbond>
3.0000

> <Gold.PLP.Chemscore.CHOScore>
0.0000

> <Gold.PLP.Chemscore.Metal>
0.0000

> <Gold.Chemscore.Hbonds>
donor molecule, donor type, donor heavy atom, donor atom, acceptor molecule, acceptor atom, score
      L1  H    15    36       P1  7948  1.00
      P1  H  6896  6908       L1    20  0.89
      P1  H 10752 10765       L1    14  0.80

> <Gold.PLP.Chemscore.Internal.Correction>
0.0113

> <Gold.Rescore>
     Score         DG    S(hbond)    S(metal)    S(lipo)     H(rot)  DE(clash)    DE(int)     intcor
     18.01     -19.21       2.43        0.00     101.28       2.44       0.17       1.04       ----

> <Gold.Chemscore.Fitness>
18.0064

> <Gold.Chemscore.DG>
-19.2085

> <Gold.Chemscore.ZeroCoef>
-5.4800

> <Gold.Chemscore.Hbond>
2.4295

> <Gold.Chemscore.Metal>
0.0000

> <Gold.Chemscore.Lipo>
101.2774

> <Gold.Chemscore.Internal_Hbond>
0.0000

> <Gold.Chemscore.DEClash>
0.1671

> <Gold.Chemscore.DEInternal>
1.0350

> <Gold.Chemscore.Rot>
2.4358

> <Gold.Chemscore.Internal.Correction>
   9.000000E+99

> <Gold.Chemscore.Hbonds>
donor molecule, donor type, donor heavy atom, donor atom, acceptor molecule, acceptor atom, score
      L1  H    15    36       P1  7948  0.26
      P1  H  6896  6908       L1    20  0.86
      P1  H 10752 10765       L1    14  0.18

> <Gold.Chemscore.Hbond.Weighted>
-8.1147

> <Gold.Chemscore.Metal.Weighted>
-0.0000

> <Gold.Chemscore.Lipo.Weighted>
-11.8495

> <Gold.Chemscore.Internal_Hbond.Weighted>
0.0000

> <Gold.Chemscore.DEClash.Weighted>
0.1671

> <Gold.Chemscore.DEInternal.Weighted>
1.0350

> <Gold.Chemscore.Rot.Weighted>
6.2357

> <Gold.Chemscore.Internal.Correction.Weighted>
   9.000000E+99

> <Gold.Protein.RotatedTorsions>
[ 6907 6896 6895 6894 ] final  137.16 input  -60.11 | X-H torsion
[ 7974 7965 7964 7962 ] final   98.43 input  175.53 | X-H torsion
[ 8008 7997 7996 7995 ] final  146.15 input   59.86 | X-H torsion
[ 10167 10162 10161 10158 ] final   74.60 input  -65.29 | X-H torsion
[ 10718 10713 10712 10709 ] final  120.32 input   66.30 | X-H torsion
[ 10763 10752 10751 10750 ] final  149.20 input  -60.55 | X-H torsion
[ 11005 11000 10999 10996 ] final   71.98 input  -57.11 | X-H torsion

> <Gold.Protein.ActiveResidues>
 VAL166  LYS551  ARG553  GLY616  TRP617  ASP618  TYR619  PRO620  LYS621  CYS622 
 ASP623  PHE694  ASN695  SER759  ASP760  ASP761  ALA762  ILE779  LEU786  VAL792 
 PHE793  MET794  SER795  GLU796  ALA797  LYS798  CYS799  TRP800  GLU811  SER814 

> <Gold.Protein.RotatedAtoms>
  152.2813  133.5473  159.5498 H   0  0  0  0  0  0  0  0  0  0  0  0  # atno 6907 bound_to 6896
  150.7197  134.0560  159.3824 H   0  0  0  0  0  0  0  0  0  0  0  0  # atno 6908 bound_to 6896
  151.8471  135.0570  160.0505 H   0  0  0  0  0  0  0  0  0  0  0  0  # atno 6909 bound_to 6896
  145.4123  139.2332  143.3241 H   0  0  0  0  0  0  0  0  0  0  0  0  # atno 7974 bound_to 7965
  156.2863  140.2190  156.5330 H   0  0  0  0  0  0  0  0  0  0  0  0  # atno 8008 bound_to 7997
  154.7433  140.0486  157.0852 H   0  0  0  0  0  0  0  0  0  0  0  0  # atno 8009 bound_to 7997
  155.0203  140.3123  155.4799 H   0  0  0  0  0  0  0  0  0  0  0  0  # atno 8010 bound_to 7997
  140.0120  144.5607  150.7651 H   0  0  0  0  0  0  0  0  0  0  0  0  # atno 10167 bound_to 10162
  157.5899  131.1065  150.8019 H   0  0  0  0  0  0  0  0  0  0  0  0  # atno 10718 bound_to 10713
  154.0673  135.2869  155.3314 H   0  0  0  0  0  0  0  0  0  0  0  0  # atno 10763 bound_to 10752
  154.6770  135.5278  153.8215 H   0  0  0  0  0  0  0  0  0  0  0  0  # atno 10764 bound_to 10752
  153.0499  135.6572  154.0857 H   0  0  0  0  0  0  0  0  0  0  0  0  # atno 10765 bound_to 10752
  139.9515  134.7219  156.0852 H   0  0  0  0  0  0  0  0  0  0  0  0  # atno 11005 bound_to 11000
  146.2698  140.4836  142.8819 LP  0  0  0  0  0  0  0  0  0  0  0  0  # atno 17320 bound_to 7965
  144.8301  140.6692  143.6297 LP  0  0  0  0  0  0  0  0  0  0  0  0  # atno 17321 bound_to 7965
  140.7378  143.2769  151.3713 LP  0  0  0  0  0  0  0  0  0  0  0  0  # atno 17342 bound_to 10162
  139.6199  144.0928  152.2381 LP  0  0  0  0  0  0  0  0  0  0  0  0  # atno 17343 bound_to 10162
  156.8444  130.5059  149.5318 LP  0  0  0  0  0  0  0  0  0  0  0  0  # atno 17370 bound_to 10713
  156.0952  130.5927  150.9802 LP  0  0  0  0  0  0  0  0  0  0  0  0  # atno 17371 bound_to 10713
  141.1178  133.6622  156.3139 LP  0  0  0  0  0  0  0  0  0  0  0  0  # atno 17394 bound_to 11000
  140.5708  134.5842  157.5457 LP  0  0  0  0  0  0  0  0  0  0  0  0  # atno 17395 bound_to 11000

$$$$
