AV-unprocessed.smi:1740|AV-procd|sdf|7009|dock9
  -GOLD-   22720 8223D 1   1.00000     0.00000
 Structure written by MMmdl.
 52 54  0  0  0  0  0  0  0  0  2 V2000
  150.0945  142.3496  155.8194 N   0  0  0  0  0  0  0  0  0  0  0  0
  150.8670  142.3063  156.9078 C   0  0  0  0  0  0  0  0  0  0  0  0
  151.2588  143.3218  157.4785 O   0  0  0  0  0  0  0  0  0  0  0  0
  151.2627  140.9191  157.4266 C   0  0  0  0  0  0  0  0  0  0  0  0
  150.7049  139.7866  156.6515 N   0  0  0  0  0  0  0  0  0  0  0  0
  150.7472  138.5209  157.3994 C   0  0  0  0  0  0  0  0  0  0  0  0
  150.0992  137.3871  156.5848 C   0  0  0  0  0  0  0  0  0  0  0  0
  150.7876  137.2146  155.2211 C   0  0  0  0  0  0  0  0  0  0  0  0
  150.0843  136.2308  154.4035 N   0  0  0  0  0  0  0  0  0  0  0  0
  149.9408  134.9342  154.7115 C   0  0  0  0  0  0  0  0  0  0  0  0
  150.3941  134.4198  155.7339 O   0  0  0  0  0  0  0  0  0  0  0  0
  149.2246  134.2864  153.7776 N   0  0  0  0  0  0  0  0  0  0  0  0
  148.8402  132.9164  153.7785 C   0  0  0  0  0  0  0  0  0  0  0  0
  149.6623  131.9306  154.3820 C   0  0  0  0  0  0  0  0  0  0  0  0
  149.3011  130.5723  154.3063 C   0  0  0  0  0  0  0  0  0  0  0  0
  148.1307  130.2176  153.6141 C   0  0  0  0  0  0  0  0  0  0  0  0
  147.3758  131.1777  153.0411 N   0  3  0  0  0  0  0  0  0  0  0  0
  147.6619  132.5030  153.0919 C   0  0  0  0  0  0  0  0  0  0  0  0
  146.7689  133.3974  152.4588 N   0  0  0  0  0  0  0  0  0  0  0  0
  146.6863  133.4510  151.0035 C   0  0  0  0  0  0  0  0  0  0  0  0
  145.3989  134.2154  150.7073 C   0  0  0  0  0  0  0  0  0  0  0  0
  144.4828  133.7651  151.8412 C   0  0  0  0  0  0  0  0  0  0  0  0
  145.4362  133.5800  153.0263 C   0  0  0  0  0  0  0  0  0  0  0  0
  150.8136  138.5703  154.5024 C   0  0  0  0  0  0  0  0  0  0  0  0
  151.4450  139.6553  155.3920 C   0  0  0  0  0  0  0  0  0  0  0  0
  149.8036  143.2409  155.4448 H   0  0  0  0  0  0  0  0  0  0  0  0
  149.8000  141.4898  155.3793 H   0  0  0  0  0  0  0  0  0  0  0  0
  152.3526  140.8683  157.4126 H   0  0  0  0  0  0  0  0  0  0  0  0
  150.9636  140.8324  158.4730 H   0  0  0  0  0  0  0  0  0  0  0  0
  151.7789  138.2656  157.6484 H   0  0  0  0  0  0  0  0  0  0  0  0
  150.2089  138.6073  158.3433 H   0  0  0  0  0  0  0  0  0  0  0  0
  150.1490  136.4563  157.1512 H   0  0  0  0  0  0  0  0  0  0  0  0
  149.0396  137.6050  156.4425 H   0  0  0  0  0  0  0  0  0  0  0  0
  151.8179  136.8889  155.3775 H   0  0  0  0  0  0  0  0  0  0  0  0
  149.6766  136.5660  153.5431 H   0  0  0  0  0  0  0  0  0  0  0  0
  148.8257  134.8542  153.0444 H   0  0  0  0  0  0  0  0  0  0  0  0
  150.5802  132.1963  154.8843 H   0  0  0  0  0  0  0  0  0  0  0  0
  149.9209  129.8137  154.7619 H   0  0  0  0  0  0  0  0  0  0  0  0
  147.7790  129.2026  153.4983 H   0  0  0  0  0  0  0  0  0  0  0  0
  147.5581  133.9441  150.5725 H   0  0  0  0  0  0  0  0  0  0  0  0
  146.6171  132.4453  150.5866 H   0  0  0  0  0  0  0  0  0  0  0  0
  145.5765  135.2895  150.7761 H   0  0  0  0  0  0  0  0  0  0  0  0
  144.9939  133.9997  149.7181 H   0  0  0  0  0  0  0  0  0  0  0  0
  143.6805  134.4737  152.0491 H   0  0  0  0  0  0  0  0  0  0  0  0
  144.0269  132.8081  151.5832 H   0  0  0  0  0  0  0  0  0  0  0  0
  145.1340  132.7365  153.6489 H   0  0  0  0  0  0  0  0  0  0  0  0
  145.4385  134.4769  153.6465 H   0  0  0  0  0  0  0  0  0  0  0  0
  151.3728  138.4879  153.5698 H   0  0  0  0  0  0  0  0  0  0  0  0
  149.8003  138.8704  154.2304 H   0  0  0  0  0  0  0  0  0  0  0  0
  151.4282  140.6033  154.8526 H   0  0  0  0  0  0  0  0  0  0  0  0
  152.4930  139.4211  155.5885 H   0  0  0  0  0  0  0  0  0  0  0  0
  146.5320  130.8883  152.5462 H   0  0  0  0  0  0  0  0  0  0  0  0
  1  2  1  0  0  0  0
  1 26  1  0  0  0  0
  1 27  1  0  0  0  0
  2  3  2  0  0  0  0
  2  4  1  0  0  0  0
  4  5  1  0  0  0  0
  4 28  1  0  0  0  0
  4 29  1  0  0  0  0
  5 25  1  0  0  0  0
  5  6  1  0  0  0  0
  6  7  1  0  0  0  0
  6 30  1  0  0  0  0
  6 31  1  0  0  0  0
  7  8  1  0  0  0  0
  7 32  1  0  0  0  0
  7 33  1  0  0  0  0
  8  9  1  0  0  0  0
  8 24  1  0  0  0  0
  8 34  1  0  0  0  0
  9 10  1  0  0  0  0
  9 35  1  0  0  0  0
 10 11  2  0  0  0  0
 10 12  1  0  0  0  0
 12 13  1  0  0  0  0
 12 36  1  0  0  0  0
 13 18  1  0  0  0  0
 13 14  2  0  0  0  0
 14 15  1  0  0  0  0
 14 37  1  0  0  0  0
 15 16  2  0  0  0  0
 15 38  1  0  0  0  0
 16 17  1  0  0  0  0
 16 39  1  0  0  0  0
 17 18  2  0  0  0  0
 17 52  1  0  0  0  0
 18 19  1  0  0  0  0
 19 23  1  0  0  0  0
 19 20  1  0  0  0  0
 20 21  1  0  0  0  0
 20 40  1  0  0  0  0
 20 41  1  0  0  0  0
 21 22  1  0  0  0  0
 21 42  1  0  0  0  0
 21 43  1  0  0  0  0
 22 23  1  0  0  0  0
 22 44  1  0  0  0  0
 22 45  1  0  0  0  0
 23 46  1  0  0  0  0
 23 47  1  0  0  0  0
 24 25  1  0  0  0  0
 24 48  1  0  0  0  0
 24 49  1  0  0  0  0
 25 50  1  0  0  0  0
 25 51  1  0  0  0  0
M  CHG  1  17   1
M  END
> <s_m_source_file>
AV-unprocessed.smi

> <i_m_source_file_index>
1740

> <i_lp_mmshare_version>
43012

> <i_f3d_flags>
0

> <s_epik_input>
W05IMl1DKD1PKVtDSDJdTjFbQ0gyXVtDSDJdW0NIXShbQ0gyXVtDSDJdMSlbTkhdQyg9TylbTkhdYzJbY0hdW2NIXVtjSF1uYzJOM1tDSDJdW0NIMl1bQ0gyXVtDSDJdMw==

> <s_epik_cmdline>
J2VwaWtfcHl0aG9uJywgJy1waCcsICc3LjAnLCAnLXRuJywgJzgnLCAnLW1hJywgJzIwMCcsICctbWV0YWxfYmluZGluZycsICctaW1hZScsICc8aW5maWxlLm1hZT4nLCAnLW9tYWUnLCAnPG91dGZpbGUubWFlPic=

> <r_epik_Ionization_Penalty>
1.24114

> <r_epik_Ionization_Penalty_Charging>
1.08532

> <r_epik_Ionization_Penalty_Neutral>
0.155817

> <r_epik_State_Penalty>
1.33508

> <r_epik_Charging_Adjusted_Penalty>
2.4204

> <i_epik_Tot_Q>
1

> <i_epik_Tot_abs_Q>
1

> <r_epik_Metal_State_Penalty>
1.43573

> <b_epik_Metal_Only>
0

> <s_lp_Force_Field>
OPLS_2005

> <r_lp_Energy>
46.1835

> <b_lp_Chiralities_Consistent>
1

> <s_lp_Variant>
AV-unprocessed.smi:1740-4

> <Gold.Version>
5.8.1

> <Gold.Id.Protein>
6NUR|6NUR_protein|mol2

> <Gold.PLP.Fitness>
47.3118

> <Gold.PLP.PLP>
-39.0981

> <Gold.PLP.part.hbond>
-4.0415

> <Gold.PLP.part.metal>
0.0000

> <Gold.PLP.part.buried>
-4.7155

> <Gold.PLP.part.nonpolar>
-30.8417

> <Gold.PLP.part.repulsive>
0.5084

> <Gold.PLP.ligand.clash>
0.0000

> <Gold.PLP.ligand.torsion>
0.5088

> <Gold.PLP.Chemscore.Hbond>
2.9520

> <Gold.PLP.Chemscore.CHOScore>
0.0000

> <Gold.PLP.Chemscore.Metal>
0.0000

> <Gold.Chemscore.Hbonds>
donor molecule, donor type, donor heavy atom, donor atom, acceptor molecule, acceptor atom, score
      L1  H     1    26       P1  8028  0.98
      L1  H     9    35       P1  7948  0.99
      L1  H    12    36       P1  7948  0.94

> <Gold.PLP.Chemscore.Internal.Correction>
0.3752

> <Gold.Rescore>
     Score         DG    S(hbond)    S(metal)    S(lipo)     H(rot)  DE(clash)    DE(int)     intcor
     14.10     -16.19       2.44        0.00      69.85       2.19       0.10       1.98       ----

> <Gold.Chemscore.Fitness>
14.1018

> <Gold.Chemscore.DG>
-16.1850

> <Gold.Chemscore.ZeroCoef>
-5.4800

> <Gold.Chemscore.Hbond>
2.4376

> <Gold.Chemscore.Metal>
0.0000

> <Gold.Chemscore.Lipo>
69.8531

> <Gold.Chemscore.Internal_Hbond>
0.0000

> <Gold.Chemscore.DEClash>
0.1034

> <Gold.Chemscore.DEInternal>
1.9798

> <Gold.Chemscore.Rot>
2.1911

> <Gold.Chemscore.Internal.Correction>
   9.000000E+99

> <Gold.Chemscore.Hbonds>
donor molecule, donor type, donor heavy atom, donor atom, acceptor molecule, acceptor atom, score
      L1  H     1    26       P1  8028  0.93
      L1  H     9    35       P1  7948  0.47
      L1  H    12    36       P1  7948  0.20

> <Gold.Chemscore.Hbond.Weighted>
-8.1414

> <Gold.Chemscore.Metal.Weighted>
-0.0000

> <Gold.Chemscore.Lipo.Weighted>
-8.1728

> <Gold.Chemscore.Internal_Hbond.Weighted>
0.0000

> <Gold.Chemscore.DEClash.Weighted>
0.1034

> <Gold.Chemscore.DEInternal.Weighted>
1.9798

> <Gold.Chemscore.Rot.Weighted>
5.6092

> <Gold.Chemscore.Internal.Correction.Weighted>
   9.000000E+99

> <Gold.Protein.RotatedTorsions>
[ 6907 6896 6895 6894 ] final  121.58 input  -60.11 | X-H torsion
[ 7974 7965 7964 7962 ] final  -92.51 input  175.53 | X-H torsion
[ 8008 7997 7996 7995 ] final  -76.87 input   59.86 | X-H torsion
[ 10167 10162 10161 10158 ] final  -42.54 input  -65.29 | X-H torsion
[ 10718 10713 10712 10709 ] final -176.11 input   66.30 | X-H torsion
[ 10763 10752 10751 10750 ] final  -11.15 input  -60.55 | X-H torsion
[ 11005 11000 10999 10996 ] final    0.86 input  -57.11 | X-H torsion

> <Gold.Protein.ActiveResidues>
 VAL166  LYS551  ARG553  GLY616  TRP617  ASP618  TYR619  PRO620  LYS621  CYS622 
 ASP623  PHE694  ASN695  SER759  ASP760  ASP761  ALA762  ILE779  LEU786  VAL792 
 PHE793  MET794  SER795  GLU796  ALA797  LYS798  CYS799  TRP800  GLU811  SER814 

> <Gold.Protein.RotatedAtoms>
  152.4311  133.7279  159.6570 H   0  0  0  0  0  0  0  0  0  0  0  0  # atno 6907 bound_to 6896
  150.8190  133.8276  159.3153 H   0  0  0  0  0  0  0  0  0  0  0  0  # atno 6908 bound_to 6896
  151.5963  135.1052  160.0102 H   0  0  0  0  0  0  0  0  0  0  0  0  # atno 6909 bound_to 6896
  145.3988  140.9535  143.2299 H   0  0  0  0  0  0  0  0  0  0  0  0  # atno 7974 bound_to 7965
  154.5544  140.0720  156.8719 H   0  0  0  0  0  0  0  0  0  0  0  0  # atno 8008 bound_to 7997
  155.2931  140.3379  155.4233 H   0  0  0  0  0  0  0  0  0  0  0  0  # atno 8009 bound_to 7997
  156.1989  140.1714  156.7926 H   0  0  0  0  0  0  0  0  0  0  0  0  # atno 8010 bound_to 7997
  140.6965  143.3032  151.3224 H   0  0  0  0  0  0  0  0  0  0  0  0  # atno 10167 bound_to 10162
  156.8099  130.9582  151.3116 H   0  0  0  0  0  0  0  0  0  0  0  0  # atno 10718 bound_to 10713
  153.4796  135.7017  153.5946 H   0  0  0  0  0  0  0  0  0  0  0  0  # atno 10763 bound_to 10752
  153.4165  135.3836  155.2084 H   0  0  0  0  0  0  0  0  0  0  0  0  # atno 10764 bound_to 10752
  154.8722  135.3917  154.4243 H   0  0  0  0  0  0  0  0  0  0  0  0  # atno 10765 bound_to 10752
  140.6219  133.9654  155.8229 H   0  0  0  0  0  0  0  0  0  0  0  0  # atno 11005 bound_to 11000
  144.8388  139.5505  143.6910 LP  0  0  0  0  0  0  0  0  0  0  0  0  # atno 17320 bound_to 7965
  146.2762  139.6758  142.9261 LP  0  0  0  0  0  0  0  0  0  0  0  0  # atno 17321 bound_to 7965
  139.6428  144.0507  152.2567 LP  0  0  0  0  0  0  0  0  0  0  0  0  # atno 17342 bound_to 10162
  140.0018  144.6287  150.7723 LP  0  0  0  0  0  0  0  0  0  0  0  0  # atno 17343 bound_to 10162
  157.6511  130.8885  149.9635 LP  0  0  0  0  0  0  0  0  0  0  0  0  # atno 17370 bound_to 10713
  156.1051  130.3653  150.0148 LP  0  0  0  0  0  0  0  0  0  0  0  0  # atno 17371 bound_to 10713
  141.0736  134.0168  157.3490 LP  0  0  0  0  0  0  0  0  0  0  0  0  # atno 17394 bound_to 11000
  139.9150  135.0195  156.7845 LP  0  0  0  0  0  0  0  0  0  0  0  0  # atno 17395 bound_to 11000

$$$$
