#       Name:                AV-unprocessed.smi:496
#       Creating user name   scv26
#       Creation time:       Thu Mar 26 23:16:47 2020


#       File generated by GOLD software.
#

@<TRIPOS>MOLECULE
AV-unprocessed.smi:496
    49    51     1
SMALL
NO_CHARGES


@<TRIPOS>ATOM
      1 ****        -4.7263   0.4207   0.5146 C.3            1 S1                 0.0000
      2 ****        -3.9188   0.7524   1.6334 O.3            1 S1                 0.0000
      3 ****        -2.5235   0.6711   1.3816 C.3            1 S1                 0.0000
      4 ****        -2.0274  -0.7850   1.3929 C.3            1 S1                 0.0000
      5 ****        -0.5620  -0.8614   1.2357 N.pl3          1 S1                 0.0000
      6 ****         0.2305  -0.9646   0.1199 C.2            1 S1                 0.0000
      7 ****        -0.1885  -1.0300  -1.3275 C.3            1 S1                 0.0000
      8 ****        -0.1501  -2.4802  -1.8280 C.3            1 S1                 0.0000
      9 ****         0.6673  -0.2040  -2.1807 N.pl3          1 S1                -1.0000
     10 ****         0.5824   1.1548  -2.2590 C.2            1 S1                 0.0000
     11 ****        -0.1674   1.9319  -1.6578 O.2            1 S1                 0.0000
     12 ****         1.5633   1.7271  -3.2111 C.2            1 S1                 0.0000
     13 ****         1.7914   3.0315  -3.5619 C.2            1 S1                 0.0000
     14 ****         2.8468   3.0237  -4.5155 C.2            1 S1                 0.0000
     15 ****         3.1917   1.7136  -4.6822 C.2            1 S1                 0.0000
     16 ****         2.4226   0.9117  -3.8973 O.3            1 S1                 0.0000
     17 ****         1.5233  -0.9990   0.5552 N.pl3          1 S1                 1.0000
     18 ****         1.5669  -0.8946   1.9439 C.ar           1 S1                 0.0000
     19 ****         2.6462  -0.8716   2.8215 C.ar           1 S1                 0.0000
     20 ****         2.3436  -0.7427   4.1927 C.ar           1 S1                 0.0000
     21 ****         1.0115  -0.6413   4.6434 C.ar           1 S1                 0.0000
     22 ****        -0.0739  -0.6678   3.7431 C.ar           1 S1                 0.0000
     23 ****         0.2330  -0.7991   2.3883 C.ar           1 S1                 0.0000
     24 ****        -5.7759   0.5616   0.7721 H              1 S1                 0.0000
     25 ****        -4.5980  -0.6186   0.2133 H              1 S1                 0.0000
     26 ****        -4.5028   1.0624  -0.3385 H              1 S1                 0.0000
     27 ****        -2.2677   1.1691   0.4449 H              1 S1                 0.0000
     28 ****        -2.0193   1.2270   2.1725 H              1 S1                 0.0000
     29 ****        -2.3138  -1.2867   2.3169 H              1 S1                 0.0000
     30 ****        -2.4834  -1.3634   0.5904 H              1 S1                 0.0000
     31 ****        -1.2257  -0.6969  -1.3842 H              1 S1                 0.0000
     32 ****        -0.8103  -3.1135  -1.2347 H              1 S1                 0.0000
     33 ****         0.8552  -2.8991  -1.7689 H              1 S1                 0.0000
     34 ****        -0.4786  -2.5476  -2.8658 H              1 S1                 0.0000
     35 ****         1.2604   3.8895  -3.1767 H              1 S1                 0.0000
     36 ****         3.2962   3.8691  -5.0150 H              1 S1                 0.0000
     37 ****         3.9242   1.2007  -5.2879 H              1 S1                 0.0000
     38 ****         3.6670  -0.9439   2.4759 H              1 S1                 0.0000
     39 ****         3.1492  -0.7170   4.9120 H              1 S1                 0.0000
     40 ****         0.8177  -0.5394   5.7013 H              1 S1                 0.0000
     41 ****        -1.0895  -0.5838   4.1006 H              1 S1                 0.0000
     42 ****         2.3140  -1.0657  -0.0729 H              1 S1                 0.0000
     43 ****        -4.1411   0.1244   2.3792 LP             1 S1                 0.0000
     44 ****        -4.1345   1.6887   1.9106 LP             1 S1                 0.0000
     45 ****         1.3564  -0.6643  -2.7404 LP             1 S1                 0.0000
     46 ****        -0.8343   1.5768  -1.0026 LP             1 S1                 0.0000
     47 ****        -0.1073   2.9157  -1.8266 LP             1 S1                 0.0000
     48 ****         1.9070   0.2690  -4.4641 LP             1 S1                 0.0000
     49 ****         2.9986   0.4036  -3.2570 LP             1 S1                 0.0000
@<TRIPOS>BOND
    1    1    2 1     
    2    1   24 1     
    3    1   25 1     
    4    1   26 1     
    5    2    3 1     
    6    3    4 1     
    7    3   27 1     
    8    3   28 1     
    9    4    5 1     
   10    4   29 1     
   11    4   30 1     
   12    5   23 1     
   13    5    6 1     
   14    6    7 1     
   15    6   17 2     
   16    7    8 1     
   17    7    9 1     
   18    7   31 1     
   19    8   32 1     
   20    8   33 1     
   21    8   34 1     
   22    9   10 1     
   23   10   11 2     
   24   10   12 1     
   25   12   16 1     
   26   12   13 2     
   27   13   14 1     
   28   13   35 1     
   29   14   15 2     
   30   14   36 1     
   31   15   16 1     
   32   15   37 1     
   33   17   18 1     
   34   17   42 1     
   35   18   23 ar    
   36   18   19 ar    
   37   19   20 ar    
   38   19   38 1     
   39   20   21 ar    
   40   20   39 1     
   41   21   22 ar    
   42   21   40 1     
   43   22   23 ar    
   44   22   41 1     
   45    2   43 1     
   46    2   44 1     
   47    9   45 1     
   48   11   46 1     
   49   11   47 1     
   50   16   48 1     
   51   16   49 1     
@<TRIPOS>SUBSTRUCTURE
      1 S1             1
@<TRIPOS>SET
LONE_PAIRS      STATIC     ATOMS    <user>   **** ""
7 43 44 45 46 47 48 49
DONOR_HYDROGENS      STATIC     ATOMS    <user>   **** ""
1 42
ATOM$BLUE        STATIC     ATOMS    COLORGROUP SYSTEM
7 43 44 45 46 47 48 49
ATOM$RED        STATIC     ATOMS    COLORGROUP SYSTEM
1 42
