#       Name:                AV-unprocessed.smi:657
#       Creating user name   scv26
#       Creation time:       Fri Mar 27 00:16:11 2020


#       File generated by GOLD software.
#

@<TRIPOS>MOLECULE
AV-unprocessed.smi:657
    50    51     1
SMALL
NO_CHARGES


@<TRIPOS>ATOM
      1 ****        -1.9565   2.2171  -0.7371 C.3            1 S1                 0.0000
      2 ****        -1.2110   0.9367  -0.3072 C.3            1 S1                 0.0000
      3 ****        -1.7866  -0.2489  -1.1109 C.3            1 S1                 0.0000
      4 ****        -1.2675   0.6969   1.1762 N.4            1 S1                 1.0000
      5 ****        -0.8610   1.8714   2.0092 C.3            1 S1                 0.0000
      6 ****        -1.1073   1.6337   3.5084 C.3            1 S1                 0.0000
      7 ****        -0.4108   0.3643   4.0002 C.3            1 S1                 0.0000
      8 ****        -0.8660  -0.8240   3.1456 C.3            1 S1                 0.0000
      9 ****        -0.6431  -0.5938   1.6333 C.3            1 S1                 0.0000
     10 ****         0.8417  -0.7691   1.2437 C.2            1 S1                 0.0000
     11 ****         1.6728   0.0993   1.5067 O.2            1 S1                 0.0000
     12 ****         1.1586  -1.9146   0.6202 N.am           1 S1                 0.0000
     13 ****         2.4936  -2.3019   0.1689 C.3            1 S1                 0.0000
     14 ****         3.0710  -1.3960  -0.9404 C.3            1 S1                 0.0000
     15 ****         2.0938  -1.0988  -2.0486 C.2            1 S1                 0.0000
     16 ****         1.3234  -2.0171  -2.8183 C.2            1 S1                 0.0000
     17 ****         0.5466  -1.4187  -3.7064 N.2            1 S1                 0.0000
     18 ****         0.8015  -0.1043  -3.5448 N.pl3          1 S1                 0.0000
     19 ****         0.1162   0.8652  -4.3723 C.3            1 S1                 0.0000
     20 ****         1.7345   0.1179  -2.5559 C.2            1 S1                 0.0000
     21 ****        -2.0011   2.2968  -1.8239 H              1 S1                 0.0000
     22 ****        -1.4563   3.1223  -0.3939 H              1 S1                 0.0000
     23 ****        -2.9817   2.2271  -0.3653 H              1 S1                 0.0000
     24 ****        -0.1680   1.0670  -0.5965 H              1 S1                 0.0000
     25 ****        -1.8555  -0.0102  -2.1720 H              1 S1                 0.0000
     26 ****        -2.7889  -0.5114  -0.7708 H              1 S1                 0.0000
     27 ****        -1.1605  -1.1378  -1.0443 H              1 S1                 0.0000
     28 ****         0.1823   2.1276   1.8274 H              1 S1                 0.0000
     29 ****        -1.4421   2.7518   1.7425 H              1 S1                 0.0000
     30 ****        -0.7596   2.4933   4.0824 H              1 S1                 0.0000
     31 ****        -2.1796   1.5548   3.6926 H              1 S1                 0.0000
     32 ****         0.6716   0.4845   3.9499 H              1 S1                 0.0000
     33 ****        -0.6529   0.1866   5.0482 H              1 S1                 0.0000
     34 ****        -0.3542  -1.7306   3.4725 H              1 S1                 0.0000
     35 ****        -1.9271  -1.0028   3.3251 H              1 S1                 0.0000
     36 ****        -1.1942  -1.4028   1.1543 H              1 S1                 0.0000
     37 ****         0.4167  -2.5774   0.4464 H              1 S1                 0.0000
     38 ****         3.1766  -2.3462   1.0184 H              1 S1                 0.0000
     39 ****         2.4123  -3.3207  -0.2111 H              1 S1                 0.0000
     40 ****         3.4175  -0.4659  -0.4888 H              1 S1                 0.0000
     41 ****         3.9692  -1.8656  -1.3422 H              1 S1                 0.0000
     42 ****         1.2993  -3.0947  -2.7504 H              1 S1                 0.0000
     43 ****         0.2046   1.8588  -3.9323 H              1 S1                 0.0000
     44 ****        -0.9406   0.6083  -4.4531 H              1 S1                 0.0000
     45 ****         0.5595   0.8753  -5.3684 H              1 S1                 0.0000
     46 ****         2.0575   1.1142  -2.2916 H              1 S1                 0.0000
     47 ****        -2.2506   0.5822   1.3766 H              1 S1                 0.0000
     48 ****         1.3911   0.9342   1.9796 LP             1 S1                 0.0000
     49 ****         2.6300  -0.0298   1.2475 LP             1 S1                 0.0000
     50 ****        -0.0869  -1.8450  -4.3522 LP             1 S1                 0.0000
@<TRIPOS>BOND
    1    1    2 1     
    2    1   21 1     
    3    1   22 1     
    4    1   23 1     
    5    2    3 1     
    6    2    4 1     
    7    2   24 1     
    8    3   25 1     
    9    3   26 1     
   10    3   27 1     
   11    4    9 1     
   12    4    5 1     
   13    4   47 1     
   14    5    6 1     
   15    5   28 1     
   16    5   29 1     
   17    6    7 1     
   18    6   30 1     
   19    6   31 1     
   20    7    8 1     
   21    7   32 1     
   22    7   33 1     
   23    8    9 1     
   24    8   34 1     
   25    8   35 1     
   26    9   10 1     
   27    9   36 1     
   28   10   11 2     
   29   10   12 am    
   30   12   13 1     
   31   12   37 1     
   32   13   14 1     
   33   13   38 1     
   34   13   39 1     
   35   14   15 1     
   36   14   40 1     
   37   14   41 1     
   38   15   20 2     
   39   15   16 1     
   40   16   17 2     
   41   16   42 1     
   42   17   18 1     
   43   18   19 1     
   44   18   20 1     
   45   19   43 1     
   46   19   44 1     
   47   19   45 1     
   48   20   46 1     
   49   11   48 1     
   50   11   49 1     
   51   17   50 1     
@<TRIPOS>SUBSTRUCTURE
      1 S1             1
@<TRIPOS>SET
LONE_PAIRS      STATIC     ATOMS    <user>   **** ""
3 48 49 50
DONOR_HYDROGENS      STATIC     ATOMS    <user>   **** ""
2 47 37
ATOM$BLUE        STATIC     ATOMS    COLORGROUP SYSTEM
3 48 49 50
ATOM$RED        STATIC     ATOMS    COLORGROUP SYSTEM
2 47 37
