AV-unprocessed.smi:2226|AV-procd|sdf|9002|dock4
  -GOLD-   2272012213D 1   1.00000     0.00000
 Structure written by MMmdl.
 40 42  0  0  0  0  0  0  0  0  2 V2000
  146.0192  143.2590  154.0653 C   0  0  0  0  0  0  0  0  0  0  0  0
  147.0504  142.5004  154.8127 N   0  3  2  0  0  0  0  0  0  0  0  0
  148.0788  141.8460  153.9677 C   0  0  1  0  0  0  0  0  0  0  0  0
  149.2960  141.4849  154.8515 C   0  0  0  0  0  0  0  0  0  0  0  0
  148.9365  140.6579  156.1033 C   0  0  0  0  0  0  0  0  0  0  0  0
  147.6499  141.1587  156.7916 C   0  0  0  0  0  0  0  0  0  0  0  0
  146.5184  141.5368  155.8068 C   0  0  2  0  0  0  0  0  0  0  0  0
  145.8308  140.3338  155.1133 C   0  0  0  0  0  0  0  0  0  0  0  0
  146.6832  139.6470  154.0215 C   0  0  1  0  0  0  0  0  0  0  0  0
  145.8114  138.8600  153.1494 N   0  0  0  0  0  0  0  0  0  0  0  0
  145.6881  137.5234  153.1570 C   0  0  0  0  0  0  0  0  0  0  0  0
  146.3110  136.7843  153.9194 O   0  0  0  0  0  0  0  0  0  0  0  0
  144.8046  137.1096  152.2324 N   0  0  0  0  0  0  0  0  0  0  0  0
  144.4146  135.7762  151.9471 C   0  0  0  0  0  0  0  0  0  0  0  0
  143.8014  134.9319  152.7782 N   0  0  0  0  0  0  0  0  0  0  0  0
  143.6388  133.7690  152.0390 C   0  0  0  0  0  0  0  0  0  0  0  0
  144.1679  133.9783  150.7913 C   0  0  0  0  0  0  0  0  0  0  0  0
  144.6654  135.2519  150.7184 O   0  0  0  0  0  0  0  0  0  0  0  0
  147.4807  140.6607  153.1688 C   0  0  0  0  0  0  0  0  0  0  0  0
  145.4055  142.6149  153.4362 H   0  0  0  0  0  0  0  0  0  0  0  0
  146.4880  144.0079  153.4263 H   0  0  0  0  0  0  0  0  0  0  0  0
  145.3593  143.7841  154.7564 H   0  0  0  0  0  0  0  0  0  0  0  0
  148.4313  142.5809  153.2426 H   0  0  0  0  0  0  0  0  0  0  0  0
  150.0530  140.9642  154.2641 H   0  0  0  0  0  0  0  0  0  0  0  0
  149.7633  142.4140  155.1814 H   0  0  0  0  0  0  0  0  0  0  0  0
  148.8469  139.6049  155.8501 H   0  0  0  0  0  0  0  0  0  0  0  0
  149.7645  140.6957  156.8122 H   0  0  0  0  0  0  0  0  0  0  0  0
  147.2981  140.4182  157.5108 H   0  0  0  0  0  0  0  0  0  0  0  0
  147.9008  142.0448  157.3765 H   0  0  0  0  0  0  0  0  0  0  0  0
  145.7568  142.0510  156.3947 H   0  0  0  0  0  0  0  0  0  0  0  0
  145.5254  139.5984  155.8588 H   0  0  0  0  0  0  0  0  0  0  0  0
  144.9019  140.6896  154.6656 H   0  0  0  0  0  0  0  0  0  0  0  0
  147.3887  138.9791  154.5077 H   0  0  0  0  0  0  0  0  0  0  0  0
  145.2552  139.3770  152.4839 H   0  0  0  0  0  0  0  0  0  0  0  0
  144.3623  137.8222  151.6711 H   0  0  0  0  0  0  0  0  0  0  0  0
  143.1641  132.8919  152.4540 H   0  0  0  0  0  0  0  0  0  0  0  0
  144.2629  133.3681  149.9052 H   0  0  0  0  0  0  0  0  0  0  0  0
  146.8242  141.0704  152.4000 H   0  0  0  0  0  0  0  0  0  0  0  0
  148.2706  140.1423  152.6237 H   0  0  0  0  0  0  0  0  0  0  0  0
  147.5438  143.2001  155.3490 H   0  0  0  0  0  0  0  0  0  0  0  0
  1  2  1  0  0  0  0
  1 20  1  0  0  0  0
  1 21  1  0  0  0  0
  1 22  1  0  0  0  0
  2  7  1  0  0  0  0
  2  3  1  0  0  0  0
  2 40  1  0  0  0  0
  3 19  1  0  0  0  0
  3  4  1  0  0  0  0
  3 23  1  0  0  0  0
  4  5  1  0  0  0  0
  4 24  1  0  0  0  0
  4 25  1  0  0  0  0
  5  6  1  0  0  0  0
  5 26  1  0  0  0  0
  5 27  1  0  0  0  0
  6  7  1  0  0  0  0
  6 28  1  0  0  0  0
  6 29  1  0  0  0  0
  7  8  1  0  0  0  0
  7 30  1  0  0  0  0
  8  9  1  0  0  0  0
  8 31  1  0  0  0  0
  8 32  1  0  0  0  0
  9 10  1  0  0  0  0
  9 19  1  0  0  0  0
  9 33  1  0  0  0  0
 10 11  1  0  0  0  0
 10 34  1  0  0  0  0
 11 12  2  0  0  0  0
 11 13  1  0  0  0  0
 13 14  1  0  0  0  0
 13 35  1  0  0  0  0
 14 18  1  0  0  0  0
 14 15  2  0  0  0  0
 15 16  1  0  0  0  0
 16 17  2  0  0  0  0
 16 36  1  0  0  0  0
 17 18  1  0  0  0  0
 17 37  1  0  0  0  0
 19 38  1  0  0  0  0
 19 39  1  0  0  0  0
M  CHG  1   2   1
M  END
> <s_m_source_file>
AV-unprocessed.smi

> <i_m_source_file_index>
2226

> <i_lp_mmshare_version>
43012

> <i_f3d_flags>
0

> <s_epik_input>
W0NIMl0xW0NIMl1bQ0gyXVtDQEhdKE4oW0NIM10pW0NIXTEyKVtDSDJdW0NASF0oW0NIMl0yKVtOSF1DKD1PKVtOSF1jM25bY0hdW2NIXW8z

> <s_epik_cmdline>
J2VwaWtfcHl0aG9uJywgJy1waCcsICc3LjAnLCAnLXRuJywgJzgnLCAnLW1hJywgJzIwMCcsICctbWV0YWxfYmluZGluZycsICctaW1hZScsICc8aW5maWxlLm1hZT4nLCAnLW9tYWUnLCAnPG91dGZpbGUubWFlPic=

> <r_lp_tautomer_probability>
0.785861

> <r_epik_Ionization_Penalty>
0.000929358

> <r_epik_Ionization_Penalty_Charging>
0.000890041

> <r_epik_Ionization_Penalty_Neutral>
3.93161e-05

> <r_epik_State_Penalty>
0.0312137

> <r_epik_Charging_Adjusted_Penalty>
0.0321037

> <i_epik_Tot_Q>
1

> <i_epik_Tot_abs_Q>
1

> <r_epik_Metal_State_Penalty>
0.0605703

> <b_epik_Metal_Only>
0

> <s_lp_Force_Field>
OPLS_2005

> <r_lp_Energy>
35.273

> <b_lp_Chiralities_Consistent>
1

> <s_lp_Variant>
AV-unprocessed.smi:2226-2

> <Gold.Version>
5.8.1

> <Gold.Id.Protein>
6NUR|6NUR_protein|mol2

> <Gold.PLP.Fitness>
38.7424

> <Gold.PLP.PLP>
-26.5837

> <Gold.PLP.part.hbond>
-3.0000

> <Gold.PLP.part.metal>
0.0000

> <Gold.PLP.part.buried>
-4.1227

> <Gold.PLP.part.nonpolar>
-21.5873

> <Gold.PLP.part.repulsive>
0.5560

> <Gold.PLP.ligand.clash>
0.0000

> <Gold.PLP.ligand.torsion>
0.7482

> <Gold.PLP.Chemscore.Hbond>
3.6724

> <Gold.PLP.Chemscore.CHOScore>
0.8771

> <Gold.PLP.Chemscore.Metal>
0.0000

> <Gold.Chemscore.Hbonds>
donor molecule, donor type, donor heavy atom, donor atom, acceptor molecule, acceptor atom, score
      L1  H     2    40       P1  8028  2.00
      L1  H    10    34       P1 10175  0.78
      L1  H    13    35       P1 10171  0.91
      L1  C    16    36       P1 10957  0.67

> <Gold.PLP.Chemscore.Internal.Correction>
0.0066

> <Gold.Rescore>
     Score         DG    S(hbond)    S(metal)    S(lipo)     H(rot)  DE(clash)    DE(int)     intcor
     16.05     -17.84       2.42        0.00      58.51       1.00       1.16       0.63       ----

> <Gold.Chemscore.Fitness>
16.0528

> <Gold.Chemscore.DG>
-17.8440

> <Gold.Chemscore.ZeroCoef>
-5.4800

> <Gold.Chemscore.Hbond>
2.4186

> <Gold.Chemscore.Metal>
0.0000

> <Gold.Chemscore.Lipo>
58.5105

> <Gold.Chemscore.Internal_Hbond>
0.0000

> <Gold.Chemscore.DEClash>
1.1623

> <Gold.Chemscore.DEInternal>
0.6289

> <Gold.Chemscore.Rot>
1.0000

> <Gold.Chemscore.Internal.Correction>
   9.000000E+99

> <Gold.Chemscore.Hbonds>
donor molecule, donor type, donor heavy atom, donor atom, acceptor molecule, acceptor atom, score
      L1  H     2    40       P1  8028  0.24
      L1  H    10    34       P1 10175  0.77
      L1  H    13    35       P1 10171  0.82

> <Gold.Chemscore.Hbond.Weighted>
-8.0782

> <Gold.Chemscore.Metal.Weighted>
-0.0000

> <Gold.Chemscore.Lipo.Weighted>
-6.8457

> <Gold.Chemscore.Internal_Hbond.Weighted>
0.0000

> <Gold.Chemscore.DEClash.Weighted>
1.1623

> <Gold.Chemscore.DEInternal.Weighted>
0.6289

> <Gold.Chemscore.Rot.Weighted>
2.5600

> <Gold.Chemscore.Internal.Correction.Weighted>
   9.000000E+99

> <Gold.Protein.RotatedTorsions>
[ 6907 6896 6895 6894 ] final   86.60 input  -60.11 | X-H torsion
[ 7974 7965 7964 7962 ] final  -37.79 input  175.53 | X-H torsion
[ 8008 7997 7996 7995 ] final  140.65 input   59.86 | X-H torsion
[ 10167 10162 10161 10158 ] final  -28.23 input  -65.29 | X-H torsion
[ 10718 10713 10712 10709 ] final   97.77 input   66.30 | X-H torsion
[ 10763 10752 10751 10750 ] final  -79.40 input  -60.55 | X-H torsion
[ 11005 11000 10999 10996 ] final  138.75 input  -57.11 | X-H torsion

> <Gold.Protein.ActiveResidues>
 VAL166  LYS551  ARG553  GLY616  TRP617  ASP618  TYR619  PRO620  LYS621  CYS622 
 ASP623  PHE694  ASN695  SER759  ASP760  ASP761  ALA762  ILE779  LEU786  VAL792 
 PHE793  MET794  SER795  GLU796  ALA797  LYS798  CYS799  TRP800  GLU811  SER814 

> <Gold.Protein.RotatedAtoms>
  152.5397  134.2406  159.8860 H   0  0  0  0  0  0  0  0  0  0  0  0  # atno 6907 bound_to 6896
  151.2374  133.4411  159.2613 H   0  0  0  0  0  0  0  0  0  0  0  0  # atno 6908 bound_to 6896
  151.0659  134.9781  159.8340 H   0  0  0  0  0  0  0  0  0  0  0  0  # atno 6909 bound_to 6896
  146.0543  140.6437  142.9027 H   0  0  0  0  0  0  0  0  0  0  0  0  # atno 7974 bound_to 7965
  156.2976  140.2336  156.4436 H   0  0  0  0  0  0  0  0  0  0  0  0  # atno 8008 bound_to 7997
  154.8164  140.0440  157.1400 H   0  0  0  0  0  0  0  0  0  0  0  0  # atno 8009 bound_to 7997
  154.9365  140.3023  155.5145 H   0  0  0  0  0  0  0  0  0  0  0  0  # atno 8010 bound_to 7997
  140.7271  143.4027  151.1237 H   0  0  0  0  0  0  0  0  0  0  0  0  # atno 10167 bound_to 10162
  157.6907  131.0619  150.4694 H   0  0  0  0  0  0  0  0  0  0  0  0  # atno 10718 bound_to 10713
  154.5381  135.5697  153.6816 H   0  0  0  0  0  0  0  0  0  0  0  0  # atno 10763 bound_to 10752
  152.9956  135.6221  154.2539 H   0  0  0  0  0  0  0  0  0  0  0  0  # atno 10764 bound_to 10752
  154.2468  135.2860  155.2812 H   0  0  0  0  0  0  0  0  0  0  0  0  # atno 10765 bound_to 10752
  140.0206  134.9398  157.0466 H   0  0  0  0  0  0  0  0  0  0  0  0  # atno 11005 bound_to 11000
  144.7139  140.4141  143.7059 LP  0  0  0  0  0  0  0  0  0  0  0  0  # atno 17320 bound_to 7965
  145.6670  139.1592  143.2776 LP  0  0  0  0  0  0  0  0  0  0  0  0  # atno 17321 bound_to 7965
  139.7650  143.8579  152.3108 LP  0  0  0  0  0  0  0  0  0  0  0  0  # atno 17342 bound_to 10162
  139.8478  144.7179  150.9251 LP  0  0  0  0  0  0  0  0  0  0  0  0  # atno 17343 bound_to 10162
  156.5033  130.4122  149.6341 LP  0  0  0  0  0  0  0  0  0  0  0  0  # atno 17370 bound_to 10713
  156.3308  130.7330  151.2259 LP  0  0  0  0  0  0  0  0  0  0  0  0  # atno 17371 bound_to 10713
  140.4394  134.1697  155.7173 LP  0  0  0  0  0  0  0  0  0  0  0  0  # atno 17394 bound_to 11000
  141.1771  133.8491  157.1384 LP  0  0  0  0  0  0  0  0  0  0  0  0  # atno 17395 bound_to 11000

$$$$
