AV-unprocessed.smi:2083|AV-procd|sdf|8490|dock5
  -GOLD-   2272011193D 1   1.00000     0.00000
 Structure written by MMmdl.
 45 46  0  0  0  0  0  0  0  0  2 V2000
  137.7154  136.8927  155.1299 C   0  0  0  0  0  0  0  0  0  0  0  0
  138.8513  137.6504  154.5328 C   0  0  0  0  0  0  0  0  0  0  0  0
  140.0743  137.2705  154.0562 C   0  0  0  0  0  0  0  0  0  0  0  0
  140.6519  138.4999  153.6423 C   0  0  0  0  0  0  0  0  0  0  0  0
  141.9539  138.5389  153.0815 N   0  0  0  0  0  0  0  0  0  0  0  0
  142.7903  137.5066  152.8814 C   0  0  0  0  0  0  0  0  0  0  0  0
  142.5579  136.3343  153.1780 O   0  0  0  0  0  0  0  0  0  0  0  0
  143.9349  137.9099  152.3113 N   0  0  0  0  0  0  0  0  0  0  0  0
  145.0435  137.0309  151.9500 C   0  0  0  0  0  0  0  0  0  0  0  0
  145.7309  136.3736  153.1806 C   0  0  2  0  0  0  0  0  0  0  0  0
  146.6453  137.3968  153.8917 C   0  0  0  0  0  0  0  0  0  0  0  0
  146.5092  135.1305  152.8618 N   0  3  1  0  0  0  0  0  0  0  0  0
  147.1450  134.5435  154.0761 C   0  0  0  0  0  0  0  0  0  0  0  0
  148.1038  133.3996  153.7160 C   0  0  0  0  0  0  0  0  0  0  0  0
  147.3669  132.3019  152.9438 C   0  0  0  0  0  0  0  0  0  0  0  0
  146.6951  132.9021  151.7007 C   0  0  1  0  0  0  0  0  0  0  0  0
  145.9282  131.8334  150.9084 C   0  0  0  0  0  0  0  0  0  0  0  0
  145.7785  134.0805  152.0914 C   0  0  0  0  0  0  0  0  0  0  0  0
  139.8534  139.5365  153.8445 N   0  0  0  0  0  0  0  0  0  0  0  0
  138.6951  138.9973  154.4171 O   0  0  0  0  0  0  0  0  0  0  0  0
  137.8809  135.8179  155.0524 H   0  0  0  0  0  0  0  0  0  0  0  0
  136.7812  137.1284  154.6200 H   0  0  0  0  0  0  0  0  0  0  0  0
  137.5982  137.1416  156.1847 H   0  0  0  0  0  0  0  0  0  0  0  0
  140.4863  136.2733  154.0141 H   0  0  0  0  0  0  0  0  0  0  0  0
  142.2783  139.4499  152.7929 H   0  0  0  0  0  0  0  0  0  0  0  0
  144.0432  138.8916  152.1006 H   0  0  0  0  0  0  0  0  0  0  0  0
  144.6490  136.2789  151.2649 H   0  0  0  0  0  0  0  0  0  0  0  0
  145.7665  137.6236  151.3883 H   0  0  0  0  0  0  0  0  0  0  0  0
  144.9370  136.0878  153.8726 H   0  0  0  0  0  0  0  0  0  0  0  0
  146.0946  138.2853  154.2004 H   0  0  0  0  0  0  0  0  0  0  0  0
  147.4527  137.7230  153.2356 H   0  0  0  0  0  0  0  0  0  0  0  0
  147.1002  136.9966  154.7961 H   0  0  0  0  0  0  0  0  0  0  0  0
  147.7037  135.2968  154.6286 H   0  0  0  0  0  0  0  0  0  0  0  0
  146.3689  134.1778  154.7508 H   0  0  0  0  0  0  0  0  0  0  0  0
  148.9300  133.7848  153.1168 H   0  0  0  0  0  0  0  0  0  0  0  0
  148.5456  132.9839  154.6221 H   0  0  0  0  0  0  0  0  0  0  0  0
  148.0660  131.5155  152.6567 H   0  0  0  0  0  0  0  0  0  0  0  0
  146.6183  131.8371  153.5872 H   0  0  0  0  0  0  0  0  0  0  0  0
  147.4805  133.2902  151.0498 H   0  0  0  0  0  0  0  0  0  0  0  0
  145.1185  131.4056  151.5005 H   0  0  0  0  0  0  0  0  0  0  0  0
  146.5873  131.0184  150.6081 H   0  0  0  0  0  0  0  0  0  0  0  0
  145.4915  132.2530  150.0016 H   0  0  0  0  0  0  0  0  0  0  0  0
  144.9271  133.7263  152.6751 H   0  0  0  0  0  0  0  0  0  0  0  0
  145.3883  134.4930  151.1618 H   0  0  0  0  0  0  0  0  0  0  0  0
  147.2612  135.4284  152.2571 H   0  0  0  0  0  0  0  0  0  0  0  0
  1  2  1  0  0  0  0
  1 21  1  0  0  0  0
  1 22  1  0  0  0  0
  1 23  1  0  0  0  0
  2 20  1  0  0  0  0
  2  3  2  0  0  0  0
  3  4  1  0  0  0  0
  3 24  1  0  0  0  0
  4  5  1  0  0  0  0
  4 19  2  0  0  0  0
  5  6  1  0  0  0  0
  5 25  1  0  0  0  0
  6  7  2  0  0  0  0
  6  8  1  0  0  0  0
  8  9  1  0  0  0  0
  8 26  1  0  0  0  0
  9 10  1  0  0  0  0
  9 27  1  0  0  0  0
  9 28  1  0  0  0  0
 10 11  1  0  0  0  0
 10 12  1  0  0  0  0
 10 29  1  0  0  0  0
 11 30  1  0  0  0  0
 11 31  1  0  0  0  0
 11 32  1  0  0  0  0
 12 18  1  0  0  0  0
 12 13  1  0  0  0  0
 12 45  1  0  0  0  0
 13 14  1  0  0  0  0
 13 33  1  0  0  0  0
 13 34  1  0  0  0  0
 14 15  1  0  0  0  0
 14 35  1  0  0  0  0
 14 36  1  0  0  0  0
 15 16  1  0  0  0  0
 15 37  1  0  0  0  0
 15 38  1  0  0  0  0
 16 17  1  0  0  0  0
 16 18  1  0  0  0  0
 16 39  1  0  0  0  0
 17 40  1  0  0  0  0
 17 41  1  0  0  0  0
 17 42  1  0  0  0  0
 18 43  1  0  0  0  0
 18 44  1  0  0  0  0
 19 20  1  0  0  0  0
M  CHG  1  12   1
M  END
> <s_m_source_file>
AV-unprocessed.smi

> <i_m_source_file_index>
2083

> <i_lp_mmshare_version>
43012

> <i_f3d_flags>
0

> <s_epik_input>
W0NIM11jMVtjSF1jKG5vMSlbTkhdQyg9TylbTkhdW0NIMl1bQ0BIXShbQ0gzXSlOMltDSDJdW0NIMl1bQ0gyXVtDQEBIXShbQ0gzXSlbQ0gyXTI=

> <s_epik_cmdline>
J2VwaWtfcHl0aG9uJywgJy1waCcsICc3LjAnLCAnLXRuJywgJzgnLCAnLW1hJywgJzIwMCcsICctbWV0YWxfYmluZGluZycsICctaW1hZScsICc8aW5maWxlLm1hZT4nLCAnLW9tYWUnLCAnPG91dGZpbGUubWFlPic=

> <r_epik_Ionization_Penalty>
0.00216453

> <r_epik_Ionization_Penalty_Charging>
0.00212879

> <r_epik_Ionization_Penalty_Neutral>
3.57418e-05

> <r_epik_State_Penalty>
0.00146033

> <r_epik_Charging_Adjusted_Penalty>
0.00358912

> <i_epik_Tot_Q>
1

> <i_epik_Tot_abs_Q>
1

> <r_epik_Metal_State_Penalty>
0.0215827

> <b_epik_Metal_Only>
0

> <s_lp_Force_Field>
OPLS_2005

> <r_lp_Energy>
19.0311

> <b_lp_Chiralities_Consistent>
1

> <s_lp_Variant>
AV-unprocessed.smi:2083-1

> <Gold.Version>
5.8.1

> <Gold.Id.Protein>
6NUR|6NUR_protein|mol2

> <Gold.PLP.Fitness>
41.1692

> <Gold.PLP.PLP>
-29.6687

> <Gold.PLP.part.hbond>
-4.1467

> <Gold.PLP.part.metal>
0.0000

> <Gold.PLP.part.buried>
-2.6410

> <Gold.PLP.part.nonpolar>
-23.8505

> <Gold.PLP.part.repulsive>
0.4593

> <Gold.PLP.ligand.clash>
0.0000

> <Gold.PLP.ligand.torsion>
0.2082

> <Gold.PLP.Chemscore.Hbond>
3.9520

> <Gold.PLP.Chemscore.CHOScore>
0.0000

> <Gold.PLP.Chemscore.Metal>
0.0000

> <Gold.Chemscore.Hbonds>
donor molecule, donor type, donor heavy atom, donor atom, acceptor molecule, acceptor atom, score
      L1  H     5    25       P1 10175  0.96
      L1  H     8    26       P1 10175  0.98
      L1  H    12    45       P1  7948  2.00

> <Gold.PLP.Chemscore.Internal.Correction>
0.0610

> <Gold.Rescore>
     Score         DG    S(hbond)    S(metal)    S(lipo)     H(rot)  DE(clash)    DE(int)     intcor
     17.09     -19.06       2.92        0.00      66.40       1.55       0.30       1.67       ----

> <Gold.Chemscore.Fitness>
17.0902

> <Gold.Chemscore.DG>
-19.0564

> <Gold.Chemscore.ZeroCoef>
-5.4800

> <Gold.Chemscore.Hbond>
2.9247

> <Gold.Chemscore.Metal>
0.0000

> <Gold.Chemscore.Lipo>
66.4019

> <Gold.Chemscore.Internal_Hbond>
0.0000

> <Gold.Chemscore.DEClash>
0.3005

> <Gold.Chemscore.DEInternal>
1.6657

> <Gold.Chemscore.Rot>
1.5474

> <Gold.Chemscore.Internal.Correction>
   9.000000E+99

> <Gold.Chemscore.Hbonds>
donor molecule, donor type, donor heavy atom, donor atom, acceptor molecule, acceptor atom, score
      L1  H     5    25       P1 10175  0.81
      L1  H     8    26       P1 10175  0.93
      L1  H    12    45       P1  7948  0.98

> <Gold.Chemscore.Hbond.Weighted>
-9.7686

> <Gold.Chemscore.Metal.Weighted>
-0.0000

> <Gold.Chemscore.Lipo.Weighted>
-7.7690

> <Gold.Chemscore.Internal_Hbond.Weighted>
0.0000

> <Gold.Chemscore.DEClash.Weighted>
0.3005

> <Gold.Chemscore.DEInternal.Weighted>
1.6657

> <Gold.Chemscore.Rot.Weighted>
3.9612

> <Gold.Chemscore.Internal.Correction.Weighted>
   9.000000E+99

> <Gold.Protein.RotatedTorsions>
[ 6907 6896 6895 6894 ] final -108.15 input  -60.11 | X-H torsion
[ 7974 7965 7964 7962 ] final -118.22 input  175.53 | X-H torsion
[ 8008 7997 7996 7995 ] final  124.08 input   59.86 | X-H torsion
[ 10167 10162 10161 10158 ] final  121.41 input  -65.29 | X-H torsion
[ 10718 10713 10712 10709 ] final   47.80 input   66.30 | X-H torsion
[ 10763 10752 10751 10750 ] final   39.33 input  -60.55 | X-H torsion
[ 11005 11000 10999 10996 ] final   41.21 input  -57.11 | X-H torsion

> <Gold.Protein.ActiveResidues>
 VAL166  LYS551  ARG553  GLY616  TRP617  ASP618  TYR619  PRO620  LYS621  CYS622 
 ASP623  PHE694  ASN695  SER759  ASP760  ASP761  ALA762  ILE779  LEU786  VAL792 
 PHE793  MET794  SER795  GLU796  ALA797  LYS798  CYS799  TRP800  GLU811  SER814 

> <Gold.Protein.RotatedAtoms>
  150.7485  133.9720  159.3548 H   0  0  0  0  0  0  0  0  0  0  0  0  # atno 6907 bound_to 6896
  151.7655  135.0797  160.0361 H   0  0  0  0  0  0  0  0  0  0  0  0  # atno 6908 bound_to 6896
  152.3374  133.5991  159.5888 H   0  0  0  0  0  0  0  0  0  0  0  0  # atno 6909 bound_to 6896
  145.0763  140.8394  143.4065 H   0  0  0  0  0  0  0  0  0  0  0  0  # atno 7974 bound_to 7965
  156.2789  140.2748  156.1730 H   0  0  0  0  0  0  0  0  0  0  0  0  # atno 8008 bound_to 7997
  155.0635  140.0387  157.2602 H   0  0  0  0  0  0  0  0  0  0  0  0  # atno 8009 bound_to 7997
  154.7098  140.2666  155.6646 H   0  0  0  0  0  0  0  0  0  0  0  0  # atno 8010 bound_to 7997
  139.5921  144.7029  151.3265 H   0  0  0  0  0  0  0  0  0  0  0  0  # atno 10167 bound_to 10162
  157.4622  130.8203  149.7898 H   0  0  0  0  0  0  0  0  0  0  0  0  # atno 10718 bound_to 10713
  152.9971  135.6223  154.2448 H   0  0  0  0  0  0  0  0  0  0  0  0  # atno 10763 bound_to 10752
  154.2188  135.2797  155.2934 H   0  0  0  0  0  0  0  0  0  0  0  0  # atno 10764 bound_to 10752
  154.5546  135.5723  153.7011 H   0  0  0  0  0  0  0  0  0  0  0  0  # atno 10765 bound_to 10752
  140.1856  134.4050  155.8175 H   0  0  0  0  0  0  0  0  0  0  0  0  # atno 11005 bound_to 11000
  145.1232  139.2680  143.5578 LP  0  0  0  0  0  0  0  0  0  0  0  0  # atno 17320 bound_to 7965
  146.3530  140.0861  142.8615 LP  0  0  0  0  0  0  0  0  0  0  0  0  # atno 17321 bound_to 7965
  140.7182  143.7209  150.7696 LP  0  0  0  0  0  0  0  0  0  0  0  0  # atno 17342 bound_to 10162
  140.0767  143.5008  152.2551 LP  0  0  0  0  0  0  0  0  0  0  0  0  # atno 17343 bound_to 10162
  156.0034  130.3868  150.2521 LP  0  0  0  0  0  0  0  0  0  0  0  0  # atno 17370 bound_to 10713
  157.0699  131.0114  151.3194 LP  0  0  0  0  0  0  0  0  0  0  0  0  # atno 17371 bound_to 10713
  141.2225  133.7021  156.8006 LP  0  0  0  0  0  0  0  0  0  0  0  0  # atno 17394 bound_to 11000
  140.2218  134.8751  157.3385 LP  0  0  0  0  0  0  0  0  0  0  0  0  # atno 17395 bound_to 11000

$$$$
