AV-unprocessed.smi:3348|AV-procd|sdf|12924|dock9
  -GOLD-   2272019353D 1   1.00000     0.00000
 Structure written by MMmdl.
 46 47  0  0  0  0  0  0  0  0  1 V2000
  147.4185  141.6625  155.7159 C   0  0  0  0  0  0  0  0  0  0  0  0
  148.2988  140.4026  155.7834 C   0  0  1  0  0  0  0  0  0  0  0  0
  149.0965  140.1698  154.4760 C   0  0  0  0  0  0  0  0  0  0  0  0
  150.3390  139.4466  154.6809 N   0  0  0  0  0  0  0  0  0  0  0  0
  150.6668  138.1712  154.2710 C   0  0  0  0  0  0  0  0  0  0  0  0
  151.9468  137.9294  154.6799 C   0  0  0  0  0  0  0  0  0  0  0  0
  152.3251  139.1338  155.3359 C   0  0  0  0  0  0  0  0  0  0  0  0
  151.3625  140.0417  155.3311 N   0  0  0  0  0  0  0  0  0  0  0  0
  149.1829  140.5020  156.9491 N   0  0  0  0  0  0  0  0  0  0  0  0
  149.9640  141.7343  157.0471 C   0  0  0  0  0  0  0  0  0  0  0  0
  150.7910  141.7611  158.3431 C   0  0  0  0  0  0  0  0  0  0  0  0
  152.0792  142.3333  158.1490 O   0  0  0  0  0  0  0  0  0  0  0  0
  152.7481  142.7503  159.3346 C   0  0  2  0  0  0  0  0  0  0  0  0
  153.0727  141.4848  160.1502 C   0  0  0  0  0  0  0  0  0  0  0  0
  153.6969  141.8364  161.5080 C   0  0  0  0  0  0  0  0  0  0  0  0
  152.7817  142.7779  162.3041 C   0  0  0  0  0  0  0  0  0  0  0  0
  152.4506  144.0430  161.4968 C   0  0  0  0  0  0  0  0  0  0  0  0
  151.8264  143.7049  160.1273 C   0  0  1  0  0  0  0  0  0  0  0  0
  151.5189  144.9896  159.3415 C   0  0  0  0  0  0  0  0  0  0  0  0
  146.6620  141.5853  154.9347 H   0  0  0  0  0  0  0  0  0  0  0  0
  148.0150  142.5533  155.5164 H   0  0  0  0  0  0  0  0  0  0  0  0
  146.8894  141.8200  156.6564 H   0  0  0  0  0  0  0  0  0  0  0  0
  147.6315  139.5518  155.9272 H   0  0  0  0  0  0  0  0  0  0  0  0
  148.4904  139.6085  153.7631 H   0  0  0  0  0  0  0  0  0  0  0  0
  149.3467  141.1162  153.9960 H   0  0  0  0  0  0  0  0  0  0  0  0
  149.9697  137.5486  153.7298 H   0  0  0  0  0  0  0  0  0  0  0  0
  152.5255  137.0297  154.5318 H   0  0  0  0  0  0  0  0  0  0  0  0
  153.2651  139.3745  155.8102 H   0  0  0  0  0  0  0  0  0  0  0  0
  148.6473  140.3698  157.8011 H   0  0  0  0  0  0  0  0  0  0  0  0
  150.6025  141.8549  156.1721 H   0  0  0  0  0  0  0  0  0  0  0  0
  149.2972  142.5954  157.0628 H   0  0  0  0  0  0  0  0  0  0  0  0
  150.2599  142.3112  159.1212 H   0  0  0  0  0  0  0  0  0  0  0  0
  150.9176  140.7464  158.7222 H   0  0  0  0  0  0  0  0  0  0  0  0
  153.6802  143.2726  159.1092 H   0  0  0  0  0  0  0  0  0  0  0  0
  152.1605  140.9084  160.3097 H   0  0  0  0  0  0  0  0  0  0  0  0
  153.7491  140.8395  159.5890 H   0  0  0  0  0  0  0  0  0  0  0  0
  153.8823  140.9264  162.0794 H   0  0  0  0  0  0  0  0  0  0  0  0
  154.6672  142.3099  161.3540 H   0  0  0  0  0  0  0  0  0  0  0  0
  151.8588  142.2582  162.5642 H   0  0  0  0  0  0  0  0  0  0  0  0
  153.2587  143.0514  163.2455 H   0  0  0  0  0  0  0  0  0  0  0  0
  151.7701  144.6722  162.0716 H   0  0  0  0  0  0  0  0  0  0  0  0
  153.3605  144.6272  161.3522 H   0  0  0  0  0  0  0  0  0  0  0  0
  150.8806  143.1918  160.3079 H   0  0  0  0  0  0  0  0  0  0  0  0
  152.4311  145.5404  159.1101 H   0  0  0  0  0  0  0  0  0  0  0  0
  150.8656  145.6509  159.9112 H   0  0  0  0  0  0  0  0  0  0  0  0
  151.0159  144.7682  158.4000 H   0  0  0  0  0  0  0  0  0  0  0  0
  1  2  1  0  0  0  0
  1 20  1  0  0  0  0
  1 21  1  0  0  0  0
  1 22  1  0  0  0  0
  2  3  1  0  0  0  0
  2  9  1  0  0  0  0
  2 23  1  0  0  0  0
  3  4  1  0  0  0  0
  3 24  1  0  0  0  0
  3 25  1  0  0  0  0
  4  8  1  0  0  0  0
  4  5  1  0  0  0  0
  5  6  2  0  0  0  0
  5 26  1  0  0  0  0
  6  7  1  0  0  0  0
  6 27  1  0  0  0  0
  7  8  2  0  0  0  0
  7 28  1  0  0  0  0
  9 10  1  0  0  0  0
  9 29  1  0  0  0  0
 10 11  1  0  0  0  0
 10 30  1  0  0  0  0
 10 31  1  0  0  0  0
 11 12  1  0  0  0  0
 11 32  1  0  0  0  0
 11 33  1  0  0  0  0
 12 13  1  0  0  0  0
 13 18  1  0  0  0  0
 13 14  1  0  0  0  0
 13 34  1  0  0  0  0
 14 15  1  0  0  0  0
 14 35  1  0  0  0  0
 14 36  1  0  0  0  0
 15 16  1  0  0  0  0
 15 37  1  0  0  0  0
 15 38  1  0  0  0  0
 16 17  1  0  0  0  0
 16 39  1  0  0  0  0
 16 40  1  0  0  0  0
 17 18  1  0  0  0  0
 17 41  1  0  0  0  0
 17 42  1  0  0  0  0
 18 19  1  0  0  0  0
 18 43  1  0  0  0  0
 19 44  1  0  0  0  0
 19 45  1  0  0  0  0
 19 46  1  0  0  0  0
M  END
> <s_m_source_file>
AV-unprocessed.smi

> <i_m_source_file_index>
3348

> <i_lp_mmshare_version>
43012

> <i_f3d_flags>
0

> <s_epik_input>
bjFbY0hdW2NIXVtjSF1uMVtDSDJdW0NAQEhdKFtDSDNdKVtOSF1bQ0gyXVtDSDJdT1tDQEBIXTJbQ0gyXVtDSDJdW0NIMl1bQ0gyXVtDQEhdMltDSDNd

> <s_epik_cmdline>
J2VwaWtfcHl0aG9uJywgJy1waCcsICc3LjAnLCAnLXRuJywgJzgnLCAnLW1hJywgJzIwMCcsICctbWV0YWxfYmluZGluZycsICctaW1hZScsICc8aW5maWxlLm1hZT4nLCAnLW9tYWUnLCAnPG91dGZpbGUubWFlPic=

> <r_lp_tautomer_probability>
1

> <r_epik_Ionization_Penalty>
2.46945

> <r_epik_Ionization_Penalty_Charging>
0

> <r_epik_Ionization_Penalty_Neutral>
2.46945

> <r_epik_State_Penalty>
2.6322

> <r_epik_Charging_Adjusted_Penalty>
2.6322

> <i_epik_Tot_Q>
0

> <i_epik_Tot_abs_Q>
0

> <r_epik_Metal_State_Penalty>
2.63217

> <b_epik_Metal_Only>
0

> <s_lp_Force_Field>
OPLS_2005

> <r_lp_Energy>
18.9542

> <b_lp_Chiralities_Consistent>
1

> <s_lp_Variant>
AV-unprocessed.smi:3348-10

> <Gold.Version>
5.8.1

> <Gold.Id.Protein>
6NUR|6NUR_protein|mol2

> <Gold.PLP.Fitness>
50.2594

> <Gold.PLP.PLP>
-48.6475

> <Gold.PLP.part.hbond>
-1.0000

> <Gold.PLP.part.metal>
0.0000

> <Gold.PLP.part.buried>
-4.7671

> <Gold.PLP.part.nonpolar>
-42.3276

> <Gold.PLP.part.repulsive>
0.0476

> <Gold.PLP.ligand.clash>
0.0000

> <Gold.PLP.ligand.torsion>
0.8494

> <Gold.PLP.Chemscore.Hbond>
0.0800

> <Gold.PLP.Chemscore.CHOScore>
1.0000

> <Gold.PLP.Chemscore.Metal>
0.0000

> <Gold.Chemscore.Hbonds>
donor molecule, donor type, donor heavy atom, donor atom, acceptor molecule, acceptor atom, score
      P1  H  7989  7998       L1     8  0.10
      L1  C     5    26       P1  7948  1.00

> <Gold.PLP.Chemscore.Internal.Correction>
0.0708

> <Gold.Rescore>
     Score         DG    S(hbond)    S(metal)    S(lipo)     H(rot)  DE(clash)    DE(int)     intcor
     15.20     -16.73       0.00        0.00     133.90       1.72       0.05       1.48       ----

> <Gold.Chemscore.Fitness>
15.2039

> <Gold.Chemscore.DG>
-16.7341

> <Gold.Chemscore.ZeroCoef>
-5.4800

> <Gold.Chemscore.Hbond>
0.0000

> <Gold.Chemscore.Metal>
0.0000

> <Gold.Chemscore.Lipo>
133.9032

> <Gold.Chemscore.Internal_Hbond>
0.0000

> <Gold.Chemscore.DEClash>
0.0458

> <Gold.Chemscore.DEInternal>
1.4844

> <Gold.Chemscore.Rot>
1.7237

> <Gold.Chemscore.Internal.Correction>
   9.000000E+99

> <Gold.Chemscore.Hbond.Weighted>
-0.0000

> <Gold.Chemscore.Metal.Weighted>
-0.0000

> <Gold.Chemscore.Lipo.Weighted>
-15.6667

> <Gold.Chemscore.Internal_Hbond.Weighted>
0.0000

> <Gold.Chemscore.DEClash.Weighted>
0.0458

> <Gold.Chemscore.DEInternal.Weighted>
1.4844

> <Gold.Chemscore.Rot.Weighted>
4.4126

> <Gold.Chemscore.Internal.Correction.Weighted>
   9.000000E+99

> <Gold.Protein.RotatedTorsions>
[ 6907 6896 6895 6894 ] final  -55.48 input  -60.11 | X-H torsion
[ 7974 7965 7964 7962 ] final   -7.40 input  175.53 | X-H torsion
[ 8008 7997 7996 7995 ] final -119.53 input   59.86 | X-H torsion
[ 10167 10162 10161 10158 ] final -128.07 input  -65.29 | X-H torsion
[ 10718 10713 10712 10709 ] final   55.40 input   66.30 | X-H torsion
[ 10763 10752 10751 10750 ] final  114.40 input  -60.55 | X-H torsion
[ 11005 11000 10999 10996 ] final -102.39 input  -57.11 | X-H torsion

> <Gold.Protein.ActiveResidues>
 VAL166  LYS551  ARG553  GLY616  TRP617  ASP618  TYR619  PRO620  LYS621  CYS622 
 ASP623  PHE694  ASN695  SER759  ASP760  ASP761  ALA762  ILE779  LEU786  VAL792 
 PHE793  MET794  SER795  GLU796  ALA797  LYS798  CYS799  TRP800  GLU811  SER814 

> <Gold.Protein.RotatedAtoms>
  150.8248  134.7474  159.6803 H   0  0  0  0  0  0  0  0  0  0  0  0  # atno 6907 bound_to 6896
  152.4360  134.5682  159.9923 H   0  0  0  0  0  0  0  0  0  0  0  0  # atno 6908 bound_to 6896
  151.5857  133.3335  159.3053 H   0  0  0  0  0  0  0  0  0  0  0  0  # atno 6909 bound_to 6896
  146.2308  140.2314  142.8340 H   0  0  0  0  0  0  0  0  0  0  0  0  # atno 7974 bound_to 7965
  155.1172  140.0398  157.2740 H   0  0  0  0  0  0  0  0  0  0  0  0  # atno 8008 bound_to 7997
  154.6640  140.2597  155.7052 H   0  0  0  0  0  0  0  0  0  0  0  0  # atno 8009 bound_to 7997
  156.2631  140.2811  156.1124 H   0  0  0  0  0  0  0  0  0  0  0  0  # atno 8010 bound_to 7997
  139.9541  143.6022  152.2466 H   0  0  0  0  0  0  0  0  0  0  0  0  # atno 10167 bound_to 10162
  157.5342  130.8651  149.8729 H   0  0  0  0  0  0  0  0  0  0  0  0  # atno 10718 bound_to 10713
  153.5067  135.3626  155.2566 H   0  0  0  0  0  0  0  0  0  0  0  0  # atno 10763 bound_to 10752
  154.8744  135.4013  154.3416 H   0  0  0  0  0  0  0  0  0  0  0  0  # atno 10764 bound_to 10752
  153.4062  135.7076  153.6458 H   0  0  0  0  0  0  0  0  0  0  0  0  # atno 10765 bound_to 10752
  141.1191  133.8555  157.1354 H   0  0  0  0  0  0  0  0  0  0  0  0  # atno 11005 bound_to 11000
  144.9555  140.8222  143.5545 LP  0  0  0  0  0  0  0  0  0  0  0  0  # atno 17320 bound_to 7965
  145.2279  139.2128  143.5058 LP  0  0  0  0  0  0  0  0  0  0  0  0  # atno 17321 bound_to 7965
  139.6605  144.7662  151.1972 LP  0  0  0  0  0  0  0  0  0  0  0  0  # atno 17342 bound_to 10162
  140.7573  143.6018  150.8692 LP  0  0  0  0  0  0  0  0  0  0  0  0  # atno 17343 bound_to 10162
  156.0445  130.3731  150.1351 LP  0  0  0  0  0  0  0  0  0  0  0  0  # atno 17370 bound_to 10713
  156.9534  130.9782  151.3493 LP  0  0  0  0  0  0  0  0  0  0  0  0  # atno 17371 bound_to 10713
  140.0135  134.9978  157.0444 LP  0  0  0  0  0  0  0  0  0  0  0  0  # atno 17394 bound_to 11000
  140.4560  134.1533  155.7186 LP  0  0  0  0  0  0  0  0  0  0  0  0  # atno 17395 bound_to 11000

$$$$
