AV-unprocessed.smi:1984|AV-procd|sdf|8041|dock3
  -GOLD-   2272010233D 1   1.00000     0.00000
 Structure written by MMmdl.
 38 39  0  0  0  0  0  0  0  0  1 V2000
  151.7896  144.6616  158.0398 C   0  0  0  0  0  0  0  0  0  0  0  0
  152.2115  143.7871  159.1832 C   0  0  0  0  0  0  0  0  0  0  0  0
  152.2751  144.1134  160.5669 C   0  0  0  0  0  0  0  0  0  0  0  0
  152.7204  142.9679  161.1642 C   0  0  0  0  0  0  0  0  0  0  0  0
  152.9925  142.6757  162.6035 C   0  0  0  0  0  0  0  0  0  0  0  0
  152.9023  142.0352  160.1578 N   0  0  0  0  0  0  0  0  0  0  0  0
  153.3641  140.6582  160.2534 C   0  0  0  0  0  0  0  0  0  0  0  0
  153.4095  139.9803  158.8810 C   0  0  0  0  0  0  0  0  0  0  0  0
  154.3848  139.3045  158.5530 O   0  0  0  0  0  0  0  0  0  0  0  0
  152.3445  140.1656  158.0878 N   0  0  0  0  0  0  0  0  0  0  0  0
  152.2007  139.5922  156.7558 C   0  0  0  0  0  0  0  0  0  0  0  0
  151.2790  138.3602  156.7715 C   0  0  1  0  0  0  0  0  0  0  0  0
  150.9226  137.8413  155.3621 C   0  0  0  0  0  0  0  0  0  0  0  0
  150.2608  136.4663  155.4977 C   0  0  0  0  0  0  0  0  0  0  0  0
  151.0640  135.6708  156.9384 S   0  0  0  0  0  0  0  0  0  0  0  0
  150.0267  135.2456  157.8901 O   0  0  0  0  0  0  0  0  0  0  0  0
  152.0931  134.7308  156.4694 O   0  0  0  0  0  0  0  0  0  0  0  0
  151.8836  137.1883  157.5610 C   0  0  0  0  0  0  0  0  0  0  0  0
  152.5851  142.5407  158.9457 N   0  0  0  0  0  0  0  0  0  0  0  0
  151.5336  145.6639  158.3835 H   0  0  0  0  0  0  0  0  0  0  0  0
  150.9158  144.2513  157.5331 H   0  0  0  0  0  0  0  0  0  0  0  0
  152.5884  144.7578  157.3039 H   0  0  0  0  0  0  0  0  0  0  0  0
  152.0311  145.0487  161.0482 H   0  0  0  0  0  0  0  0  0  0  0  0
  152.7165  143.5229  163.2315 H   0  0  0  0  0  0  0  0  0  0  0  0
  154.0507  142.4704  162.7653 H   0  0  0  0  0  0  0  0  0  0  0  0
  152.4220  141.8105  162.9407 H   0  0  0  0  0  0  0  0  0  0  0  0
  154.3483  140.6513  160.7235 H   0  0  0  0  0  0  0  0  0  0  0  0
  152.6970  140.0951  160.9082 H   0  0  0  0  0  0  0  0  0  0  0  0
  151.5836  140.7338  158.4311 H   0  0  0  0  0  0  0  0  0  0  0  0
  151.8056  140.3457  156.0722 H   0  0  0  0  0  0  0  0  0  0  0  0
  153.1885  139.3124  156.3861 H   0  0  0  0  0  0  0  0  0  0  0  0
  150.3444  138.6335  157.2639 H   0  0  0  0  0  0  0  0  0  0  0  0
  150.2787  138.5354  154.8212 H   0  0  0  0  0  0  0  0  0  0  0  0
  151.8375  137.7356  154.7778 H   0  0  0  0  0  0  0  0  0  0  0  0
  149.1978  136.5682  155.7174 H   0  0  0  0  0  0  0  0  0  0  0  0
  150.3768  135.8455  154.6092 H   0  0  0  0  0  0  0  0  0  0  0  0
  152.9519  137.0913  157.3650 H   0  0  0  0  0  0  0  0  0  0  0  0
  151.7370  137.2808  158.6373 H   0  0  0  0  0  0  0  0  0  0  0  0
  1  2  1  0  0  0  0
  1 20  1  0  0  0  0
  1 21  1  0  0  0  0
  1 22  1  0  0  0  0
  2 19  2  0  0  0  0
  2  3  1  0  0  0  0
  3  4  2  0  0  0  0
  3 23  1  0  0  0  0
  4  5  1  0  0  0  0
  4  6  1  0  0  0  0
  5 24  1  0  0  0  0
  5 25  1  0  0  0  0
  5 26  1  0  0  0  0
  6  7  1  0  0  0  0
  6 19  1  0  0  0  0
  7  8  1  0  0  0  0
  7 27  1  0  0  0  0
  7 28  1  0  0  0  0
  8  9  2  0  0  0  0
  8 10  1  0  0  0  0
 10 11  1  0  0  0  0
 10 29  1  0  0  0  0
 11 12  1  0  0  0  0
 11 30  1  0  0  0  0
 11 31  1  0  0  0  0
 12 18  1  0  0  0  0
 12 13  1  0  0  0  0
 12 32  1  0  0  0  0
 13 14  1  0  0  0  0
 13 33  1  0  0  0  0
 13 34  1  0  0  0  0
 14 15  1  0  0  0  0
 14 35  1  0  0  0  0
 14 36  1  0  0  0  0
 15 16  2  0  0  0  0
 15 17  2  0  0  0  0
 15 18  1  0  0  0  0
 18 37  1  0  0  0  0
 18 38  1  0  0  0  0
M  END
> <s_m_source_file>
AV-unprocessed.smi

> <i_m_source_file_index>
1984

> <i_lp_mmshare_version>
43012

> <i_f3d_flags>
0

> <s_epik_input>
W0NIM11jMVtjSF1jKFtDSDNdKW4objEpW0NIMl1DKD1PKVtOSF1bQ0gyXVtDQEBIXShbQ0gyXTIpW0NIMl1bQ0gyXVMyKD1PKT1P

> <s_epik_cmdline>
J2VwaWtfcHl0aG9uJywgJy1waCcsICc3LjAnLCAnLXRuJywgJzgnLCAnLW1hJywgJzIwMCcsICctbWV0YWxfYmluZGluZycsICctaW1hZScsICc8aW5maWxlLm1hZT4nLCAnLW9tYWUnLCAnPG91dGZpbGUubWFlPic=

> <r_lp_tautomer_probability>
1

> <r_epik_Ionization_Penalty>
0.000335865

> <r_epik_Ionization_Penalty_Charging>
0

> <r_epik_Ionization_Penalty_Neutral>
0.000335865

> <r_epik_State_Penalty>
-0

> <r_epik_Charging_Adjusted_Penalty>
0

> <i_epik_Tot_Q>
0

> <i_epik_Tot_abs_Q>
0

> <r_epik_Metal_State_Penalty>
-0

> <b_epik_Metal_Only>
0

> <s_lp_Force_Field>
OPLS_2005

> <r_lp_Energy>
4.96267

> <b_lp_Chiralities_Consistent>
1

> <s_lp_Variant>
AV-unprocessed.smi:1984-2

> <Gold.Version>
5.8.1

> <Gold.Id.Protein>
6NUR|6NUR_protein|mol2

> <Gold.PLP.Fitness>
46.1186

> <Gold.PLP.PLP>
-38.1339

> <Gold.PLP.part.hbond>
-3.0000

> <Gold.PLP.part.metal>
0.0000

> <Gold.PLP.part.buried>
-3.2076

> <Gold.PLP.part.nonpolar>
-29.8701

> <Gold.PLP.part.repulsive>
0.0881

> <Gold.PLP.ligand.clash>
0.0000

> <Gold.PLP.ligand.torsion>
0.3429

> <Gold.PLP.Chemscore.Hbond>
2.8880

> <Gold.PLP.Chemscore.CHOScore>
0.0000

> <Gold.PLP.Chemscore.Metal>
0.0000

> <Gold.Chemscore.Hbonds>
donor molecule, donor type, donor heavy atom, donor atom, acceptor molecule, acceptor atom, score
      P1  H  6896  6908       L1    16  0.85
      P1  H  7997  8010       L1     9  1.00
      P1  H 10752 10764       L1    17  0.88

> <Gold.PLP.Chemscore.Internal.Correction>
0.0065

> <Gold.Rescore>
     Score         DG    S(hbond)    S(metal)    S(lipo)     H(rot)  DE(clash)    DE(int)     intcor
     19.34     -21.52       2.78        0.00      94.43       1.68       0.06       2.12       ----

> <Gold.Chemscore.Fitness>
19.3415

> <Gold.Chemscore.DG>
-21.5243

> <Gold.Chemscore.ZeroCoef>
-5.4800

> <Gold.Chemscore.Hbond>
2.7831

> <Gold.Chemscore.Metal>
0.0000

> <Gold.Chemscore.Lipo>
94.4301

> <Gold.Chemscore.Internal_Hbond>
0.0000

> <Gold.Chemscore.DEClash>
0.0629

> <Gold.Chemscore.DEInternal>
2.1199

> <Gold.Chemscore.Rot>
1.6795

> <Gold.Chemscore.Internal.Correction>
   9.000000E+99

> <Gold.Chemscore.Hbonds>
donor molecule, donor type, donor heavy atom, donor atom, acceptor molecule, acceptor atom, score
      P1  H  6896  6908       L1    16  0.75
      P1  H  7997  8010       L1     9  0.76
      P1  H 10752 10764       L1    17  0.78

> <Gold.Chemscore.Hbond.Weighted>
-9.2955

> <Gold.Chemscore.Metal.Weighted>
-0.0000

> <Gold.Chemscore.Lipo.Weighted>
-11.0483

> <Gold.Chemscore.Internal_Hbond.Weighted>
0.0000

> <Gold.Chemscore.DEClash.Weighted>
0.0629

> <Gold.Chemscore.DEInternal.Weighted>
2.1199

> <Gold.Chemscore.Rot.Weighted>
4.2995

> <Gold.Chemscore.Internal.Correction.Weighted>
   9.000000E+99

> <Gold.Protein.RotatedTorsions>
[ 6907 6896 6895 6894 ] final  160.34 input  -60.11 | X-H torsion
[ 7974 7965 7964 7962 ] final   56.30 input  175.53 | X-H torsion
[ 8008 7997 7996 7995 ] final   -7.71 input   59.86 | X-H torsion
[ 10167 10162 10161 10158 ] final   58.53 input  -65.29 | X-H torsion
[ 10718 10713 10712 10709 ] final -157.04 input   66.30 | X-H torsion
[ 10763 10752 10751 10750 ] final  -22.12 input  -60.55 | X-H torsion
[ 11005 11000 10999 10996 ] final  -34.73 input  -57.11 | X-H torsion

> <Gold.Protein.ActiveResidues>
 VAL166  LYS551  ARG553  GLY616  TRP617  ASP618  TYR619  PRO620  LYS621  CYS622 
 ASP623  PHE694  ASN695  SER759  ASP760  ASP761  ALA762  ILE779  LEU786  VAL792 
 PHE793  MET794  SER795  GLU796  ALA797  LYS798  CYS799  TRP800  GLU811  SER814 

> <Gold.Protein.RotatedAtoms>
  151.9720  133.3729  159.4074 H   0  0  0  0  0  0  0  0  0  0  0  0  # atno 6907 bound_to 6896
  150.6947  134.4129  159.5179 H   0  0  0  0  0  0  0  0  0  0  0  0  # atno 6908 bound_to 6896
  152.1835  134.8733  160.0575 H   0  0  0  0  0  0  0  0  0  0  0  0  # atno 6909 bound_to 6896
  145.9413  139.3891  143.0362 H   0  0  0  0  0  0  0  0  0  0  0  0  # atno 7974 bound_to 7965
  154.5811  140.2400  155.8052 H   0  0  0  0  0  0  0  0  0  0  0  0  # atno 8008 bound_to 7997
  156.2180  140.3006  155.9841 H   0  0  0  0  0  0  0  0  0  0  0  0  # atno 8009 bound_to 7997
  155.2539  140.0411  157.2980 H   0  0  0  0  0  0  0  0  0  0  0  0  # atno 8010 bound_to 7997
  140.1862  144.4132  150.6592 H   0  0  0  0  0  0  0  0  0  0  0  0  # atno 10167 bound_to 10162
  156.5348  130.8537  151.2729 H   0  0  0  0  0  0  0  0  0  0  0  0  # atno 10718 bound_to 10713
  153.6469  135.6982  153.5222 H   0  0  0  0  0  0  0  0  0  0  0  0  # atno 10763 bound_to 10752
  153.2737  135.4207  155.1012 H   0  0  0  0  0  0  0  0  0  0  0  0  # atno 10764 bound_to 10752
  154.8486  135.3585  154.6013 H   0  0  0  0  0  0  0  0  0  0  0  0  # atno 10765 bound_to 10752
  140.9739  133.7094  156.1570 H   0  0  0  0  0  0  0  0  0  0  0  0  # atno 11005 bound_to 11000
  145.8296  140.9637  143.0856 LP  0  0  0  0  0  0  0  0  0  0  0  0  # atno 17320 bound_to 7965
  144.6779  140.0146  143.7484 LP  0  0  0  0  0  0  0  0  0  0  0  0  # atno 17321 bound_to 7965
  140.6486  143.2219  151.6128 LP  0  0  0  0  0  0  0  0  0  0  0  0  # atno 17342 bound_to 10162
  139.5275  144.3015  152.1069 LP  0  0  0  0  0  0  0  0  0  0  0  0  # atno 17343 bound_to 10162
  157.7415  130.9872  150.2453 LP  0  0  0  0  0  0  0  0  0  0  0  0  # atno 17370 bound_to 10713
  156.3026  130.3760  149.7736 LP  0  0  0  0  0  0  0  0  0  0  0  0  # atno 17371 bound_to 10713
  140.7287  134.4278  157.5568 LP  0  0  0  0  0  0  0  0  0  0  0  0  # atno 17394 bound_to 11000
  139.8923  134.8758  156.2278 LP  0  0  0  0  0  0  0  0  0  0  0  0  # atno 17395 bound_to 11000

$$$$
