AV-unprocessed.smi:1795|AV-procd|sdf|7240|dock7
  -GOLD-   22720 8493D 1   1.00000     0.00000
 Structure written by MMmdl.
 47 48  0  0  0  0  0  0  0  0  1 V2000
  153.5813  141.3412  160.5849 C   0  0  0  0  0  0  0  0  0  0  0  0
  153.0454  142.3078  159.5233 C   0  0  1  0  0  0  0  0  0  0  0  0
  151.9683  141.6539  158.6373 C   0  0  0  0  0  0  0  0  0  0  0  0
  151.3785  142.5827  157.6662 N   0  0  0  0  0  0  0  0  0  0  0  0
  150.3164  141.9505  156.8488 C   0  0  1  0  0  0  0  0  0  0  0  0
  150.8528  140.8188  155.9361 C   0  0  0  0  0  0  0  0  0  0  0  0
  149.1356  141.3880  157.6930 C   0  0  0  0  0  0  0  0  0  0  0  0
  148.0805  142.3683  157.9347 N   0  0  0  0  0  0  0  0  0  0  0  0
  146.8233  142.0701  158.2962 C   0  0  0  0  0  0  0  0  0  0  0  0
  146.4315  140.9166  158.4798 O   0  0  0  0  0  0  0  0  0  0  0  0
  145.8784  143.2635  158.4978 C   0  0  0  0  0  0  0  0  0  0  0  0
  145.3709  143.3774  159.8756 N   0  0  0  0  0  0  0  0  0  0  0  0
  143.9819  143.2301  160.0625 C   0  0  0  0  0  0  0  0  0  0  0  0
  143.4158  143.3176  161.2766 C   0  0  0  0  0  0  0  0  0  0  0  0
  144.2711  143.5699  162.4121 C   0  0  0  0  0  0  0  0  0  0  0  0
  145.6005  143.7168  162.2440 C   0  0  0  0  0  0  0  0  0  0  0  0
  146.2231  143.6247  160.9181 C   0  0  0  0  0  0  0  0  0  0  0  0
  147.4360  143.7611  160.7549 O   0  0  0  0  0  0  0  0  0  0  0  0
  150.8926  143.7544  158.4036 C   0  0  0  0  0  0  0  0  0  0  0  0
  151.9759  144.4047  159.2849 C   0  0  1  0  0  0  0  0  0  0  0  0
  151.4288  145.5789  160.1033 C   0  0  0  0  0  0  0  0  0  0  0  0
  152.4855  143.4326  160.1883 O   0  0  0  0  0  0  0  0  0  0  0  0
  154.0363  140.4644  160.1236 H   0  0  0  0  0  0  0  0  0  0  0  0
  152.7829  140.9971  161.2431 H   0  0  0  0  0  0  0  0  0  0  0  0
  154.3391  141.8224  161.2035 H   0  0  0  0  0  0  0  0  0  0  0  0
  153.8780  142.6414  158.9013 H   0  0  0  0  0  0  0  0  0  0  0  0
  152.4478  140.8200  158.1299 H   0  0  0  0  0  0  0  0  0  0  0  0
  151.1829  141.2337  159.2677 H   0  0  0  0  0  0  0  0  0  0  0  0
  149.9052  142.7185  156.1917 H   0  0  0  0  0  0  0  0  0  0  0  0
  150.0581  140.3173  155.3851 H   0  0  0  0  0  0  0  0  0  0  0  0
  151.3775  140.0593  156.5166 H   0  0  0  0  0  0  0  0  0  0  0  0
  151.5347  141.1928  155.1737 H   0  0  0  0  0  0  0  0  0  0  0  0
  148.6942  140.5289  157.1865 H   0  0  0  0  0  0  0  0  0  0  0  0
  149.4561  141.0329  158.6709 H   0  0  0  0  0  0  0  0  0  0  0  0
  148.3229  143.3408  157.8111 H   0  0  0  0  0  0  0  0  0  0  0  0
  146.4126  144.1700  158.2098 H   0  0  0  0  0  0  0  0  0  0  0  0
  145.0439  143.1896  157.7976 H   0  0  0  0  0  0  0  0  0  0  0  0
  143.4119  143.0513  159.1624 H   0  0  0  0  0  0  0  0  0  0  0  0
  142.3485  143.2066  161.4002 H   0  0  0  0  0  0  0  0  0  0  0  0
  143.8428  143.6424  163.4008 H   0  0  0  0  0  0  0  0  0  0  0  0
  146.2242  143.9064  163.1051 H   0  0  0  0  0  0  0  0  0  0  0  0
  150.5416  144.5199  157.7136 H   0  0  0  0  0  0  0  0  0  0  0  0
  150.0402  143.4715  159.0236 H   0  0  0  0  0  0  0  0  0  0  0  0
  152.7906  144.7674  158.6554 H   0  0  0  0  0  0  0  0  0  0  0  0
  151.0349  146.3607  159.4536 H   0  0  0  0  0  0  0  0  0  0  0  0
  152.2118  146.0222  160.7189 H   0  0  0  0  0  0  0  0  0  0  0  0
  150.6251  145.2575  160.7665 H   0  0  0  0  0  0  0  0  0  0  0  0
  1  2  1  0  0  0  0
  1 23  1  0  0  0  0
  1 24  1  0  0  0  0
  1 25  1  0  0  0  0
  2 22  1  0  0  0  0
  2  3  1  0  0  0  0
  2 26  1  0  0  0  0
  3  4  1  0  0  0  0
  3 27  1  0  0  0  0
  3 28  1  0  0  0  0
  4  5  1  0  0  0  0
  4 19  1  0  0  0  0
  5  6  1  0  0  0  0
  5  7  1  0  0  0  0
  5 29  1  0  0  0  0
  6 30  1  0  0  0  0
  6 31  1  0  0  0  0
  6 32  1  0  0  0  0
  7  8  1  0  0  0  0
  7 33  1  0  0  0  0
  7 34  1  0  0  0  0
  8  9  1  0  0  0  0
  8 35  1  0  0  0  0
  9 10  2  0  0  0  0
  9 11  1  0  0  0  0
 11 12  1  0  0  0  0
 11 36  1  0  0  0  0
 11 37  1  0  0  0  0
 12 17  1  0  0  0  0
 12 13  1  0  0  0  0
 13 14  2  0  0  0  0
 13 38  1  0  0  0  0
 14 15  1  0  0  0  0
 14 39  1  0  0  0  0
 15 16  2  0  0  0  0
 15 40  1  0  0  0  0
 16 17  1  0  0  0  0
 16 41  1  0  0  0  0
 17 18  2  0  0  0  0
 19 20  1  0  0  0  0
 19 42  1  0  0  0  0
 19 43  1  0  0  0  0
 20 21  1  0  0  0  0
 20 22  1  0  0  0  0
 20 44  1  0  0  0  0
 21 45  1  0  0  0  0
 21 46  1  0  0  0  0
 21 47  1  0  0  0  0
M  END
> <s_m_source_file>
AV-unprocessed.smi

> <i_m_source_file_index>
1795

> <i_lp_mmshare_version>
43012

> <i_f3d_flags>
0

> <s_epik_input>
W0NIM11bQ0BASF0xW0NIMl1OKFtDSDJdW0NASF0oTzEpW0NIM10pW0NASF0oW0NIM10pW0NIMl1bTkhdQyg9TylbQ0gyXW4yW2NIXVtjSF1bY0hdW2NIXWMyPU8=

> <s_epik_cmdline>
J2VwaWtfcHl0aG9uJywgJy1waCcsICc3LjAnLCAnLXRuJywgJzgnLCAnLW1hJywgJzIwMCcsICctbWV0YWxfYmluZGluZycsICctaW1hZScsICc8aW5maWxlLm1hZT4nLCAnLW9tYWUnLCAnPG91dGZpbGUubWFlPic=

> <r_lp_tautomer_probability>
1

> <r_epik_Ionization_Penalty>
0.237383

> <r_epik_Ionization_Penalty_Charging>
3.58805e-07

> <r_epik_Ionization_Penalty_Neutral>
0.237382

> <r_epik_State_Penalty>
0.228245

> <r_epik_Charging_Adjusted_Penalty>
0.228245

> <i_epik_Tot_Q>
0

> <i_epik_Tot_abs_Q>
0

> <r_epik_Metal_State_Penalty>
0.228221

> <b_epik_Metal_Only>
0

> <s_lp_Force_Field>
OPLS_2005

> <r_lp_Energy>
36.5227

> <b_lp_Chiralities_Consistent>
1

> <s_lp_Variant>
AV-unprocessed.smi:1795-4

> <Gold.Version>
5.8.1

> <Gold.Id.Protein>
6NUR|6NUR_protein|mol2

> <Gold.PLP.Fitness>
47.5140

> <Gold.PLP.PLP>
-45.2078

> <Gold.PLP.part.hbond>
-2.0263

> <Gold.PLP.part.metal>
0.0000

> <Gold.PLP.part.buried>
-9.1156

> <Gold.PLP.part.nonpolar>
-36.2391

> <Gold.PLP.part.repulsive>
0.2655

> <Gold.PLP.ligand.clash>
0.0000

> <Gold.PLP.ligand.torsion>
0.5853

> <Gold.PLP.Chemscore.Hbond>
1.1404

> <Gold.PLP.Chemscore.CHOScore>
0.0000

> <Gold.PLP.Chemscore.Metal>
0.0000

> <Gold.Chemscore.Hbonds>
donor molecule, donor type, donor heavy atom, donor atom, acceptor molecule, acceptor atom, score
      P1  H  6933  6944       L1    18  1.00
      P1  H  6934  6946       L1    10  0.14

> <Gold.PLP.Chemscore.Internal.Correction>
0.0557

> <Gold.Rescore>
     Score         DG    S(hbond)    S(metal)    S(lipo)     H(rot)  DE(clash)    DE(int)     intcor
     15.97     -17.42       1.04        0.00     112.28       1.83       0.06       1.39       ----

> <Gold.Chemscore.Fitness>
15.9721

> <Gold.Chemscore.DG>
-17.4167

> <Gold.Chemscore.ZeroCoef>
-5.4800

> <Gold.Chemscore.Hbond>
1.0395

> <Gold.Chemscore.Metal>
0.0000

> <Gold.Chemscore.Lipo>
112.2822

> <Gold.Chemscore.Internal_Hbond>
0.0000

> <Gold.Chemscore.DEClash>
0.0584

> <Gold.Chemscore.DEInternal>
1.3861

> <Gold.Chemscore.Rot>
1.8251

> <Gold.Chemscore.Internal.Correction>
   9.000000E+99

> <Gold.Chemscore.Hbonds>
donor molecule, donor type, donor heavy atom, donor atom, acceptor molecule, acceptor atom, score
      P1  H  6933  6944       L1    18  0.91
      P1  H  6934  6946       L1    10  0.02

> <Gold.Chemscore.Hbond.Weighted>
-3.4720

> <Gold.Chemscore.Metal.Weighted>
-0.0000

> <Gold.Chemscore.Lipo.Weighted>
-13.1370

> <Gold.Chemscore.Internal_Hbond.Weighted>
0.0000

> <Gold.Chemscore.DEClash.Weighted>
0.0584

> <Gold.Chemscore.DEInternal.Weighted>
1.3861

> <Gold.Chemscore.Rot.Weighted>
4.6724

> <Gold.Chemscore.Internal.Correction.Weighted>
   9.000000E+99

> <Gold.Protein.RotatedTorsions>
[ 6907 6896 6895 6894 ] final -169.33 input  -60.11 | X-H torsion
[ 7974 7965 7964 7962 ] final -102.73 input  175.53 | X-H torsion
[ 8008 7997 7996 7995 ] final  -79.12 input   59.86 | X-H torsion
[ 10167 10162 10161 10158 ] final -118.30 input  -65.29 | X-H torsion
[ 10718 10713 10712 10709 ] final -163.29 input   66.30 | X-H torsion
[ 10763 10752 10751 10750 ] final   22.62 input  -60.55 | X-H torsion
[ 11005 11000 10999 10996 ] final   77.38 input  -57.11 | X-H torsion

> <Gold.Protein.ActiveResidues>
 VAL166  LYS551  ARG553  GLY616  TRP617  ASP618  TYR619  PRO620  LYS621  CYS622 
 ASP623  PHE694  ASN695  SER759  ASP760  ASP761  ALA762  ILE779  LEU786  VAL792 
 PHE793  MET794  SER795  GLU796  ALA797  LYS798  CYS799  TRP800  GLU811  SER814 

> <Gold.Protein.RotatedAtoms>
  151.4899  133.3527  159.2851 H   0  0  0  0  0  0  0  0  0  0  0  0  # atno 6907 bound_to 6896
  150.8842  134.8239  159.7257 H   0  0  0  0  0  0  0  0  0  0  0  0  # atno 6908 bound_to 6896
  152.4782  134.4800  159.9714 H   0  0  0  0  0  0  0  0  0  0  0  0  # atno 6909 bound_to 6896
  145.2650  140.9281  143.3019 H   0  0  0  0  0  0  0  0  0  0  0  0  # atno 7974 bound_to 7965
  154.5755  140.0683  156.9027 H   0  0  0  0  0  0  0  0  0  0  0  0  # atno 8008 bound_to 7997
  155.2557  140.3355  155.4259 H   0  0  0  0  0  0  0  0  0  0  0  0  # atno 8009 bound_to 7997
  156.2150  140.1775  156.7594 H   0  0  0  0  0  0  0  0  0  0  0  0  # atno 8010 bound_to 7997
  140.0589  143.4987  152.2042 H   0  0  0  0  0  0  0  0  0  0  0  0  # atno 10167 bound_to 10162
  156.6225  130.8896  151.2960 H   0  0  0  0  0  0  0  0  0  0  0  0  # atno 10718 bound_to 10713
  153.0901  135.6644  153.9871 H   0  0  0  0  0  0  0  0  0  0  0  0  # atno 10763 bound_to 10752
  153.9470  135.2988  155.3441 H   0  0  0  0  0  0  0  0  0  0  0  0  # atno 10764 bound_to 10752
  154.7314  135.5121  153.9044 H   0  0  0  0  0  0  0  0  0  0  0  0  # atno 10765 bound_to 10752
  139.9257  134.7678  156.1514 H   0  0  0  0  0  0  0  0  0  0  0  0  # atno 11005 bound_to 11000
  144.9385  139.4216  143.6460 LP  0  0  0  0  0  0  0  0  0  0  0  0  # atno 17320 bound_to 7965
  146.3264  139.8333  142.8904 LP  0  0  0  0  0  0  0  0  0  0  0  0  # atno 17321 bound_to 7965
  139.5906  144.7548  151.3411 LP  0  0  0  0  0  0  0  0  0  0  0  0  # atno 17342 bound_to 10162
  140.7181  143.7211  150.7695 LP  0  0  0  0  0  0  0  0  0  0  0  0  # atno 17343 bound_to 10162
  157.7223  130.9575  150.1490 LP  0  0  0  0  0  0  0  0  0  0  0  0  # atno 17370 bound_to 10713
  156.2300  130.3681  149.8456 LP  0  0  0  0  0  0  0  0  0  0  0  0  # atno 17371 bound_to 10713
  141.0812  133.6753  156.2341 LP  0  0  0  0  0  0  0  0  0  0  0  0  # atno 17394 bound_to 11000
  140.6344  134.5231  157.5563 LP  0  0  0  0  0  0  0  0  0  0  0  0  # atno 17395 bound_to 11000

$$$$
