AV-unprocessed.smi:3116|AV-procd|sdf|11876|dock5
  -GOLD-   2272017263D 1   1.00000     0.00000
 Structure written by MMmdl.
 33 33  0  0  0  0  0  0  0  0  1 V2000
  148.3323  141.5823  156.3790 C   0  0  0  0  0  0  0  0  0  0  0  0
  149.7129  140.9473  156.1505 C   0  0  2  0  0  0  0  0  0  0  0  0
  150.7649  141.8724  156.6094 N   0  0  0  0  0  0  0  0  0  0  0  0
  150.8117  142.1129  158.0515 C   0  0  1  0  0  0  0  0  0  0  0  0
  150.7959  140.7449  158.7633 C   0  0  0  0  0  0  0  0  0  0  0  0
  152.0769  142.9542  158.3672 C   0  0  1  0  0  0  0  0  0  0  0  0
  152.0265  144.3610  157.7424 C   0  0  0  0  0  0  0  0  0  0  0  0
  152.3076  143.0663  159.8021 N   0  0  0  0  0  0  0  0  0  0  0  0
  152.2964  144.1991  160.5918 C   0  0  0  0  0  0  0  0  0  0  0  0
  152.5678  143.8082  161.8714 C   0  0  0  0  0  0  0  0  0  0  0  0
  152.7350  142.3994  161.7649 C   0  0  0  0  0  0  0  0  0  0  0  0
  152.5804  141.9592  160.5271 N   0  0  0  0  0  0  0  0  0  0  0  0
  149.8747  140.5196  154.6822 C   0  0  0  0  0  0  0  0  0  0  0  0
  149.0878  141.1144  153.7822 N   0  0  0  0  0  0  0  0  0  0  0  0
  150.6862  139.6508  154.3681 O   0  0  0  0  0  0  0  0  0  0  0  0
  147.5305  140.9137  156.0633 H   0  0  0  0  0  0  0  0  0  0  0  0
  148.2224  142.5178  155.8286 H   0  0  0  0  0  0  0  0  0  0  0  0
  148.1750  141.8014  157.4356 H   0  0  0  0  0  0  0  0  0  0  0  0
  149.7635  140.0524  156.7738 H   0  0  0  0  0  0  0  0  0  0  0  0
  151.6784  141.6102  156.2667 H   0  0  0  0  0  0  0  0  0  0  0  0
  149.9406  142.6836  158.3768 H   0  0  0  0  0  0  0  0  0  0  0  0
  150.7517  140.8556  159.8467 H   0  0  0  0  0  0  0  0  0  0  0  0
  151.6890  140.1656  158.5266 H   0  0  0  0  0  0  0  0  0  0  0  0
  149.9303  140.1494  158.4739 H   0  0  0  0  0  0  0  0  0  0  0  0
  152.9400  142.4376  157.9414 H   0  0  0  0  0  0  0  0  0  0  0  0
  151.9644  144.3139  156.6552 H   0  0  0  0  0  0  0  0  0  0  0  0
  152.9232  144.9299  157.9905 H   0  0  0  0  0  0  0  0  0  0  0  0
  151.1648  144.9259  158.0988 H   0  0  0  0  0  0  0  0  0  0  0  0
  152.0964  145.1778  160.1813 H   0  0  0  0  0  0  0  0  0  0  0  0
  152.6371  144.4329  162.7493 H   0  0  0  0  0  0  0  0  0  0  0  0
  152.9631  141.6879  162.5448 H   0  0  0  0  0  0  0  0  0  0  0  0
  149.1582  140.8635  152.8069 H   0  0  0  0  0  0  0  0  0  0  0  0
  148.4230  141.8127  154.0818 H   0  0  0  0  0  0  0  0  0  0  0  0
  1  2  1  0  0  0  0
  1 16  1  0  0  0  0
  1 17  1  0  0  0  0
  1 18  1  0  0  0  0
  2  3  1  0  0  0  0
  2 13  1  0  0  0  0
  2 19  1  0  0  0  0
  3  4  1  0  0  0  0
  3 20  1  0  0  0  0
  4  5  1  0  0  0  0
  4  6  1  0  0  0  0
  4 21  1  0  0  0  0
  5 22  1  0  0  0  0
  5 23  1  0  0  0  0
  5 24  1  0  0  0  0
  6  7  1  0  0  0  0
  6  8  1  0  0  0  0
  6 25  1  0  0  0  0
  7 26  1  0  0  0  0
  7 27  1  0  0  0  0
  7 28  1  0  0  0  0
  8 12  1  0  0  0  0
  8  9  1  0  0  0  0
  9 10  2  0  0  0  0
  9 29  1  0  0  0  0
 10 11  1  0  0  0  0
 10 30  1  0  0  0  0
 11 12  2  0  0  0  0
 11 31  1  0  0  0  0
 13 14  1  0  0  0  0
 13 15  2  0  0  0  0
 14 32  1  0  0  0  0
 14 33  1  0  0  0  0
M  END
> <s_m_source_file>
AV-unprocessed.smi

> <i_m_source_file_index>
3116

> <i_lp_mmshare_version>
43012

> <i_f3d_flags>
0

> <s_epik_input>
W05IMl1DKD1PKVtDQEhdKFtDSDNdKVtOSF1bQ0BIXShbQ0gzXSlbQ0BIXShbQ0gzXSluMVtjSF1bY0hdW2NIXW4x

> <s_epik_cmdline>
J2VwaWtfcHl0aG9uJywgJy1waCcsICc3LjAnLCAnLXRuJywgJzgnLCAnLW1hJywgJzIwMCcsICctbWV0YWxfYmluZGluZycsICctaW1hZScsICc8aW5maWxlLm1hZT4nLCAnLW9tYWUnLCAnPG91dGZpbGUubWFlPic=

> <r_lp_tautomer_probability>
1

> <r_epik_Ionization_Penalty>
0.865977

> <r_epik_Ionization_Penalty_Charging>
0

> <r_epik_Ionization_Penalty_Neutral>
0.865977

> <r_epik_State_Penalty>
0.901888

> <r_epik_Charging_Adjusted_Penalty>
0.901888

> <i_epik_Tot_Q>
0

> <i_epik_Tot_abs_Q>
0

> <r_epik_Metal_State_Penalty>
0.901181

> <b_epik_Metal_Only>
0

> <s_lp_Force_Field>
OPLS_2005

> <r_lp_Energy>
9.22902

> <b_lp_Chiralities_Consistent>
1

> <s_lp_Variant>
AV-unprocessed.smi:3116-15

> <Gold.Version>
5.8.1

> <Gold.Id.Protein>
6NUR|6NUR_protein|mol2

> <Gold.PLP.Fitness>
39.2313

> <Gold.PLP.PLP>
-34.9130

> <Gold.PLP.part.hbond>
-2.0000

> <Gold.PLP.part.metal>
0.0000

> <Gold.PLP.part.buried>
-5.3849

> <Gold.PLP.part.nonpolar>
-27.7432

> <Gold.PLP.part.repulsive>
0.7280

> <Gold.PLP.ligand.clash>
0.1930

> <Gold.PLP.ligand.torsion>
0.7934

> <Gold.PLP.Chemscore.Hbond>
2.0000

> <Gold.PLP.Chemscore.CHOScore>
0.0000

> <Gold.PLP.Chemscore.Metal>
0.0000

> <Gold.Chemscore.Hbonds>
donor molecule, donor type, donor heavy atom, donor atom, acceptor molecule, acceptor atom, score
      L1  H    14    32       P1  7957  1.00
      P1  H  7989  7998       L1    15  0.50

> <Gold.PLP.Chemscore.Internal.Correction>
0.0982

> <Gold.Rescore>
     Score         DG    S(hbond)    S(metal)    S(lipo)     H(rot)  DE(clash)    DE(int)     intcor
     10.35     -12.58       1.25        0.00      77.20       2.38       0.03       2.21       ----

> <Gold.Chemscore.Fitness>
10.3488

> <Gold.Chemscore.DG>
-12.5834

> <Gold.Chemscore.ZeroCoef>
-5.4800

> <Gold.Chemscore.Hbond>
1.2495

> <Gold.Chemscore.Metal>
0.0000

> <Gold.Chemscore.Lipo>
77.1958

> <Gold.Chemscore.Internal_Hbond>
0.0000

> <Gold.Chemscore.DEClash>
0.0285

> <Gold.Chemscore.DEInternal>
2.2061

> <Gold.Chemscore.Rot>
2.3836

> <Gold.Chemscore.Internal.Correction>
   9.000000E+99

> <Gold.Chemscore.Hbonds>
donor molecule, donor type, donor heavy atom, donor atom, acceptor molecule, acceptor atom, score
      L1  H    14    32       P1  7957  1.00
      P1  H  7989  7998       L1    15  0.02

> <Gold.Chemscore.Hbond.Weighted>
-4.1735

> <Gold.Chemscore.Metal.Weighted>
-0.0000

> <Gold.Chemscore.Lipo.Weighted>
-9.0319

> <Gold.Chemscore.Internal_Hbond.Weighted>
0.0000

> <Gold.Chemscore.DEClash.Weighted>
0.0285

> <Gold.Chemscore.DEInternal.Weighted>
2.2061

> <Gold.Chemscore.Rot.Weighted>
6.1020

> <Gold.Chemscore.Internal.Correction.Weighted>
   9.000000E+99

> <Gold.Protein.RotatedTorsions>
[ 6907 6896 6895 6894 ] final  125.12 input  -60.11 | X-H torsion
[ 7974 7965 7964 7962 ] final -156.41 input  175.53 | X-H torsion
[ 8008 7997 7996 7995 ] final  104.70 input   59.86 | X-H torsion
[ 10167 10162 10161 10158 ] final  101.27 input  -65.29 | X-H torsion
[ 10718 10713 10712 10709 ] final -135.65 input   66.30 | X-H torsion
[ 10763 10752 10751 10750 ] final   77.19 input  -60.55 | X-H torsion
[ 11005 11000 10999 10996 ] final  -52.08 input  -57.11 | X-H torsion

> <Gold.Protein.ActiveResidues>
 VAL166  LYS551  ARG553  GLY616  TRP617  ASP618  TYR619  PRO620  LYS621  CYS622 
 ASP623  PHE694  ASN695  SER759  ASP760  ASP761  ALA762  ILE779  LEU786  VAL792 
 PHE793  MET794  SER795  GLU796  ALA797  LYS798  CYS799  TRP800  GLU811  SER814 

> <Gold.Protein.RotatedAtoms>
  152.4020  133.6832  159.6323 H   0  0  0  0  0  0  0  0  0  0  0  0  # atno 6907 bound_to 6896
  150.7910  133.8775  159.3285 H   0  0  0  0  0  0  0  0  0  0  0  0  # atno 6908 bound_to 6896
  151.6538  135.1000  160.0217 H   0  0  0  0  0  0  0  0  0  0  0  0  # atno 6909 bound_to 6896
  144.7594  140.4114  143.5987 H   0  0  0  0  0  0  0  0  0  0  0  0  # atno 7974 bound_to 7965
  156.1596  140.3143  155.8784 H   0  0  0  0  0  0  0  0  0  0  0  0  # atno 8008 bound_to 7997
  155.3809  140.0487  157.3060 H   0  0  0  0  0  0  0  0  0  0  0  0  # atno 8009 bound_to 7997
  154.5133  140.2172  155.9124 H   0  0  0  0  0  0  0  0  0  0  0  0  # atno 8010 bound_to 7997
  139.7453  144.7000  151.0514 H   0  0  0  0  0  0  0  0  0  0  0  0  # atno 10167 bound_to 10162
  156.2685  130.7251  151.1210 H   0  0  0  0  0  0  0  0  0  0  0  0  # atno 10718 bound_to 10713
  153.0780  135.4923  154.8445 H   0  0  0  0  0  0  0  0  0  0  0  0  # atno 10763 bound_to 10752
  154.7114  135.3020  154.9194 H   0  0  0  0  0  0  0  0  0  0  0  0  # atno 10764 bound_to 10752
  153.9887  135.6781  153.4806 H   0  0  0  0  0  0  0  0  0  0  0  0  # atno 10765 bound_to 10752
  141.0906  133.6633  156.3972 H   0  0  0  0  0  0  0  0  0  0  0  0  # atno 11005 bound_to 11000
  145.6668  139.1591  143.2777 LP  0  0  0  0  0  0  0  0  0  0  0  0  # atno 17320 bound_to 7965
  146.1642  140.6743  142.9263 LP  0  0  0  0  0  0  0  0  0  0  0  0  # atno 17321 bound_to 7965
  140.7791  143.4875  150.9937 LP  0  0  0  0  0  0  0  0  0  0  0  0  # atno 17342 bound_to 10162
  139.8563  143.7373  152.3176 LP  0  0  0  0  0  0  0  0  0  0  0  0  # atno 17343 bound_to 10162
  157.7276  131.0638  150.5860 LP  0  0  0  0  0  0  0  0  0  0  0  0  # atno 17370 bound_to 10713
  156.5954  130.4340  149.5919 LP  0  0  0  0  0  0  0  0  0  0  0  0  # atno 17371 bound_to 10713
  140.5262  134.6257  157.5335 LP  0  0  0  0  0  0  0  0  0  0  0  0  # atno 17394 bound_to 11000
  139.9731  134.7260  156.0003 LP  0  0  0  0  0  0  0  0  0  0  0  0  # atno 17395 bound_to 11000

$$$$
