#       Name:                AV-unprocessed.smi:60
#       Creating user name   scv26
#       Creation time:       Thu Mar 26 16:48:58 2020


#       File generated by GOLD software.
#

@<TRIPOS>MOLECULE
AV-unprocessed.smi:60
    44    45     1
SMALL
NO_CHARGES


@<TRIPOS>ATOM
      1 ****        -1.0364   2.6713   2.1233 O.2            1 S1                 0.0000
      2 ****        -0.9009   1.4862   1.8204 C.2            1 S1                 0.0000
      3 ****        -1.3898   0.4781   2.6007 N.pl3          1 S1                -1.0000
      4 ****        -1.2727  -0.8482   2.2869 C.2            1 S1                 0.0000
      5 ****        -1.7165  -1.7377   3.0143 O.2            1 S1                 0.0000
      6 ****        -0.6433  -1.1886   1.1238 N.am           1 S1                 0.0000
      7 ****        -0.4657  -2.5871   0.7518 C.3            1 S1                 0.0000
      8 ****         0.4573  -3.2268   1.5822 O.3            1 S1                 0.0000
      9 ****         1.7899  -2.7351   1.5064 C.3            1 S1                 0.0000
     10 ****         2.6988  -3.6277   2.3596 C.3            1 S1                 0.0000
     11 ****         3.1012  -4.7626   1.6223 O.3            1 S1                 0.0000
     12 ****        -0.0995  -0.1932   0.2955 C.2            1 S1                 0.0000
     13 ****        -0.1984   1.1208   0.5847 C.2            1 S1                 0.0000
     14 ****         0.4070   2.1902  -0.3137 C.3            1 S1                 0.0000
     15 ****        -0.4399   2.4937  -1.5362 C.ar           1 S1                 0.0000
     16 ****        -0.0575   2.0103  -2.8056 C.ar           1 S1                 0.0000
     17 ****        -0.8470   2.2925  -3.9375 C.ar           1 S1                 0.0000
     18 ****        -2.0222   3.0572  -3.8045 C.ar           1 S1                 0.0000
     19 ****        -2.4076   3.5401  -2.5388 C.ar           1 S1                 0.0000
     20 ****        -1.6175   3.2600  -1.4071 C.ar           1 S1                 0.0000
     21 ****        -1.4290  -3.0932   0.8353 H              1 S1                 0.0000
     22 ****        -0.1471  -2.6601  -0.2892 H              1 S1                 0.0000
     23 ****         2.1423  -2.6862   0.4747 H              1 S1                 0.0000
     24 ****         1.8217  -1.7217   1.9082 H              1 S1                 0.0000
     25 ****         3.5994  -3.0792   2.6362 H              1 S1                 0.0000
     26 ****         2.2053  -3.9267   3.2847 H              1 S1                 0.0000
     27 ****         3.6447  -5.3026   2.1753 H              1 S1                 0.0000
     28 ****         0.4077  -0.5591  -0.5851 H              1 S1                 0.0000
     29 ****         0.5898   3.1137   0.2369 H              1 S1                 0.0000
     30 ****         1.3905   1.8468  -0.6373 H              1 S1                 0.0000
     31 ****         0.8411   1.4210  -2.9153 H              1 S1                 0.0000
     32 ****        -0.5511   1.9217  -4.9077 H              1 S1                 0.0000
     33 ****        -2.6275   3.2731  -4.6726 H              1 S1                 0.0000
     34 ****        -3.3092   4.1254  -2.4352 H              1 S1                 0.0000
     35 ****        -1.9180   3.6322  -0.4383 H              1 S1                 0.0000
     36 ****        -0.6679   3.3850   1.5276 LP             1 S1                 0.0000
     37 ****        -1.5150   2.9207   2.9652 LP             1 S1                 0.0000
     38 ****        -1.8596   0.7230   3.4488 LP             1 S1                 0.0000
     39 ****        -2.1813  -1.5005   3.8674 LP             1 S1                 0.0000
     40 ****        -1.6120  -2.6969   2.7518 LP             1 S1                 0.0000
     41 ****         0.4719  -4.1963   1.3379 LP             1 S1                 0.0000
     42 ****         0.1445  -3.1257   2.5266 LP             1 S1                 0.0000
     43 ****         3.6198  -4.4751   0.8171 LP             1 S1                 0.0000
     44 ****         2.2957  -5.2796   1.3328 LP             1 S1                 0.0000
@<TRIPOS>BOND
    1    1    2 2     
    2    2   13 1     
    3    2    3 1     
    4    3    4 1     
    5    4    5 2     
    6    4    6 am    
    7    6    7 1     
    8    6   12 1     
    9    7    8 1     
   10    7   21 1     
   11    7   22 1     
   12    8    9 1     
   13    9   10 1     
   14    9   23 1     
   15    9   24 1     
   16   10   11 1     
   17   10   25 1     
   18   10   26 1     
   19   11   27 1     
   20   12   13 2     
   21   12   28 1     
   22   13   14 1     
   23   14   15 1     
   24   14   29 1     
   25   14   30 1     
   26   15   20 ar    
   27   15   16 ar    
   28   16   17 ar    
   29   16   31 1     
   30   17   18 ar    
   31   17   32 1     
   32   18   19 ar    
   33   18   33 1     
   34   19   20 ar    
   35   19   34 1     
   36   20   35 1     
   37    1   36 1     
   38    1   37 1     
   39    3   38 1     
   40    5   39 1     
   41    5   40 1     
   42    8   41 1     
   43    8   42 1     
   44   11   43 1     
   45   11   44 1     
@<TRIPOS>SUBSTRUCTURE
      1 S1             1
@<TRIPOS>SET
LONE_PAIRS      STATIC     ATOMS    <user>   **** ""
9 36 37 38 39 40 41 42 43 44
DONOR_HYDROGENS      STATIC     ATOMS    <user>   **** ""
1 27
ATOM$BLUE        STATIC     ATOMS    COLORGROUP SYSTEM
9 36 37 38 39 40 41 42 43 44
ATOM$RED        STATIC     ATOMS    COLORGROUP SYSTEM
1 27
