AV-unprocessed.smi:893|AV-procd|sdf|4069|dock1
  -GOLD-   22720 1553D 1   1.00000     0.00000
 Structure written by MMmdl.
 26 27  0  0  0  0  0  0  0  0  2 V2000
  149.7674  137.9944  157.2882 C   0  0  0  0  0  0  0  0  0  0  0  0
  149.6025  139.4336  157.8021 C   0  0  0  0  0  0  0  0  0  0  0  0
  150.4259  140.4856  157.0190 C   0  0  2  0  0  0  0  0  0  0  0  0
  151.0098  141.5571  157.9235 C   0  0  0  0  0  0  0  0  0  0  0  0
  151.7041  141.3950  159.1594 C   0  0  0  0  0  0  0  0  0  0  0  0
  152.0852  142.5422  159.6969 N   0  0  0  0  0  0  0  0  0  0  0  0
  151.6478  143.4778  158.8311 N   0  0  0  0  0  0  0  0  0  0  0  0
  151.8891  144.8770  159.1106 C   0  0  0  0  0  0  0  0  0  0  0  0
  150.9998  142.9149  157.7538 C   0  0  0  0  0  0  0  0  0  0  0  0
  149.6400  141.0467  155.9379 N   0  0  0  0  0  0  0  0  0  0  0  0
  150.1917  140.7984  154.7515 C   0  0  0  0  0  0  0  0  0  0  0  0
  149.6843  141.1996  153.7068 O   0  0  0  0  0  0  0  0  0  0  0  0
  151.3202  140.0787  154.9057 N   0  5  0  0  0  0  0  0  0  0  0  0
  151.5526  139.8257  156.2124 C   0  0  0  0  0  0  0  0  0  0  0  0
  152.4622  139.1905  156.7460 O   0  0  0  0  0  0  0  0  0  0  0  0
  149.1604  137.3050  157.8751 H   0  0  0  0  0  0  0  0  0  0  0  0
  150.8033  137.6622  157.3586 H   0  0  0  0  0  0  0  0  0  0  0  0
  149.4554  137.9030  156.2477 H   0  0  0  0  0  0  0  0  0  0  0  0
  148.5443  139.6975  157.7693 H   0  0  0  0  0  0  0  0  0  0  0  0
  149.8810  139.4583  158.8571 H   0  0  0  0  0  0  0  0  0  0  0  0
  151.9420  140.4790  159.6800 H   0  0  0  0  0  0  0  0  0  0  0  0
  151.4575  145.4956  158.3232 H   0  0  0  0  0  0  0  0  0  0  0  0
  152.9621  145.0635  159.1610 H   0  0  0  0  0  0  0  0  0  0  0  0
  151.4325  145.1468  160.0634 H   0  0  0  0  0  0  0  0  0  0  0  0
  150.5831  143.5189  156.9611 H   0  0  0  0  0  0  0  0  0  0  0  0
  148.7867  141.5663  156.0813 H   0  0  0  0  0  0  0  0  0  0  0  0
  1  2  1  0  0  0  0
  1 16  1  0  0  0  0
  1 17  1  0  0  0  0
  1 18  1  0  0  0  0
  2  3  1  0  0  0  0
  2 19  1  0  0  0  0
  2 20  1  0  0  0  0
  3 14  1  0  0  0  0
  3  4  1  0  0  0  0
  3 10  1  0  0  0  0
  4  9  2  0  0  0  0
  4  5  1  0  0  0  0
  5  6  2  0  0  0  0
  5 21  1  0  0  0  0
  6  7  1  0  0  0  0
  7  8  1  0  0  0  0
  7  9  1  0  0  0  0
  8 22  1  0  0  0  0
  8 23  1  0  0  0  0
  8 24  1  0  0  0  0
  9 25  1  0  0  0  0
 10 11  1  0  0  0  0
 10 26  1  0  0  0  0
 11 12  2  0  0  0  0
 11 13  1  0  0  0  0
 13 14  1  0  0  0  0
 14 15  2  0  0  0  0
M  CHG  1  13  -1
M  END
> <s_m_source_file>
AV-unprocessed.smi

> <i_m_source_file_index>
893

> <i_lp_mmshare_version>
43012

> <i_f3d_flags>
0

> <s_epik_input>
Tz1DMVtOSF1DKD1PKVtOSF1bQ0BAXTEoW0NIMl1bQ0gzXSljMltjSF1ubihbQ0gzXSlbY0hdMg==

> <s_epik_cmdline>
J2VwaWtfcHl0aG9uJywgJy1waCcsICc3LjAnLCAnLXRuJywgJzgnLCAnLW1hJywgJzIwMCcsICctbWV0YWxfYmluZGluZycsICctaW1hZScsICc8aW5maWxlLm1hZT4nLCAnLW9tYWUnLCAnPG91dGZpbGUubWFlPic=

> <r_lp_tautomer_probability>
1

> <r_epik_Ionization_Penalty>
1.92579

> <r_epik_Ionization_Penalty_Charging>
1.92573

> <r_epik_Ionization_Penalty_Neutral>
5.85665e-05

> <r_epik_State_Penalty>
2.04887

> <r_epik_Charging_Adjusted_Penalty>
3.97461

> <i_epik_Tot_Q>
-1

> <i_epik_Tot_abs_Q>
1

> <r_epik_Metal_State_Penalty>
0.530533

> <b_epik_Metal_Only>
0

> <s_lp_Force_Field>
OPLS_2005

> <r_lp_Energy>
5.94643

> <b_lp_Chiralities_Consistent>
1

> <s_lp_Variant>
AV-unprocessed.smi:893-4

> <Gold.Version>
5.8.1

> <Gold.Id.Protein>
6NUR|6NUR_protein|mol2

> <Gold.PLP.Fitness>
35.3679

> <Gold.PLP.PLP>
-26.2354

> <Gold.PLP.part.hbond>
-3.9678

> <Gold.PLP.part.metal>
0.0000

> <Gold.PLP.part.buried>
-4.2182

> <Gold.PLP.part.nonpolar>
-20.1849

> <Gold.PLP.part.repulsive>
1.3286

> <Gold.PLP.ligand.clash>
0.0000

> <Gold.PLP.ligand.torsion>
1.2174

> <Gold.PLP.Chemscore.Hbond>
2.8140

> <Gold.PLP.Chemscore.CHOScore>
1.0000

> <Gold.PLP.Chemscore.Metal>
0.0000

> <Gold.Chemscore.Hbonds>
donor molecule, donor type, donor heavy atom, donor atom, acceptor molecule, acceptor atom, score
      P1  H  7997  8009       L1    15  0.81
      P1  H  8011  8017       L1    12  0.90
      L1  C     9    25       P1  8028  1.00

> <Gold.PLP.Chemscore.Internal.Correction>
0.1253

> <Gold.Rescore>
     Score         DG    S(hbond)    S(metal)    S(lipo)     H(rot)  DE(clash)    DE(int)     intcor
     13.54     -13.70       2.17        0.00      36.38       1.28       0.02       0.14       ----

> <Gold.Chemscore.Fitness>
13.5445

> <Gold.Chemscore.DG>
-13.7026

> <Gold.Chemscore.ZeroCoef>
-5.4800

> <Gold.Chemscore.Hbond>
2.1690

> <Gold.Chemscore.Metal>
0.0000

> <Gold.Chemscore.Lipo>
36.3803

> <Gold.Chemscore.Internal_Hbond>
0.0000

> <Gold.Chemscore.DEClash>
0.0193

> <Gold.Chemscore.DEInternal>
0.1389

> <Gold.Chemscore.Rot>
1.2805

> <Gold.Chemscore.Internal.Correction>
   9.000000E+99

> <Gold.Chemscore.Hbonds>
donor molecule, donor type, donor heavy atom, donor atom, acceptor molecule, acceptor atom, score
      P1  H  7997  8009       L1    15  0.71
      P1  H  8011  8017       L1    12  0.88

> <Gold.Chemscore.Hbond.Weighted>
-7.2443

> <Gold.Chemscore.Metal.Weighted>
-0.0000

> <Gold.Chemscore.Lipo.Weighted>
-4.2565

> <Gold.Chemscore.Internal_Hbond.Weighted>
0.0000

> <Gold.Chemscore.DEClash.Weighted>
0.0193

> <Gold.Chemscore.DEInternal.Weighted>
0.1389

> <Gold.Chemscore.Rot.Weighted>
3.2782

> <Gold.Chemscore.Internal.Correction.Weighted>
   9.000000E+99

> <Gold.Protein.RotatedTorsions>
[ 6907 6896 6895 6894 ] final  -54.99 input  -60.11 | X-H torsion
[ 7974 7965 7964 7962 ] final -173.72 input  175.53 | X-H torsion
[ 8008 7997 7996 7995 ] final -179.13 input   59.86 | X-H torsion
[ 10167 10162 10161 10158 ] final  -47.28 input  -65.29 | X-H torsion
[ 10718 10713 10712 10709 ] final  -47.44 input   66.30 | X-H torsion
[ 10763 10752 10751 10750 ] final   36.28 input  -60.55 | X-H torsion
[ 11005 11000 10999 10996 ] final   48.50 input  -57.11 | X-H torsion

> <Gold.Protein.ActiveResidues>
 VAL166  LYS551  ARG553  GLY616  TRP617  ASP618  TYR619  PRO620  LYS621  CYS622 
 ASP623  PHE694  ASN695  SER759  ASP760  ASP761  ALA762  ILE779  LEU786  VAL792 
 PHE793  MET794  SER795  GLU796  ALA797  LYS798  CYS799  TRP800  GLU811  SER814 

> <Gold.Protein.RotatedAtoms>
  150.8290  134.7534  159.6836 H   0  0  0  0  0  0  0  0  0  0  0  0  # atno 6907 bound_to 6896
  152.4397  134.5612  159.9904 H   0  0  0  0  0  0  0  0  0  0  0  0  # atno 6908 bound_to 6896
  151.5778  133.3344  159.3038 H   0  0  0  0  0  0  0  0  0  0  0  0  # atno 6909 bound_to 6896
  144.7136  140.1580  143.6378 H   0  0  0  0  0  0  0  0  0  0  0  0  # atno 7974 bound_to 7965
  156.0270  140.1273  157.0298 H   0  0  0  0  0  0  0  0  0  0  0  0  # atno 8008 bound_to 7997
  154.4334  140.1057  156.6115 H   0  0  0  0  0  0  0  0  0  0  0  0  # atno 8009 bound_to 7997
  155.5862  140.3468  155.4556 H   0  0  0  0  0  0  0  0  0  0  0  0  # atno 8010 bound_to 7997
  140.6781  143.2791  151.3904 H   0  0  0  0  0  0  0  0  0  0  0  0  # atno 10167 bound_to 10162
  156.2084  130.4159  149.9147 H   0  0  0  0  0  0  0  0  0  0  0  0  # atno 10718 bound_to 10713
  153.0084  135.6310  154.1960 H   0  0  0  0  0  0  0  0  0  0  0  0  # atno 10763 bound_to 10752
  154.1703  135.2818  155.3084 H   0  0  0  0  0  0  0  0  0  0  0  0  # atno 10764 bound_to 10752
  154.5914  135.5616  153.7342 H   0  0  0  0  0  0  0  0  0  0  0  0  # atno 10765 bound_to 10752
  140.1185  134.4861  155.8617 H   0  0  0  0  0  0  0  0  0  0  0  0  # atno 11005 bound_to 11000
  145.9056  139.2456  143.1467 LP  0  0  0  0  0  0  0  0  0  0  0  0  # atno 17320 bound_to 7965
  145.9767  140.8716  143.0135 LP  0  0  0  0  0  0  0  0  0  0  0  0  # atno 17321 bound_to 7965
  139.6086  144.1144  152.2276 LP  0  0  0  0  0  0  0  0  0  0  0  0  # atno 17342 bound_to 10162
  140.0551  144.5901  150.7306 LP  0  0  0  0  0  0  0  0  0  0  0  0  # atno 17343 bound_to 10162
  156.6833  130.8867  151.3579 LP  0  0  0  0  0  0  0  0  0  0  0  0  # atno 17370 bound_to 10713
  157.7025  130.9349  150.0829 LP  0  0  0  0  0  0  0  0  0  0  0  0  # atno 17371 bound_to 10713
  141.2146  133.6752  156.6843 LP  0  0  0  0  0  0  0  0  0  0  0  0  # atno 17394 bound_to 11000
  140.2996  134.8174  157.4087 LP  0  0  0  0  0  0  0  0  0  0  0  0  # atno 17395 bound_to 11000

$$$$
