AV-unprocessed.smi:2061|AV-procd|sdf|8386|dock4
  -GOLD-   2272011 63D 1   1.00000     0.00000
 Structure written by MMmdl.
 45 46  0  0  0  0  0  0  0  0  3 V2000
  149.7818  141.0012  153.9210 C   0  0  0  0  0  0  0  0  0  0  0  0
  150.4326  139.6683  154.0689 C   0  0  0  0  0  0  0  0  0  0  0  0
  149.9344  138.4061  154.2252 C   0  0  0  0  0  0  0  0  0  0  0  0
  151.1043  137.6018  154.2964 C   0  0  0  0  0  0  0  0  0  0  0  0
  151.1353  136.2703  154.4622 N   0  5  0  0  0  0  0  0  0  0  0  0
  150.1192  135.6393  155.0927 C   0  0  0  0  0  0  0  0  0  0  0  0
  150.1004  135.2774  156.2718 O   0  0  0  0  0  0  0  0  0  0  0  0
  149.0580  135.4068  154.3071 N   0  0  0  0  0  0  0  0  0  0  0  0
  147.8277  134.7402  154.7220 C   0  0  0  0  0  0  0  0  0  0  0  0
  147.3247  133.7013  153.6855 C   0  0  2  0  0  0  0  0  0  0  0  0
  148.3601  132.5601  153.5390 C   0  0  0  0  0  0  0  0  0  0  0  0
  146.9985  134.3862  152.3903 N   0  3  1  0  0  0  0  0  0  0  0  0
  146.7174  133.5185  151.2144 C   0  0  0  0  0  0  0  0  0  0  0  0
  145.3166  132.8820  151.3137 C   0  0  2  0  0  0  0  0  0  0  0  0
  144.9891  132.0190  150.0904 C   0  0  0  0  0  0  0  0  0  0  0  0
  144.3514  133.9254  151.3884 O   0  0  0  0  0  0  0  0  0  0  0  0
  144.5172  134.7523  152.5355 C   0  0  2  0  0  0  0  0  0  0  0  0
  143.3970  135.7983  152.5304 C   0  0  0  0  0  0  0  0  0  0  0  0
  145.9180  135.4048  152.4995 C   0  0  0  0  0  0  0  0  0  0  0  0
  152.2148  138.3146  154.2071 N   0  0  0  0  0  0  0  0  0  0  0  0
  151.7926  139.6407  154.0542 O   0  0  0  0  0  0  0  0  0  0  0  0
  149.1294  141.2076  154.7696 H   0  0  0  0  0  0  0  0  0  0  0  0
  149.1785  141.0359  153.0139 H   0  0  0  0  0  0  0  0  0  0  0  0
  150.5240  141.7978  153.8641 H   0  0  0  0  0  0  0  0  0  0  0  0
  148.8988  138.1049  154.2769 H   0  0  0  0  0  0  0  0  0  0  0  0
  149.1112  135.7214  153.3491 H   0  0  0  0  0  0  0  0  0  0  0  0
  148.0009  134.2976  155.7019 H   0  0  0  0  0  0  0  0  0  0  0  0
  147.0674  135.5070  154.8722 H   0  0  0  0  0  0  0  0  0  0  0  0
  146.4131  133.2418  154.0651 H   0  0  0  0  0  0  0  0  0  0  0  0
  148.6048  132.1135  154.5027 H   0  0  0  0  0  0  0  0  0  0  0  0
  149.2917  132.9193  153.1012 H   0  0  0  0  0  0  0  0  0  0  0  0
  147.9848  131.7421  152.9246 H   0  0  0  0  0  0  0  0  0  0  0  0
  146.7560  134.1461  150.3229 H   0  0  0  0  0  0  0  0  0  0  0  0
  147.4920  132.7695  151.0572 H   0  0  0  0  0  0  0  0  0  0  0  0
  145.2443  132.2581  152.2059 H   0  0  0  0  0  0  0  0  0  0  0  0
  145.6955  131.1944  149.9924 H   0  0  0  0  0  0  0  0  0  0  0  0
  145.0274  132.6045  149.1714 H   0  0  0  0  0  0  0  0  0  0  0  0
  143.9895  131.5916  150.1713 H   0  0  0  0  0  0  0  0  0  0  0  0
  144.4024  134.1426  153.4324 H   0  0  0  0  0  0  0  0  0  0  0  0
  143.4697  136.4540  153.3983 H   0  0  0  0  0  0  0  0  0  0  0  0
  142.4175  135.3204  152.5572 H   0  0  0  0  0  0  0  0  0  0  0  0
  143.4403  136.4199  151.6356 H   0  0  0  0  0  0  0  0  0  0  0  0
  146.0534  136.0496  153.3658 H   0  0  0  0  0  0  0  0  0  0  0  0
  145.9863  136.0607  151.6305 H   0  0  0  0  0  0  0  0  0  0  0  0
  147.8416  134.8893  152.1531 H   0  0  0  0  0  0  0  0  0  0  0  0
  1  2  1  0  0  0  0
  1 22  1  0  0  0  0
  1 23  1  0  0  0  0
  1 24  1  0  0  0  0
  2 21  1  0  0  0  0
  2  3  2  0  0  0  0
  3  4  1  0  0  0  0
  3 25  1  0  0  0  0
  4  5  1  0  0  0  0
  4 20  2  0  0  0  0
  5  6  1  0  0  0  0
  6  7  2  0  0  0  0
  6  8  1  0  0  0  0
  8  9  1  0  0  0  0
  8 26  1  0  0  0  0
  9 10  1  0  0  0  0
  9 27  1  0  0  0  0
  9 28  1  0  0  0  0
 10 11  1  0  0  0  0
 10 12  1  0  0  0  0
 10 29  1  0  0  0  0
 11 30  1  0  0  0  0
 11 31  1  0  0  0  0
 11 32  1  0  0  0  0
 12 19  1  0  0  0  0
 12 13  1  0  0  0  0
 12 45  1  0  0  0  0
 13 14  1  0  0  0  0
 13 33  1  0  0  0  0
 13 34  1  0  0  0  0
 14 15  1  0  0  0  0
 14 16  1  0  0  0  0
 14 35  1  0  0  0  0
 15 36  1  0  0  0  0
 15 37  1  0  0  0  0
 15 38  1  0  0  0  0
 16 17  1  0  0  0  0
 17 18  1  0  0  0  0
 17 19  1  0  0  0  0
 17 39  1  0  0  0  0
 18 40  1  0  0  0  0
 18 41  1  0  0  0  0
 18 42  1  0  0  0  0
 19 43  1  0  0  0  0
 19 44  1  0  0  0  0
 20 21  1  0  0  0  0
M  CHG  1   5  -1
M  CHG  1  12   1
M  END
> <s_m_source_file>
AV-unprocessed.smi

> <i_m_source_file_index>
2061

> <i_lp_mmshare_version>
43012

> <i_f3d_flags>
0

> <s_epik_input>
W0NIM11jMVtjSF1jKG5vMSlbTkhdQyg9TylbTkhdW0NIMl1bQ0BIXShbQ0gzXSlOMltDSDJdW0NAQEhdKFtDSDNdKU9bQ0BASF0oW0NIM10pW0NIMl0y

> <s_epik_cmdline>
J2VwaWtfcHl0aG9uJywgJy1waCcsICc3LjAnLCAnLXRuJywgJzgnLCAnLW1hJywgJzIwMCcsICctbWV0YWxfYmluZGluZycsICctaW1hZScsICc8aW5maWxlLm1hZT4nLCAnLW9tYWUnLCAnPG91dGZpbGUubWFlPic=

> <r_epik_Ionization_Penalty>
6.73511

> <r_epik_Ionization_Penalty_Charging>
6.73502

> <r_epik_Ionization_Penalty_Neutral>
9.50841e-05

> <r_epik_State_Penalty>
6.93549

> <r_epik_Charging_Adjusted_Penalty>
13.6705

> <i_epik_Tot_Q>
0

> <i_epik_Tot_abs_Q>
2

> <r_epik_Metal_State_Penalty>
2.87211

> <b_epik_Metal_Only>
1

> <s_lp_Force_Field>
OPLS_2005

> <r_lp_Energy>
9.64983

> <b_lp_Chiralities_Consistent>
1

> <s_lp_Variant>
AV-unprocessed.smi:2061-27

> <Gold.Version>
5.8.1

> <Gold.Id.Protein>
6NUR|6NUR_protein|mol2

> <Gold.PLP.Fitness>
51.4989

> <Gold.PLP.PLP>
-35.5781

> <Gold.PLP.part.hbond>
-4.0000

> <Gold.PLP.part.metal>
0.0000

> <Gold.PLP.part.buried>
-7.9108

> <Gold.PLP.part.nonpolar>
-24.8092

> <Gold.PLP.part.repulsive>
0.5111

> <Gold.PLP.ligand.clash>
0.0000

> <Gold.PLP.ligand.torsion>
1.0723

> <Gold.PLP.Chemscore.Hbond>
6.0000

> <Gold.PLP.Chemscore.CHOScore>
0.0000

> <Gold.PLP.Chemscore.Metal>
0.0000

> <Gold.Chemscore.Hbonds>
donor molecule, donor type, donor heavy atom, donor atom, acceptor molecule, acceptor atom, score
      L1  H     8    26       P1  7948  1.00
      L1  H    12    45       P1  7948  2.00
      P1  H  7989  7998       L1    21  0.09
      P1  H 10752 10764       L1     5  2.00

> <Gold.PLP.Chemscore.Internal.Correction>
0.0654

> <Gold.Rescore>
     Score         DG    S(hbond)    S(metal)    S(lipo)     H(rot)  DE(clash)    DE(int)     intcor
     20.08     -21.53       3.48        0.00      71.82       1.56       0.08       1.37       ----

> <Gold.Chemscore.Fitness>
20.0808

> <Gold.Chemscore.DG>
-21.5331

> <Gold.Chemscore.ZeroCoef>
-5.4800

> <Gold.Chemscore.Hbond>
3.4823

> <Gold.Chemscore.Metal>
0.0000

> <Gold.Chemscore.Lipo>
71.8206

> <Gold.Chemscore.Internal_Hbond>
0.0000

> <Gold.Chemscore.DEClash>
0.0799

> <Gold.Chemscore.DEInternal>
1.3724

> <Gold.Chemscore.Rot>
1.5550

> <Gold.Chemscore.Internal.Correction>
   9.000000E+99

> <Gold.Chemscore.Hbonds>
donor molecule, donor type, donor heavy atom, donor atom, acceptor molecule, acceptor atom, score
      L1  H     8    26       P1  7948  0.67
      L1  H    12    45       P1  7948  0.70
      P1  H 10752 10764       L1     5  0.81

> <Gold.Chemscore.Hbond.Weighted>
-11.6310

> <Gold.Chemscore.Metal.Weighted>
-0.0000

> <Gold.Chemscore.Lipo.Weighted>
-8.4030

> <Gold.Chemscore.Internal_Hbond.Weighted>
0.0000

> <Gold.Chemscore.DEClash.Weighted>
0.0799

> <Gold.Chemscore.DEInternal.Weighted>
1.3724

> <Gold.Chemscore.Rot.Weighted>
3.9809

> <Gold.Chemscore.Internal.Correction.Weighted>
   9.000000E+99

> <Gold.Protein.RotatedTorsions>
[ 6907 6896 6895 6894 ] final   40.84 input  -60.11 | X-H torsion
[ 7974 7965 7964 7962 ] final  127.19 input  175.53 | X-H torsion
[ 8008 7997 7996 7995 ] final -117.92 input   59.86 | X-H torsion
[ 10167 10162 10161 10158 ] final  170.34 input  -65.29 | X-H torsion
[ 10718 10713 10712 10709 ] final  140.75 input   66.30 | X-H torsion
[ 10763 10752 10751 10750 ] final  -63.19 input  -60.55 | X-H torsion
[ 11005 11000 10999 10996 ] final -167.30 input  -57.11 | X-H torsion

> <Gold.Protein.ActiveResidues>
 VAL166  LYS551  ARG553  GLY616  TRP617  ASP618  TYR619  PRO620  LYS621  CYS622 
 ASP623  PHE694  ASN695  SER759  ASP760  ASP761  ALA762  ILE779  LEU786  VAL792 
 PHE793  MET794  SER795  GLU796  ALA797  LYS798  CYS799  TRP800  GLU811  SER814 

> <Gold.Protein.RotatedAtoms>
  152.1877  134.8699  160.0520 H   0  0  0  0  0  0  0  0  0  0  0  0  # atno 6907 bound_to 6896
  151.9600  133.3687  159.4040 H   0  0  0  0  0  0  0  0  0  0  0  0  # atno 6908 bound_to 6896
  150.6929  134.4174  159.5233 H   0  0  0  0  0  0  0  0  0  0  0  0  # atno 6909 bound_to 6896
  145.0533  139.3865  143.5043 H   0  0  0  0  0  0  0  0  0  0  0  0  # atno 7974 bound_to 7965
  155.0914  140.0395  157.2669 H   0  0  0  0  0  0  0  0  0  0  0  0  # atno 8008 bound_to 7997
  154.6829  140.2637  155.6865 H   0  0  0  0  0  0  0  0  0  0  0  0  # atno 8009 bound_to 7997
  156.2701  140.2775  156.1380 H   0  0  0  0  0  0  0  0  0  0  0  0  # atno 8010 bound_to 7997
  139.5016  144.3607  151.9828 H   0  0  0  0  0  0  0  0  0  0  0  0  # atno 10167 bound_to 10162
  157.3998  131.1015  151.0563 H   0  0  0  0  0  0  0  0  0  0  0  0  # atno 10718 bound_to 10713
  154.3113  135.6215  153.5467 H   0  0  0  0  0  0  0  0  0  0  0  0  # atno 10763 bound_to 10752
  152.9829  135.5702  154.5174 H   0  0  0  0  0  0  0  0  0  0  0  0  # atno 10764 bound_to 10752
  154.4824  135.2863  155.1537 H   0  0  0  0  0  0  0  0  0  0  0  0  # atno 10765 bound_to 10752
  140.5548  134.5392  157.5130 H   0  0  0  0  0  0  0  0  0  0  0  0  # atno 11005 bound_to 11000
  146.3519  140.0194  142.8660 LP  0  0  0  0  0  0  0  0  0  0  0  0  # atno 17320 bound_to 7965
  145.1500  140.9617  143.4438 LP  0  0  0  0  0  0  0  0  0  0  0  0  # atno 17321 bound_to 7965
  140.3043  144.3611  150.6051 LP  0  0  0  0  0  0  0  0  0  0  0  0  # atno 17342 bound_to 10162
  140.5849  143.2170  151.7361 LP  0  0  0  0  0  0  0  0  0  0  0  0  # atno 17343 bound_to 10162
  157.1566  130.6207  149.5598 LP  0  0  0  0  0  0  0  0  0  0  0  0  # atno 17370 bound_to 10713
  155.9820  130.4831  150.6858 LP  0  0  0  0  0  0  0  0  0  0  0  0  # atno 17371 bound_to 10713
  139.9437  134.7740  156.0614 LP  0  0  0  0  0  0  0  0  0  0  0  0  # atno 17394 bound_to 11000
  141.1150  133.6630  156.3072 LP  0  0  0  0  0  0  0  0  0  0  0  0  # atno 17395 bound_to 11000

$$$$
