AV-unprocessed.smi:735|AV-procd|sdf|3533|dock2
  -GOLD-   22720 0523D 1   1.00000     0.00000
 Structure written by MMmdl.
 17 17  0  0  0  0  0  0  0  0  2 V2000
  154.2820  138.6386  157.4156 O   0  0  0  0  0  0  0  0  0  0  0  0
  153.7441  137.5591  157.0821 C   0  0  0  0  0  0  0  0  0  0  0  0
  154.3588  136.5672  156.6280 O   0  5  0  0  0  0  0  0  0  0  0  0
  152.2163  137.4653  157.2401 C   0  0  0  0  0  0  0  0  0  0  0  0
  151.8619  136.2122  156.9442 F   0  0  0  0  0  0  0  0  0  0  0  0
  151.9262  137.6508  158.5301 F   0  0  0  0  0  0  0  0  0  0  0  0
  151.4548  138.4415  156.3311 C   0  0  0  0  0  0  0  0  0  0  0  0
  150.9004  139.5782  156.8335 C   0  0  0  0  0  0  0  0  0  0  0  0
  150.2352  140.5042  156.0582 N   0  0  0  0  0  0  0  0  0  0  0  0
  150.1013  140.3255  154.6830 C   0  0  0  0  0  0  0  0  0  0  0  0
  149.5135  141.1427  153.9788 O   0  0  0  0  0  0  0  0  0  0  0  0
  150.6700  139.1709  154.1494 N   0  0  0  0  0  0  0  0  0  0  0  0
  151.3527  138.1900  154.8803 C   0  0  0  0  0  0  0  0  0  0  0  0
  151.7917  137.2099  154.2809 O   0  0  0  0  0  0  0  0  0  0  0  0
  149.8326  141.3321  156.4731 H   0  0  0  0  0  0  0  0  0  0  0  0
  150.5775  139.0248  153.1549 H   0  0  0  0  0  0  0  0  0  0  0  0
  150.9713  139.7842  157.8917 H   0  0  0  0  0  0  0  0  0  0  0  0
  1  2  2  0  0  0  0
  2  3  1  0  0  0  0
  2  4  1  0  0  0  0
  4  5  1  0  0  0  0
  4  6  1  0  0  0  0
  4  7  1  0  0  0  0
  7 13  1  0  0  0  0
  7  8  2  0  0  0  0
  8  9  1  0  0  0  0
  8 17  1  0  0  0  0
  9 15  1  0  0  0  0
  9 10  1  0  0  0  0
 10 11  2  0  0  0  0
 10 12  1  0  0  0  0
 12 16  1  0  0  0  0
 12 13  1  0  0  0  0
 13 14  2  0  0  0  0
M  CHG  1   3  -1
M  END
> <s_m_source_file>
AV-unprocessed.smi

> <i_m_source_file_index>
735

> <i_lp_mmshare_version>
43012

> <i_f3d_flags>
0

> <s_epik_input>
Tz1DKFtPSF0pQyhGKShGKWMxW2NIXVtuSF1jKD1PKVtuSF1jMT1P

> <s_epik_cmdline>
J2VwaWtfcHl0aG9uJywgJy1waCcsICc3LjAnLCAnLXRuJywgJzgnLCAnLW1hJywgJzIwMCcsICctbWV0YWxfYmluZGluZycsICctaW1hZScsICc8aW5maWxlLm1hZT4nLCAnLW9tYWUnLCAnPG91dGZpbGUubWFlPic=

> <r_lp_tautomer_probability>
0.999514

> <r_epik_Ionization_Penalty>
0.138461

> <r_epik_Ionization_Penalty_Charging>
0.138461

> <r_epik_Ionization_Penalty_Neutral>
0

> <r_epik_State_Penalty>
0.812948

> <r_epik_Charging_Adjusted_Penalty>
0.951409

> <i_epik_Tot_Q>
-1

> <i_epik_Tot_abs_Q>
1

> <r_epik_Metal_State_Penalty>
4.31017

> <b_epik_Metal_Only>
0

> <s_lp_Force_Field>
OPLS_2005

> <r_lp_Energy>
7.04955

> <b_lp_Chiralities_Consistent>
1

> <s_lp_Variant>
AV-unprocessed.smi:735-2

> <Gold.Version>
5.8.1

> <Gold.Id.Protein>
6NUR|6NUR_protein|mol2

> <Gold.PLP.Fitness>
30.6993

> <Gold.PLP.PLP>
-15.0478

> <Gold.PLP.part.hbond>
-5.0076

> <Gold.PLP.part.metal>
0.0000

> <Gold.PLP.part.buried>
-2.2176

> <Gold.PLP.part.nonpolar>
-8.6676

> <Gold.PLP.part.repulsive>
1.1625

> <Gold.PLP.ligand.clash>
0.0000

> <Gold.PLP.ligand.torsion>
0.6640

> <Gold.PLP.Chemscore.Hbond>
5.6436

> <Gold.PLP.Chemscore.CHOScore>
0.0000

> <Gold.PLP.Chemscore.Metal>
0.0000

> <Gold.Chemscore.Hbonds>
donor molecule, donor type, donor heavy atom, donor atom, acceptor molecule, acceptor atom, score
      L1  H    12    16       P1  7957  0.03
      P1  H  7997  8009       L1     1  1.25
      P1  H  8011  8017       L1    11  0.69
      P1  H 10752 10764       L1    14  0.99
      P1  H 10752 10765       L1     3  1.76

> <Gold.PLP.Chemscore.Internal.Correction>
0.0489

> <Gold.Rescore>
     Score         DG    S(hbond)    S(metal)    S(lipo)     H(rot)  DE(clash)    DE(int)     intcor
     11.23     -13.63       3.40        0.00      12.47       1.82       0.84       1.57       ----

> <Gold.Chemscore.Fitness>
11.2270

> <Gold.Chemscore.DG>
-13.6329

> <Gold.Chemscore.ZeroCoef>
-5.4800

> <Gold.Chemscore.Hbond>
3.3981

> <Gold.Chemscore.Metal>
0.0000

> <Gold.Chemscore.Lipo>
12.4730

> <Gold.Chemscore.Internal_Hbond>
0.0000

> <Gold.Chemscore.DEClash>
0.8351

> <Gold.Chemscore.DEInternal>
1.5709

> <Gold.Chemscore.Rot>
1.8187

> <Gold.Chemscore.Internal.Correction>
   9.000000E+99

> <Gold.Chemscore.Hbonds>
donor molecule, donor type, donor heavy atom, donor atom, acceptor molecule, acceptor atom, score
      L1  H    12    16       P1  7957  0.04
      P1  H  7997  8009       L1     1  0.61
      P1  H  8011  8017       L1    11  0.68
      P1  H 10752 10764       L1    14  0.94
      P1  H 10752 10765       L1     3  0.87

> <Gold.Chemscore.Hbond.Weighted>
-11.3495

> <Gold.Chemscore.Metal.Weighted>
-0.0000

> <Gold.Chemscore.Lipo.Weighted>
-1.4593

> <Gold.Chemscore.Internal_Hbond.Weighted>
0.0000

> <Gold.Chemscore.DEClash.Weighted>
0.8351

> <Gold.Chemscore.DEInternal.Weighted>
1.5709

> <Gold.Chemscore.Rot.Weighted>
4.6559

> <Gold.Chemscore.Internal.Correction.Weighted>
   9.000000E+99

> <Gold.Protein.RotatedTorsions>
[ 6907 6896 6895 6894 ] final   78.04 input  -60.11 | X-H torsion
[ 7974 7965 7964 7962 ] final   45.83 input  175.53 | X-H torsion
[ 8008 7997 7996 7995 ] final  146.55 input   59.86 | X-H torsion
[ 10167 10162 10161 10158 ] final -105.79 input  -65.29 | X-H torsion
[ 10718 10713 10712 10709 ] final  -92.09 input   66.30 | X-H torsion
[ 10763 10752 10751 10750 ] final  -91.61 input  -60.55 | X-H torsion
[ 11005 11000 10999 10996 ] final   79.84 input  -57.11 | X-H torsion

> <Gold.Protein.ActiveResidues>
 VAL166  LYS551  ARG553  GLY616  TRP617  ASP618  TYR619  PRO620  LYS621  CYS622 
 ASP623  PHE694  ASN695  SER759  ASP760  ASP761  ALA762  ILE779  LEU786  VAL792 
 PHE793  MET794  SER795  GLU796  ALA797  LYS798  CYS799  TRP800  GLU811  SER814 

> <Gold.Protein.RotatedAtoms>
  152.5143  134.3725  159.9322 H   0  0  0  0  0  0  0  0  0  0  0  0  # atno 6907 bound_to 6896
  151.3679  133.3859  159.2704 H   0  0  0  0  0  0  0  0  0  0  0  0  # atno 6908 bound_to 6896
  150.9600  134.9009  159.7783 H   0  0  0  0  0  0  0  0  0  0  0  0  # atno 6909 bound_to 6896
  146.0445  139.4921  142.9757 H   0  0  0  0  0  0  0  0  0  0  0  0  # atno 7974 bound_to 7965
  156.2852  140.2179  156.5395 H   0  0  0  0  0  0  0  0  0  0  0  0  # atno 8008 bound_to 7997
  154.7381  140.0490  157.0809 H   0  0  0  0  0  0  0  0  0  0  0  0  # atno 8009 bound_to 7997
  155.0266  140.3130  155.4777 H   0  0  0  0  0  0  0  0  0  0  0  0  # atno 8010 bound_to 7997
  140.1947  143.3864  152.1178 H   0  0  0  0  0  0  0  0  0  0  0  0  # atno 10167 bound_to 10162
  155.9999  130.4973  150.5572 H   0  0  0  0  0  0  0  0  0  0  0  0  # atno 10718 bound_to 10713
  154.6778  135.5261  153.8223 H   0  0  0  0  0  0  0  0  0  0  0  0  # atno 10763 bound_to 10752
  153.0544  135.6545  154.0623 H   0  0  0  0  0  0  0  0  0  0  0  0  # atno 10764 bound_to 10752
  154.0514  135.2969  155.3319 H   0  0  0  0  0  0  0  0  0  0  0  0  # atno 10765 bound_to 10752
  139.9157  134.7874  156.1831 H   0  0  0  0  0  0  0  0  0  0  0  0  # atno 11005 bound_to 11000
  145.6829  141.0186  143.1596 LP  0  0  0  0  0  0  0  0  0  0  0  0  # atno 17320 bound_to 7965
  144.7091  139.8443  143.7420 LP  0  0  0  0  0  0  0  0  0  0  0  0  # atno 17321 bound_to 7965
  139.5241  144.7080  151.5295 LP  0  0  0  0  0  0  0  0  0  0  0  0  # atno 17342 bound_to 10162
  140.6431  143.8848  150.6711 LP  0  0  0  0  0  0  0  0  0  0  0  0  # atno 17343 bound_to 10162
  157.3487  131.0729  151.1731 LP  0  0  0  0  0  0  0  0  0  0  0  0  # atno 17370 bound_to 10713
  157.2554  130.6634  149.5950 LP  0  0  0  0  0  0  0  0  0  0  0  0  # atno 17371 bound_to 10713
  141.0630  133.6833  156.1989 LP  0  0  0  0  0  0  0  0  0  0  0  0  # atno 17394 bound_to 11000
  140.6631  134.4947  157.5584 LP  0  0  0  0  0  0  0  0  0  0  0  0  # atno 17395 bound_to 11000

$$$$
