#       Name:                AV-unprocessed.smi:3170
#       Creating user name   scv26
#       Creation time:       Fri Mar 27 17:54:57 2020


#       File generated by GOLD software.
#

@<TRIPOS>MOLECULE
AV-unprocessed.smi:3170
    40    41     1
SMALL
NO_CHARGES


@<TRIPOS>ATOM
      1 ****         1.3759   1.9060   0.1222 O.2            1 S1                 0.0000
      2 ****         0.9588   0.8031  -0.2315 C.2            1 S1                 0.0000
      3 ****         1.7373  -0.2729  -0.4102 N.am           1 S1                 0.0000
      4 ****         3.1822  -0.3067  -0.2045 C.3            1 S1                 0.0000
      5 ****         3.5681  -0.3132   1.2871 C.3            1 S1                 0.0000
      6 ****         3.0730  -1.4881   1.9793 N.pl3          1 S1                 0.0000
      7 ****         3.6670  -2.7417   2.0334 C.2            1 S1                 0.0000
      8 ****         2.8400  -3.5356   2.7956 C.2            1 S1                 0.0000
      9 ****         1.7377  -2.7959   3.2173 N.2            1 S1                 0.0000
     10 ****         1.9465  -1.5933   2.6976 C.2            1 S1                 0.0000
     11 ****        -0.3290   0.5323  -0.4776 N.am           1 S1                 0.0000
     12 ****        -1.4098   1.5018  -0.3561 C.3            1 S1                 0.0000
     13 ****        -2.7150   0.9507  -0.9526 C.3            1 S1                 0.0000
     14 ****        -3.8818   1.9133  -0.8742 C.3            1 S1                 0.0000
     15 ****        -4.8381   1.3350  -1.9127 C.3            1 S1                 0.0000
     16 ****        -4.0146   0.7323  -2.9073 O.3            1 S1                 0.0000
     17 ****        -2.6645   0.6741  -2.4563 C.3            1 S1                 0.0000
     18 ****         1.2993  -1.1349  -0.7004 H              1 S1                 0.0000
     19 ****         3.5777  -1.1964  -0.6955 H              1 S1                 0.0000
     20 ****         3.6401   0.5483  -0.7041 H              1 S1                 0.0000
     21 ****         4.6538  -0.2919   1.3874 H              1 S1                 0.0000
     22 ****         3.1938   0.5784   1.7919 H              1 S1                 0.0000
     23 ****         4.6019  -2.9591   1.5383 H              1 S1                 0.0000
     24 ****         2.9520  -4.5741   3.0703 H              1 S1                 0.0000
     25 ****         1.2606  -0.7705   2.8372 H              1 S1                 0.0000
     26 ****        -0.5792  -0.4036  -0.7614 H              1 S1                 0.0000
     27 ****        -1.5541   1.7387   0.6989 H              1 S1                 0.0000
     28 ****        -1.1309   2.4305  -0.8569 H              1 S1                 0.0000
     29 ****        -2.9921   0.0303  -0.4352 H              1 S1                 0.0000
     30 ****        -4.3224   1.9742   0.1213 H              1 S1                 0.0000
     31 ****        -3.5705   2.9155  -1.1725 H              1 S1                 0.0000
     32 ****        -5.4629   0.5611  -1.4653 H              1 S1                 0.0000
     33 ****        -5.4935   2.0928  -2.3423 H              1 S1                 0.0000
     34 ****        -2.0964   1.4485  -2.9735 H              1 S1                 0.0000
     35 ****        -2.2098  -0.2891  -2.6889 H              1 S1                 0.0000
     36 ****         2.3517   2.0396   0.2950 LP             1 S1                 0.0000
     37 ****         0.7388   2.6683   0.2368 LP             1 S1                 0.0000
     38 ****         0.9690  -3.1001   3.7800 LP             1 S1                 0.0000
     39 ****        -4.0598   1.2740  -3.7467 LP             1 S1                 0.0000
     40 ****        -4.3422  -0.1945  -3.0906 LP             1 S1                 0.0000
@<TRIPOS>BOND
    1    1    2 2     
    2    2    3 am    
    3    2   11 am    
    4    3    4 1     
    5    3   18 1     
    6    4    5 1     
    7    4   19 1     
    8    4   20 1     
    9    5    6 1     
   10    5   21 1     
   11    5   22 1     
   12    6   10 1     
   13    6    7 1     
   14    7    8 2     
   15    7   23 1     
   16    8    9 1     
   17    8   24 1     
   18    9   10 2     
   19   10   25 1     
   20   11   12 1     
   21   11   26 1     
   22   12   13 1     
   23   12   27 1     
   24   12   28 1     
   25   13   17 1     
   26   13   14 1     
   27   13   29 1     
   28   14   15 1     
   29   14   30 1     
   30   14   31 1     
   31   15   16 1     
   32   15   32 1     
   33   15   33 1     
   34   16   17 1     
   35   17   34 1     
   36   17   35 1     
   37    1   36 1     
   38    1   37 1     
   39    9   38 1     
   40   16   39 1     
   41   16   40 1     
@<TRIPOS>SUBSTRUCTURE
      1 S1             1
@<TRIPOS>SET
LONE_PAIRS      STATIC     ATOMS    <user>   **** ""
5 36 37 38 39 40
DONOR_HYDROGENS      STATIC     ATOMS    <user>   **** ""
2 18 26
ATOM$BLUE        STATIC     ATOMS    COLORGROUP SYSTEM
5 36 37 38 39 40
ATOM$RED        STATIC     ATOMS    COLORGROUP SYSTEM
2 18 26
