AV-unprocessed.smi:489|AV-procd|sdf|2702|dock2
  -GOLD-   2262023133D 1   1.00000     0.00000
 Structure written by MMmdl.
 42 43  0  0  0  0  0  0  0  0  1 V2000
  150.3004  144.8217  159.9224 C   0  0  0  0  0  0  0  0  0  0  0  0
  151.1096  143.6080  159.5521 C   0  0  0  0  0  0  0  0  0  0  0  0
  150.8091  143.0280  158.4369 N   0  0  0  0  0  0  0  0  0  0  0  0
  151.4911  141.9083  158.0012 N   0  0  0  0  0  0  0  0  0  0  0  0
  151.0281  141.3910  156.7052 C   0  0  0  0  0  0  0  0  0  0  0  0
  149.5201  141.1006  156.6924 C   0  0  0  0  0  0  0  0  0  0  0  0
  149.0491  140.3161  157.5197 O   0  0  0  0  0  0  0  0  0  0  0  0
  148.8199  141.7554  155.7378 N   0  0  0  0  0  0  0  0  0  0  0  0
  147.4947  141.7736  155.4608 C   0  0  0  0  0  0  0  0  0  0  0  0
  146.7550  140.8869  155.8845 O   0  0  0  0  0  0  0  0  0  0  0  0
  147.0395  142.7884  154.7018 N   0  0  0  0  0  0  0  0  0  0  0  0
  145.6870  142.9020  154.1637 C   0  0  0  0  0  0  0  0  0  0  0  0
  145.5491  144.0959  153.1946 C   0  0  0  0  0  0  0  0  0  0  0  0
  144.3103  144.8703  153.6470 C   0  0  0  0  0  0  0  0  0  0  0  0
  144.2325  144.6109  155.1480 C   0  0  0  0  0  0  0  0  0  0  0  0
  144.6769  143.1554  155.2978 C   0  0  0  0  0  0  0  0  0  0  0  0
  152.5026  141.3003  158.6859 C   0  0  0  0  0  0  0  0  0  0  0  0
  153.0686  140.2880  158.2700 O   0  0  0  0  0  0  0  0  0  0  0  0
  152.8431  141.9671  159.9447 C   0  0  0  0  0  0  0  0  0  0  0  0
  153.9114  141.3746  160.6828 C   0  0  0  0  0  0  0  0  0  0  0  0
  154.7817  140.9131  161.2910 N   0  0  0  0  0  0  0  0  0  0  0  0
  152.1885  143.0738  160.3772 C   0  0  0  0  0  0  0  0  0  0  0  0
  152.5029  143.8026  161.6765 C   0  0  0  0  0  0  0  0  0  0  0  0
  149.7337  144.6434  160.8364 H   0  0  0  0  0  0  0  0  0  0  0  0
  149.5883  145.0902  159.1406 H   0  0  0  0  0  0  0  0  0  0  0  0
  150.9467  145.6838  160.0872 H   0  0  0  0  0  0  0  0  0  0  0  0
  151.2848  142.0976  155.9133 H   0  0  0  0  0  0  0  0  0  0  0  0
  151.5505  140.4665  156.4531 H   0  0  0  0  0  0  0  0  0  0  0  0
  149.3794  142.3335  155.1279 H   0  0  0  0  0  0  0  0  0  0  0  0
  147.6823  143.5353  154.4794 H   0  0  0  0  0  0  0  0  0  0  0  0
  145.4247  141.9708  153.6580 H   0  0  0  0  0  0  0  0  0  0  0  0
  146.4193  144.7507  153.2634 H   0  0  0  0  0  0  0  0  0  0  0  0
  145.4714  143.7741  152.1557 H   0  0  0  0  0  0  0  0  0  0  0  0
  144.3676  145.9318  153.4048 H   0  0  0  0  0  0  0  0  0  0  0  0
  143.4237  144.4638  153.1583 H   0  0  0  0  0  0  0  0  0  0  0  0
  144.9314  145.2653  155.6710 H   0  0  0  0  0  0  0  0  0  0  0  0
  143.2373  144.7907  155.5553 H   0  0  0  0  0  0  0  0  0  0  0  0
  143.8135  142.5026  155.1609 H   0  0  0  0  0  0  0  0  0  0  0  0
  145.0784  142.9497  156.2912 H   0  0  0  0  0  0  0  0  0  0  0  0
  153.2711  143.2956  162.2592 H   0  0  0  0  0  0  0  0  0  0  0  0
  151.6138  143.8733  162.3039 H   0  0  0  0  0  0  0  0  0  0  0  0
  152.8592  144.8120  161.4693 H   0  0  0  0  0  0  0  0  0  0  0  0
  1  2  1  0  0  0  0
  1 24  1  0  0  0  0
  1 25  1  0  0  0  0
  1 26  1  0  0  0  0
  2 22  1  0  0  0  0
  2  3  2  0  0  0  0
  3  4  1  0  0  0  0
  4  5  1  0  0  0  0
  4 17  1  0  0  0  0
  5  6  1  0  0  0  0
  5 27  1  0  0  0  0
  5 28  1  0  0  0  0
  6  7  2  0  0  0  0
  6  8  1  0  0  0  0
  8  9  1  0  0  0  0
  8 29  1  0  0  0  0
  9 10  2  0  0  0  0
  9 11  1  0  0  0  0
 11 12  1  0  0  0  0
 11 30  1  0  0  0  0
 12 16  1  0  0  0  0
 12 13  1  0  0  0  0
 12 31  1  0  0  0  0
 13 14  1  0  0  0  0
 13 32  1  0  0  0  0
 13 33  1  0  0  0  0
 14 15  1  0  0  0  0
 14 34  1  0  0  0  0
 14 35  1  0  0  0  0
 15 16  1  0  0  0  0
 15 36  1  0  0  0  0
 15 37  1  0  0  0  0
 16 38  1  0  0  0  0
 16 39  1  0  0  0  0
 17 18  2  0  0  0  0
 17 19  1  0  0  0  0
 19 20  1  0  0  0  0
 19 22  2  0  0  0  0
 20 21  3  0  0  0  0
 22 23  1  0  0  0  0
 23 40  1  0  0  0  0
 23 41  1  0  0  0  0
 23 42  1  0  0  0  0
M  END
> <s_m_source_file>
AV-unprocessed.smi

> <i_m_source_file_index>
489

> <i_lp_mmshare_version>
43012

> <i_f3d_flags>
0

> <s_epik_input>
TiNDYyhjMVtDSDNdKWMoPU8pbihuYzFbQ0gzXSlbQ0gyXUMoPU8pW05IXUMoPU8pW05IXVtDSF0yW0NIMl1bQ0gyXVtDSDJdW0NIMl0y

> <s_epik_cmdline>
J2VwaWtfcHl0aG9uJywgJy1waCcsICc3LjAnLCAnLXRuJywgJzgnLCAnLW1hJywgJzIwMCcsICctbWV0YWxfYmluZGluZycsICctaW1hZScsICc8aW5maWxlLm1hZT4nLCAnLW9tYWUnLCAnPG91dGZpbGUubWFlPic=

> <r_lp_tautomer_probability>
1

> <r_epik_Ionization_Penalty>
3.28905e-05

> <r_epik_Ionization_Penalty_Charging>
1.69167e-11

> <r_epik_Ionization_Penalty_Neutral>
3.28905e-05

> <r_epik_State_Penalty>
-0

> <r_epik_Charging_Adjusted_Penalty>
1.69167e-11

> <i_epik_Tot_Q>
0

> <i_epik_Tot_abs_Q>
0

> <r_epik_Metal_State_Penalty>
-0

> <b_epik_Metal_Only>
0

> <s_lp_Force_Field>
OPLS_2005

> <r_lp_Energy>
37.6869

> <b_lp_Chiralities_Consistent>
1

> <s_lp_Variant>
AV-unprocessed.smi:489-1

> <Gold.Version>
5.8.1

> <Gold.Id.Protein>
6NUR|6NUR_protein|mol2

> <Gold.PLP.Fitness>
50.7101

> <Gold.PLP.PLP>
-46.4454

> <Gold.PLP.part.hbond>
-3.9454

> <Gold.PLP.part.metal>
0.0000

> <Gold.PLP.part.buried>
-6.0876

> <Gold.PLP.part.nonpolar>
-36.5925

> <Gold.PLP.part.repulsive>
0.3999

> <Gold.PLP.ligand.clash>
0.0000

> <Gold.PLP.ligand.torsion>
0.1841

> <Gold.PLP.Chemscore.Hbond>
1.5360

> <Gold.PLP.Chemscore.CHOScore>
0.0000

> <Gold.PLP.Chemscore.Metal>
0.0000

> <Gold.Chemscore.Hbonds>
donor molecule, donor type, donor heavy atom, donor atom, acceptor molecule, acceptor atom, score
      L1  H    11    30       P1  8028  0.66
      P1  H  7997  8009       L1    18  0.90

> <Gold.PLP.Chemscore.Internal.Correction>
0.0249

> <Gold.Rescore>
     Score         DG    S(hbond)    S(metal)    S(lipo)     H(rot)  DE(clash)    DE(int)     intcor
     14.01     -15.56       1.01        0.00      92.43       1.61       0.06       1.49       ----

> <Gold.Chemscore.Fitness>
14.0096

> <Gold.Chemscore.DG>
-15.5567

> <Gold.Chemscore.ZeroCoef>
-5.4800

> <Gold.Chemscore.Hbond>
1.0148

> <Gold.Chemscore.Metal>
0.0000

> <Gold.Chemscore.Lipo>
92.4309

> <Gold.Chemscore.Internal_Hbond>
0.0000

> <Gold.Chemscore.DEClash>
0.0590

> <Gold.Chemscore.DEInternal>
1.4880

> <Gold.Chemscore.Rot>
1.6122

> <Gold.Chemscore.Internal.Correction>
   9.000000E+99

> <Gold.Chemscore.Hbonds>
donor molecule, donor type, donor heavy atom, donor atom, acceptor molecule, acceptor atom, score
      L1  H    11    30       P1  8028  0.25
      P1  H  7997  8009       L1    18  0.86

> <Gold.Chemscore.Hbond.Weighted>
-3.3895

> <Gold.Chemscore.Metal.Weighted>
-0.0000

> <Gold.Chemscore.Lipo.Weighted>
-10.8144

> <Gold.Chemscore.Internal_Hbond.Weighted>
0.0000

> <Gold.Chemscore.DEClash.Weighted>
0.0590

> <Gold.Chemscore.DEInternal.Weighted>
1.4880

> <Gold.Chemscore.Rot.Weighted>
4.1272

> <Gold.Chemscore.Internal.Correction.Weighted>
   9.000000E+99

> <Gold.Protein.RotatedTorsions>
[ 6907 6896 6895 6894 ] final  -50.95 input  -60.11 | X-H torsion
[ 7974 7965 7964 7962 ] final   93.96 input  175.53 | X-H torsion
[ 8008 7997 7996 7995 ] final  151.01 input   59.86 | X-H torsion
[ 10167 10162 10161 10158 ] final   58.99 input  -65.29 | X-H torsion
[ 10718 10713 10712 10709 ] final  -30.42 input   66.30 | X-H torsion
[ 10763 10752 10751 10750 ] final   76.81 input  -60.55 | X-H torsion
[ 11005 11000 10999 10996 ] final   50.51 input  -57.11 | X-H torsion

> <Gold.Protein.ActiveResidues>
 VAL166  LYS551  ARG553  GLY616  TRP617  ASP618  TYR619  PRO620  LYS621  CYS622 
 ASP623  PHE694  ASN695  SER759  ASP760  ASP761  ALA762  ILE779  LEU786  VAL792 
 PHE793  MET794  SER795  GLU796  ALA797  LYS798  CYS799  TRP800  GLU811  SER814 

> <Gold.Protein.RotatedAtoms>
  150.8658  134.8021  159.7117 H   0  0  0  0  0  0  0  0  0  0  0  0  # atno 6907 bound_to 6896
  152.4680  134.5026  159.9739 H   0  0  0  0  0  0  0  0  0  0  0  0  # atno 6908 bound_to 6896
  151.5123  133.3444  159.2922 H   0  0  0  0  0  0  0  0  0  0  0  0  # atno 6909 bound_to 6896
  145.4719  139.2281  143.2930 H   0  0  0  0  0  0  0  0  0  0  0  0  # atno 7974 bound_to 7965
  156.2692  140.2059  156.6108 H   0  0  0  0  0  0  0  0  0  0  0  0  # atno 8008 bound_to 7997
  154.6833  140.0538  157.0312 H   0  0  0  0  0  0  0  0  0  0  0  0  # atno 8009 bound_to 7997
  155.0970  140.3202  155.4560 H   0  0  0  0  0  0  0  0  0  0  0  0  # atno 8010 bound_to 7997
  140.1813  144.4179  150.6614 H   0  0  0  0  0  0  0  0  0  0  0  0  # atno 10167 bound_to 10162
  156.4000  130.4388  149.7330 H   0  0  0  0  0  0  0  0  0  0  0  0  # atno 10718 bound_to 10713
  153.0752  135.4937  154.8389 H   0  0  0  0  0  0  0  0  0  0  0  0  # atno 10763 bound_to 10752
  154.7078  135.3014  154.9247 H   0  0  0  0  0  0  0  0  0  0  0  0  # atno 10764 bound_to 10752
  153.9950  135.6773  153.4809 H   0  0  0  0  0  0  0  0  0  0  0  0  # atno 10765 bound_to 10752
  140.1011  134.5080  155.8762 H   0  0  0  0  0  0  0  0  0  0  0  0  # atno 11005 bound_to 11000
  146.2392  140.5498  142.8941 LP  0  0  0  0  0  0  0  0  0  0  0  0  # atno 17320 bound_to 7965
  144.7940  140.6087  143.6522 LP  0  0  0  0  0  0  0  0  0  0  0  0  # atno 17321 bound_to 7965
  140.6518  143.2227  151.6061 LP  0  0  0  0  0  0  0  0  0  0  0  0  # atno 17342 bound_to 10162
  139.5295  144.2959  152.1114 LP  0  0  0  0  0  0  0  0  0  0  0  0  # atno 17343 bound_to 10162
  156.4349  130.7833  151.2854 LP  0  0  0  0  0  0  0  0  0  0  0  0  # atno 17370 bound_to 10713
  157.7503  131.0142  150.3456 LP  0  0  0  0  0  0  0  0  0  0  0  0  # atno 17371 bound_to 10713
  141.2106  133.6696  156.6520 LP  0  0  0  0  0  0  0  0  0  0  0  0  # atno 17394 bound_to 11000
  140.3219  134.8001  157.4259 LP  0  0  0  0  0  0  0  0  0  0  0  0  # atno 17395 bound_to 11000

$$$$
