#       Name:                AV-unprocessed.smi:3031
#       Creating user name   scv26
#       Creation time:       Fri Mar 27 16:48:59 2020


#       File generated by GOLD software.
#

@<TRIPOS>MOLECULE
AV-unprocessed.smi:3031
    53    54     1
SMALL
NO_CHARGES


@<TRIPOS>ATOM
      1 ****        -1.6445   0.8554   4.5604 C.3            1 S1                 0.0000
      2 ****        -1.4605  -0.3416   3.6728 C.2            1 S1                 0.0000
      3 ****        -0.3349  -1.2107   3.5964 C.2            1 S1                 0.0000
      4 ****        -0.4905  -2.1756   2.7046 N.2            1 S1                 0.0000
      5 ****        -1.7161  -1.9578   2.1828 N.pl3          1 S1                 0.0000
      6 ****        -2.2244  -2.8353   1.1445 C.3            1 S1                 0.0000
      7 ****        -2.0311  -2.2601  -0.2744 C.3            1 S1                 0.0000
      8 ****        -2.7141  -3.1529  -1.3191 C.3            1 S1                 0.0000
      9 ****        -0.5945  -2.1258  -0.6075 N.4            1 S1                 1.0000
     10 ****        -0.0493  -0.7554  -0.4945 C.3            1 S1                 0.0000
     11 ****         1.4688  -0.7318  -0.7511 C.3            1 S1                 0.0000
     12 ****         2.0708  -1.5820   0.2059 O.3            1 S1                 0.0000
     13 ****         2.1515   0.6467  -0.5939 C.3            1 S1                 0.0000
     14 ****         1.9306   1.6061  -1.6801 N.3            1 S1                 0.0000
     15 ****         0.7553   2.4498  -1.4583 C.3            1 S1                 0.0000
     16 ****         0.5491   3.4620  -2.5990 C.3            1 S1                 0.0000
     17 ****         1.7140   4.2678  -2.7369 O.3            1 S1                 0.0000
     18 ****         2.8852   3.4986  -2.9860 C.3            1 S1                 0.0000
     19 ****         3.0870   2.4842  -1.8467 C.3            1 S1                 0.0000
     20 ****        -2.3248  -0.8587   2.7499 C.2            1 S1                 0.0000
     21 ****        -0.8405   0.9466   5.2912 H              1 S1                 0.0000
     22 ****        -2.5797   0.8024   5.1183 H              1 S1                 0.0000
     23 ****        -1.6631   1.7820   3.9865 H              1 S1                 0.0000
     24 ****         0.5864  -1.1679   4.1588 H              1 S1                 0.0000
     25 ****        -1.7426  -3.8108   1.2335 H              1 S1                 0.0000
     26 ****        -3.2853  -2.9974   1.3395 H              1 S1                 0.0000
     27 ****        -2.5062  -1.2789  -0.3280 H              1 S1                 0.0000
     28 ****        -3.7820  -3.2455  -1.1185 H              1 S1                 0.0000
     29 ****        -2.2891  -4.1574  -1.3245 H              1 S1                 0.0000
     30 ****        -2.6049  -2.7388  -2.3220 H              1 S1                 0.0000
     31 ****        -0.0651  -2.7359  -0.0001 H              1 S1                 0.0000
     32 ****        -0.5696  -0.1568  -1.2384 H              1 S1                 0.0000
     33 ****        -0.2742  -0.3322   0.4845 H              1 S1                 0.0000
     34 ****         1.6857  -1.1346  -1.7413 H              1 S1                 0.0000
     35 ****         3.0035  -1.5967   0.0518 H              1 S1                 0.0000
     36 ****         1.8991   1.0952   0.3683 H              1 S1                 0.0000
     37 ****         3.2227   0.4447  -0.5371 H              1 S1                 0.0000
     38 ****        -0.1463   1.8531  -1.3619 H              1 S1                 0.0000
     39 ****         0.8633   2.9929  -0.5180 H              1 S1                 0.0000
     40 ****         0.3381   2.9487  -3.5384 H              1 S1                 0.0000
     41 ****        -0.3050   4.1053  -2.3859 H              1 S1                 0.0000
     42 ****         2.7968   2.9886  -3.9465 H              1 S1                 0.0000
     43 ****         3.7433   4.1673  -3.0557 H              1 S1                 0.0000
     44 ****         3.2834   3.0197  -0.9162 H              1 S1                 0.0000
     45 ****         3.9767   1.8900  -2.0582 H              1 S1                 0.0000
     46 ****        -3.3112  -0.5365   2.4503 H              1 S1                 0.0000
     47 ****        -0.4595  -2.4285  -1.5613 H              1 S1                 0.0000
     48 ****         0.1547  -2.9027   2.4699 LP             1 S1                 0.0000
     49 ****         1.6998  -2.5063   0.1161 LP             1 S1                 0.0000
     50 ****         1.8867  -1.2370   1.1262 LP             1 S1                 0.0000
     51 ****         1.7840   1.0546  -2.5013 LP             1 S1                 0.0000
     52 ****         1.8456   4.7875  -1.8928 LP             1 S1                 0.0000
     53 ****         1.5777   4.8999  -3.4997 LP             1 S1                 0.0000
@<TRIPOS>BOND
    1    1    2 1     
    2    1   21 1     
    3    1   22 1     
    4    1   23 1     
    5    2   20 2     
    6    2    3 1     
    7    3    4 2     
    8    3   24 1     
    9    4    5 1     
   10    5    6 1     
   11    5   20 1     
   12    6    7 1     
   13    6   25 1     
   14    6   26 1     
   15    7    8 1     
   16    7    9 1     
   17    7   27 1     
   18    8   28 1     
   19    8   29 1     
   20    8   30 1     
   21    9   10 1     
   22    9   31 1     
   23    9   47 1     
   24   10   11 1     
   25   10   32 1     
   26   10   33 1     
   27   11   12 1     
   28   11   13 1     
   29   11   34 1     
   30   12   35 1     
   31   13   14 1     
   32   13   36 1     
   33   13   37 1     
   34   14   19 1     
   35   14   15 1     
   36   15   16 1     
   37   15   38 1     
   38   15   39 1     
   39   16   17 1     
   40   16   40 1     
   41   16   41 1     
   42   17   18 1     
   43   18   19 1     
   44   18   42 1     
   45   18   43 1     
   46   19   44 1     
   47   19   45 1     
   48   20   46 1     
   49    4   48 1     
   50   12   49 1     
   51   12   50 1     
   52   14   51 1     
   53   17   52 1     
   54   17   53 1     
@<TRIPOS>SUBSTRUCTURE
      1 S1             1
@<TRIPOS>SET
LONE_PAIRS      STATIC     ATOMS    <user>   **** ""
6 48 49 50 51 52 53
DONOR_HYDROGENS      STATIC     ATOMS    <user>   **** ""
3 31 47 35
ATOM$BLUE        STATIC     ATOMS    COLORGROUP SYSTEM
6 48 49 50 51 52 53
ATOM$RED        STATIC     ATOMS    COLORGROUP SYSTEM
3 31 47 35
