AV-unprocessed.smi:1817|AV-procd|sdf|7370|dock8
  -GOLD-   22720 9 33D 1   1.00000     0.00000
 Structure written by MMmdl.
 43 44  0  0  0  0  0  0  0  0  2 V2000
  151.1997  139.1886  155.4762 C   0  0  0  0  0  0  0  0  0  0  0  0
  150.5713  139.7665  156.7525 C   0  0  0  0  0  0  0  0  0  0  0  0
  149.6269  140.8469  156.4583 N   0  0  0  0  0  0  0  0  0  0  0  0
  149.0196  141.4760  157.6338 C   0  0  0  0  0  0  0  0  0  0  0  0
  150.0315  142.3126  158.4450 C   0  0  0  0  0  0  0  0  0  0  0  0
  150.6558  143.3634  157.5960 N   0  3  0  0  0  0  0  0  0  0  0  0
  151.6036  144.2889  158.2976 C   0  0  2  0  0  0  0  0  0  0  0  0
  152.8307  143.5793  158.9140 C   0  0  0  0  0  0  0  0  0  0  0  0
  150.8885  145.1284  159.3885 C   0  0  0  0  0  0  0  0  0  0  0  0
  149.4334  145.1436  159.2444 N   0  0  0  0  0  0  0  0  0  0  0  0
  148.5513  144.7050  160.1537 C   0  0  0  0  0  0  0  0  0  0  0  0
  148.8789  144.2493  161.2489 O   0  0  0  0  0  0  0  0  0  0  0  0
  147.2904  144.8394  159.7130 N   0  0  0  0  0  0  0  0  0  0  0  0
  146.0905  144.5098  160.3918 C   0  0  0  0  0  0  0  0  0  0  0  0
  144.9305  144.8332  159.8085 N   0  0  0  0  0  0  0  0  0  0  0  0
  143.8379  144.4571  160.5799 N   0  0  0  0  0  0  0  0  0  0  0  0
  144.2171  143.8637  161.7158 C   0  0  0  0  0  0  0  0  0  0  0  0
  145.9482  143.7080  161.9590 S   0  0  0  0  0  0  0  0  0  0  0  0
  151.2604  142.7280  156.3943 C   0  0  0  0  0  0  0  0  0  0  0  0
  150.2151  141.8957  155.6242 C   0  0  0  0  0  0  0  0  0  0  0  0
  151.9902  138.4819  155.7288 H   0  0  0  0  0  0  0  0  0  0  0  0
  151.6439  139.9735  154.8632 H   0  0  0  0  0  0  0  0  0  0  0  0
  150.4726  138.6520  154.8675 H   0  0  0  0  0  0  0  0  0  0  0  0
  150.1076  138.9719  157.3357 H   0  0  0  0  0  0  0  0  0  0  0  0
  151.3754  140.1716  157.3680 H   0  0  0  0  0  0  0  0  0  0  0  0
  148.2097  142.1231  157.2942 H   0  0  0  0  0  0  0  0  0  0  0  0
  148.5514  140.7257  158.2697 H   0  0  0  0  0  0  0  0  0  0  0  0
  149.4771  142.7677  159.2647 H   0  0  0  0  0  0  0  0  0  0  0  0
  150.8005  141.6827  158.8933 H   0  0  0  0  0  0  0  0  0  0  0  0
  151.9946  144.9808  157.5500 H   0  0  0  0  0  0  0  0  0  0  0  0
  153.4447  144.2838  159.4760 H   0  0  0  0  0  0  0  0  0  0  0  0
  153.4787  143.1490  158.1501 H   0  0  0  0  0  0  0  0  0  0  0  0
  152.5372  142.7834  159.5996 H   0  0  0  0  0  0  0  0  0  0  0  0
  151.1094  144.7031  160.3678 H   0  0  0  0  0  0  0  0  0  0  0  0
  151.2729  146.1472  159.4339 H   0  0  0  0  0  0  0  0  0  0  0  0
  149.0716  145.5010  158.3717 H   0  0  0  0  0  0  0  0  0  0  0  0
  147.1713  145.2235  158.7872 H   0  0  0  0  0  0  0  0  0  0  0  0
  143.4719  143.5166  162.4161 H   0  0  0  0  0  0  0  0  0  0  0  0
  151.6494  143.4862  155.7174 H   0  0  0  0  0  0  0  0  0  0  0  0
  152.1132  142.1131  156.6841 H   0  0  0  0  0  0  0  0  0  0  0  0
  150.6648  141.4498  154.7361 H   0  0  0  0  0  0  0  0  0  0  0  0
  149.4183  142.5500  155.2676 H   0  0  0  0  0  0  0  0  0  0  0  0
  149.8935  143.9381  157.2654 H   0  0  0  0  0  0  0  0  0  0  0  0
  1  2  1  0  0  0  0
  1 21  1  0  0  0  0
  1 22  1  0  0  0  0
  1 23  1  0  0  0  0
  2  3  1  0  0  0  0
  2 24  1  0  0  0  0
  2 25  1  0  0  0  0
  3 20  1  0  0  0  0
  3  4  1  0  0  0  0
  4  5  1  0  0  0  0
  4 26  1  0  0  0  0
  4 27  1  0  0  0  0
  5  6  1  0  0  0  0
  5 28  1  0  0  0  0
  5 29  1  0  0  0  0
  6  7  1  0  0  0  0
  6 19  1  0  0  0  0
  6 43  1  0  0  0  0
  7  8  1  0  0  0  0
  7  9  1  0  0  0  0
  7 30  1  0  0  0  0
  8 31  1  0  0  0  0
  8 32  1  0  0  0  0
  8 33  1  0  0  0  0
  9 10  1  0  0  0  0
  9 34  1  0  0  0  0
  9 35  1  0  0  0  0
 10 11  1  0  0  0  0
 10 36  1  0  0  0  0
 11 12  2  0  0  0  0
 11 13  1  0  0  0  0
 13 14  1  0  0  0  0
 13 37  1  0  0  0  0
 14 18  1  0  0  0  0
 14 15  2  0  0  0  0
 15 16  1  0  0  0  0
 16 17  2  0  0  0  0
 17 18  1  0  0  0  0
 17 38  1  0  0  0  0
 19 20  1  0  0  0  0
 19 39  1  0  0  0  0
 19 40  1  0  0  0  0
 20 41  1  0  0  0  0
 20 42  1  0  0  0  0
M  CHG  1   6   1
M  END
> <s_m_source_file>
AV-unprocessed.smi

> <i_m_source_file_index>
1817

> <i_lp_mmshare_version>
43012

> <i_f3d_flags>
0

> <s_epik_input>
W0NIM11bQ0gyXU4xW0NIMl1bQ0gyXU4oW0NIMl1bQ0gyXTEpW0NASF0oW0NIM10pW0NIMl1bTkhdQyg9TylbTkhdYzJubltjSF1zMg==

> <s_epik_cmdline>
J2VwaWtfcHl0aG9uJywgJy1waCcsICc3LjAnLCAnLXRuJywgJzgnLCAnLW1hJywgJzIwMCcsICctbWV0YWxfYmluZGluZycsICctaW1hZScsICc8aW5maWxlLm1hZT4nLCAnLW9tYWUnLCAnPG91dGZpbGUubWFlPic=

> <r_epik_Ionization_Penalty>
0.153808

> <r_epik_Ionization_Penalty_Charging>
0.148467

> <r_epik_Ionization_Penalty_Neutral>
0.00534086

> <r_epik_State_Penalty>
0.974087

> <r_epik_Charging_Adjusted_Penalty>
1.12255

> <i_epik_Tot_Q>
1

> <i_epik_Tot_abs_Q>
1

> <r_epik_Metal_State_Penalty>
1.30894

> <b_epik_Metal_Only>
0

> <s_lp_Force_Field>
OPLS_2005

> <r_lp_Energy>
26.4186

> <b_lp_Chiralities_Consistent>
1

> <s_lp_Variant>
AV-unprocessed.smi:1817-3

> <Gold.Version>
5.8.1

> <Gold.Id.Protein>
6NUR|6NUR_protein|mol2

> <Gold.PLP.Fitness>
47.4122

> <Gold.PLP.PLP>
-34.4822

> <Gold.PLP.part.hbond>
-4.0000

> <Gold.PLP.part.metal>
0.0000

> <Gold.PLP.part.buried>
-5.5936

> <Gold.PLP.part.nonpolar>
-24.9250

> <Gold.PLP.part.repulsive>
0.7722

> <Gold.PLP.ligand.clash>
0.0000

> <Gold.PLP.ligand.torsion>
0.6055

> <Gold.PLP.Chemscore.Hbond>
4.6880

> <Gold.PLP.Chemscore.CHOScore>
0.0000

> <Gold.PLP.Chemscore.Metal>
0.0000

> <Gold.Chemscore.Hbonds>
donor molecule, donor type, donor heavy atom, donor atom, acceptor molecule, acceptor atom, score
      L1  H     6    43       P1  8028  1.95
      L1  H    10    36       P1  8029  1.00
      L1  H    13    37       P1  8029  1.00
      P1  H  6933  6944       L1    12  0.67

> <Gold.PLP.Chemscore.Internal.Correction>
0.0769

> <Gold.Rescore>
     Score         DG    S(hbond)    S(metal)    S(lipo)     H(rot)  DE(clash)    DE(int)     intcor
     18.64     -21.95       3.46        0.00      84.05       1.92       0.76       2.55       ----

> <Gold.Chemscore.Fitness>
18.6363

> <Gold.Chemscore.DG>
-21.9468

> <Gold.Chemscore.ZeroCoef>
-5.4800

> <Gold.Chemscore.Hbond>
3.4573

> <Gold.Chemscore.Metal>
0.0000

> <Gold.Chemscore.Lipo>
84.0471

> <Gold.Chemscore.Internal_Hbond>
0.0000

> <Gold.Chemscore.DEClash>
0.7595

> <Gold.Chemscore.DEInternal>
2.5511

> <Gold.Chemscore.Rot>
1.9196

> <Gold.Chemscore.Internal.Correction>
   9.000000E+99

> <Gold.Chemscore.Hbonds>
donor molecule, donor type, donor heavy atom, donor atom, acceptor molecule, acceptor atom, score
      L1  H     6    43       P1  8028  0.68
      L1  H    10    36       P1  8029  0.93
      L1  H    13    37       P1  8029  0.95
      P1  H  6933  6944       L1    12  0.60

> <Gold.Chemscore.Hbond.Weighted>
-11.5474

> <Gold.Chemscore.Metal.Weighted>
-0.0000

> <Gold.Chemscore.Lipo.Weighted>
-9.8335

> <Gold.Chemscore.Internal_Hbond.Weighted>
0.0000

> <Gold.Chemscore.DEClash.Weighted>
0.7595

> <Gold.Chemscore.DEInternal.Weighted>
2.5511

> <Gold.Chemscore.Rot.Weighted>
4.9141

> <Gold.Chemscore.Internal.Correction.Weighted>
   9.000000E+99

> <Gold.Protein.RotatedTorsions>
[ 6907 6896 6895 6894 ] final -167.72 input  -60.11 | X-H torsion
[ 7974 7965 7964 7962 ] final   20.39 input  175.53 | X-H torsion
[ 8008 7997 7996 7995 ] final -146.09 input   59.86 | X-H torsion
[ 10167 10162 10161 10158 ] final -111.18 input  -65.29 | X-H torsion
[ 10718 10713 10712 10709 ] final   70.64 input   66.30 | X-H torsion
[ 10763 10752 10751 10750 ] final   91.12 input  -60.55 | X-H torsion
[ 11005 11000 10999 10996 ] final  -65.62 input  -57.11 | X-H torsion

> <Gold.Protein.ActiveResidues>
 VAL166  LYS551  ARG553  GLY616  TRP617  ASP618  TYR619  PRO620  LYS621  CYS622 
 ASP623  PHE694  ASN695  SER759  ASP760  ASP761  ALA762  ILE779  LEU786  VAL792 
 PHE793  MET794  SER795  GLU796  ALA797  LYS798  CYS799  TRP800  GLU811  SER814 

> <Gold.Protein.RotatedAtoms>
  151.4640  133.3585  159.2813 H   0  0  0  0  0  0  0  0  0  0  0  0  # atno 6907 bound_to 6896
  150.9006  134.8419  159.7368 H   0  0  0  0  0  0  0  0  0  0  0  0  # atno 6908 bound_to 6896
  152.4877  134.4560  159.9642 H   0  0  0  0  0  0  0  0  0  0  0  0  # atno 6909 bound_to 6896
  146.2113  139.8176  142.8686 H   0  0  0  0  0  0  0  0  0  0  0  0  # atno 7974 bound_to 7965
  155.5538  140.0619  157.2844 H   0  0  0  0  0  0  0  0  0  0  0  0  # atno 8008 bound_to 7997
  154.4412  140.1898  156.0758 H   0  0  0  0  0  0  0  0  0  0  0  0  # atno 8009 bound_to 7997
  156.0497  140.3286  155.7340 H   0  0  0  0  0  0  0  0  0  0  0  0  # atno 8010 bound_to 7997
  140.1364  143.4316  152.1592 H   0  0  0  0  0  0  0  0  0  0  0  0  # atno 10167 bound_to 10162
  157.6410  130.9487  150.0678 H   0  0  0  0  0  0  0  0  0  0  0  0  # atno 10718 bound_to 10713
  153.2048  135.4409  155.0310 H   0  0  0  0  0  0  0  0  0  0  0  0  # atno 10763 bound_to 10752
  154.8167  135.3318  154.7157 H   0  0  0  0  0  0  0  0  0  0  0  0  # atno 10764 bound_to 10752
  153.7599  135.6992  153.4983 H   0  0  0  0  0  0  0  0  0  0  0  0  # atno 10765 bound_to 10752
  141.1459  133.6685  156.6015 H   0  0  0  0  0  0  0  0  0  0  0  0  # atno 11005 bound_to 11000
  145.3130  141.0224  143.3543 LP  0  0  0  0  0  0  0  0  0  0  0  0  # atno 17320 bound_to 7965
  144.8922  139.4760  143.6672 LP  0  0  0  0  0  0  0  0  0  0  0  0  # atno 17321 bound_to 7965
  139.5494  144.7325  151.4483 LP  0  0  0  0  0  0  0  0  0  0  0  0  # atno 17342 bound_to 10162
  140.6786  143.8132  150.7092 LP  0  0  0  0  0  0  0  0  0  0  0  0  # atno 17343 bound_to 10162
  156.1691  130.3646  149.9190 LP  0  0  0  0  0  0  0  0  0  0  0  0  # atno 17370 bound_to 10713
  156.7170  130.8992  151.3615 LP  0  0  0  0  0  0  0  0  0  0  0  0  # atno 17371 bound_to 10713
  140.3685  134.7626  157.4582 LP  0  0  0  0  0  0  0  0  0  0  0  0  # atno 17394 bound_to 11000
  140.0729  134.5837  155.8622 LP  0  0  0  0  0  0  0  0  0  0  0  0  # atno 17395 bound_to 11000

$$$$
