AV-unprocessed.smi:1049|AV-procd|sdf|4611|dock4
  -GOLD-   22720 3113D 1   1.00000     0.00000
 Structure written by MMmdl.
 41 42  0  0  0  0  0  0  0  0  2 V2000
  153.2412  142.8519  161.7784 C   0  0  0  0  0  0  0  0  0  0  0  0
  152.2948  142.8053  160.5707 C   0  0  1  0  0  0  0  0  0  0  0  0
  151.4449  144.0907  160.4674 C   0  0  0  0  0  0  0  0  0  0  0  0
  150.5829  144.1109  159.1911 C   0  0  0  0  0  0  0  0  0  0  0  0
  151.4370  143.8088  157.9474 C   0  0  0  0  0  0  0  0  0  0  0  0
  152.1086  142.5118  158.1390 N   0  0  0  0  0  0  0  0  0  0  0  0
  151.8027  141.3466  157.5130 C   0  0  0  0  0  0  0  0  0  0  0  0
  152.5355  140.3565  157.5314 O   0  0  0  0  0  0  0  0  0  0  0  0
  150.6332  141.3505  156.8504 N   0  0  0  0  0  0  0  0  0  0  0  0
  150.0869  140.2233  156.1041 C   0  0  0  0  0  0  0  0  0  0  0  0
  149.7332  140.6229  154.6606 C   0  0  0  0  0  0  0  0  0  0  0  0
  148.3549  141.1971  154.5137 C   0  0  0  0  0  0  0  0  0  0  0  0
  147.9867  142.4371  154.8601 N   0  3  0  0  0  0  0  0  0  0  0  0
  146.6541  142.6275  154.6182 C   0  0  0  0  0  0  0  0  0  0  0  0
  146.1805  141.4444  154.1158 C   0  0  0  0  0  0  0  0  0  0  0  0
  147.2436  140.5785  154.0757 N   0  0  0  0  0  0  0  0  0  0  0  0
  147.2051  139.1878  153.6119 C   0  0  0  0  0  0  0  0  0  0  0  0
  146.4789  138.4425  154.4449 F   0  0  0  0  0  0  0  0  0  0  0  0
  146.7120  139.1202  152.3749 F   0  0  0  0  0  0  0  0  0  0  0  0
  153.0646  142.5688  159.2534 C   0  0  0  0  0  0  0  0  0  0  0  0
  153.9518  143.6749  161.6941 H   0  0  0  0  0  0  0  0  0  0  0  0
  153.8117  141.9270  161.8653 H   0  0  0  0  0  0  0  0  0  0  0  0
  152.6857  142.9850  162.7071 H   0  0  0  0  0  0  0  0  0  0  0  0
  151.6158  141.9638  160.7176 H   0  0  0  0  0  0  0  0  0  0  0  0
  150.8084  144.1954  161.3466 H   0  0  0  0  0  0  0  0  0  0  0  0
  152.1048  144.9594  160.4607 H   0  0  0  0  0  0  0  0  0  0  0  0
  149.7856  143.3711  159.2752 H   0  0  0  0  0  0  0  0  0  0  0  0
  150.0962  145.0810  159.0865 H   0  0  0  0  0  0  0  0  0  0  0  0
  150.8183  143.8613  157.0519 H   0  0  0  0  0  0  0  0  0  0  0  0
  152.1924  144.5855  157.8185 H   0  0  0  0  0  0  0  0  0  0  0  0
  150.0813  142.1960  156.8730 H   0  0  0  0  0  0  0  0  0  0  0  0
  150.7973  139.3948  156.1160 H   0  0  0  0  0  0  0  0  0  0  0  0
  149.1933  139.8753  156.6229 H   0  0  0  0  0  0  0  0  0  0  0  0
  150.4448  141.3630  154.2960 H   0  0  0  0  0  0  0  0  0  0  0  0
  149.7804  139.7632  153.9913 H   0  0  0  0  0  0  0  0  0  0  0  0
  146.1556  143.5644  154.8200 H   0  0  0  0  0  0  0  0  0  0  0  0
  145.1881  141.1600  153.7969 H   0  0  0  0  0  0  0  0  0  0  0  0
  148.2174  138.7824  153.5921 H   0  0  0  0  0  0  0  0  0  0  0  0
  153.7735  143.3797  159.0792 H   0  0  0  0  0  0  0  0  0  0  0  0
  153.6690  141.6637  159.3310 H   0  0  0  0  0  0  0  0  0  0  0  0
  148.6105  143.1343  155.2472 H   0  0  0  0  0  0  0  0  0  0  0  0
  1  2  1  0  0  0  0
  1 21  1  0  0  0  0
  1 22  1  0  0  0  0
  1 23  1  0  0  0  0
  2 20  1  0  0  0  0
  2  3  1  0  0  0  0
  2 24  1  0  0  0  0
  3  4  1  0  0  0  0
  3 25  1  0  0  0  0
  3 26  1  0  0  0  0
  4  5  1  0  0  0  0
  4 27  1  0  0  0  0
  4 28  1  0  0  0  0
  5  6  1  0  0  0  0
  5 29  1  0  0  0  0
  5 30  1  0  0  0  0
  6  7  1  0  0  0  0
  6 20  1  0  0  0  0
  7  8  2  0  0  0  0
  7  9  1  0  0  0  0
  9 10  1  0  0  0  0
  9 31  1  0  0  0  0
 10 11  1  0  0  0  0
 10 32  1  0  0  0  0
 10 33  1  0  0  0  0
 11 12  1  0  0  0  0
 11 34  1  0  0  0  0
 11 35  1  0  0  0  0
 12 16  1  0  0  0  0
 12 13  2  0  0  0  0
 13 14  1  0  0  0  0
 13 41  1  0  0  0  0
 14 15  2  0  0  0  0
 14 36  1  0  0  0  0
 15 16  1  0  0  0  0
 15 37  1  0  0  0  0
 16 17  1  0  0  0  0
 17 18  1  0  0  0  0
 17 19  1  0  0  0  0
 17 38  1  0  0  0  0
 20 39  1  0  0  0  0
 20 40  1  0  0  0  0
M  CHG  1  13   1
M  END
> <s_m_source_file>
AV-unprocessed.smi

> <i_m_source_file_index>
1049

> <i_lp_mmshare_version>
43012

> <i_f3d_flags>
0

> <s_epik_input>
W0NIM11bQ0BASF0xW0NIMl1bQ0gyXVtDSDJdTihbQ0gyXTEpQyg9TylbTkhdW0NIMl1bQ0gyXWMybltjSF1bY0hdbjJbQ0hdKEYpRg==

> <s_epik_cmdline>
J2VwaWtfcHl0aG9uJywgJy1waCcsICc3LjAnLCAnLXRuJywgJzgnLCAnLW1hJywgJzIwMCcsICctbWV0YWxfYmluZGluZycsICctaW1hZScsICc8aW5maWxlLm1hZT4nLCAnLW9tYWUnLCAnPG91dGZpbGUubWFlPic=

> <r_lp_tautomer_probability>
1

> <r_epik_Ionization_Penalty>
1.09766

> <r_epik_Ionization_Penalty_Charging>
0

> <r_epik_Ionization_Penalty_Neutral>
1.09766

> <r_epik_State_Penalty>
1.15444

> <r_epik_Charging_Adjusted_Penalty>
1.15444

> <i_epik_Tot_Q>
1

> <i_epik_Tot_abs_Q>
1

> <r_epik_Metal_State_Penalty>
1.24204

> <b_epik_Metal_Only>
0

> <s_lp_Force_Field>
OPLS_2005

> <r_lp_Energy>
35.939

> <b_lp_Chiralities_Consistent>
1

> <s_lp_Variant>
AV-unprocessed.smi:1049-4

> <Gold.Version>
5.8.1

> <Gold.Id.Protein>
6NUR|6NUR_protein|mol2

> <Gold.PLP.Fitness>
51.7601

> <Gold.PLP.PLP>
-42.1088

> <Gold.PLP.part.hbond>
-2.0000

> <Gold.PLP.part.metal>
0.0000

> <Gold.PLP.part.buried>
-1.7906

> <Gold.PLP.part.nonpolar>
-37.8375

> <Gold.PLP.part.repulsive>
0.2506

> <Gold.PLP.ligand.clash>
0.0000

> <Gold.PLP.ligand.torsion>
0.6312

> <Gold.PLP.Chemscore.Hbond>
2.6188

> <Gold.PLP.Chemscore.CHOScore>
1.0000

> <Gold.PLP.Chemscore.Metal>
0.0000

> <Gold.Chemscore.Hbonds>
donor molecule, donor type, donor heavy atom, donor atom, acceptor molecule, acceptor atom, score
      L1  H    13    41       P1  8028  1.89
      P1  H  7997  8008       L1     8  0.91
      L1  C    15    37       P1 10175  1.00

> <Gold.PLP.Chemscore.Internal.Correction>
0.0573

> <Gold.Rescore>
     Score         DG    S(hbond)    S(metal)    S(lipo)     H(rot)  DE(clash)    DE(int)     intcor
     17.12     -17.96       1.67        0.00      94.01       1.61       0.21       0.63       ----

> <Gold.Chemscore.Fitness>
17.1173

> <Gold.Chemscore.DG>
-17.9582

> <Gold.Chemscore.ZeroCoef>
-5.4800

> <Gold.Chemscore.Hbond>
1.6731

> <Gold.Chemscore.Metal>
0.0000

> <Gold.Chemscore.Lipo>
94.0095

> <Gold.Chemscore.Internal_Hbond>
0.0000

> <Gold.Chemscore.DEClash>
0.2067

> <Gold.Chemscore.DEInternal>
0.6342

> <Gold.Chemscore.Rot>
1.6051

> <Gold.Chemscore.Internal.Correction>
   9.000000E+99

> <Gold.Chemscore.Hbonds>
donor molecule, donor type, donor heavy atom, donor atom, acceptor molecule, acceptor atom, score
      L1  H    13    41       P1  8028  0.91
      P1  H  7997  8008       L1     8  0.82

> <Gold.Chemscore.Hbond.Weighted>
-5.5883

> <Gold.Chemscore.Metal.Weighted>
-0.0000

> <Gold.Chemscore.Lipo.Weighted>
-10.9991

> <Gold.Chemscore.Internal_Hbond.Weighted>
0.0000

> <Gold.Chemscore.DEClash.Weighted>
0.2067

> <Gold.Chemscore.DEInternal.Weighted>
0.6342

> <Gold.Chemscore.Rot.Weighted>
4.1092

> <Gold.Chemscore.Internal.Correction.Weighted>
   9.000000E+99

> <Gold.Protein.RotatedTorsions>
[ 6907 6896 6895 6894 ] final  -76.60 input  -60.11 | X-H torsion
[ 7974 7965 7964 7962 ] final  -74.08 input  175.53 | X-H torsion
[ 8008 7997 7996 7995 ] final  -67.16 input   59.86 | X-H torsion
[ 10167 10162 10161 10158 ] final  162.62 input  -65.29 | X-H torsion
[ 10718 10713 10712 10709 ] final  177.55 input   66.30 | X-H torsion
[ 10763 10752 10751 10750 ] final  108.92 input  -60.55 | X-H torsion
[ 11005 11000 10999 10996 ] final   36.89 input  -57.11 | X-H torsion

> <Gold.Protein.ActiveResidues>
 VAL166  LYS551  ARG553  GLY616  TRP617  ASP618  TYR619  PRO620  LYS621  CYS622 
 ASP623  PHE694  ASN695  SER759  ASP760  ASP761  ALA762  ILE779  LEU786  VAL792 
 PHE793  MET794  SER795  GLU796  ALA797  LYS798  CYS799  TRP800  GLU811  SER814 

> <Gold.Protein.RotatedAtoms>
  150.7023  134.4548  159.5352 H   0  0  0  0  0  0  0  0  0  0  0  0  # atno 6907 bound_to 6896
  152.2234  134.8388  160.0492 H   0  0  0  0  0  0  0  0  0  0  0  0  # atno 6908 bound_to 6896
  151.9231  133.3556  159.3941 H   0  0  0  0  0  0  0  0  0  0  0  0  # atno 6909 bound_to 6896
  145.6437  140.9303  143.1022 H   0  0  0  0  0  0  0  0  0  0  0  0  # atno 7974 bound_to 7965
  154.4781  140.0898  156.7312 H   0  0  0  0  0  0  0  0  0  0  0  0  # atno 8008 bound_to 7997
  155.4542  140.3458  155.4286 H   0  0  0  0  0  0  0  0  0  0  0  0  # atno 8009 bound_to 7997
  156.1149  140.1458  156.9275 H   0  0  0  0  0  0  0  0  0  0  0  0  # atno 8010 bound_to 7997
  139.4863  144.4419  151.8941 H   0  0  0  0  0  0  0  0  0  0  0  0  # atno 10167 bound_to 10162
  156.9036  130.9887  151.3032 H   0  0  0  0  0  0  0  0  0  0  0  0  # atno 10718 bound_to 10713
  153.4275  135.3796  155.2150 H   0  0  0  0  0  0  0  0  0  0  0  0  # atno 10763 bound_to 10752
  154.8748  135.3832  154.4309 H   0  0  0  0  0  0  0  0  0  0  0  0  # atno 10764 bound_to 10752
  153.4837  135.7088  153.5986 H   0  0  0  0  0  0  0  0  0  0  0  0  # atno 10765 bound_to 10752
  140.2281  134.3561  155.7976 H   0  0  0  0  0  0  0  0  0  0  0  0  # atno 11005 bound_to 11000
  144.7148  139.8238  143.7402 LP  0  0  0  0  0  0  0  0  0  0  0  0  # atno 17320 bound_to 7965
  146.1260  139.4286  143.0198 LP  0  0  0  0  0  0  0  0  0  0  0  0  # atno 17321 bound_to 7965
  140.3871  144.2662  150.5903 LP  0  0  0  0  0  0  0  0  0  0  0  0  # atno 17342 bound_to 10162
  140.5180  143.2273  151.8433 LP  0  0  0  0  0  0  0  0  0  0  0  0  # atno 17343 bound_to 10162
  157.6011  130.8513  149.8803 LP  0  0  0  0  0  0  0  0  0  0  0  0  # atno 17370 bound_to 10713
  156.0570  130.3706  150.1069 LP  0  0  0  0  0  0  0  0  0  0  0  0  # atno 17371 bound_to 10713
  141.2219  133.7230  156.8686 LP  0  0  0  0  0  0  0  0  0  0  0  0  # atno 17394 bound_to 11000
  140.1779  134.9054  157.2913 LP  0  0  0  0  0  0  0  0  0  0  0  0  # atno 17395 bound_to 11000

$$$$
