AV-unprocessed.smi:2034|AV-procd|sdf|8263|dock4
  -GOLD-   2272010533D 1   1.00000     0.00000
 Structure written by MMmdl.
 50 52  0  0  0  0  0  0  0  0  1 V2000
  151.8771  145.0163  158.5905 C   0  0  0  0  0  0  0  0  0  0  0  0
  152.2662  143.5354  158.5372 C   0  0  2  0  0  0  0  0  0  0  0  0
  151.3680  142.7404  157.5731 C   0  0  0  0  0  0  0  0  0  0  0  0
  151.7039  141.3250  157.6341 N   0  0  0  0  0  0  0  0  0  0  0  0
  151.0475  140.5438  156.6741 C   0  0  0  0  0  0  0  0  0  0  0  0
  151.7568  139.8791  155.6475 C   0  0  0  0  0  0  0  0  0  0  0  0
  151.0375  139.1064  154.7160 C   0  0  0  0  0  0  0  0  0  0  0  0
  149.6310  139.0150  154.8439 C   0  0  0  0  0  0  0  0  0  0  0  0
  148.7901  138.2802  153.9649 N   0  0  0  0  0  0  0  0  0  0  0  0
  147.4638  138.3946  153.7799 C   0  0  0  0  0  0  0  0  0  0  0  0
  146.7310  139.2001  154.3534 O   0  0  0  0  0  0  0  0  0  0  0  0
  147.0278  137.5185  152.8644 N   0  0  0  0  0  0  0  0  0  0  0  0
  145.6401  137.3656  152.4427 C   0  0  0  0  0  0  0  0  0  0  0  0
  145.4678  136.1547  151.5113 C   0  0  2  0  0  0  0  0  0  0  0  0
  144.0212  135.6905  151.3634 C   0  0  0  0  0  0  0  0  0  0  0  0
  144.1618  134.2356  150.9457 C   0  0  0  0  0  0  0  0  0  0  0  0
  145.5965  133.8709  151.3400 C   0  0  0  0  0  0  0  0  0  0  0  0
  146.0928  134.9991  152.0471 O   0  0  0  0  0  0  0  0  0  0  0  0
  149.0207  139.7322  155.8936 C   0  0  0  0  0  0  0  0  0  0  0  0
  149.7039  140.4757  156.7893 N   0  0  0  0  0  0  0  0  0  0  0  0
  151.6024  140.7835  158.9825 C   0  0  0  0  0  0  0  0  0  0  0  0
  152.4590  141.6053  159.9667 C   0  0  1  0  0  0  0  0  0  0  0  0
  153.9698  141.3442  159.8321 C   0  0  0  0  0  0  0  0  0  0  0  0
  152.1417  142.9958  159.8538 O   0  0  0  0  0  0  0  0  0  0  0  0
  151.9605  145.4795  157.6071 H   0  0  0  0  0  0  0  0  0  0  0  0
  152.5265  145.5655  159.2725 H   0  0  0  0  0  0  0  0  0  0  0  0
  150.8502  145.1423  158.9345 H   0  0  0  0  0  0  0  0  0  0  0  0
  153.3042  143.4697  158.2099 H   0  0  0  0  0  0  0  0  0  0  0  0
  150.3197  142.8843  157.8386 H   0  0  0  0  0  0  0  0  0  0  0  0
  151.4966  143.1044  156.5528 H   0  0  0  0  0  0  0  0  0  0  0  0
  152.8308  139.9605  155.5667 H   0  0  0  0  0  0  0  0  0  0  0  0
  151.5774  138.6149  153.9220 H   0  0  0  0  0  0  0  0  0  0  0  0
  149.2649  137.6220  153.3647 H   0  0  0  0  0  0  0  0  0  0  0  0
  147.7021  136.8993  152.4394 H   0  0  0  0  0  0  0  0  0  0  0  0
  144.9743  137.2912  153.3045 H   0  0  0  0  0  0  0  0  0  0  0  0
  145.3568  138.2750  151.9126 H   0  0  0  0  0  0  0  0  0  0  0  0
  145.8895  136.3660  150.5266 H   0  0  0  0  0  0  0  0  0  0  0  0
  143.5075  135.7462  152.3241 H   0  0  0  0  0  0  0  0  0  0  0  0
  143.4581  136.2869  150.6449 H   0  0  0  0  0  0  0  0  0  0  0  0
  143.4270  133.6081  151.4507 H   0  0  0  0  0  0  0  0  0  0  0  0
  144.0224  134.1185  149.8705 H   0  0  0  0  0  0  0  0  0  0  0  0
  145.6450  132.9745  151.9584 H   0  0  0  0  0  0  0  0  0  0  0  0
  146.2077  133.7047  150.4520 H   0  0  0  0  0  0  0  0  0  0  0  0
  147.9487  139.7055  156.0242 H   0  0  0  0  0  0  0  0  0  0  0  0
  150.5590  140.8091  159.2998 H   0  0  0  0  0  0  0  0  0  0  0  0
  151.9120  139.7376  158.9912 H   0  0  0  0  0  0  0  0  0  0  0  0
  152.1778  141.3102  160.9780 H   0  0  0  0  0  0  0  0  0  0  0  0
  154.2026  140.3035  160.0582 H   0  0  0  0  0  0  0  0  0  0  0  0
  154.5352  141.9665  160.5260 H   0  0  0  0  0  0  0  0  0  0  0  0
  154.3368  141.5456  158.8260 H   0  0  0  0  0  0  0  0  0  0  0  0
  1  2  1  0  0  0  0
  1 25  1  0  0  0  0
  1 26  1  0  0  0  0
  1 27  1  0  0  0  0
  2 24  1  0  0  0  0
  2  3  1  0  0  0  0
  2 28  1  0  0  0  0
  3  4  1  0  0  0  0
  3 29  1  0  0  0  0
  3 30  1  0  0  0  0
  4  5  1  0  0  0  0
  4 21  1  0  0  0  0
  5 20  1  0  0  0  0
  5  6  2  0  0  0  0
  6  7  1  0  0  0  0
  6 31  1  0  0  0  0
  7  8  2  0  0  0  0
  7 32  1  0  0  0  0
  8  9  1  0  0  0  0
  8 19  1  0  0  0  0
  9 10  1  0  0  0  0
  9 33  1  0  0  0  0
 10 11  2  0  0  0  0
 10 12  1  0  0  0  0
 12 13  1  0  0  0  0
 12 34  1  0  0  0  0
 13 14  1  0  0  0  0
 13 35  1  0  0  0  0
 13 36  1  0  0  0  0
 14 18  1  0  0  0  0
 14 15  1  0  0  0  0
 14 37  1  0  0  0  0
 15 16  1  0  0  0  0
 15 38  1  0  0  0  0
 15 39  1  0  0  0  0
 16 17  1  0  0  0  0
 16 40  1  0  0  0  0
 16 41  1  0  0  0  0
 17 18  1  0  0  0  0
 17 42  1  0  0  0  0
 17 43  1  0  0  0  0
 19 20  2  0  0  0  0
 19 44  1  0  0  0  0
 21 22  1  0  0  0  0
 21 45  1  0  0  0  0
 21 46  1  0  0  0  0
 22 23  1  0  0  0  0
 22 24  1  0  0  0  0
 22 47  1  0  0  0  0
 23 48  1  0  0  0  0
 23 49  1  0  0  0  0
 23 50  1  0  0  0  0
M  END
> <s_m_source_file>
AV-unprocessed.smi

> <i_m_source_file_index>
2034

> <i_lp_mmshare_version>
43012

> <i_f3d_flags>
0

> <s_epik_input>
W0NIM11bQ0BASF0xW0NIMl1OKFtDSDJdW0NASF0oTzEpW0NIM10pYzJbY0hdW2NIXWMoW2NIXW4yKVtOSF1DKD1PKVtOSF1bQ0gyXVtDQEBIXTNbQ0gyXVtDSDJdW0NIMl1PMw==

> <s_epik_cmdline>
J2VwaWtfcHl0aG9uJywgJy1waCcsICc3LjAnLCAnLXRuJywgJzgnLCAnLW1hJywgJzIwMCcsICctbWV0YWxfYmluZGluZycsICctaW1hZScsICc8aW5maWxlLm1hZT4nLCAnLW9tYWUnLCAnPG91dGZpbGUubWFlPic=

> <r_lp_tautomer_probability>
1

> <r_epik_Ionization_Penalty>
0.00268225

> <r_epik_Ionization_Penalty_Charging>
0

> <r_epik_Ionization_Penalty_Neutral>
0.00268225

> <r_epik_State_Penalty>
0.00184408

> <r_epik_Charging_Adjusted_Penalty>
0.00184408

> <i_epik_Tot_Q>
0

> <i_epik_Tot_abs_Q>
0

> <r_epik_Metal_State_Penalty>
-0

> <b_epik_Metal_Only>
0

> <s_lp_Force_Field>
OPLS_2005

> <r_lp_Energy>
37.5885

> <b_lp_Chiralities_Consistent>
1

> <s_lp_Variant>
AV-unprocessed.smi:2034-1

> <Gold.Version>
5.8.1

> <Gold.Id.Protein>
6NUR|6NUR_protein|mol2

> <Gold.PLP.Fitness>
49.3172

> <Gold.PLP.PLP>
-44.1110

> <Gold.PLP.part.hbond>
-1.9807

> <Gold.PLP.part.metal>
0.0000

> <Gold.PLP.part.buried>
-6.9297

> <Gold.PLP.part.nonpolar>
-36.5752

> <Gold.PLP.part.repulsive>
0.6136

> <Gold.PLP.ligand.clash>
0.0000

> <Gold.PLP.ligand.torsion>
0.2527

> <Gold.PLP.Chemscore.Hbond>
1.8590

> <Gold.PLP.Chemscore.CHOScore>
0.0000

> <Gold.PLP.Chemscore.Metal>
0.0000

> <Gold.Chemscore.Hbonds>
donor molecule, donor type, donor heavy atom, donor atom, acceptor molecule, acceptor atom, score
      L1  H     9    33       P1  7948  0.84
      L1  H    12    34       P1  7948  0.98

> <Gold.PLP.Chemscore.Internal.Correction>
0.1345

> <Gold.Rescore>
     Score         DG    S(hbond)    S(metal)    S(lipo)     H(rot)  DE(clash)    DE(int)     intcor
     19.92     -21.62       1.92        0.00     113.11       1.37       0.07       1.62       ----

> <Gold.Chemscore.Fitness>
19.9240

> <Gold.Chemscore.DG>
-21.6154

> <Gold.Chemscore.ZeroCoef>
-5.4800

> <Gold.Chemscore.Hbond>
1.9160

> <Gold.Chemscore.Metal>
0.0000

> <Gold.Chemscore.Lipo>
113.1069

> <Gold.Chemscore.Internal_Hbond>
0.0000

> <Gold.Chemscore.DEClash>
0.0678

> <Gold.Chemscore.DEInternal>
1.6237

> <Gold.Chemscore.Rot>
1.3663

> <Gold.Chemscore.Internal.Correction>
   9.000000E+99

> <Gold.Chemscore.Hbonds>
donor molecule, donor type, donor heavy atom, donor atom, acceptor molecule, acceptor atom, score
      L1  H     9    33       P1  7948  0.78
      L1  H    12    34       P1  7948  0.92

> <Gold.Chemscore.Hbond.Weighted>
-6.3996

> <Gold.Chemscore.Metal.Weighted>
-0.0000

> <Gold.Chemscore.Lipo.Weighted>
-13.2335

> <Gold.Chemscore.Internal_Hbond.Weighted>
0.0000

> <Gold.Chemscore.DEClash.Weighted>
0.0678

> <Gold.Chemscore.DEInternal.Weighted>
1.6237

> <Gold.Chemscore.Rot.Weighted>
3.4977

> <Gold.Chemscore.Internal.Correction.Weighted>
   9.000000E+99

> <Gold.Protein.RotatedTorsions>
[ 6907 6896 6895 6894 ] final -178.22 input  -60.11 | X-H torsion
[ 7974 7965 7964 7962 ] final  167.39 input  175.53 | X-H torsion
[ 8008 7997 7996 7995 ] final  165.91 input   59.86 | X-H torsion
[ 10167 10162 10161 10158 ] final  136.02 input  -65.29 | X-H torsion
[ 10718 10713 10712 10709 ] final  131.43 input   66.30 | X-H torsion
[ 10763 10752 10751 10750 ] final  -12.47 input  -60.55 | X-H torsion
[ 11005 11000 10999 10996 ] final  117.96 input  -57.11 | X-H torsion

> <Gold.Protein.ActiveResidues>
 VAL166  LYS551  ARG553  GLY616  TRP617  ASP618  TYR619  PRO620  LYS621  CYS622 
 ASP623  PHE694  ASN695  SER759  ASP760  ASP761  ALA762  ILE779  LEU786  VAL792 
 PHE793  MET794  SER795  GLU796  ALA797  LYS798  CYS799  TRP800  GLU811  SER814 

> <Gold.Protein.RotatedAtoms>
  151.6337  133.3330  159.3114 H   0  0  0  0  0  0  0  0  0  0  0  0  # atno 6907 bound_to 6896
  150.8043  134.7161  159.6641 H   0  0  0  0  0  0  0  0  0  0  0  0  # atno 6908 bound_to 6896
  152.4137  134.6083  160.0070 H   0  0  0  0  0  0  0  0  0  0  0  0  # atno 6909 bound_to 6896
  144.7426  139.8754  143.6392 H   0  0  0  0  0  0  0  0  0  0  0  0  # atno 7974 bound_to 7965
  156.1762  140.1657  156.8358 H   0  0  0  0  0  0  0  0  0  0  0  0  # atno 8008 bound_to 7997
  154.5310  140.0757  156.8377 H   0  0  0  0  0  0  0  0  0  0  0  0  # atno 8009 bound_to 7997
  155.3408  140.3384  155.4241 H   0  0  0  0  0  0  0  0  0  0  0  0  # atno 8010 bound_to 7997
  139.5195  144.6487  151.5366 H   0  0  0  0  0  0  0  0  0  0  0  0  # atno 10167 bound_to 10162
  157.4968  131.1093  150.9482 H   0  0  0  0  0  0  0  0  0  0  0  0  # atno 10718 bound_to 10713
  153.4989  135.7017  153.5843 H   0  0  0  0  0  0  0  0  0  0  0  0  # atno 10763 bound_to 10752
  153.3983  135.3878  155.1970 H   0  0  0  0  0  0  0  0  0  0  0  0  # atno 10764 bound_to 10752
  154.8712  135.3875  154.4458 H   0  0  0  0  0  0  0  0  0  0  0  0  # atno 10765 bound_to 10752
  139.9093  134.9615  156.7431 H   0  0  0  0  0  0  0  0  0  0  0  0  # atno 11005 bound_to 11000
  146.1250  139.4274  143.0204 LP  0  0  0  0  0  0  0  0  0  0  0  0  # atno 17320 bound_to 7965
  145.7248  141.0062  143.1383 LP  0  0  0  0  0  0  0  0  0  0  0  0  # atno 17321 bound_to 7965
  140.6282  143.9127  150.6583 LP  0  0  0  0  0  0  0  0  0  0  0  0  # atno 17342 bound_to 10162
  140.2423  143.3655  152.1476 LP  0  0  0  0  0  0  0  0  0  0  0  0  # atno 17343 bound_to 10162
  157.0165  130.5657  149.5326 LP  0  0  0  0  0  0  0  0  0  0  0  0  # atno 17370 bound_to 10713
  156.0205  130.5300  150.8262 LP  0  0  0  0  0  0  0  0  0  0  0  0  # atno 17371 bound_to 10713
  140.6833  133.9455  155.7923 LP  0  0  0  0  0  0  0  0  0  0  0  0  # atno 17394 bound_to 11000
  141.0494  134.0506  157.3803 LP  0  0  0  0  0  0  0  0  0  0  0  0  # atno 17395 bound_to 11000

$$$$
