AV-unprocessed.smi:160|AV-procd|sdf|1346|dock9
  -GOLD-   2262019 43D 1   1.00000     0.00000
 Structure written by MMmdl.
 29 30  0  0  0  0  0  0  0  0  1 V2000
  149.9457  129.2284  154.7720 N   0  0  0  0  0  0  0  0  0  0  0  0
  150.2041  130.5389  154.8328 C   0  0  0  0  0  0  0  0  0  0  0  0
  151.2266  130.9856  155.3504 O   0  0  0  0  0  0  0  0  0  0  0  0
  149.1688  131.4476  154.2301 C   0  0  0  0  0  0  0  0  0  0  0  0
  149.4583  132.7487  153.9301 N   0  0  0  0  0  0  0  0  0  0  0  0
  148.2800  133.1169  153.4436 C   0  0  0  0  0  0  0  0  0  0  0  0
  147.3580  132.1489  153.4509 N   0  0  0  0  0  0  0  0  0  0  0  0
  145.9366  132.1710  152.9835 C   0  0  1  0  0  0  0  0  0  0  0  0
  145.5974  133.5028  152.7366 O   0  0  0  0  0  0  0  0  0  0  0  0
  144.9696  133.6284  151.4627 C   0  0  1  0  0  0  0  0  0  0  0  0
  145.1617  135.0432  150.8884 C   0  0  0  0  0  0  0  0  0  0  0  0
  144.6028  135.1228  149.5942 O   0  0  0  0  0  0  0  0  0  0  0  0
  145.5759  132.4883  150.6325 C   0  0  1  0  0  0  0  0  0  0  0  0
  146.8171  132.8692  150.0631 O   0  0  0  0  0  0  0  0  0  0  0  0
  145.7191  131.3850  151.6741 C   0  0  1  0  0  0  0  0  0  0  0  0
  146.7125  130.4257  151.3509 O   0  0  0  0  0  0  0  0  0  0  0  0
  147.9309  131.0307  153.9605 N   0  0  0  0  0  0  0  0  0  0  0  0
  145.3676  131.7692  153.8227 H   0  0  0  0  0  0  0  0  0  0  0  0
  143.9058  133.4176  151.5898 H   0  0  0  0  0  0  0  0  0  0  0  0
  144.9137  132.1861  149.8206 H   0  0  0  0  0  0  0  0  0  0  0  0
  144.7626  130.8694  151.7695 H   0  0  0  0  0  0  0  0  0  0  0  0
  150.6022  128.5661  155.1581 H   0  0  0  0  0  0  0  0  0  0  0  0
  149.0913  128.9103  154.3368 H   0  0  0  0  0  0  0  0  0  0  0  0
  148.0841  134.1136  153.0767 H   0  0  0  0  0  0  0  0  0  0  0  0
  144.7201  135.7992  151.5387 H   0  0  0  0  0  0  0  0  0  0  0  0
  146.2241  135.2712  150.7975 H   0  0  0  0  0  0  0  0  0  0  0  0
  145.2974  135.0231  148.9613 H   0  0  0  0  0  0  0  0  0  0  0  0
  147.3973  132.1236  150.0935 H   0  0  0  0  0  0  0  0  0  0  0  0
  147.4695  130.8782  151.0115 H   0  0  0  0  0  0  0  0  0  0  0  0
  1  2  1  0  0  0  0
  1 22  1  0  0  0  0
  1 23  1  0  0  0  0
  2  3  2  0  0  0  0
  2  4  1  0  0  0  0
  4 17  2  0  0  0  0
  4  5  1  0  0  0  0
  5  6  2  0  0  0  0
  6  7  1  0  0  0  0
  6 24  1  0  0  0  0
  7  8  1  0  0  0  0
  7 17  1  0  0  0  0
  8 18  1  0  0  0  0
  8 15  1  0  0  0  0
  8  9  1  0  0  0  0
  9 10  1  0  0  0  0
 10 19  1  0  0  0  0
 10 11  1  0  0  0  0
 10 13  1  0  0  0  0
 11 12  1  0  0  0  0
 11 25  1  0  0  0  0
 11 26  1  0  0  0  0
 12 27  1  0  0  0  0
 13 20  1  0  0  0  0
 13 14  1  0  0  0  0
 13 15  1  0  0  0  0
 14 28  1  0  0  0  0
 15 21  1  0  0  0  0
 15 16  1  0  0  0  0
 16 29  1  0  0  0  0
M  END
> <s_m_source_file>
AV-unprocessed.smi

> <i_m_source_file_index>
160

> <i_lp_mmshare_version>
43012

> <i_f3d_flags>
0

> <s_epik_input>
W05IMl1DKD1PKWMxbltjSF1uKG4xKVtDQEBIXTJPW0NASF0oW0NIMl1bT0hdKVtDQEBIXShbT0hdKVtDQEhdMltPSF0=

> <s_epik_cmdline>
J2VwaWtfcHl0aG9uJywgJy1waCcsICc3LjAnLCAnLXRuJywgJzgnLCAnLW1hJywgJzIwMCcsICctbWV0YWxfYmluZGluZycsICctaW1hZScsICc8aW5maWxlLm1hZT4nLCAnLW9tYWUnLCAnPG91dGZpbGUubWFlPic=

> <r_lp_tautomer_probability>
1

> <r_epik_Ionization_Penalty>
1.06932e-05

> <r_epik_Ionization_Penalty_Charging>
0

> <r_epik_Ionization_Penalty_Neutral>
1.06932e-05

> <r_epik_State_Penalty>
-0

> <r_epik_Charging_Adjusted_Penalty>
0

> <i_epik_Tot_Q>
0

> <i_epik_Tot_abs_Q>
0

> <r_epik_Metal_State_Penalty>
0.0142097

> <b_epik_Metal_Only>
0

> <s_epik_Chemistry_Notes>
This compound contains an acetal/aminal-like group ( X-CH(R)-Y where X, Y are N, S, or O) that may be acid/base labile, releasing an aldehyde.

> <s_lp_Force_Field>
OPLS_2005

> <r_lp_Energy>
47.6591

> <b_lp_Chiralities_Consistent>
1

> <s_lp_Variant>
AV-unprocessed.smi:160-4

> <Gold.Version>
5.8.1

> <Gold.Id.Protein>
6NUR|6NUR_protein|mol2

> <Gold.PLP.Fitness>
37.7166

> <Gold.PLP.PLP>
-26.4254

> <Gold.PLP.part.hbond>
-4.3277

> <Gold.PLP.part.metal>
0.0000

> <Gold.PLP.part.buried>
-4.6282

> <Gold.PLP.part.nonpolar>
-17.6074

> <Gold.PLP.part.repulsive>
0.3003

> <Gold.PLP.ligand.clash>
0.0000

> <Gold.PLP.ligand.torsion>
0.3574

> <Gold.PLP.Chemscore.Hbond>
3.0000

> <Gold.PLP.Chemscore.CHOScore>
1.0000

> <Gold.PLP.Chemscore.Metal>
0.0000

> <Gold.Chemscore.Hbonds>
donor molecule, donor type, donor heavy atom, donor atom, acceptor molecule, acceptor atom, score
      L1  H    12    27       P1  7921  1.00
      L1  H    14    28       P1 10747  1.00
      L1  H    16    29       P1 10747  0.99
      L1  C     6    24       P1  7948  0.95

> <Gold.PLP.Chemscore.Internal.Correction>
0.0059

> <Gold.Rescore>
     Score         DG    S(hbond)    S(metal)    S(lipo)     H(rot)  DE(clash)    DE(int)     intcor
      8.22      -9.02       2.95        0.00      34.99       4.06       0.00       0.80       ----

> <Gold.Chemscore.Fitness>
8.2185

> <Gold.Chemscore.DG>
-9.0186

> <Gold.Chemscore.ZeroCoef>
-5.4800

> <Gold.Chemscore.Hbond>
2.9457

> <Gold.Chemscore.Metal>
0.0000

> <Gold.Chemscore.Lipo>
34.9864

> <Gold.Chemscore.Internal_Hbond>
0.0000

> <Gold.Chemscore.DEClash>
0.0038

> <Gold.Chemscore.DEInternal>
0.7963

> <Gold.Chemscore.Rot>
4.0600

> <Gold.Chemscore.Internal.Correction>
   9.000000E+99

> <Gold.Chemscore.Hbonds>
donor molecule, donor type, donor heavy atom, donor atom, acceptor molecule, acceptor atom, score
      L1  H    12    27       P1  7921  0.97
      L1  H    14    28       P1 10747  0.94
      L1  H    16    29       P1 10747  0.94

> <Gold.Chemscore.Hbond.Weighted>
-9.8388

> <Gold.Chemscore.Metal.Weighted>
-0.0000

> <Gold.Chemscore.Lipo.Weighted>
-4.0934

> <Gold.Chemscore.Internal_Hbond.Weighted>
0.0000

> <Gold.Chemscore.DEClash.Weighted>
0.0038

> <Gold.Chemscore.DEInternal.Weighted>
0.7963

> <Gold.Chemscore.Rot.Weighted>
10.3936

> <Gold.Chemscore.Internal.Correction.Weighted>
   9.000000E+99

> <Gold.Protein.RotatedTorsions>
[ 6907 6896 6895 6894 ] final  131.15 input  -60.11 | X-H torsion
[ 7974 7965 7964 7962 ] final  -45.39 input  175.53 | X-H torsion
[ 8008 7997 7996 7995 ] final  -45.60 input   59.86 | X-H torsion
[ 10167 10162 10161 10158 ] final   40.52 input  -65.29 | X-H torsion
[ 10718 10713 10712 10709 ] final  -95.85 input   66.30 | X-H torsion
[ 10763 10752 10751 10750 ] final  -25.95 input  -60.55 | X-H torsion
[ 11005 11000 10999 10996 ] final  142.22 input  -57.11 | X-H torsion

> <Gold.Protein.ActiveResidues>
 VAL166  LYS551  ARG553  GLY616  TRP617  ASP618  TYR619  PRO620  LYS621  CYS622 
 ASP623  PHE694  ASN695  SER759  ASP760  ASP761  ALA762  ILE779  LEU786  VAL792 
 PHE793  MET794  SER795  GLU796  ALA797  LYS798  CYS799  TRP800  GLU811  SER814 

> <Gold.Protein.RotatedAtoms>
  152.3455  133.6117  159.5906 H   0  0  0  0  0  0  0  0  0  0  0  0  # atno 6907 bound_to 6896
  150.7505  133.9656  159.3538 H   0  0  0  0  0  0  0  0  0  0  0  0  # atno 6908 bound_to 6896
  151.7514  135.0832  160.0382 H   0  0  0  0  0  0  0  0  0  0  0  0  # atno 6909 bound_to 6896
  145.9826  140.7268  142.9356 H   0  0  0  0  0  0  0  0  0  0  0  0  # atno 7974 bound_to 7965
  154.4002  140.1392  156.3874 H   0  0  0  0  0  0  0  0  0  0  0  0  # atno 8008 bound_to 7997
  155.7946  140.3478  155.5348 H   0  0  0  0  0  0  0  0  0  0  0  0  # atno 8009 bound_to 7997
  155.8545  140.0946  157.1644 H   0  0  0  0  0  0  0  0  0  0  0  0  # atno 8010 bound_to 7997
  140.3734  144.2075  150.6132 H   0  0  0  0  0  0  0  0  0  0  0  0  # atno 10167 bound_to 10162
  156.0051  130.5126  150.6138 H   0  0  0  0  0  0  0  0  0  0  0  0  # atno 10718 bound_to 10713
  153.7081  135.6952  153.5045 H   0  0  0  0  0  0  0  0  0  0  0  0  # atno 10763 bound_to 10752
  153.2293  135.4343  155.0576 H   0  0  0  0  0  0  0  0  0  0  0  0  # atno 10764 bound_to 10752
  154.8323  135.3480  154.6618 H   0  0  0  0  0  0  0  0  0  0  0  0  # atno 10765 bound_to 10752
  140.0460  134.9280  157.0931 H   0  0  0  0  0  0  0  0  0  0  0  0  # atno 11005 bound_to 11000
  144.6865  140.2933  143.7274 LP  0  0  0  0  0  0  0  0  0  0  0  0  # atno 17320 bound_to 7965
  145.7748  139.1870  143.2192 LP  0  0  0  0  0  0  0  0  0  0  0  0  # atno 17321 bound_to 7965
  140.5011  143.2318  151.8677 LP  0  0  0  0  0  0  0  0  0  0  0  0  # atno 17342 bound_to 10162
  139.4801  144.5058  151.8999 LP  0  0  0  0  0  0  0  0  0  0  0  0  # atno 17343 bound_to 10162
  157.3966  131.0803  151.1346 LP  0  0  0  0  0  0  0  0  0  0  0  0  # atno 17370 bound_to 10713
  157.2021  130.6399  149.5742 LP  0  0  0  0  0  0  0  0  0  0  0  0  # atno 17371 bound_to 10713
  140.3992  134.2100  155.7164 LP  0  0  0  0  0  0  0  0  0  0  0  0  # atno 17394 bound_to 11000
  141.1907  133.8211  157.0907 LP  0  0  0  0  0  0  0  0  0  0  0  0  # atno 17395 bound_to 11000

$$$$
