AV-unprocessed.smi:1686|AV-procd|sdf|6759|dock6
  -GOLD-   22720 7523D 1   1.00000     0.00000
 Structure written by MMmdl.
 41 43  0  0  0  0  0  0  0  0  1 V2000
  150.5596  135.2537  156.4989 C   0  0  0  0  0  0  0  0  0  0  0  0
  150.4520  133.7709  156.2851 C   0  0  0  0  0  0  0  0  0  0  0  0
  150.7878  132.9415  157.2648 N   0  0  0  0  0  0  0  0  0  0  0  0
  150.5968  131.6470  156.7676 O   0  0  0  0  0  0  0  0  0  0  0  0
  150.1502  131.7722  155.4967 C   0  0  0  0  0  0  0  0  0  0  0  0
  149.8018  130.4120  154.5046 Cl  0  0  0  0  0  0  0  0  0  0  0  0
  150.0284  133.0770  155.1142 C   0  0  0  0  0  0  0  0  0  0  0  0
  149.5787  133.6539  153.7968 C   0  0  0  0  0  0  0  0  0  0  0  0
  148.0706  133.4621  153.6492 C   0  0  0  0  0  0  0  0  0  0  0  0
  147.5018  132.5627  154.2673 O   0  0  0  0  0  0  0  0  0  0  0  0
  147.4391  134.3231  152.8362 N   0  0  0  0  0  0  0  0  0  0  0  0
  146.0037  134.3465  152.5684 C   0  0  1  0  0  0  0  0  0  0  0  0
  145.4789  135.7784  152.7650 C   0  0  0  0  0  0  0  0  0  0  0  0
  145.7277  133.8148  151.1428 C   0  0  2  0  0  0  0  0  0  0  0  0
  144.2525  133.4491  150.8626 C   0  0  0  0  0  0  0  0  0  0  0  0
  144.3535  132.0332  150.2644 C   0  0  2  0  0  0  0  0  0  0  0  0
  144.6878  131.0351  151.3884 C   0  0  0  0  0  0  0  0  0  0  0  0
  146.1631  131.3519  151.6929 C   0  0  0  0  0  0  0  0  0  0  0  0
  146.4689  132.5175  150.7294 C   0  0  1  0  0  0  0  0  0  0  0  0
  145.6702  132.0994  149.4991 C   0  0  0  0  0  0  0  0  0  0  0  0
  151.4052  135.6645  155.9472 H   0  0  0  0  0  0  0  0  0  0  0  0
  150.6975  135.5019  157.5518 H   0  0  0  0  0  0  0  0  0  0  0  0
  149.6602  135.7649  156.1551 H   0  0  0  0  0  0  0  0  0  0  0  0
  149.8171  134.7156  153.7192 H   0  0  0  0  0  0  0  0  0  0  0  0
  150.0824  133.1707  152.9587 H   0  0  0  0  0  0  0  0  0  0  0  0
  147.9960  135.0277  152.3744 H   0  0  0  0  0  0  0  0  0  0  0  0
  145.4867  133.7054  153.2837 H   0  0  0  0  0  0  0  0  0  0  0  0
  144.4029  135.8343  152.6003 H   0  0  0  0  0  0  0  0  0  0  0  0
  145.9570  136.4752  152.0760 H   0  0  0  0  0  0  0  0  0  0  0  0
  145.6708  136.1302  153.7792 H   0  0  0  0  0  0  0  0  0  0  0  0
  146.0232  134.5929  150.4361 H   0  0  0  0  0  0  0  0  0  0  0  0
  143.6293  133.4632  151.7578 H   0  0  0  0  0  0  0  0  0  0  0  0
  143.8162  134.1469  150.1469 H   0  0  0  0  0  0  0  0  0  0  0  0
  143.4859  131.7465  149.6694 H   0  0  0  0  0  0  0  0  0  0  0  0
  144.0463  131.1635  152.2610 H   0  0  0  0  0  0  0  0  0  0  0  0
  144.5803  130.0062  151.0430 H   0  0  0  0  0  0  0  0  0  0  0  0
  146.3370  131.5965  152.7402 H   0  0  0  0  0  0  0  0  0  0  0  0
  146.7890  130.4906  151.4560 H   0  0  0  0  0  0  0  0  0  0  0  0
  147.5342  132.6618  150.5462 H   0  0  0  0  0  0  0  0  0  0  0  0
  145.9793  131.1372  149.0864 H   0  0  0  0  0  0  0  0  0  0  0  0
  145.6719  132.8466  148.7033 H   0  0  0  0  0  0  0  0  0  0  0  0
  1  2  1  0  0  0  0
  1 21  1  0  0  0  0
  1 22  1  0  0  0  0
  1 23  1  0  0  0  0
  2  7  1  0  0  0  0
  2  3  2  0  0  0  0
  3  4  1  0  0  0  0
  4  5  1  0  0  0  0
  5  6  1  0  0  0  0
  5  7  2  0  0  0  0
  7  8  1  0  0  0  0
  8  9  1  0  0  0  0
  8 24  1  0  0  0  0
  8 25  1  0  0  0  0
  9 10  2  0  0  0  0
  9 11  1  0  0  0  0
 11 12  1  0  0  0  0
 11 26  1  0  0  0  0
 12 13  1  0  0  0  0
 12 14  1  0  0  0  0
 12 27  1  0  0  0  0
 13 28  1  0  0  0  0
 13 29  1  0  0  0  0
 13 30  1  0  0  0  0
 14 19  1  0  0  0  0
 14 15  1  0  0  0  0
 14 31  1  0  0  0  0
 15 16  1  0  0  0  0
 15 32  1  0  0  0  0
 15 33  1  0  0  0  0
 16 20  1  0  0  0  0
 16 17  1  0  0  0  0
 16 34  1  0  0  0  0
 17 18  1  0  0  0  0
 17 35  1  0  0  0  0
 17 36  1  0  0  0  0
 18 19  1  0  0  0  0
 18 37  1  0  0  0  0
 18 38  1  0  0  0  0
 19 20  1  0  0  0  0
 19 39  1  0  0  0  0
 20 40  1  0  0  0  0
 20 41  1  0  0  0  0
M  END
> <s_m_source_file>
AV-unprocessed.smi

> <i_m_source_file_index>
1686

> <i_lp_mmshare_version>
43012

> <i_f3d_flags>
0

> <s_epik_input>
W0NIM11jMW5vYyhDbCljMVtDSDJdQyg9TylbTkhdW0NASF0oW0NIM10pW0NASF0oW0NIMl1bQ0BIXTIzKVtDQEhdKFtDSDJdMylbQ0gyXVtDSDJdMg==

> <s_epik_cmdline>
J2VwaWtfcHl0aG9uJywgJy1waCcsICc3LjAnLCAnLXRuJywgJzgnLCAnLW1hJywgJzIwMCcsICctbWV0YWxfYmluZGluZycsICctaW1hZScsICc8aW5maWxlLm1hZT4nLCAnLW9tYWUnLCAnPG91dGZpbGUubWFlPic=

> <r_lp_tautomer_probability>
1

> <r_epik_Ionization_Penalty>
2.01576e-08

> <r_epik_Ionization_Penalty_Charging>
0

> <r_epik_Ionization_Penalty_Neutral>
2.01576e-08

> <r_epik_State_Penalty>
-0

> <r_epik_Charging_Adjusted_Penalty>
0

> <i_epik_Tot_Q>
0

> <i_epik_Tot_abs_Q>
0

> <r_epik_Metal_State_Penalty>
-0

> <b_epik_Metal_Only>
0

> <s_lp_Force_Field>
OPLS_2005

> <r_lp_Energy>
45.5395

> <b_lp_Chiralities_Consistent>
1

> <s_lp_Variant>
AV-unprocessed.smi:1686-2

> <Gold.Version>
5.8.1

> <Gold.Id.Protein>
6NUR|6NUR_protein|mol2

> <Gold.PLP.Fitness>
40.9629

> <Gold.PLP.PLP>
-36.5244

> <Gold.PLP.part.hbond>
-2.0000

> <Gold.PLP.part.metal>
0.0000

> <Gold.PLP.part.buried>
-2.8979

> <Gold.PLP.part.nonpolar>
-31.5735

> <Gold.PLP.part.repulsive>
0.0405

> <Gold.PLP.ligand.clash>
0.0000

> <Gold.PLP.ligand.torsion>
0.7878

> <Gold.PLP.Chemscore.Hbond>
2.0000

> <Gold.PLP.Chemscore.CHOScore>
0.0000

> <Gold.PLP.Chemscore.Metal>
0.0000

> <Gold.Chemscore.Hbonds>
donor molecule, donor type, donor heavy atom, donor atom, acceptor molecule, acceptor atom, score
      L1  H    11    26       P1  7948  1.00
      P1  H  6896  6907       L1     3  0.99

> <Gold.PLP.Chemscore.Internal.Correction>
0.0140

> <Gold.Rescore>
     Score         DG    S(hbond)    S(metal)    S(lipo)     H(rot)  DE(clash)    DE(int)     intcor
     18.75     -19.62       1.86        0.00      99.69       1.46       0.01       0.87       ----

> <Gold.Chemscore.Fitness>
18.7488

> <Gold.Chemscore.DG>
-19.6227

> <Gold.Chemscore.ZeroCoef>
-5.4800

> <Gold.Chemscore.Hbond>
1.8648

> <Gold.Chemscore.Metal>
0.0000

> <Gold.Chemscore.Lipo>
99.6935

> <Gold.Chemscore.Internal_Hbond>
0.0000

> <Gold.Chemscore.DEClash>
0.0069

> <Gold.Chemscore.DEInternal>
0.8670

> <Gold.Chemscore.Rot>
1.4648

> <Gold.Chemscore.Internal.Correction>
   9.000000E+99

> <Gold.Chemscore.Hbonds>
donor molecule, donor type, donor heavy atom, donor atom, acceptor molecule, acceptor atom, score
      L1  H    11    26       P1  7948  0.84
      P1  H  6896  6907       L1     3  0.89

> <Gold.Chemscore.Hbond.Weighted>
-6.2285

> <Gold.Chemscore.Metal.Weighted>
-0.0000

> <Gold.Chemscore.Lipo.Weighted>
-11.6641

> <Gold.Chemscore.Internal_Hbond.Weighted>
0.0000

> <Gold.Chemscore.DEClash.Weighted>
0.0069

> <Gold.Chemscore.DEInternal.Weighted>
0.8670

> <Gold.Chemscore.Rot.Weighted>
3.7500

> <Gold.Chemscore.Internal.Correction.Weighted>
   9.000000E+99

> <Gold.Protein.RotatedTorsions>
[ 6907 6896 6895 6894 ] final -150.33 input  -60.11 | X-H torsion
[ 7974 7965 7964 7962 ] final  144.71 input  175.53 | X-H torsion
[ 8008 7997 7996 7995 ] final   37.26 input   59.86 | X-H torsion
[ 10167 10162 10161 10158 ] final  177.62 input  -65.29 | X-H torsion
[ 10718 10713 10712 10709 ] final  -60.91 input   66.30 | X-H torsion
[ 10763 10752 10751 10750 ] final -174.07 input  -60.55 | X-H torsion
[ 11005 11000 10999 10996 ] final  -85.02 input  -57.11 | X-H torsion

> <Gold.Protein.ActiveResidues>
 VAL166  LYS551  ARG553  GLY616  TRP617  ASP618  TYR619  PRO620  LYS621  CYS622 
 ASP623  PHE694  ASN695  SER759  ASP760  ASP761  ALA762  ILE779  LEU786  VAL792 
 PHE793  MET794  SER795  GLU796  ALA797  LYS798  CYS799  TRP800  GLU811  SER814 

> <Gold.Protein.RotatedAtoms>
  151.1970  133.4633  159.2595 H   0  0  0  0  0  0  0  0  0  0  0  0  # atno 6907 bound_to 6896
  151.1107  135.0025  159.8502 H   0  0  0  0  0  0  0  0  0  0  0  0  # atno 6908 bound_to 6896
  152.5450  134.1890  159.8719 H   0  0  0  0  0  0  0  0  0  0  0  0  # atno 6909 bound_to 6896
  144.8813  139.5695  143.5841 H   0  0  0  0  0  0  0  0  0  0  0  0  # atno 7974 bound_to 7965
  155.2009  140.3315  155.4343 H   0  0  0  0  0  0  0  0  0  0  0  0  # atno 8008 bound_to 7997
  156.2407  140.1894  156.7046 H   0  0  0  0  0  0  0  0  0  0  0  0  # atno 8009 bound_to 7997
  154.6142  140.0604  156.9519 H   0  0  0  0  0  0  0  0  0  0  0  0  # atno 8010 bound_to 7997
  139.5261  144.2776  152.0574 H   0  0  0  0  0  0  0  0  0  0  0  0  # atno 10167 bound_to 10162
  156.0958  130.4193  150.0920 H   0  0  0  0  0  0  0  0  0  0  0  0  # atno 10718 bound_to 10713
  154.6005  135.2854  155.0540 H   0  0  0  0  0  0  0  0  0  0  0  0  # atno 10763 bound_to 10752
  154.1807  135.6457  153.5037 H   0  0  0  0  0  0  0  0  0  0  0  0  # atno 10764 bound_to 10752
  153.0155  135.5423  154.6722 H   0  0  0  0  0  0  0  0  0  0  0  0  # atno 10765 bound_to 10752
  141.1645  133.7377  156.8954 H   0  0  0  0  0  0  0  0  0  0  0  0  # atno 11005 bound_to 11000
  146.2996  139.7385  142.9101 LP  0  0  0  0  0  0  0  0  0  0  0  0  # atno 17320 bound_to 7965
  145.3949  141.0377  143.3103 LP  0  0  0  0  0  0  0  0  0  0  0  0  # atno 17321 bound_to 7965
  140.2233  144.4444  150.6332 LP  0  0  0  0  0  0  0  0  0  0  0  0  # atno 17342 bound_to 10162
  140.6404  143.2202  151.6303 LP  0  0  0  0  0  0  0  0  0  0  0  0  # atno 17343 bound_to 10162
  156.8919  130.9591  151.3587 LP  0  0  0  0  0  0  0  0  0  0  0  0  # atno 17370 bound_to 10713
  157.6118  130.8589  149.8964 LP  0  0  0  0  0  0  0  0  0  0  0  0  # atno 17371 bound_to 10713
  140.1620  134.9159  157.2726 LP  0  0  0  0  0  0  0  0  0  0  0  0  # atno 17394 bound_to 11000
  140.2601  134.3582  155.7410 LP  0  0  0  0  0  0  0  0  0  0  0  0  # atno 17395 bound_to 11000

$$$$
