AV-unprocessed.smi:3112|AV-procd|sdf|11845|dock1
  -GOLD-   2272017223D 1   1.00000     0.00000
 Structure written by MMmdl.
 36 36  0  0  0  0  0  0  0  0  1 V2000
  146.1333  142.3990  154.7337 C   0  0  0  0  0  0  0  0  0  0  0  0
  147.3419  142.2913  153.7942 C   0  0  0  0  0  0  0  0  0  0  0  0
  148.2918  141.1317  154.1550 C   0  0  1  0  0  0  0  0  0  0  0  0
  149.3491  141.0350  153.2215 O   0  0  0  0  0  0  0  0  0  0  0  0
  148.8827  141.2111  155.5754 C   0  0  0  0  0  0  0  0  0  0  0  0
  150.0639  142.0765  155.6407 N   0  0  0  0  0  0  0  0  0  0  0  0
  151.0922  141.6507  156.5950 C   0  0  2  0  0  0  0  0  0  0  0  0
  151.6170  140.2716  156.1524 C   0  0  0  0  0  0  0  0  0  0  0  0
  150.5518  141.6355  158.0568 C   0  0  2  0  0  0  0  0  0  0  0  0
  149.4962  142.7155  158.3588 C   0  0  0  0  0  0  0  0  0  0  0  0
  151.6299  141.7218  159.0348 N   0  0  0  0  0  0  0  0  0  0  0  0
  152.7543  140.9287  159.1377 C   0  0  0  0  0  0  0  0  0  0  0  0
  153.4775  141.3806  160.2040 C   0  0  0  0  0  0  0  0  0  0  0  0
  152.7052  142.4677  160.6996 C   0  0  0  0  0  0  0  0  0  0  0  0
  151.6011  142.6696  159.9996 N   0  0  0  0  0  0  0  0  0  0  0  0
  145.5071  143.2493  154.4629 H   0  0  0  0  0  0  0  0  0  0  0  0
  146.4486  142.5356  155.7685 H   0  0  0  0  0  0  0  0  0  0  0  0
  145.5123  141.5043  154.6870 H   0  0  0  0  0  0  0  0  0  0  0  0
  146.9908  142.1878  152.7669 H   0  0  0  0  0  0  0  0  0  0  0  0
  147.8949  143.2305  153.8348 H   0  0  0  0  0  0  0  0  0  0  0  0
  147.7336  140.1973  154.0884 H   0  0  0  0  0  0  0  0  0  0  0  0
  149.0885  140.4429  152.5330 H   0  0  0  0  0  0  0  0  0  0  0  0
  148.1184  141.6070  156.2452 H   0  0  0  0  0  0  0  0  0  0  0  0
  149.1004  140.2080  155.9360 H   0  0  0  0  0  0  0  0  0  0  0  0
  149.7673  143.0214  155.8618 H   0  0  0  0  0  0  0  0  0  0  0  0
  151.9391  142.3368  156.5420 H   0  0  0  0  0  0  0  0  0  0  0  0
  152.4757  139.9540  156.7440 H   0  0  0  0  0  0  0  0  0  0  0  0
  151.9421  140.2921  155.1116 H   0  0  0  0  0  0  0  0  0  0  0  0
  150.8465  139.5054  156.2439 H   0  0  0  0  0  0  0  0  0  0  0  0
  150.0712  140.6691  158.2184 H   0  0  0  0  0  0  0  0  0  0  0  0
  148.5692  142.5269  157.8184 H   0  0  0  0  0  0  0  0  0  0  0  0
  149.8521  143.7110  158.0918 H   0  0  0  0  0  0  0  0  0  0  0  0
  149.2415  142.7272  159.4191 H   0  0  0  0  0  0  0  0  0  0  0  0
  152.9452  140.1180  158.4497 H   0  0  0  0  0  0  0  0  0  0  0  0
  154.4154  140.9937  160.5737 H   0  0  0  0  0  0  0  0  0  0  0  0
  152.9123  143.1118  161.5413 H   0  0  0  0  0  0  0  0  0  0  0  0
  1  2  1  0  0  0  0
  1 16  1  0  0  0  0
  1 17  1  0  0  0  0
  1 18  1  0  0  0  0
  2  3  1  0  0  0  0
  2 19  1  0  0  0  0
  2 20  1  0  0  0  0
  3  4  1  0  0  0  0
  3  5  1  0  0  0  0
  3 21  1  0  0  0  0
  4 22  1  0  0  0  0
  5  6  1  0  0  0  0
  5 23  1  0  0  0  0
  5 24  1  0  0  0  0
  6  7  1  0  0  0  0
  6 25  1  0  0  0  0
  7  8  1  0  0  0  0
  7  9  1  0  0  0  0
  7 26  1  0  0  0  0
  8 27  1  0  0  0  0
  8 28  1  0  0  0  0
  8 29  1  0  0  0  0
  9 10  1  0  0  0  0
  9 11  1  0  0  0  0
  9 30  1  0  0  0  0
 10 31  1  0  0  0  0
 10 32  1  0  0  0  0
 10 33  1  0  0  0  0
 11 15  1  0  0  0  0
 11 12  1  0  0  0  0
 12 13  2  0  0  0  0
 12 34  1  0  0  0  0
 13 14  1  0  0  0  0
 13 35  1  0  0  0  0
 14 15  2  0  0  0  0
 14 36  1  0  0  0  0
M  END
> <s_m_source_file>
AV-unprocessed.smi

> <i_m_source_file_index>
3112

> <i_lp_mmshare_version>
43012

> <i_f3d_flags>
0

> <s_epik_input>
W0NIM11bQ0gyXVtDQEhdKFtPSF0pW0NIMl1bTkhdW0NASF0oW0NIM10pW0NASF0oW0NIM10pbjFbY0hdW2NIXVtjSF1uMQ==

> <s_epik_cmdline>
J2VwaWtfcHl0aG9uJywgJy1waCcsICc3LjAnLCAnLXRuJywgJzgnLCAnLW1hJywgJzIwMCcsICctbWV0YWxfYmluZGluZycsICctaW1hZScsICc8aW5maWxlLm1hZT4nLCAnLW9tYWUnLCAnPG91dGZpbGUubWFlPic=

> <r_lp_tautomer_probability>
1

> <r_epik_Ionization_Penalty>
2.16876

> <r_epik_Ionization_Penalty_Charging>
0

> <r_epik_Ionization_Penalty_Neutral>
2.16876

> <r_epik_State_Penalty>
2.30854

> <r_epik_Charging_Adjusted_Penalty>
2.30854

> <i_epik_Tot_Q>
0

> <i_epik_Tot_abs_Q>
0

> <r_epik_Metal_State_Penalty>
2.3073

> <b_epik_Metal_Only>
0

> <s_lp_Force_Field>
OPLS_2005

> <r_lp_Energy>
23.3328

> <b_lp_Chiralities_Consistent>
1

> <s_lp_Variant>
AV-unprocessed.smi:3112-10

> <Gold.Version>
5.8.1

> <Gold.Id.Protein>
6NUR|6NUR_protein|mol2

> <Gold.PLP.Fitness>
42.9218

> <Gold.PLP.PLP>
-36.1190

> <Gold.PLP.part.hbond>
-3.5837

> <Gold.PLP.part.metal>
0.0000

> <Gold.PLP.part.buried>
-5.9252

> <Gold.PLP.part.nonpolar>
-25.6646

> <Gold.PLP.part.repulsive>
0.0140

> <Gold.PLP.ligand.clash>
0.0000

> <Gold.PLP.ligand.torsion>
0.9942

> <Gold.PLP.Chemscore.Hbond>
2.8075

> <Gold.PLP.Chemscore.CHOScore>
0.0000

> <Gold.PLP.Chemscore.Metal>
0.0000

> <Gold.Chemscore.Hbonds>
donor molecule, donor type, donor heavy atom, donor atom, acceptor molecule, acceptor atom, score
      L1  H     4    22       P1  7957  0.72
      L1  H     6    25       P1  8028  1.00
      P1  H  7989  7998       L1     4  0.07
      P1  H  8011  8017       L1     4  1.00

> <Gold.PLP.Chemscore.Internal.Correction>
0.3687

> <Gold.Rescore>
     Score         DG    S(hbond)    S(metal)    S(lipo)     H(rot)  DE(clash)    DE(int)     intcor
     15.76     -16.89       2.43        0.00      78.59       2.31       0.14       0.99       ----

> <Gold.Chemscore.Fitness>
15.7560

> <Gold.Chemscore.DG>
-16.8910

> <Gold.Chemscore.ZeroCoef>
-5.4800

> <Gold.Chemscore.Hbond>
2.4345

> <Gold.Chemscore.Metal>
0.0000

> <Gold.Chemscore.Lipo>
78.5929

> <Gold.Chemscore.Internal_Hbond>
0.0000

> <Gold.Chemscore.DEClash>
0.1437

> <Gold.Chemscore.DEInternal>
0.9913

> <Gold.Chemscore.Rot>
2.3108

> <Gold.Chemscore.Internal.Correction>
   9.000000E+99

> <Gold.Chemscore.Hbonds>
donor molecule, donor type, donor heavy atom, donor atom, acceptor molecule, acceptor atom, score
      L1  H     4    22       P1  7957  0.67
      L1  H     6    25       P1  8028  0.99
      P1  H  7989  7998       L1     4  0.05
      P1  H  8011  8017       L1     4  0.29

> <Gold.Chemscore.Hbond.Weighted>
-8.1313

> <Gold.Chemscore.Metal.Weighted>
-0.0000

> <Gold.Chemscore.Lipo.Weighted>
-9.1954

> <Gold.Chemscore.Internal_Hbond.Weighted>
0.0000

> <Gold.Chemscore.DEClash.Weighted>
0.1437

> <Gold.Chemscore.DEInternal.Weighted>
0.9913

> <Gold.Chemscore.Rot.Weighted>
5.9157

> <Gold.Chemscore.Internal.Correction.Weighted>
   9.000000E+99

> <Gold.Protein.RotatedTorsions>
[ 6907 6896 6895 6894 ] final -162.11 input  -60.11 | X-H torsion
[ 7974 7965 7964 7962 ] final  123.46 input  175.53 | X-H torsion
[ 8008 7997 7996 7995 ] final  -13.32 input   59.86 | X-H torsion
[ 10167 10162 10161 10158 ] final   46.64 input  -65.29 | X-H torsion
[ 10718 10713 10712 10709 ] final    5.47 input   66.30 | X-H torsion
[ 10763 10752 10751 10750 ] final -117.66 input  -60.55 | X-H torsion
[ 11005 11000 10999 10996 ] final   86.70 input  -57.11 | X-H torsion

> <Gold.Protein.ActiveResidues>
 VAL166  LYS551  ARG553  GLY616  TRP617  ASP618  TYR619  PRO620  LYS621  CYS622 
 ASP623  PHE694  ASN695  SER759  ASP760  ASP761  ALA762  ILE779  LEU786  VAL792 
 PHE793  MET794  SER795  GLU796  ALA797  LYS798  CYS799  TRP800  GLU811  SER814 

> <Gold.Protein.RotatedAtoms>
  151.3751  133.3841  159.2703 H   0  0  0  0  0  0  0  0  0  0  0  0  # atno 6907 bound_to 6896
  150.9621  134.9008  159.7747 H   0  0  0  0  0  0  0  0  0  0  0  0  # atno 6908 bound_to 6896
  152.5153  134.3710  159.9370 H   0  0  0  0  0  0  0  0  0  0  0  0  # atno 6909 bound_to 6896
  145.0957  139.3554  143.4838 H   0  0  0  0  0  0  0  0  0  0  0  0  # atno 7974 bound_to 7965
  154.5302  140.2253  155.8817 H   0  0  0  0  0  0  0  0  0  0  0  0  # atno 8008 bound_to 7997
  156.1756  140.3112  155.9017 H   0  0  0  0  0  0  0  0  0  0  0  0  # atno 8009 bound_to 7997
  155.3467  140.0453  157.3036 H   0  0  0  0  0  0  0  0  0  0  0  0  # atno 8010 bound_to 7997
  140.3118  144.2811  150.6198 H   0  0  0  0  0  0  0  0  0  0  0  0  # atno 10167 bound_to 10162
  156.9079  130.5745  149.5647 H   0  0  0  0  0  0  0  0  0  0  0  0  # atno 10718 bound_to 10713
  154.8562  135.4302  154.2014 H   0  0  0  0  0  0  0  0  0  0  0  0  # atno 10763 bound_to 10752
  153.3060  135.6972  153.7165 H   0  0  0  0  0  0  0  0  0  0  0  0  # atno 10764 bound_to 10752
  153.6276  135.3490  155.3005 H   0  0  0  0  0  0  0  0  0  0  0  0  # atno 10765 bound_to 10752
  139.8938  134.8373  156.2756 H   0  0  0  0  0  0  0  0  0  0  0  0  # atno 11005 bound_to 11000
  146.3531  140.0811  142.8617 LP  0  0  0  0  0  0  0  0  0  0  0  0  # atno 17320 bound_to 7965
  145.1014  140.9348  143.4710 LP  0  0  0  0  0  0  0  0  0  0  0  0  # atno 17321 bound_to 7965
  140.5561  143.2199  151.7845 LP  0  0  0  0  0  0  0  0  0  0  0  0  # atno 17342 bound_to 10162
  139.4892  144.4411  151.9763 LP  0  0  0  0  0  0  0  0  0  0  0  0  # atno 17343 bound_to 10162
  156.0550  130.5613  150.9072 LP  0  0  0  0  0  0  0  0  0  0  0  0  # atno 17370 bound_to 10713
  157.5986  131.0942  150.8999 LP  0  0  0  0  0  0  0  0  0  0  0  0  # atno 17371 bound_to 10713
  141.0072  133.7117  156.1053 LP  0  0  0  0  0  0  0  0  0  0  0  0  # atno 17394 bound_to 11000
  140.7417  134.4142  157.5554 LP  0  0  0  0  0  0  0  0  0  0  0  0  # atno 17395 bound_to 11000

$$$$
