AV-unprocessed.smi:765|AV-procd|sdf|3646|dock3
  -GOLD-   22720 1 53D 1   1.00000     0.00000
 Structure written by MMmdl.
 39 40  0  0  0  0  0  0  0  0  1 V2000
  151.6696  141.3373  158.2784 C   0  0  0  0  0  0  0  0  0  0  0  0
  150.9767  140.2360  157.4634 C   0  0  1  0  0  0  0  0  0  0  0  0
  150.8716  140.6203  155.9763 C   0  0  0  0  0  0  0  0  0  0  0  0
  150.2081  139.5107  155.1485 C   0  0  0  0  0  0  0  0  0  0  0  0
  150.9512  138.1748  155.3226 C   0  0  0  0  0  0  0  0  0  0  0  0
  151.0484  137.7412  156.8065 C   0  0  2  0  0  0  0  0  0  0  0  0
  151.8937  136.5378  156.9231 C   0  0  0  0  0  0  0  0  0  0  0  0
  152.5555  135.5931  157.0139 N   0  0  0  0  0  0  0  0  0  0  0  0
  149.7152  137.4900  157.3603 N   0  0  0  0  0  0  0  0  0  0  0  0
  149.4146  137.0171  158.5811 C   0  0  0  0  0  0  0  0  0  0  0  0
  150.2569  136.8133  159.4556 O   0  0  0  0  0  0  0  0  0  0  0  0
  147.9308  136.7011  158.8227 C   0  0  2  0  0  0  0  0  0  0  0  0
  146.9982  137.8855  158.5054 C   0  0  0  0  0  0  0  0  0  0  0  0
  147.7440  136.2361  160.1918 N   0  0  0  0  0  0  0  0  0  0  0  0
  147.4050  134.9733  160.6388 C   0  0  0  0  0  0  0  0  0  0  0  0
  147.3126  135.0316  161.9996 C   0  0  0  0  0  0  0  0  0  0  0  0
  147.6152  136.3886  162.3000 C   0  0  0  0  0  0  0  0  0  0  0  0
  147.8690  137.1068  161.2180 N   0  0  0  0  0  0  0  0  0  0  0  0
  151.7008  138.8808  157.6218 C   0  0  0  0  0  0  0  0  0  0  0  0
  152.6943  141.4962  157.9405 H   0  0  0  0  0  0  0  0  0  0  0  0
  151.7050  141.0789  159.3371 H   0  0  0  0  0  0  0  0  0  0  0  0
  151.1392  142.2856  158.1888 H   0  0  0  0  0  0  0  0  0  0  0  0
  149.9639  140.1340  157.8556 H   0  0  0  0  0  0  0  0  0  0  0  0
  150.3025  141.5446  155.8689 H   0  0  0  0  0  0  0  0  0  0  0  0
  151.8662  140.8232  155.5772 H   0  0  0  0  0  0  0  0  0  0  0  0
  149.1652  139.4006  155.4475 H   0  0  0  0  0  0  0  0  0  0  0  0
  150.1955  139.7925  154.0954 H   0  0  0  0  0  0  0  0  0  0  0  0
  150.4664  137.4036  154.7235 H   0  0  0  0  0  0  0  0  0  0  0  0
  151.9570  138.2758  154.9125 H   0  0  0  0  0  0  0  0  0  0  0  0
  148.9433  137.6276  156.7238 H   0  0  0  0  0  0  0  0  0  0  0  0
  147.6643  135.8857  158.1474 H   0  0  0  0  0  0  0  0  0  0  0  0
  147.1054  138.2052  157.4682 H   0  0  0  0  0  0  0  0  0  0  0  0
  147.2031  138.7467  159.1425 H   0  0  0  0  0  0  0  0  0  0  0  0
  145.9545  137.6071  158.6539 H   0  0  0  0  0  0  0  0  0  0  0  0
  147.2531  134.1493  159.9571 H   0  0  0  0  0  0  0  0  0  0  0  0
  147.0645  134.2279  162.6766 H   0  0  0  0  0  0  0  0  0  0  0  0
  147.6546  136.8707  163.2658 H   0  0  0  0  0  0  0  0  0  0  0  0
  152.7395  138.9945  157.3072 H   0  0  0  0  0  0  0  0  0  0  0  0
  151.7371  138.6037  158.6766 H   0  0  0  0  0  0  0  0  0  0  0  0
  1  2  1  0  0  0  0
  1 20  1  0  0  0  0
  1 21  1  0  0  0  0
  1 22  1  0  0  0  0
  2 19  1  0  0  0  0
  2  3  1  0  0  0  0
  2 23  1  0  0  0  0
  3  4  1  0  0  0  0
  3 24  1  0  0  0  0
  3 25  1  0  0  0  0
  4  5  1  0  0  0  0
  4 26  1  0  0  0  0
  4 27  1  0  0  0  0
  5  6  1  0  0  0  0
  5 28  1  0  0  0  0
  5 29  1  0  0  0  0
  6  7  1  0  0  0  0
  6  9  1  0  0  0  0
  6 19  1  0  0  0  0
  7  8  3  0  0  0  0
  9 10  1  0  0  0  0
  9 30  1  0  0  0  0
 10 11  2  0  0  0  0
 10 12  1  0  0  0  0
 12 13  1  0  0  0  0
 12 14  1  0  0  0  0
 12 31  1  0  0  0  0
 13 32  1  0  0  0  0
 13 33  1  0  0  0  0
 13 34  1  0  0  0  0
 14 18  1  0  0  0  0
 14 15  1  0  0  0  0
 15 16  2  0  0  0  0
 15 35  1  0  0  0  0
 16 17  1  0  0  0  0
 16 36  1  0  0  0  0
 17 18  2  0  0  0  0
 17 37  1  0  0  0  0
 19 38  1  0  0  0  0
 19 39  1  0  0  0  0
M  END
> <s_m_source_file>
AV-unprocessed.smi

> <i_m_source_file_index>
765

> <i_lp_mmshare_version>
43012

> <i_f3d_flags>
0

> <s_epik_input>
W0NIM11bQ0BASF0oW0NIMl0xKVtDSDJdW0NIMl1bQ0gyXVtDQEBdMShDI04pW05IXUMoPU8pW0NASF0oW0NIM10pbjJbY0hdW2NIXVtjSF1uMg==

> <s_epik_cmdline>
J2VwaWtfcHl0aG9uJywgJy1waCcsICc3LjAnLCAnLXRuJywgJzgnLCAnLW1hJywgJzIwMCcsICctbWV0YWxfYmluZGluZycsICctaW1hZScsICc8aW5maWxlLm1hZT4nLCAnLW9tYWUnLCAnPG91dGZpbGUubWFlPic=

> <r_lp_tautomer_probability>
1

> <r_epik_Ionization_Penalty>
2.71142e-05

> <r_epik_Ionization_Penalty_Charging>
0

> <r_epik_Ionization_Penalty_Neutral>
2.71142e-05

> <r_epik_State_Penalty>
-0

> <r_epik_Charging_Adjusted_Penalty>
0

> <i_epik_Tot_Q>
0

> <i_epik_Tot_abs_Q>
0

> <r_epik_Metal_State_Penalty>
-0

> <b_epik_Metal_Only>
0

> <s_lp_Force_Field>
OPLS_2005

> <r_lp_Energy>
10.6921

> <b_lp_Chiralities_Consistent>
1

> <s_lp_Variant>
AV-unprocessed.smi:765-4

> <Gold.Version>
5.8.1

> <Gold.Id.Protein>
6NUR|6NUR_protein|mol2

> <Gold.PLP.Fitness>
41.8213

> <Gold.PLP.PLP>
-31.2114

> <Gold.PLP.part.hbond>
-3.9899

> <Gold.PLP.part.metal>
0.0000

> <Gold.PLP.part.buried>
-4.3061

> <Gold.PLP.part.nonpolar>
-22.9915

> <Gold.PLP.part.repulsive>
0.0267

> <Gold.PLP.ligand.clash>
0.0000

> <Gold.PLP.ligand.torsion>
0.2098

> <Gold.PLP.Chemscore.Hbond>
3.6520

> <Gold.PLP.Chemscore.CHOScore>
0.0000

> <Gold.PLP.Chemscore.Metal>
0.0000

> <Gold.Chemscore.Hbonds>
donor molecule, donor type, donor heavy atom, donor atom, acceptor molecule, acceptor atom, score
      P1  H  6896  6908       L1    11  1.00
      P1  H  6931  6943       L1    18  0.95
      P1  H  6934  6947       L1    18  0.75
      P1  H 10752 10763       L1     8  1.00

> <Gold.PLP.Chemscore.Internal.Correction>
0.0735

> <Gold.Rescore>
     Score         DG    S(hbond)    S(metal)    S(lipo)     H(rot)  DE(clash)    DE(int)     intcor
     18.09     -19.53       2.96        0.00      66.76       1.42       0.00       1.44       ----

> <Gold.Chemscore.Fitness>
18.0944

> <Gold.Chemscore.DG>
-19.5334

> <Gold.Chemscore.ZeroCoef>
-5.4800

> <Gold.Chemscore.Hbond>
2.9560

> <Gold.Chemscore.Metal>
0.0000

> <Gold.Chemscore.Lipo>
66.7627

> <Gold.Chemscore.Internal_Hbond>
0.0000

> <Gold.Chemscore.DEClash>
0.0000

> <Gold.Chemscore.DEInternal>
1.4390

> <Gold.Chemscore.Rot>
1.4183

> <Gold.Chemscore.Internal.Correction>
   9.000000E+99

> <Gold.Chemscore.Hbonds>
donor molecule, donor type, donor heavy atom, donor atom, acceptor molecule, acceptor atom, score
      P1  H  6896  6908       L1    11  0.92
      P1  H  6931  6943       L1    18  0.21
      P1  H  6934  6947       L1    18  0.67
      P1  H 10752 10763       L1     8  0.69

> <Gold.Chemscore.Hbond.Weighted>
-9.8731

> <Gold.Chemscore.Metal.Weighted>
-0.0000

> <Gold.Chemscore.Lipo.Weighted>
-7.8112

> <Gold.Chemscore.Internal_Hbond.Weighted>
0.0000

> <Gold.Chemscore.DEClash.Weighted>
0.0000

> <Gold.Chemscore.DEInternal.Weighted>
1.4390

> <Gold.Chemscore.Rot.Weighted>
3.6309

> <Gold.Chemscore.Internal.Correction.Weighted>
   9.000000E+99

> <Gold.Protein.RotatedTorsions>
[ 6907 6896 6895 6894 ] final -164.76 input  -60.11 | X-H torsion
[ 7974 7965 7964 7962 ] final  165.57 input  175.53 | X-H torsion
[ 8008 7997 7996 7995 ] final -136.05 input   59.86 | X-H torsion
[ 10167 10162 10161 10158 ] final -159.67 input  -65.29 | X-H torsion
[ 10718 10713 10712 10709 ] final  126.72 input   66.30 | X-H torsion
[ 10763 10752 10751 10750 ] final  118.63 input  -60.55 | X-H torsion
[ 11005 11000 10999 10996 ] final   71.98 input  -57.11 | X-H torsion

> <Gold.Protein.ActiveResidues>
 VAL166  LYS551  ARG553  GLY616  TRP617  ASP618  TYR619  PRO620  LYS621  CYS622 
 ASP623  PHE694  ASN695  SER759  ASP760  ASP761  ALA762  ILE779  LEU786  VAL792 
 PHE793  MET794  SER795  GLU796  ALA797  LYS798  CYS799  TRP800  GLU811  SER814 

> <Gold.Protein.RotatedAtoms>
  151.4169  133.3710  159.2750 H   0  0  0  0  0  0  0  0  0  0  0  0  # atno 6907 bound_to 6896
  150.9322  134.8738  159.7569 H   0  0  0  0  0  0  0  0  0  0  0  0  # atno 6908 bound_to 6896
  152.5033  134.4114  159.9502 H   0  0  0  0  0  0  0  0  0  0  0  0  # atno 6909 bound_to 6896
  144.7497  139.8489  143.6370 H   0  0  0  0  0  0  0  0  0  0  0  0  # atno 7974 bound_to 7965
  155.3887  140.0498  157.3041 H   0  0  0  0  0  0  0  0  0  0  0  0  # atno 8008 bound_to 7997
  154.5046  140.2169  155.9238 H   0  0  0  0  0  0  0  0  0  0  0  0  # atno 8009 bound_to 7997
  156.1510  140.3136  155.8654 H   0  0  0  0  0  0  0  0  0  0  0  0  # atno 8010 bound_to 7997
  139.6597  143.9934  152.2217 H   0  0  0  0  0  0  0  0  0  0  0  0  # atno 10167 bound_to 10162
  157.5395  131.1097  150.8882 H   0  0  0  0  0  0  0  0  0  0  0  0  # atno 10718 bound_to 10713
  153.5705  135.3503  155.2836 H   0  0  0  0  0  0  0  0  0  0  0  0  # atno 10763 bound_to 10752
  154.8682  135.4158  154.2730 H   0  0  0  0  0  0  0  0  0  0  0  0  # atno 10764 bound_to 10752
  153.3495  135.7054  153.6870 H   0  0  0  0  0  0  0  0  0  0  0  0  # atno 10765 bound_to 10752
  139.9515  134.7219  156.0853 H   0  0  0  0  0  0  0  0  0  0  0  0  # atno 11005 bound_to 11000
  146.1430  139.4492  143.0097 LP  0  0  0  0  0  0  0  0  0  0  0  0  # atno 17320 bound_to 7965
  145.6989  141.0142  143.1515 LP  0  0  0  0  0  0  0  0  0  0  0  0  # atno 17321 bound_to 7965
  139.9670  144.6519  150.8025 LP  0  0  0  0  0  0  0  0  0  0  0  0  # atno 17342 bound_to 10162
  140.7575  143.3087  151.2898 LP  0  0  0  0  0  0  0  0  0  0  0  0  # atno 17343 bound_to 10162
  156.9439  130.5395  149.5281 LP  0  0  0  0  0  0  0  0  0  0  0  0  # atno 17370 bound_to 10713
  156.0485  130.5558  150.8935 LP  0  0  0  0  0  0  0  0  0  0  0  0  # atno 17371 bound_to 10713
  141.1178  133.6622  156.3138 LP  0  0  0  0  0  0  0  0  0  0  0  0  # atno 17394 bound_to 11000
  140.5709  134.5841  157.5457 LP  0  0  0  0  0  0  0  0  0  0  0  0  # atno 17395 bound_to 11000

$$$$
