#       Name:                AV-unprocessed.smi:1902
#       Creating user name   scv26
#       Creation time:       Fri Mar 27 09:46:13 2020


#       File generated by GOLD software.
#

@<TRIPOS>MOLECULE
AV-unprocessed.smi:1902
    48    49     1
SMALL
NO_CHARGES


@<TRIPOS>ATOM
      1 ****        -2.9173   5.2554   1.9977 C.3            1 S1                 0.0000
      2 ****        -2.1630   4.2670   1.0970 C.3            1 S1                 0.0000
      3 ****        -2.7778   2.8587   1.1557 C.3            1 S1                 0.0000
      4 ****        -1.9941   1.8681   0.2779 C.3            1 S1                 0.0000
      5 ****        -0.5597   1.8242   0.6635 N.4            1 S1                 1.0000
      6 ****         0.1877   0.7789  -0.0798 C.3            1 S1                 0.0000
      7 ****         1.4767   0.3454   0.6460 C.3            1 S1                 0.0000
      8 ****         2.1605  -0.7185  -0.0790 N.am           1 S1                 0.0000
      9 ****         1.8039  -2.0115  -0.0580 C.2            1 S1                 0.0000
     10 ****         0.8650  -2.4390   0.6150 O.2            1 S1                 0.0000
     11 ****         2.6454  -2.9617  -0.9214 C.3            1 S1                 0.0000
     12 ****         1.8746  -4.1079  -1.4317 N.am           1 S1                 0.0000
     13 ****         2.0329  -5.3391  -0.7647 C.2            1 S1                 0.0000
     14 ****         1.3725  -6.4435  -1.1472 C.2            1 S1                 0.0000
     15 ****         0.4786  -6.3478  -2.2769 C.2            1 S1                 0.0000
     16 ****         0.3183  -5.1746  -2.9208 C.2            1 S1                 0.0000
     17 ****         1.0370  -3.9646  -2.5055 C.2            1 S1                 0.0000
     18 ****         0.8935  -2.8872  -3.0848 O.2            1 S1                 0.0000
     19 ****         0.0665   3.1702   0.5757 C.3            1 S1                 0.0000
     20 ****        -0.6724   4.1842   1.4650 C.3            1 S1                 0.0000
     21 ****        -2.8817   4.9482   3.0434 H              1 S1                 0.0000
     22 ****        -3.9660   5.3287   1.7082 H              1 S1                 0.0000
     23 ****        -2.4874   6.2550   1.9300 H              1 S1                 0.0000
     24 ****        -2.2395   4.6289   0.0704 H              1 S1                 0.0000
     25 ****        -2.7890   2.5011   2.1864 H              1 S1                 0.0000
     26 ****        -3.8179   2.8922   0.8298 H              1 S1                 0.0000
     27 ****        -2.4354   0.8761   0.3824 H              1 S1                 0.0000
     28 ****        -2.0814   2.1449  -0.7741 H              1 S1                 0.0000
     29 ****        -0.4530  -0.0968  -0.1928 H              1 S1                 0.0000
     30 ****         0.4095   1.1284  -1.0894 H              1 S1                 0.0000
     31 ****         2.1752   1.1768   0.7312 H              1 S1                 0.0000
     32 ****         1.2537   0.0205   1.6640 H              1 S1                 0.0000
     33 ****         2.9500  -0.4522  -0.6500 H              1 S1                 0.0000
     34 ****         3.0837  -2.4112  -1.7563 H              1 S1                 0.0000
     35 ****         3.4938  -3.2999  -0.3248 H              1 S1                 0.0000
     36 ****         2.7145  -5.3257   0.0734 H              1 S1                 0.0000
     37 ****         1.5040  -7.3782  -0.6220 H              1 S1                 0.0000
     38 ****        -0.0655  -7.2206  -2.6063 H              1 S1                 0.0000
     39 ****        -0.3558  -5.1218  -3.7630 H              1 S1                 0.0000
     40 ****         1.1093   3.1275   0.8870 H              1 S1                 0.0000
     41 ****         0.0616   3.5084  -0.4620 H              1 S1                 0.0000
     42 ****        -0.2079   5.1659   1.3649 H              1 S1                 0.0000
     43 ****        -0.5637   3.8970   2.5118 H              1 S1                 0.0000
     44 ****        -0.5404   1.5509   1.6358 H              1 S1                 0.0000
     45 ****         0.3287  -1.8121   1.1801 LP             1 S1                 0.0000
     46 ****         0.6391  -3.4130   0.5962 LP             1 S1                 0.0000
     47 ****         1.3974  -2.0813  -2.7739 LP             1 S1                 0.0000
     48 ****         0.2732  -2.8183  -3.8661 LP             1 S1                 0.0000
@<TRIPOS>BOND
    1    1    2 1     
    2    1   21 1     
    3    1   22 1     
    4    1   23 1     
    5    2   20 1     
    6    2    3 1     
    7    2   24 1     
    8    3    4 1     
    9    3   25 1     
   10    3   26 1     
   11    4    5 1     
   12    4   27 1     
   13    4   28 1     
   14    5    6 1     
   15    5   19 1     
   16    5   44 1     
   17    6    7 1     
   18    6   29 1     
   19    6   30 1     
   20    7    8 1     
   21    7   31 1     
   22    7   32 1     
   23    8    9 am    
   24    8   33 1     
   25    9   10 2     
   26    9   11 1     
   27   11   12 1     
   28   11   34 1     
   29   11   35 1     
   30   12   17 am    
   31   12   13 1     
   32   13   14 2     
   33   13   36 1     
   34   14   15 1     
   35   14   37 1     
   36   15   16 2     
   37   15   38 1     
   38   16   17 1     
   39   16   39 1     
   40   17   18 2     
   41   19   20 1     
   42   19   40 1     
   43   19   41 1     
   44   20   42 1     
   45   20   43 1     
   46   10   45 1     
   47   10   46 1     
   48   18   47 1     
   49   18   48 1     
@<TRIPOS>SUBSTRUCTURE
      1 S1             1
@<TRIPOS>SET
LONE_PAIRS      STATIC     ATOMS    <user>   **** ""
4 45 46 47 48
DONOR_HYDROGENS      STATIC     ATOMS    <user>   **** ""
2 44 33
ATOM$BLUE        STATIC     ATOMS    COLORGROUP SYSTEM
4 45 46 47 48
ATOM$RED        STATIC     ATOMS    COLORGROUP SYSTEM
2 44 33
