AV-unprocessed.smi:1295|AV-procd|sdf|5410|dock4
  -GOLD-   22720 4563D 1   1.00000     0.00000
 Structure written by MMmdl.
 42 43  0  0  0  0  0  0  0  0  2 V2000
  150.5639  135.0916  154.4643 C   0  0  0  0  0  0  0  0  0  0  0  0
  150.5053  136.3590  155.2897 C   0  0  0  0  0  0  0  0  0  0  0  0
  150.2221  136.2815  156.5340 N   0  0  0  0  0  0  0  0  0  0  0  0
  150.1710  137.4546  157.3058 C   0  0  0  0  0  0  0  0  0  0  0  0
  149.8370  137.2667  158.7759 C   0  0  0  0  0  0  0  0  0  0  0  0
  150.4139  138.6764  156.7500 C   0  0  0  0  0  0  0  0  0  0  0  0
  150.3815  139.9780  157.5506 C   0  0  0  0  0  0  0  0  0  0  0  0
  151.7339  140.6630  157.7581 C   0  0  0  0  0  0  0  0  0  0  0  0
  152.7544  140.1893  157.2593 O   0  0  0  0  0  0  0  0  0  0  0  0
  151.7193  141.7843  158.4955 N   0  0  0  0  0  0  0  0  0  0  0  0
  152.8666  142.6449  158.7887 C   0  0  1  0  0  0  0  0  0  0  0  0
  152.5206  144.1048  158.4331 C   0  0  0  0  0  0  0  0  0  0  0  0
  151.4803  144.7063  159.3946 C   0  0  0  0  0  0  0  0  0  0  0  0
  151.9411  144.5897  160.8553 C   0  0  0  0  0  0  0  0  0  0  0  0
  152.2705  143.1342  161.2243 C   0  0  0  0  0  0  0  0  0  0  0  0
  153.3181  142.5279  160.2674 C   0  0  1  0  0  0  0  0  0  0  0  0
  153.6923  141.0925  160.6741 C   0  0  0  0  0  0  0  0  0  0  0  0
  150.7284  138.7229  155.3106 C   0  0  0  0  0  0  0  0  0  0  0  0
  150.9411  139.8000  154.7551 O   0  0  0  0  0  0  0  0  0  0  0  0
  150.7698  137.5399  154.6336 N   0  5  0  0  0  0  0  0  0  0  0  0
  150.1666  134.2417  155.0209 H   0  0  0  0  0  0  0  0  0  0  0  0
  151.5953  134.8700  154.1894 H   0  0  0  0  0  0  0  0  0  0  0  0
  149.9783  135.2041  153.5513 H   0  0  0  0  0  0  0  0  0  0  0  0
  150.6694  137.5892  159.4015 H   0  0  0  0  0  0  0  0  0  0  0  0
  149.6331  136.2197  159.0033 H   0  0  0  0  0  0  0  0  0  0  0  0
  148.9529  137.8435  159.0472 H   0  0  0  0  0  0  0  0  0  0  0  0
  149.7082  140.6680  157.0409 H   0  0  0  0  0  0  0  0  0  0  0  0
  149.9263  139.8242  158.5292 H   0  0  0  0  0  0  0  0  0  0  0  0
  150.8297  142.0832  158.8676 H   0  0  0  0  0  0  0  0  0  0  0  0
  153.7048  142.3508  158.1548 H   0  0  0  0  0  0  0  0  0  0  0  0
  153.4295  144.7066  158.4712 H   0  0  0  0  0  0  0  0  0  0  0  0
  152.1603  144.1674  157.4053 H   0  0  0  0  0  0  0  0  0  0  0  0
  151.3049  145.7525  159.1433 H   0  0  0  0  0  0  0  0  0  0  0  0
  150.5235  144.1975  159.2708 H   0  0  0  0  0  0  0  0  0  0  0  0
  152.8216  145.2143  161.0112 H   0  0  0  0  0  0  0  0  0  0  0  0
  151.1682  144.9755  161.5205 H   0  0  0  0  0  0  0  0  0  0  0  0
  152.6386  143.0960  162.2500 H   0  0  0  0  0  0  0  0  0  0  0  0
  151.3581  142.5366  161.2046 H   0  0  0  0  0  0  0  0  0  0  0  0
  154.2263  143.1242  160.3680 H   0  0  0  0  0  0  0  0  0  0  0  0
  152.8263  140.4305  160.6638 H   0  0  0  0  0  0  0  0  0  0  0  0
  154.1105  141.0679  161.6807 H   0  0  0  0  0  0  0  0  0  0  0  0
  154.4387  140.6759  159.9973 H   0  0  0  0  0  0  0  0  0  0  0  0
  1  2  1  0  0  0  0
  1 21  1  0  0  0  0
  1 22  1  0  0  0  0
  1 23  1  0  0  0  0
  2 20  1  0  0  0  0
  2  3  2  0  0  0  0
  3  4  1  0  0  0  0
  4  5  1  0  0  0  0
  4  6  2  0  0  0  0
  5 24  1  0  0  0  0
  5 25  1  0  0  0  0
  5 26  1  0  0  0  0
  6  7  1  0  0  0  0
  6 18  1  0  0  0  0
  7  8  1  0  0  0  0
  7 27  1  0  0  0  0
  7 28  1  0  0  0  0
  8  9  2  0  0  0  0
  8 10  1  0  0  0  0
 10 11  1  0  0  0  0
 10 29  1  0  0  0  0
 11 16  1  0  0  0  0
 11 12  1  0  0  0  0
 11 30  1  0  0  0  0
 12 13  1  0  0  0  0
 12 31  1  0  0  0  0
 12 32  1  0  0  0  0
 13 14  1  0  0  0  0
 13 33  1  0  0  0  0
 13 34  1  0  0  0  0
 14 15  1  0  0  0  0
 14 35  1  0  0  0  0
 14 36  1  0  0  0  0
 15 16  1  0  0  0  0
 15 37  1  0  0  0  0
 15 38  1  0  0  0  0
 16 17  1  0  0  0  0
 16 39  1  0  0  0  0
 17 40  1  0  0  0  0
 17 41  1  0  0  0  0
 17 42  1  0  0  0  0
 18 19  2  0  0  0  0
 18 20  1  0  0  0  0
M  CHG  1  20  -1
M  END
> <s_m_source_file>
AV-unprocessed.smi

> <i_m_source_file_index>
1295

> <i_lp_mmshare_version>
43012

> <i_f3d_flags>
0

> <s_epik_input>
W0NIM11jMW5jKFtDSDNdKWMoYyg9TylbbkhdMSlbQ0gyXUMoPU8pW05IXVtDQEBIXTJbQ0gyXVtDSDJdW0NIMl1bQ0gyXVtDQEhdMltDSDNd

> <s_epik_cmdline>
J2VwaWtfcHl0aG9uJywgJy1waCcsICc3LjAnLCAnLXRuJywgJzgnLCAnLW1hJywgJzIwMCcsICctbWV0YWxfYmluZGluZycsICctaW1hZScsICc8aW5maWxlLm1hZT4nLCAnLW9tYWUnLCAnPG91dGZpbGUubWFlPic=

> <r_lp_tautomer_probability>
0.839158

> <r_epik_Ionization_Penalty>
6.67742

> <r_epik_Ionization_Penalty_Charging>
7.78154e-08

> <r_epik_Ionization_Penalty_Neutral>
6.67742

> <r_epik_State_Penalty>
4.51991

> <r_epik_Charging_Adjusted_Penalty>
4.51991

> <i_epik_Tot_Q>
-1

> <i_epik_Tot_abs_Q>
1

> <r_epik_Metal_State_Penalty>
0.853272

> <b_epik_Metal_Only>
1

> <s_lp_Force_Field>
OPLS_2005

> <r_lp_Energy>
15.7399

> <b_lp_Chiralities_Consistent>
1

> <s_lp_Variant>
AV-unprocessed.smi:1295-10

> <Gold.Version>
5.8.1

> <Gold.Id.Protein>
6NUR|6NUR_protein|mol2

> <Gold.PLP.Fitness>
45.6121

> <Gold.PLP.PLP>
-40.0742

> <Gold.PLP.part.hbond>
-2.0000

> <Gold.PLP.part.metal>
0.0000

> <Gold.PLP.part.buried>
-5.5053

> <Gold.PLP.part.nonpolar>
-33.1844

> <Gold.PLP.part.repulsive>
0.2971

> <Gold.PLP.ligand.clash>
0.0000

> <Gold.PLP.ligand.torsion>
0.1748

> <Gold.PLP.Chemscore.Hbond>
1.9600

> <Gold.PLP.Chemscore.CHOScore>
0.0000

> <Gold.PLP.Chemscore.Metal>
0.0000

> <Gold.Chemscore.Hbonds>
donor molecule, donor type, donor heavy atom, donor atom, acceptor molecule, acceptor atom, score
      P1  H  7989  7998       L1    19  1.00
      P1  H  7997  8010       L1     9  0.99

> <Gold.PLP.Chemscore.Internal.Correction>
0.0075

> <Gold.Rescore>
     Score         DG    S(hbond)    S(metal)    S(lipo)     H(rot)  DE(clash)    DE(int)     intcor
     19.92     -20.23       1.96        0.00     101.71       1.45       0.02       0.30       ----

> <Gold.Chemscore.Fitness>
19.9155

> <Gold.Chemscore.DG>
-20.2346

> <Gold.Chemscore.ZeroCoef>
-5.4800

> <Gold.Chemscore.Hbond>
1.9620

> <Gold.Chemscore.Metal>
0.0000

> <Gold.Chemscore.Lipo>
101.7145

> <Gold.Chemscore.Internal_Hbond>
0.0000

> <Gold.Chemscore.DEClash>
0.0189

> <Gold.Chemscore.DEInternal>
0.3003

> <Gold.Chemscore.Rot>
1.4450

> <Gold.Chemscore.Internal.Correction>
   9.000000E+99

> <Gold.Chemscore.Hbonds>
donor molecule, donor type, donor heavy atom, donor atom, acceptor molecule, acceptor atom, score
      P1  H  7989  7998       L1    19  1.00
      P1  H  7997  8010       L1     9  0.94

> <Gold.Chemscore.Hbond.Weighted>
-6.5532

> <Gold.Chemscore.Metal.Weighted>
-0.0000

> <Gold.Chemscore.Lipo.Weighted>
-11.9006

> <Gold.Chemscore.Internal_Hbond.Weighted>
0.0000

> <Gold.Chemscore.DEClash.Weighted>
0.0189

> <Gold.Chemscore.DEInternal.Weighted>
0.3003

> <Gold.Chemscore.Rot.Weighted>
3.6992

> <Gold.Chemscore.Internal.Correction.Weighted>
   9.000000E+99

> <Gold.Protein.RotatedTorsions>
[ 6907 6896 6895 6894 ] final  109.20 input  -60.11 | X-H torsion
[ 7974 7965 7964 7962 ] final -138.33 input  175.53 | X-H torsion
[ 8008 7997 7996 7995 ] final   64.27 input   59.86 | X-H torsion
[ 10167 10162 10161 10158 ] final   65.20 input  -65.29 | X-H torsion
[ 10718 10713 10712 10709 ] final   21.30 input   66.30 | X-H torsion
[ 10763 10752 10751 10750 ] final  106.07 input  -60.55 | X-H torsion
[ 11005 11000 10999 10996 ] final   11.11 input  -57.11 | X-H torsion

> <Gold.Protein.ActiveResidues>
 VAL166  LYS551  ARG553  GLY616  TRP617  ASP618  TYR619  PRO620  LYS621  CYS622 
 ASP623  PHE694  ASN695  SER759  ASP760  ASP761  ALA762  ILE779  LEU786  VAL792 
 PHE793  MET794  SER795  GLU796  ALA797  LYS798  CYS799  TRP800  GLU811  SER814 

> <Gold.Protein.RotatedAtoms>
  152.5078  133.8978  159.7425 H   0  0  0  0  0  0  0  0  0  0  0  0  # atno 6907 bound_to 6896
  150.9401  133.6658  159.2799 H   0  0  0  0  0  0  0  0  0  0  0  0  # atno 6908 bound_to 6896
  151.3972  135.0970  159.9597 H   0  0  0  0  0  0  0  0  0  0  0  0  # atno 6909 bound_to 6896
  144.8767  140.6448  143.5232 H   0  0  0  0  0  0  0  0  0  0  0  0  # atno 7974 bound_to 7965
  155.6434  140.3497  155.4723 H   0  0  0  0  0  0  0  0  0  0  0  0  # atno 8008 bound_to 7997
  155.9907  140.1193  157.0664 H   0  0  0  0  0  0  0  0  0  0  0  0  # atno 8009 bound_to 7997
  154.4218  140.1120  156.5548 H   0  0  0  0  0  0  0  0  0  0  0  0  # atno 8010 bound_to 7997
  140.1139  144.4793  150.6961 H   0  0  0  0  0  0  0  0  0  0  0  0  # atno 10167 bound_to 10162
  157.1365  130.6614  149.5968 H   0  0  0  0  0  0  0  0  0  0  0  0  # atno 10718 bound_to 10713
  153.3880  135.3889  155.1903 H   0  0  0  0  0  0  0  0  0  0  0  0  # atno 10763 bound_to 10752
  154.8716  135.3741  154.4773 H   0  0  0  0  0  0  0  0  0  0  0  0  # atno 10764 bound_to 10752
  153.5257  135.7086  153.5770 H   0  0  0  0  0  0  0  0  0  0  0  0  # atno 10765 bound_to 10752
  140.5069  134.0690  155.7808 H   0  0  0  0  0  0  0  0  0  0  0  0  # atno 11005 bound_to 11000
  145.4029  139.1594  143.4167 LP  0  0  0  0  0  0  0  0  0  0  0  0  # atno 17320 bound_to 7965
  146.2967  140.4127  142.8719 LP  0  0  0  0  0  0  0  0  0  0  0  0  # atno 17321 bound_to 7965
  140.6910  143.2376  151.5130 LP  0  0  0  0  0  0  0  0  0  0  0  0  # atno 17342 bound_to 10162
  139.5605  144.2169  152.1683 LP  0  0  0  0  0  0  0  0  0  0  0  0  # atno 17343 bound_to 10162
  155.9797  130.4792  150.6730 LP  0  0  0  0  0  0  0  0  0  0  0  0  # atno 17370 bound_to 10713
  157.4345  131.0853  151.1005 LP  0  0  0  0  0  0  0  0  0  0  0  0  # atno 17371 bound_to 10713
  141.1406  133.9145  157.2334 LP  0  0  0  0  0  0  0  0  0  0  0  0  # atno 17394 bound_to 11000
  139.9681  135.0136  156.9440 LP  0  0  0  0  0  0  0  0  0  0  0  0  # atno 17395 bound_to 11000

$$$$
