AV-unprocessed.smi:1271|AV-procd|sdf|5333|dock7
  -GOLD-   22720 4463D 1   1.00000     0.00000
 Structure written by MMmdl.
 35 36  0  0  0  0  0  0  0  0  1 V2000
  151.3131  140.0674  155.6661 C   0  0  0  0  0  0  0  0  0  0  0  0
  150.5334  141.3821  155.8248 C   0  0  1  0  0  0  0  0  0  0  0  0
  149.1149  141.1352  156.3739 C   0  0  0  0  0  0  0  0  0  0  0  0
  148.1103  141.1361  155.3244 N   0  0  0  0  0  0  0  0  0  0  0  0
  148.2988  141.0727  153.9599 C   0  0  0  0  0  0  0  0  0  0  0  0
  147.0651  141.1208  153.3769 C   0  0  0  0  0  0  0  0  0  0  0  0
  146.1725  141.2142  154.4811 C   0  0  0  0  0  0  0  0  0  0  0  0
  146.8006  141.2209  155.6458 N   0  0  0  0  0  0  0  0  0  0  0  0
  151.2561  142.2896  156.7122 N   0  0  0  0  0  0  0  0  0  0  0  0
  151.5911  142.0466  157.9902 C   0  0  0  0  0  0  0  0  0  0  0  0
  151.2572  141.0126  158.5706 O   0  0  0  0  0  0  0  0  0  0  0  0
  152.3248  143.0263  158.5770 N   0  0  0  0  0  0  0  0  0  0  0  0
  152.4243  144.4235  158.1232 C   0  0  0  0  0  0  0  0  0  0  0  0
  151.4559  145.2875  158.9472 C   0  0  0  0  0  0  0  0  0  0  0  0
  151.9106  145.2716  160.7099 S   0  0  0  0  0  0  0  0  0  0  0  0
  152.0736  143.4769  160.9708 C   0  0  0  0  0  0  0  0  0  0  0  0
  152.9586  142.8371  159.8872 C   0  0  0  0  0  0  0  0  0  0  0  0
  150.7887  139.3793  155.0026 H   0  0  0  0  0  0  0  0  0  0  0  0
  151.4479  139.5670  156.6253 H   0  0  0  0  0  0  0  0  0  0  0  0
  152.3013  140.2425  155.2397 H   0  0  0  0  0  0  0  0  0  0  0  0
  150.4388  141.8446  154.8404 H   0  0  0  0  0  0  0  0  0  0  0  0
  149.0711  140.1690  156.8779 H   0  0  0  0  0  0  0  0  0  0  0  0
  148.8530  141.8872  157.1207 H   0  0  0  0  0  0  0  0  0  0  0  0
  149.2841  141.0038  153.5230 H   0  0  0  0  0  0  0  0  0  0  0  0
  146.8351  141.0955  152.3220 H   0  0  0  0  0  0  0  0  0  0  0  0
  145.0944  141.2776  154.4710 H   0  0  0  0  0  0  0  0  0  0  0  0
  151.5699  143.1593  156.3063 H   0  0  0  0  0  0  0  0  0  0  0  0
  153.4458  144.7838  158.2532 H   0  0  0  0  0  0  0  0  0  0  0  0
  152.2216  144.5447  157.0588 H   0  0  0  0  0  0  0  0  0  0  0  0
  151.4685  146.3181  158.5924 H   0  0  0  0  0  0  0  0  0  0  0  0
  150.4336  144.9235  158.8379 H   0  0  0  0  0  0  0  0  0  0  0  0
  152.4981  143.3043  161.9598 H   0  0  0  0  0  0  0  0  0  0  0  0
  151.0809  143.0251  160.9663 H   0  0  0  0  0  0  0  0  0  0  0  0
  153.1208  141.7826  160.1152 H   0  0  0  0  0  0  0  0  0  0  0  0
  153.9511  143.2896  159.8946 H   0  0  0  0  0  0  0  0  0  0  0  0
  1  2  1  0  0  0  0
  1 18  1  0  0  0  0
  1 19  1  0  0  0  0
  1 20  1  0  0  0  0
  2  3  1  0  0  0  0
  2  9  1  0  0  0  0
  2 21  1  0  0  0  0
  3  4  1  0  0  0  0
  3 22  1  0  0  0  0
  3 23  1  0  0  0  0
  4  8  1  0  0  0  0
  4  5  1  0  0  0  0
  5  6  2  0  0  0  0
  5 24  1  0  0  0  0
  6  7  1  0  0  0  0
  6 25  1  0  0  0  0
  7  8  2  0  0  0  0
  7 26  1  0  0  0  0
  9 10  1  0  0  0  0
  9 27  1  0  0  0  0
 10 11  2  0  0  0  0
 10 12  1  0  0  0  0
 12 17  1  0  0  0  0
 12 13  1  0  0  0  0
 13 14  1  0  0  0  0
 13 28  1  0  0  0  0
 13 29  1  0  0  0  0
 14 15  1  0  0  0  0
 14 30  1  0  0  0  0
 14 31  1  0  0  0  0
 15 16  1  0  0  0  0
 16 17  1  0  0  0  0
 16 32  1  0  0  0  0
 16 33  1  0  0  0  0
 17 34  1  0  0  0  0
 17 35  1  0  0  0  0
M  END
> <s_m_source_file>
AV-unprocessed.smi

> <i_m_source_file_index>
1271

> <i_lp_mmshare_version>
43012

> <i_f3d_flags>
0

> <s_epik_input>
bjFbY0hdW2NIXVtjSF1uMVtDSDJdW0NAQEhdKFtDSDNdKVtOSF1DKD1PKU4yW0NIMl1bQ0gyXVNbQ0gyXVtDSDJdMg==

> <s_epik_cmdline>
J2VwaWtfcHl0aG9uJywgJy1waCcsICc3LjAnLCAnLXRuJywgJzgnLCAnLW1hJywgJzIwMCcsICctbWV0YWxfYmluZGluZycsICctaW1hZScsICc8aW5maWxlLm1hZT4nLCAnLW9tYWUnLCAnPG91dGZpbGUubWFlPic=

> <r_lp_tautomer_probability>
1

> <r_epik_Ionization_Penalty>
5.86346e-05

> <r_epik_Ionization_Penalty_Charging>
0

> <r_epik_Ionization_Penalty_Neutral>
5.86346e-05

> <r_epik_State_Penalty>
-0

> <r_epik_Charging_Adjusted_Penalty>
0

> <i_epik_Tot_Q>
0

> <i_epik_Tot_abs_Q>
0

> <r_epik_Metal_State_Penalty>
-0

> <b_epik_Metal_Only>
0

> <s_lp_Force_Field>
OPLS_2005

> <r_lp_Energy>
23.1202

> <b_lp_Chiralities_Consistent>
1

> <s_lp_Variant>
AV-unprocessed.smi:1271-2

> <Gold.Version>
5.8.1

> <Gold.Id.Protein>
6NUR|6NUR_protein|mol2

> <Gold.PLP.Fitness>
42.9116

> <Gold.PLP.PLP>
-39.5165

> <Gold.PLP.part.hbond>
0.0000

> <Gold.PLP.part.metal>
0.0000

> <Gold.PLP.part.buried>
-1.9420

> <Gold.PLP.part.nonpolar>
-37.5316

> <Gold.PLP.part.repulsive>
0.1649

> <Gold.PLP.ligand.clash>
0.0000

> <Gold.PLP.ligand.torsion>
0.8431

> <Gold.PLP.Chemscore.Hbond>
0.0000

> <Gold.PLP.Chemscore.CHOScore>
1.6828

> <Gold.PLP.Chemscore.Metal>
0.0000

> <Gold.Chemscore.Hbonds>
donor molecule, donor type, donor heavy atom, donor atom, acceptor molecule, acceptor atom, score
      L1  C     5    24       P1  7957  0.74
      L1  C     7    26       P1 10175  0.82

> <Gold.PLP.Chemscore.Internal.Correction>
0.0330

> <Gold.Rescore>
     Score         DG    S(hbond)    S(metal)    S(lipo)     H(rot)  DE(clash)    DE(int)     intcor
     12.15     -13.81       0.00        0.00     101.97       1.41       0.09       1.58       ----

> <Gold.Chemscore.Fitness>
12.1459

> <Gold.Chemscore.DG>
-13.8089

> <Gold.Chemscore.ZeroCoef>
-5.4800

> <Gold.Chemscore.Hbond>
0.0000

> <Gold.Chemscore.Metal>
0.0000

> <Gold.Chemscore.Lipo>
101.9713

> <Gold.Chemscore.Internal_Hbond>
0.0000

> <Gold.Chemscore.DEClash>
0.0851

> <Gold.Chemscore.DEInternal>
1.5779

> <Gold.Chemscore.Rot>
1.4069

> <Gold.Chemscore.Internal.Correction>
   9.000000E+99

> <Gold.Chemscore.Hbond.Weighted>
-0.0000

> <Gold.Chemscore.Metal.Weighted>
-0.0000

> <Gold.Chemscore.Lipo.Weighted>
-11.9306

> <Gold.Chemscore.Internal_Hbond.Weighted>
0.0000

> <Gold.Chemscore.DEClash.Weighted>
0.0851

> <Gold.Chemscore.DEInternal.Weighted>
1.5779

> <Gold.Chemscore.Rot.Weighted>
3.6017

> <Gold.Chemscore.Internal.Correction.Weighted>
   9.000000E+99

> <Gold.Protein.RotatedTorsions>
[ 6907 6896 6895 6894 ] final   43.81 input  -60.11 | X-H torsion
[ 7974 7965 7964 7962 ] final  -58.81 input  175.53 | X-H torsion
[ 8008 7997 7996 7995 ] final   87.01 input   59.86 | X-H torsion
[ 10167 10162 10161 10158 ] final -176.62 input  -65.29 | X-H torsion
[ 10718 10713 10712 10709 ] final  166.66 input   66.30 | X-H torsion
[ 10763 10752 10751 10750 ] final   20.89 input  -60.55 | X-H torsion
[ 11005 11000 10999 10996 ] final -171.55 input  -57.11 | X-H torsion

> <Gold.Protein.ActiveResidues>
 VAL166  LYS551  ARG553  GLY616  TRP617  ASP618  TYR619  PRO620  LYS621  CYS622 
 ASP623  PHE694  ASN695  SER759  ASP760  ASP761  ALA762  ILE779  LEU786  VAL792 
 PHE793  MET794  SER795  GLU796  ALA797  LYS798  CYS799  TRP800  GLU811  SER814 

> <Gold.Protein.RotatedAtoms>
  152.2248  134.8378  160.0481 H   0  0  0  0  0  0  0  0  0  0  0  0  # atno 6907 bound_to 6896
  151.9149  133.3565  159.3884 H   0  0  0  0  0  0  0  0  0  0  0  0  # atno 6908 bound_to 6896
  150.7009  134.4620  159.5429 H   0  0  0  0  0  0  0  0  0  0  0  0  # atno 6909 bound_to 6896
  145.8350  140.8455  143.0064 H   0  0  0  0  0  0  0  0  0  0  0  0  # atno 7974 bound_to 7965
  155.9700  140.3386  155.6567 H   0  0  0  0  0  0  0  0  0  0  0  0  # atno 8008 bound_to 7997
  155.6687  140.0724  157.2546 H   0  0  0  0  0  0  0  0  0  0  0  0  # atno 8009 bound_to 7997
  154.4164  140.1695  156.1843 H   0  0  0  0  0  0  0  0  0  0  0  0  # atno 8010 bound_to 7997
  139.5520  144.2084  152.1094 H   0  0  0  0  0  0  0  0  0  0  0  0  # atno 10167 bound_to 10162
  157.0627  131.0344  151.2641 H   0  0  0  0  0  0  0  0  0  0  0  0  # atno 10718 bound_to 10713
  153.1040  135.6680  153.9620 H   0  0  0  0  0  0  0  0  0  0  0  0  # atno 10763 bound_to 10752
  153.9182  135.3017  155.3449 H   0  0  0  0  0  0  0  0  0  0  0  0  # atno 10764 bound_to 10752
  154.7461  135.5057  153.9283 H   0  0  0  0  0  0  0  0  0  0  0  0  # atno 10765 bound_to 10752
  140.5070  134.5838  157.5006 H   0  0  0  0  0  0  0  0  0  0  0  0  # atno 11005 bound_to 11000
  144.6737  140.0727  143.7472 LP  0  0  0  0  0  0  0  0  0  0  0  0  # atno 17320 bound_to 7965
  145.9529  139.2746  143.1201 LP  0  0  0  0  0  0  0  0  0  0  0  0  # atno 17321 bound_to 7965
  140.1581  144.5051  150.6648 LP  0  0  0  0  0  0  0  0  0  0  0  0  # atno 17342 bound_to 10162
  140.6785  143.2316  151.5445 LP  0  0  0  0  0  0  0  0  0  0  0  0  # atno 17343 bound_to 10162
  157.4942  130.7840  149.7538 LP  0  0  0  0  0  0  0  0  0  0  0  0  # atno 17370 bound_to 10713
  155.9974  130.3900  150.2743 LP  0  0  0  0  0  0  0  0  0  0  0  0  # atno 17371 bound_to 10713
  139.9680  134.7340  156.0098 LP  0  0  0  0  0  0  0  0  0  0  0  0  # atno 17394 bound_to 11000
  141.1406  133.6565  156.3718 LP  0  0  0  0  0  0  0  0  0  0  0  0  # atno 17395 bound_to 11000

$$$$
