AV-unprocessed.smi:2093|AV-procd|sdf|8545|dock7
  -GOLD-   2272011263D 1   1.00000     0.00000
 Structure written by MMmdl.
 31 32  0  0  0  0  0  0  0  0  1 V2000
  148.2841  140.2821  154.1757 C   0  0  0  0  0  0  0  0  0  0  0  0
  147.4979  141.1150  155.1987 C   0  0  1  0  0  0  0  0  0  0  0  0
  148.4150  142.0497  155.8495 N   0  0  0  0  0  0  0  0  0  0  0  0
  149.3855  141.7245  156.7167 C   0  0  0  0  0  0  0  0  0  0  0  0
  149.6212  140.5708  157.0764 O   0  0  0  0  0  0  0  0  0  0  0  0
  150.0460  142.8180  157.1354 N   0  0  0  0  0  0  0  0  0  0  0  0
  151.1315  142.8929  158.0473 C   0  0  0  0  0  0  0  0  0  0  0  0
  151.7842  144.0202  158.3535 N   0  0  0  0  0  0  0  0  0  0  0  0
  152.8057  143.7995  159.2808 C   0  0  0  0  0  0  0  0  0  0  0  0
  152.9178  142.4886  159.6722 C   0  0  0  0  0  0  0  0  0  0  0  0
  151.7372  141.4734  158.8880 S   0  0  0  0  0  0  0  0  0  0  0  0
  146.3286  141.8780  154.5428 C   0  0  2  0  0  0  0  0  0  0  0  0
  146.7434  142.9696  153.5532 C   0  0  0  0  0  0  0  0  0  0  0  0
  145.5342  143.8750  153.5721 C   0  0  0  0  0  0  0  0  0  0  0  0
  145.1464  143.8387  155.0467 C   0  0  0  0  0  0  0  0  0  0  0  0
  145.5585  142.5623  155.5296 O   0  0  0  0  0  0  0  0  0  0  0  0
  147.6447  139.5398  153.6972 H   0  0  0  0  0  0  0  0  0  0  0  0
  149.1043  139.7460  154.6541 H   0  0  0  0  0  0  0  0  0  0  0  0
  148.7081  140.9106  153.3916 H   0  0  0  0  0  0  0  0  0  0  0  0
  147.0857  140.4239  155.9362 H   0  0  0  0  0  0  0  0  0  0  0  0
  148.2963  143.0257  155.6208 H   0  0  0  0  0  0  0  0  0  0  0  0
  149.7349  143.7013  156.7594 H   0  0  0  0  0  0  0  0  0  0  0  0
  153.4063  144.6351  159.6091 H   0  0  0  0  0  0  0  0  0  0  0  0
  153.6201  142.0607  160.3721 H   0  0  0  0  0  0  0  0  0  0  0  0
  145.6633  141.1779  154.0344 H   0  0  0  0  0  0  0  0  0  0  0  0
  147.6180  143.5096  153.9193 H   0  0  0  0  0  0  0  0  0  0  0  0
  146.9714  142.5818  152.5600 H   0  0  0  0  0  0  0  0  0  0  0  0
  145.7434  144.8819  153.2102 H   0  0  0  0  0  0  0  0  0  0  0  0
  144.7374  143.4485  152.9612 H   0  0  0  0  0  0  0  0  0  0  0  0
  145.6861  144.6075  155.6012 H   0  0  0  0  0  0  0  0  0  0  0  0
  144.0787  143.9975  155.1992 H   0  0  0  0  0  0  0  0  0  0  0  0
  1  2  1  0  0  0  0
  1 17  1  0  0  0  0
  1 18  1  0  0  0  0
  1 19  1  0  0  0  0
  2  3  1  0  0  0  0
  2 12  1  0  0  0  0
  2 20  1  0  0  0  0
  3  4  1  0  0  0  0
  3 21  1  0  0  0  0
  4  5  2  0  0  0  0
  4  6  1  0  0  0  0
  6  7  1  0  0  0  0
  6 22  1  0  0  0  0
  7 11  1  0  0  0  0
  7  8  2  0  0  0  0
  8  9  1  0  0  0  0
  9 10  2  0  0  0  0
  9 23  1  0  0  0  0
 10 11  1  0  0  0  0
 10 24  1  0  0  0  0
 12 16  1  0  0  0  0
 12 13  1  0  0  0  0
 12 25  1  0  0  0  0
 13 14  1  0  0  0  0
 13 26  1  0  0  0  0
 13 27  1  0  0  0  0
 14 15  1  0  0  0  0
 14 28  1  0  0  0  0
 14 29  1  0  0  0  0
 15 16  1  0  0  0  0
 15 30  1  0  0  0  0
 15 31  1  0  0  0  0
M  END
> <s_m_source_file>
AV-unprocessed.smi

> <i_m_source_file_index>
2093

> <i_lp_mmshare_version>
43012

> <i_f3d_flags>
0

> <s_epik_input>
TzFbQ0gyXVtDSDJdW0NIMl1bQ0BIXTFbQ0BIXShbQ0gzXSlbTkhdQyg9TylbTkhdYzJuW2NIXVtjSF1zMg==

> <s_epik_cmdline>
J2VwaWtfcHl0aG9uJywgJy1waCcsICc3LjAnLCAnLXRuJywgJzgnLCAnLW1hJywgJzIwMCcsICctbWV0YWxfYmluZGluZycsICctaW1hZScsICc8aW5maWxlLm1hZT4nLCAnLW9tYWUnLCAnPG91dGZpbGUubWFlPic=

> <r_lp_tautomer_probability>
0.999

> <r_epik_Ionization_Penalty>
0.000334433

> <r_epik_Ionization_Penalty_Charging>
0

> <r_epik_Ionization_Penalty_Neutral>
0.000334433

> <r_epik_State_Penalty>
0.000177984

> <r_epik_Charging_Adjusted_Penalty>
0.000177984

> <i_epik_Tot_Q>
0

> <i_epik_Tot_abs_Q>
0

> <r_epik_Metal_State_Penalty>
0.00767616

> <b_epik_Metal_Only>
0

> <s_lp_Force_Field>
OPLS_2005

> <r_lp_Energy>
15.8348

> <b_lp_Chiralities_Consistent>
1

> <s_lp_Variant>
AV-unprocessed.smi:2093-2

> <Gold.Version>
5.8.1

> <Gold.Id.Protein>
6NUR|6NUR_protein|mol2

> <Gold.PLP.Fitness>
36.6578

> <Gold.PLP.PLP>
-30.9568

> <Gold.PLP.part.hbond>
-2.0000

> <Gold.PLP.part.metal>
0.0000

> <Gold.PLP.part.buried>
-5.8576

> <Gold.PLP.part.nonpolar>
-23.1964

> <Gold.PLP.part.repulsive>
0.3038

> <Gold.PLP.ligand.clash>
0.0000

> <Gold.PLP.ligand.torsion>
0.1534

> <Gold.PLP.Chemscore.Hbond>
2.0000

> <Gold.PLP.Chemscore.CHOScore>
0.0000

> <Gold.PLP.Chemscore.Metal>
0.0000

> <Gold.Chemscore.Hbonds>
donor molecule, donor type, donor heavy atom, donor atom, acceptor molecule, acceptor atom, score
      L1  H     3    21       P1  8028  1.00
      L1  H     6    22       P1  8028  1.00

> <Gold.PLP.Chemscore.Internal.Correction>
0.0079

> <Gold.Rescore>
     Score         DG    S(hbond)    S(metal)    S(lipo)     H(rot)  DE(clash)    DE(int)     intcor
     15.03     -16.57       1.93        0.00      68.03       1.29       0.15       1.40       ----

> <Gold.Chemscore.Fitness>
15.0271

> <Gold.Chemscore.DG>
-16.5700

> <Gold.Chemscore.ZeroCoef>
-5.4800

> <Gold.Chemscore.Hbond>
1.9290

> <Gold.Chemscore.Metal>
0.0000

> <Gold.Chemscore.Lipo>
68.0274

> <Gold.Chemscore.Internal_Hbond>
0.0000

> <Gold.Chemscore.DEClash>
0.1461

> <Gold.Chemscore.DEInternal>
1.3968

> <Gold.Chemscore.Rot>
1.2938

> <Gold.Chemscore.Internal.Correction>
   9.000000E+99

> <Gold.Chemscore.Hbonds>
donor molecule, donor type, donor heavy atom, donor atom, acceptor molecule, acceptor atom, score
      L1  H     3    21       P1  8028  0.92
      L1  H     6    22       P1  8028  0.98

> <Gold.Chemscore.Hbond.Weighted>
-6.4430

> <Gold.Chemscore.Metal.Weighted>
-0.0000

> <Gold.Chemscore.Lipo.Weighted>
-7.9592

> <Gold.Chemscore.Internal_Hbond.Weighted>
0.0000

> <Gold.Chemscore.DEClash.Weighted>
0.1461

> <Gold.Chemscore.DEInternal.Weighted>
1.3968

> <Gold.Chemscore.Rot.Weighted>
3.3122

> <Gold.Chemscore.Internal.Correction.Weighted>
   9.000000E+99

> <Gold.Protein.RotatedTorsions>
[ 6907 6896 6895 6894 ] final  -30.76 input  -60.11 | X-H torsion
[ 7974 7965 7964 7962 ] final  132.48 input  175.53 | X-H torsion
[ 8008 7997 7996 7995 ] final  115.53 input   59.86 | X-H torsion
[ 10167 10162 10161 10158 ] final -175.69 input  -65.29 | X-H torsion
[ 10718 10713 10712 10709 ] final   24.67 input   66.30 | X-H torsion
[ 10763 10752 10751 10750 ] final  141.37 input  -60.55 | X-H torsion
[ 11005 11000 10999 10996 ] final -153.66 input  -57.11 | X-H torsion

> <Gold.Protein.ActiveResidues>
 VAL166  LYS551  ARG553  GLY616  TRP617  ASP618  TYR619  PRO620  LYS621  CYS622 
 ASP623  PHE694  ASN695  SER759  ASP760  ASP761  ALA762  ILE779  LEU786  VAL792 
 PHE793  MET794  SER795  GLU796  ALA797  LYS798  CYS799  TRP800  GLU811  SER814 

> <Gold.Protein.RotatedAtoms>
  151.1012  134.9973  159.8449 H   0  0  0  0  0  0  0  0  0  0  0  0  # atno 6907 bound_to 6896
  152.5437  134.1948  159.8698 H   0  0  0  0  0  0  0  0  0  0  0  0  # atno 6908 bound_to 6896
  151.1991  133.4577  159.2629 H   0  0  0  0  0  0  0  0  0  0  0  0  # atno 6909 bound_to 6896
  144.9964  139.4355  143.5314 H   0  0  0  0  0  0  0  0  0  0  0  0  # atno 7974 bound_to 7965
  156.2387  140.2936  156.0383 H   0  0  0  0  0  0  0  0  0  0  0  0  # atno 8008 bound_to 7997
  155.2016  140.0410  157.2935 H   0  0  0  0  0  0  0  0  0  0  0  0  # atno 8009 bound_to 7997
  154.6126  140.2455  155.7656 H   0  0  0  0  0  0  0  0  0  0  0  0  # atno 8010 bound_to 7997
  139.5568  144.1970  152.1172 H   0  0  0  0  0  0  0  0  0  0  0  0  # atno 10167 bound_to 10162
  157.1829  130.6811  149.6120 H   0  0  0  0  0  0  0  0  0  0  0  0  # atno 10718 bound_to 10713
  153.9381  135.2983  155.3443 H   0  0  0  0  0  0  0  0  0  0  0  0  # atno 10763 bound_to 10752
  154.7492  135.4988  153.9261 H   0  0  0  0  0  0  0  0  0  0  0  0  # atno 10764 bound_to 10752
  153.1057  135.6746  153.9697 H   0  0  0  0  0  0  0  0  0  0  0  0  # atno 10765 bound_to 10752
  140.7057  134.3888  157.5204 H   0  0  0  0  0  0  0  0  0  0  0  0  # atno 11005 bound_to 11000
  146.3443  139.9326  142.8751 LP  0  0  0  0  0  0  0  0  0  0  0  0  # atno 17320 bound_to 7965
  145.2214  140.9936  143.4043 LP  0  0  0  0  0  0  0  0  0  0  0  0  # atno 17321 bound_to 7965
  140.1476  144.5145  150.6707 LP  0  0  0  0  0  0  0  0  0  0  0  0  # atno 17342 bound_to 10162
  140.6842  143.2341  151.5305 LP  0  0  0  0  0  0  0  0  0  0  0  0  # atno 17343 bound_to 10162
  155.9722  130.4640  150.6203 LP  0  0  0  0  0  0  0  0  0  0  0  0  # atno 17370 bound_to 10713
  157.3935  131.0799  151.1373 LP  0  0  0  0  0  0  0  0  0  0  0  0  # atno 17371 bound_to 10713
  139.8885  134.8855  156.2472 LP  0  0  0  0  0  0  0  0  0  0  0  0  # atno 17394 bound_to 11000
  141.0126  133.7086  156.1137 LP  0  0  0  0  0  0  0  0  0  0  0  0  # atno 17395 bound_to 11000

$$$$
