AV-unprocessed.smi:2473|AV-procd|sdf|9750|dock9
  -GOLD-   2272013393D 1   1.00000     0.00000
 Structure written by MMmdl.
 47 48  0  0  0  0  0  0  0  0  1 V2000
  152.3749  138.4881  154.8921 C   0  0  0  0  0  0  0  0  0  0  0  0
  151.3953  139.1851  155.8471 C   0  0  1  0  0  0  0  0  0  0  0  0
  150.9815  140.5664  155.3016 C   0  0  0  0  0  0  0  0  0  0  0  0
  149.9600  141.3037  156.1960 C   0  0  2  0  0  0  0  0  0  0  0  0
  150.5889  142.0209  157.4047 C   0  0  0  0  0  0  0  0  0  0  0  0
  151.1975  141.3946  158.2721 O   0  0  0  0  0  0  0  0  0  0  0  0
  150.4849  143.3597  157.4121 N   0  0  0  0  0  0  0  0  0  0  0  0
  151.0774  144.2543  158.4031 C   0  0  0  0  0  0  0  0  0  0  0  0
  152.5078  143.8359  158.7975 C   0  0  0  0  0  0  0  0  0  0  0  0
  152.6935  143.6086  160.2691 C   0  0  0  0  0  0  0  0  0  0  0  0
  152.1384  144.3766  161.2018 N   0  0  0  0  0  0  0  0  0  0  0  0
  152.5286  143.8090  162.4094 C   0  0  0  0  0  0  0  0  0  0  0  0
  153.3168  142.7113  162.1632 C   0  0  0  0  0  0  0  0  0  0  0  0
  153.4171  142.5936  160.7833 N   0  0  0  0  0  0  0  0  0  0  0  0
  154.1590  141.5698  160.0726 C   0  0  0  0  0  0  0  0  0  0  0  0
  148.7658  140.3888  156.5657 C   0  0  0  0  0  0  0  0  0  0  0  0
  149.1165  138.9573  157.0570 C   0  0  0  0  0  0  0  0  0  0  0  0
  149.6277  138.9497  158.5145 C   0  0  0  0  0  0  0  0  0  0  0  0
  147.8286  138.1090  157.0278 C   0  0  0  0  0  0  0  0  0  0  0  0
  150.1501  138.3127  156.1012 C   0  0  0  0  0  0  0  0  0  0  0  0
  151.9195  138.3064  153.9180 H   0  0  0  0  0  0  0  0  0  0  0  0
  152.6979  137.5271  155.2929 H   0  0  0  0  0  0  0  0  0  0  0  0
  153.2667  139.0951  154.7344 H   0  0  0  0  0  0  0  0  0  0  0  0
  151.9236  139.3194  156.7899 H   0  0  0  0  0  0  0  0  0  0  0  0
  151.8668  141.1875  155.1547 H   0  0  0  0  0  0  0  0  0  0  0  0
  150.5454  140.4398  154.3098 H   0  0  0  0  0  0  0  0  0  0  0  0
  149.5554  142.1103  155.5821 H   0  0  0  0  0  0  0  0  0  0  0  0
  149.9765  143.7952  156.6562 H   0  0  0  0  0  0  0  0  0  0  0  0
  151.1009  145.2556  157.9735 H   0  0  0  0  0  0  0  0  0  0  0  0
  150.4456  144.3204  159.2904 H   0  0  0  0  0  0  0  0  0  0  0  0
  152.8001  142.9428  158.2455 H   0  0  0  0  0  0  0  0  0  0  0  0
  153.2048  144.6152  158.4877 H   0  0  0  0  0  0  0  0  0  0  0  0
  152.2148  144.2305  163.3528 H   0  0  0  0  0  0  0  0  0  0  0  0
  153.8007  142.0217  162.8389 H   0  0  0  0  0  0  0  0  0  0  0  0
  154.5607  140.8403  160.7766 H   0  0  0  0  0  0  0  0  0  0  0  0
  154.9854  142.0259  159.5274 H   0  0  0  0  0  0  0  0  0  0  0  0
  153.5059  141.0530  159.3704 H   0  0  0  0  0  0  0  0  0  0  0  0
  148.1248  140.8831  157.2972 H   0  0  0  0  0  0  0  0  0  0  0  0
  148.1501  140.3010  155.6692 H   0  0  0  0  0  0  0  0  0  0  0  0
  149.7645  137.9303  158.8767 H   0  0  0  0  0  0  0  0  0  0  0  0
  148.9203  139.4394  159.1844 H   0  0  0  0  0  0  0  0  0  0  0  0
  150.5852  139.4496  158.6323 H   0  0  0  0  0  0  0  0  0  0  0  0
  148.0174  137.0859  157.3550 H   0  0  0  0  0  0  0  0  0  0  0  0
  147.4048  138.0545  156.0244 H   0  0  0  0  0  0  0  0  0  0  0  0
  147.0631  138.5266  157.6827 H   0  0  0  0  0  0  0  0  0  0  0  0
  149.6723  138.1093  155.1415 H   0  0  0  0  0  0  0  0  0  0  0  0
  150.4559  137.3412  156.4919 H   0  0  0  0  0  0  0  0  0  0  0  0
  1  2  1  0  0  0  0
  1 21  1  0  0  0  0
  1 22  1  0  0  0  0
  1 23  1  0  0  0  0
  2 20  1  0  0  0  0
  2  3  1  0  0  0  0
  2 24  1  0  0  0  0
  3  4  1  0  0  0  0
  3 25  1  0  0  0  0
  3 26  1  0  0  0  0
  4  5  1  0  0  0  0
  4 16  1  0  0  0  0
  4 27  1  0  0  0  0
  5  6  2  0  0  0  0
  5  7  1  0  0  0  0
  7  8  1  0  0  0  0
  7 28  1  0  0  0  0
  8  9  1  0  0  0  0
  8 29  1  0  0  0  0
  8 30  1  0  0  0  0
  9 10  1  0  0  0  0
  9 31  1  0  0  0  0
  9 32  1  0  0  0  0
 10 14  1  0  0  0  0
 10 11  2  0  0  0  0
 11 12  1  0  0  0  0
 12 13  2  0  0  0  0
 12 33  1  0  0  0  0
 13 14  1  0  0  0  0
 13 34  1  0  0  0  0
 14 15  1  0  0  0  0
 15 35  1  0  0  0  0
 15 36  1  0  0  0  0
 15 37  1  0  0  0  0
 16 17  1  0  0  0  0
 16 38  1  0  0  0  0
 16 39  1  0  0  0  0
 17 18  1  0  0  0  0
 17 19  1  0  0  0  0
 17 20  1  0  0  0  0
 18 40  1  0  0  0  0
 18 41  1  0  0  0  0
 18 42  1  0  0  0  0
 19 43  1  0  0  0  0
 19 44  1  0  0  0  0
 19 45  1  0  0  0  0
 20 46  1  0  0  0  0
 20 47  1  0  0  0  0
M  END
> <s_m_source_file>
AV-unprocessed.smi

> <i_m_source_file_index>
2473

> <i_lp_mmshare_version>
43012

> <i_f3d_flags>
0

> <s_epik_input>
W0NIM11bQ0BASF0oW0NIMl0xKVtDSDJdW0NASF0oW0NIMl1DMShbQ0gzXSlbQ0gzXSlDKD1PKVtOSF1bQ0gyXVtDSDJdYzJuW2NIXVtjSF1uMltDSDNd

> <s_epik_cmdline>
J2VwaWtfcHl0aG9uJywgJy1waCcsICc3LjAnLCAnLXRuJywgJzgnLCAnLW1hJywgJzIwMCcsICctbWV0YWxfYmluZGluZycsICctaW1hZScsICc8aW5maWxlLm1hZT4nLCAnLW9tYWUnLCAnPG91dGZpbGUubWFlPic=

> <r_lp_tautomer_probability>
1

> <r_epik_Ionization_Penalty>
1.22858

> <r_epik_Ionization_Penalty_Charging>
1.22858

> <r_epik_Ionization_Penalty_Neutral>
2.12671e-08

> <r_epik_State_Penalty>
1.2965

> <r_epik_Charging_Adjusted_Penalty>
2.52508

> <i_epik_Tot_Q>
0

> <i_epik_Tot_abs_Q>
0

> <r_epik_Metal_State_Penalty>
0.411461

> <b_epik_Metal_Only>
0

> <s_lp_Force_Field>
OPLS_2005

> <r_lp_Energy>
14.2462

> <b_lp_Chiralities_Consistent>
1

> <s_lp_Variant>
AV-unprocessed.smi:2473-8

> <Gold.Version>
5.8.1

> <Gold.Id.Protein>
6NUR|6NUR_protein|mol2

> <Gold.PLP.Fitness>
43.4197

> <Gold.PLP.PLP>
-41.9752

> <Gold.PLP.part.hbond>
-1.0000

> <Gold.PLP.part.metal>
0.0000

> <Gold.PLP.part.buried>
-3.0855

> <Gold.PLP.part.nonpolar>
-38.7266

> <Gold.PLP.part.repulsive>
0.1355

> <Gold.PLP.ligand.clash>
0.0000

> <Gold.PLP.ligand.torsion>
0.8290

> <Gold.PLP.Chemscore.Hbond>
1.0000

> <Gold.PLP.Chemscore.CHOScore>
0.0000

> <Gold.PLP.Chemscore.Metal>
0.0000

> <Gold.Chemscore.Hbonds>
donor molecule, donor type, donor heavy atom, donor atom, acceptor molecule, acceptor atom, score
      L1  H     7    28       P1  8028  1.00

> <Gold.PLP.Chemscore.Internal.Correction>
0.1024

> <Gold.Rescore>
     Score         DG    S(hbond)    S(metal)    S(lipo)     H(rot)  DE(clash)    DE(int)     intcor
     11.79     -15.40       1.00        0.00      89.38       1.51       0.06       3.56       ----

> <Gold.Chemscore.Fitness>
11.7891

> <Gold.Chemscore.DG>
-15.4040

> <Gold.Chemscore.ZeroCoef>
-5.4800

> <Gold.Chemscore.Hbond>
0.9983

> <Gold.Chemscore.Metal>
0.0000

> <Gold.Chemscore.Lipo>
89.3819

> <Gold.Chemscore.Internal_Hbond>
0.0000

> <Gold.Chemscore.DEClash>
0.0585

> <Gold.Chemscore.DEInternal>
3.5565

> <Gold.Chemscore.Rot>
1.5109

> <Gold.Chemscore.Internal.Correction>
   9.000000E+99

> <Gold.Chemscore.Hbonds>
donor molecule, donor type, donor heavy atom, donor atom, acceptor molecule, acceptor atom, score
      L1  H     7    28       P1  8028  1.00

> <Gold.Chemscore.Hbond.Weighted>
-3.3343

> <Gold.Chemscore.Metal.Weighted>
-0.0000

> <Gold.Chemscore.Lipo.Weighted>
-10.4577

> <Gold.Chemscore.Internal_Hbond.Weighted>
0.0000

> <Gold.Chemscore.DEClash.Weighted>
0.0585

> <Gold.Chemscore.DEInternal.Weighted>
3.5565

> <Gold.Chemscore.Rot.Weighted>
3.8680

> <Gold.Chemscore.Internal.Correction.Weighted>
   9.000000E+99

> <Gold.Protein.RotatedTorsions>
[ 6907 6896 6895 6894 ] final  -15.16 input  -60.11 | X-H torsion
[ 7974 7965 7964 7962 ] final -120.04 input  175.53 | X-H torsion
[ 8008 7997 7996 7995 ] final  124.84 input   59.86 | X-H torsion
[ 10167 10162 10161 10158 ] final  129.63 input  -65.29 | X-H torsion
[ 10718 10713 10712 10709 ] final  -53.12 input   66.30 | X-H torsion
[ 10763 10752 10751 10750 ] final  168.89 input  -60.55 | X-H torsion
[ 11005 11000 10999 10996 ] final    7.53 input  -57.11 | X-H torsion

> <Gold.Protein.ActiveResidues>
 VAL166  LYS551  ARG553  GLY616  TRP617  ASP618  TYR619  PRO620  LYS621  CYS622 
 ASP623  PHE694  ASN695  SER759  ASP760  ASP761  ALA762  ILE779  LEU786  VAL792 
 PHE793  MET794  SER795  GLU796  ALA797  LYS798  CYS799  TRP800  GLU811  SER814 

> <Gold.Protein.RotatedAtoms>
  151.3282  135.0835  159.9329 H   0  0  0  0  0  0  0  0  0  0  0  0  # atno 6907 bound_to 6896
  152.5241  133.9570  159.7709 H   0  0  0  0  0  0  0  0  0  0  0  0  # atno 6908 bound_to 6896
  150.9903  133.6103  159.2739 H   0  0  0  0  0  0  0  0  0  0  0  0  # atno 6909 bound_to 6896
  145.0558  140.8253  143.4182 H   0  0  0  0  0  0  0  0  0  0  0  0  # atno 7974 bound_to 7965
  156.2815  140.2730  156.1853 H   0  0  0  0  0  0  0  0  0  0  0  0  # atno 8008 bound_to 7997
  155.0514  140.0386  157.2563 H   0  0  0  0  0  0  0  0  0  0  0  0  # atno 8009 bound_to 7997
  154.7192  140.2684  155.6562 H   0  0  0  0  0  0  0  0  0  0  0  0  # atno 8010 bound_to 7997
  139.5468  144.6780  151.4447 H   0  0  0  0  0  0  0  0  0  0  0  0  # atno 10167 bound_to 10162
  156.1563  130.4150  149.9864 H   0  0  0  0  0  0  0  0  0  0  0  0  # atno 10718 bound_to 10713
  154.3751  135.2753  155.2244 H   0  0  0  0  0  0  0  0  0  0  0  0  # atno 10763 bound_to 10752
  154.4374  135.5962  153.6111 H   0  0  0  0  0  0  0  0  0  0  0  0  # atno 10764 bound_to 10752
  152.9836  135.6010  154.3987 H   0  0  0  0  0  0  0  0  0  0  0  0  # atno 10765 bound_to 10752
  140.5472  134.0317  155.7924 H   0  0  0  0  0  0  0  0  0  0  0  0  # atno 11005 bound_to 11000
  145.1470  139.2537  143.5460 LP  0  0  0  0  0  0  0  0  0  0  0  0  # atno 17320 bound_to 7965
  146.3521  140.1163  142.8602 LP  0  0  0  0  0  0  0  0  0  0  0  0  # atno 17321 bound_to 7965
  140.6719  143.8275  150.7010 LP  0  0  0  0  0  0  0  0  0  0  0  0  # atno 17342 bound_to 10162
  140.1702  143.4201  152.2006 LP  0  0  0  0  0  0  0  0  0  0  0  0  # atno 17343 bound_to 10162
  156.7707  130.9185  151.3644 LP  0  0  0  0  0  0  0  0  0  0  0  0  # atno 17370 bound_to 10713
  157.6697  130.9040  150.0012 LP  0  0  0  0  0  0  0  0  0  0  0  0  # atno 17371 bound_to 10713
  141.1193  133.9489  157.2762 LP  0  0  0  0  0  0  0  0  0  0  0  0  # atno 17394 bound_to 11000
  139.9473  135.0182  156.8891 LP  0  0  0  0  0  0  0  0  0  0  0  0  # atno 17395 bound_to 11000

$$$$
