AV-unprocessed.smi:2530|AV-procd|sdf|9963|dock5
  -GOLD-   2272014 03D 1   1.00000     0.00000
 Structure written by MMmdl.
 44 46  0  0  0  0  0  0  0  0  1 V2000
  146.5107  143.9324  153.0827 C   0  0  0  0  0  0  0  0  0  0  0  0
  146.6067  142.7556  154.0315 C   0  0  0  0  0  0  0  0  0  0  0  0
  145.8139  142.7164  155.1934 C   0  0  0  0  0  0  0  0  0  0  0  0
  145.9106  141.6231  156.0730 C   0  0  0  0  0  0  0  0  0  0  0  0
  146.7931  140.5559  155.8005 C   0  0  0  0  0  0  0  0  0  0  0  0
  146.8706  139.4084  156.7931 C   0  0  0  0  0  0  0  0  0  0  0  0
  147.5852  140.5810  154.6217 C   0  0  0  0  0  0  0  0  0  0  0  0
  148.5578  139.4515  154.2797 C   0  0  1  0  0  0  0  0  0  0  0  0
  148.2571  138.8696  153.0252 O   0  0  0  0  0  0  0  0  0  0  0  0
  150.0128  139.9708  154.2474 C   0  0  0  0  0  0  0  0  0  0  0  0
  150.4933  140.3918  155.5749 N   0  0  0  0  0  0  0  0  0  0  0  0
  150.3386  141.7550  155.8928 C   0  0  0  0  0  0  0  0  0  0  0  0
  150.7222  142.2381  157.0316 N   0  0  0  0  0  0  0  0  0  0  0  0
  151.3107  141.3960  157.9819 C   0  0  0  0  0  0  0  0  0  0  0  0
  151.7667  142.0234  159.2922 C   0  0  0  0  0  0  0  0  0  0  0  0
  152.7656  143.1873  159.1757 C   0  0  0  0  0  0  0  0  0  0  0  0
  153.4702  142.6223  160.4140 C   0  0  0  0  0  0  0  0  0  0  0  0
  152.8605  141.2615  160.0586 C   0  0  0  0  0  0  0  0  0  0  0  0
  151.4895  140.0796  157.7186 C   0  0  0  0  0  0  0  0  0  0  0  0
  151.0616  139.5051  156.4431 C   0  0  0  0  0  0  0  0  0  0  0  0
  151.2059  138.3130  156.1731 O   0  0  0  0  0  0  0  0  0  0  0  0
  147.4867  141.6919  153.7517 C   0  0  0  0  0  0  0  0  0  0  0  0
  146.2002  144.8347  153.6103 H   0  0  0  0  0  0  0  0  0  0  0  0
  145.7823  143.7240  152.2990 H   0  0  0  0  0  0  0  0  0  0  0  0
  147.4744  144.1311  152.6127 H   0  0  0  0  0  0  0  0  0  0  0  0
  145.1329  143.5249  155.4162 H   0  0  0  0  0  0  0  0  0  0  0  0
  145.3011  141.6101  156.9647 H   0  0  0  0  0  0  0  0  0  0  0  0
  146.5172  138.4828  156.3386 H   0  0  0  0  0  0  0  0  0  0  0  0
  146.2572  139.6021  157.6735 H   0  0  0  0  0  0  0  0  0  0  0  0
  147.8962  139.2652  157.1319 H   0  0  0  0  0  0  0  0  0  0  0  0
  148.4635  138.6520  155.0126 H   0  0  0  0  0  0  0  0  0  0  0  0
  148.9968  138.9998  152.4513 H   0  0  0  0  0  0  0  0  0  0  0  0
  150.6697  139.2281  153.7898 H   0  0  0  0  0  0  0  0  0  0  0  0
  150.0696  140.8310  153.5779 H   0  0  0  0  0  0  0  0  0  0  0  0
  149.8798  142.3690  155.1158 H   0  0  0  0  0  0  0  0  0  0  0  0
  150.9215  142.2771  159.9345 H   0  0  0  0  0  0  0  0  0  0  0  0
  153.3944  143.1385  158.2846 H   0  0  0  0  0  0  0  0  0  0  0  0
  152.3301  144.1779  159.3091 H   0  0  0  0  0  0  0  0  0  0  0  0
  154.5593  142.6593  160.3776 H   0  0  0  0  0  0  0  0  0  0  0  0
  153.0805  143.0310  161.3476 H   0  0  0  0  0  0  0  0  0  0  0  0
  152.5026  140.6841  160.9115 H   0  0  0  0  0  0  0  0  0  0  0  0
  153.5126  140.6693  159.4139 H   0  0  0  0  0  0  0  0  0  0  0  0
  151.9521  139.4379  158.4542 H   0  0  0  0  0  0  0  0  0  0  0  0
  148.0934  141.7327  152.8586 H   0  0  0  0  0  0  0  0  0  0  0  0
  1  2  1  0  0  0  0
  1 23  1  0  0  0  0
  1 24  1  0  0  0  0
  1 25  1  0  0  0  0
  2 22  1  0  0  0  0
  2  3  2  0  0  0  0
  3  4  1  0  0  0  0
  3 26  1  0  0  0  0
  4  5  2  0  0  0  0
  4 27  1  0  0  0  0
  5  6  1  0  0  0  0
  5  7  1  0  0  0  0
  6 28  1  0  0  0  0
  6 29  1  0  0  0  0
  6 30  1  0  0  0  0
  7  8  1  0  0  0  0
  7 22  2  0  0  0  0
  8  9  1  0  0  0  0
  8 10  1  0  0  0  0
  8 31  1  0  0  0  0
  9 32  1  0  0  0  0
 10 11  1  0  0  0  0
 10 33  1  0  0  0  0
 10 34  1  0  0  0  0
 11 20  1  0  0  0  0
 11 12  1  0  0  0  0
 12 13  2  0  0  0  0
 12 35  1  0  0  0  0
 13 14  1  0  0  0  0
 14 15  1  0  0  0  0
 14 19  2  0  0  0  0
 15 18  1  0  0  0  0
 15 16  1  0  0  0  0
 15 36  1  0  0  0  0
 16 17  1  0  0  0  0
 16 37  1  0  0  0  0
 16 38  1  0  0  0  0
 17 18  1  0  0  0  0
 17 39  1  0  0  0  0
 17 40  1  0  0  0  0
 18 41  1  0  0  0  0
 18 42  1  0  0  0  0
 19 20  1  0  0  0  0
 19 43  1  0  0  0  0
 20 21  2  0  0  0  0
 22 44  1  0  0  0  0
M  END
> <s_m_source_file>
AV-unprocessed.smi

> <i_m_source_file_index>
2530

> <i_lp_mmshare_version>
43012

> <i_f3d_flags>
0

> <s_epik_input>
W0NIM11jMVtjSF1bY0hdYyhbQ0gzXSljKFtjSF0xKVtDQEhdKFtPSF0pW0NIMl1uMltjSF1uYyhbY0hdYzI9TylbQ0hdM1tDSDJdW0NIMl1bQ0gyXTM=

> <s_epik_cmdline>
J2VwaWtfcHl0aG9uJywgJy1waCcsICc3LjAnLCAnLXRuJywgJzgnLCAnLW1hJywgJzIwMCcsICctbWV0YWxfYmluZGluZycsICctaW1hZScsICc8aW5maWxlLm1hZT4nLCAnLW9tYWUnLCAnPG91dGZpbGUubWFlPic=

> <r_lp_tautomer_probability>
1

> <r_epik_Ionization_Penalty>
2.57341e-05

> <r_epik_Ionization_Penalty_Charging>
5.39435e-08

> <r_epik_Ionization_Penalty_Neutral>
2.56801e-05

> <r_epik_State_Penalty>
-0

> <r_epik_Charging_Adjusted_Penalty>
5.39435e-08

> <i_epik_Tot_Q>
0

> <i_epik_Tot_abs_Q>
0

> <r_epik_Metal_State_Penalty>
-0

> <b_epik_Metal_Only>
0

> <s_lp_Force_Field>
OPLS_2005

> <r_lp_Energy>
28.9103

> <b_lp_Chiralities_Consistent>
1

> <s_lp_Variant>
AV-unprocessed.smi:2530-2

> <Gold.Version>
5.8.1

> <Gold.Id.Protein>
6NUR|6NUR_protein|mol2

> <Gold.PLP.Fitness>
45.2180

> <Gold.PLP.PLP>
-40.6667

> <Gold.PLP.part.hbond>
-2.0000

> <Gold.PLP.part.metal>
0.0000

> <Gold.PLP.part.buried>
-2.4598

> <Gold.PLP.part.nonpolar>
-35.8568

> <Gold.PLP.part.repulsive>
0.1141

> <Gold.PLP.ligand.clash>
0.0000

> <Gold.PLP.ligand.torsion>
0.7311

> <Gold.PLP.Chemscore.Hbond>
1.0000

> <Gold.PLP.Chemscore.CHOScore>
0.8787

> <Gold.PLP.Chemscore.Metal>
0.0000

> <Gold.Chemscore.Hbonds>
donor molecule, donor type, donor heavy atom, donor atom, acceptor molecule, acceptor atom, score
      L1  H     9    32       P1  7957  0.86
      L1  C    12    35       P1  8028  0.68

> <Gold.PLP.Chemscore.Internal.Correction>
0.3775

> <Gold.Rescore>
     Score         DG    S(hbond)    S(metal)    S(lipo)     H(rot)  DE(clash)    DE(int)     intcor
     14.37     -14.89       0.99        0.00      95.10       1.97       0.10       0.42       ----

> <Gold.Chemscore.Fitness>
14.3678

> <Gold.Chemscore.DG>
-14.8869

> <Gold.Chemscore.ZeroCoef>
-5.4800

> <Gold.Chemscore.Hbond>
0.9937

> <Gold.Chemscore.Metal>
0.0000

> <Gold.Chemscore.Lipo>
95.1039

> <Gold.Chemscore.Internal_Hbond>
0.0000

> <Gold.Chemscore.DEClash>
0.0990

> <Gold.Chemscore.DEInternal>
0.4202

> <Gold.Chemscore.Rot>
1.9684

> <Gold.Chemscore.Internal.Correction>
   9.000000E+99

> <Gold.Chemscore.Hbonds>
donor molecule, donor type, donor heavy atom, donor atom, acceptor molecule, acceptor atom, score
      L1  H     9    32       P1  7957  0.84

> <Gold.Chemscore.Hbond.Weighted>
-3.3189

> <Gold.Chemscore.Metal.Weighted>
-0.0000

> <Gold.Chemscore.Lipo.Weighted>
-11.1272

> <Gold.Chemscore.Internal_Hbond.Weighted>
0.0000

> <Gold.Chemscore.DEClash.Weighted>
0.0990

> <Gold.Chemscore.DEInternal.Weighted>
0.4202

> <Gold.Chemscore.Rot.Weighted>
5.0391

> <Gold.Chemscore.Internal.Correction.Weighted>
   9.000000E+99

> <Gold.Protein.RotatedTorsions>
[ 6907 6896 6895 6894 ] final  132.38 input  -60.11 | X-H torsion
[ 7974 7965 7964 7962 ] final  137.56 input  175.53 | X-H torsion
[ 8008 7997 7996 7995 ] final  174.71 input   59.86 | X-H torsion
[ 10167 10162 10161 10158 ] final -103.78 input  -65.29 | X-H torsion
[ 10718 10713 10712 10709 ] final   88.17 input   66.30 | X-H torsion
[ 10763 10752 10751 10750 ] final -129.55 input  -60.55 | X-H torsion
[ 11005 11000 10999 10996 ] final  155.37 input  -57.11 | X-H torsion

> <Gold.Protein.ActiveResidues>
 VAL166  LYS551  ARG553  GLY616  TRP617  ASP618  TYR619  PRO620  LYS621  CYS622 
 ASP623  PHE694  ASN695  SER759  ASP760  ASP761  ALA762  ILE779  LEU786  VAL792 
 PHE793  MET794  SER795  GLU796  ALA797  LYS798  CYS799  TRP800  GLU811  SER814 

> <Gold.Protein.RotatedAtoms>
  152.3330  133.5980  159.5822 H   0  0  0  0  0  0  0  0  0  0  0  0  # atno 6907 bound_to 6896
  150.7434  133.9839  159.3594 H   0  0  0  0  0  0  0  0  0  0  0  0  # atno 6908 bound_to 6896
  151.7711  135.0786  160.0411 H   0  0  0  0  0  0  0  0  0  0  0  0  # atno 6909 bound_to 6896
  144.9456  139.4879  143.5551 H   0  0  0  0  0  0  0  0  0  0  0  0  # atno 7974 bound_to 7965
  156.0946  140.1427  156.9548 H   0  0  0  0  0  0  0  0  0  0  0  0  # atno 8008 bound_to 7997
  154.4663  140.0925  156.7075 H   0  0  0  0  0  0  0  0  0  0  0  0  # atno 8009 bound_to 7997
  155.4863  140.3446  155.4350 H   0  0  0  0  0  0  0  0  0  0  0  0  # atno 8010 bound_to 7997
  140.2164  143.3708  152.1007 H   0  0  0  0  0  0  0  0  0  0  0  0  # atno 10167 bound_to 10162
  157.6947  131.0284  150.3234 H   0  0  0  0  0  0  0  0  0  0  0  0  # atno 10718 bound_to 10713
  154.8757  135.3892  154.3938 H   0  0  0  0  0  0  0  0  0  0  0  0  # atno 10763 bound_to 10752
  153.4670  135.7029  153.6021 H   0  0  0  0  0  0  0  0  0  0  0  0  # atno 10764 bound_to 10752
  153.4495  135.3837  155.2243 H   0  0  0  0  0  0  0  0  0  0  0  0  # atno 10765 bound_to 10752
  140.1575  134.8633  157.2532 H   0  0  0  0  0  0  0  0  0  0  0  0  # atno 11005 bound_to 11000
  146.3302  139.8506  142.8874 LP  0  0  0  0  0  0  0  0  0  0  0  0  # atno 17320 bound_to 7965
  145.2923  141.0171  143.3656 LP  0  0  0  0  0  0  0  0  0  0  0  0  # atno 17321 bound_to 7965
  139.5160  144.6972  151.5597 LP  0  0  0  0  0  0  0  0  0  0  0  0  # atno 17342 bound_to 10162
  140.6287  143.9119  150.6586 LP  0  0  0  0  0  0  0  0  0  0  0  0  # atno 17343 bound_to 10162
  156.3718  130.3865  149.7169 LP  0  0  0  0  0  0  0  0  0  0  0  0  # atno 17370 bound_to 10713
  156.4581  130.7939  151.2959 LP  0  0  0  0  0  0  0  0  0  0  0  0  # atno 17371 bound_to 10713
  140.2530  134.3660  155.7435 LP  0  0  0  0  0  0  0  0  0  0  0  0  # atno 17394 bound_to 11000
  141.2206  133.7327  156.8964 LP  0  0  0  0  0  0  0  0  0  0  0  0  # atno 17395 bound_to 11000

$$$$
