AV-unprocessed.smi:2597|AV-procd|sdf|10177|dock4
  -GOLD-   2272014193D 1   1.00000     0.00000
 Structure written by MMmdl.
 30 31  0  0  0  0  0  0  0  0  1 V2000
  149.2823  142.9698  157.4348 N   0  0  0  0  0  0  0  0  0  0  0  0
  150.3878  142.9364  158.3765 C   0  0  2  0  0  0  0  0  0  0  0  0
  151.4740  143.9484  157.9591 C   0  0  0  0  0  0  0  0  0  0  0  0
  152.6621  143.9169  158.9337 C   0  0  0  0  0  0  0  0  0  0  0  0
  153.2393  142.5004  159.0840 C   0  0  0  0  0  0  0  0  0  0  0  0
  152.1545  141.4945  159.5123 C   0  0  0  0  0  0  0  0  0  0  0  0
  150.9217  141.4908  158.5804 C   0  0  2  0  0  0  0  0  0  0  0  0
  151.1671  140.7371  157.3480 N   0  0  0  0  0  0  0  0  0  0  0  0
  151.6210  139.4373  157.2420 C   0  0  0  0  0  0  0  0  0  0  0  0
  151.7008  139.2276  155.8950 C   0  0  0  0  0  0  0  0  0  0  0  0
  152.1249  137.9999  155.1497 C   0  0  0  0  0  0  0  0  0  0  0  0
  152.3029  136.9836  156.1125 O   0  0  0  0  0  0  0  0  0  0  0  0
  151.3099  140.3930  155.2401 N   0  0  0  0  0  0  0  0  0  0  0  0
  150.9981  141.2906  156.1206 N   0  0  0  0  0  0  0  0  0  0  0  0
  149.9856  143.2717  159.3333 H   0  0  0  0  0  0  0  0  0  0  0  0
  150.1382  140.9415  159.1048 H   0  0  0  0  0  0  0  0  0  0  0  0
  148.4136  143.1098  157.9305 H   0  0  0  0  0  0  0  0  0  0  0  0
  149.3897  143.7549  156.8087 H   0  0  0  0  0  0  0  0  0  0  0  0
  151.8238  143.7541  156.9459 H   0  0  0  0  0  0  0  0  0  0  0  0
  151.0528  144.9544  157.9395 H   0  0  0  0  0  0  0  0  0  0  0  0
  153.4400  144.6005  158.5924 H   0  0  0  0  0  0  0  0  0  0  0  0
  152.3390  144.2811  159.9099 H   0  0  0  0  0  0  0  0  0  0  0  0
  153.6996  142.1870  158.1476 H   0  0  0  0  0  0  0  0  0  0  0  0
  154.0413  142.5087  159.8226 H   0  0  0  0  0  0  0  0  0  0  0  0
  152.5797  140.4923  159.5794 H   0  0  0  0  0  0  0  0  0  0  0  0
  151.8283  141.7486  160.5216 H   0  0  0  0  0  0  0  0  0  0  0  0
  151.8334  138.8048  158.0908 H   0  0  0  0  0  0  0  0  0  0  0  0
  151.3743  137.6897  154.4217 H   0  0  0  0  0  0  0  0  0  0  0  0
  153.0605  138.1649  154.6144 H   0  0  0  0  0  0  0  0  0  0  0  0
  152.2006  137.3633  156.9715 H   0  0  0  0  0  0  0  0  0  0  0  0
  1  2  1  0  0  0  0
  1 17  1  0  0  0  0
  1 18  1  0  0  0  0
  2 15  1  0  0  0  0
  2  7  1  0  0  0  0
  2  3  1  0  0  0  0
  3  4  1  0  0  0  0
  3 19  1  0  0  0  0
  3 20  1  0  0  0  0
  4  5  1  0  0  0  0
  4 21  1  0  0  0  0
  4 22  1  0  0  0  0
  5  6  1  0  0  0  0
  5 23  1  0  0  0  0
  5 24  1  0  0  0  0
  6  7  1  0  0  0  0
  6 25  1  0  0  0  0
  6 26  1  0  0  0  0
  7 16  1  0  0  0  0
  7  8  1  0  0  0  0
  8 14  1  0  0  0  0
  8  9  1  0  0  0  0
  9 10  2  0  0  0  0
  9 27  1  0  0  0  0
 10 11  1  0  0  0  0
 10 13  1  0  0  0  0
 11 12  1  0  0  0  0
 11 28  1  0  0  0  0
 11 29  1  0  0  0  0
 12 30  1  0  0  0  0
 13 14  2  0  0  0  0
M  END
> <s_m_source_file>
AV-unprocessed.smi

> <i_m_source_file_index>
2597

> <i_lp_mmshare_version>
43012

> <i_f3d_flags>
0

> <s_epik_input>
W05IMl1bQ0BIXTFbQ0gyXVtDSDJdW0NIMl1bQ0gyXVtDQEhdMW4yW2NIXWMobm4yKVtDSDJdW09IXQ==

> <s_epik_cmdline>
J2VwaWtfcHl0aG9uJywgJy1waCcsICc3LjAnLCAnLXRuJywgJzgnLCAnLW1hJywgJzIwMCcsICctbWV0YWxfYmluZGluZycsICctaW1hZScsICc8aW5maWxlLm1hZT4nLCAnLW9tYWUnLCAnPG91dGZpbGUubWFlPic=

> <r_lp_tautomer_probability>
1

> <r_epik_Ionization_Penalty>
2.21303

> <r_epik_Ionization_Penalty_Charging>
0

> <r_epik_Ionization_Penalty_Neutral>
2.21303

> <r_epik_State_Penalty>
2.3573

> <r_epik_Charging_Adjusted_Penalty>
2.3573

> <i_epik_Tot_Q>
0

> <i_epik_Tot_abs_Q>
0

> <r_epik_Metal_State_Penalty>
2.35724

> <b_epik_Metal_Only>
0

> <s_lp_Force_Field>
OPLS_2005

> <r_lp_Energy>
16.7408

> <b_lp_Chiralities_Consistent>
1

> <s_lp_Variant>
AV-unprocessed.smi:2597-8

> <Gold.Version>
5.8.1

> <Gold.Id.Protein>
6NUR|6NUR_protein|mol2

> <Gold.PLP.Fitness>
37.1151

> <Gold.PLP.PLP>
-28.8335

> <Gold.PLP.part.hbond>
-3.1947

> <Gold.PLP.part.metal>
0.0000

> <Gold.PLP.part.buried>
-3.7865

> <Gold.PLP.part.nonpolar>
-22.2973

> <Gold.PLP.part.repulsive>
0.0823

> <Gold.PLP.ligand.clash>
0.0000

> <Gold.PLP.ligand.torsion>
0.0778

> <Gold.PLP.Chemscore.Hbond>
2.7920

> <Gold.PLP.Chemscore.CHOScore>
0.0000

> <Gold.PLP.Chemscore.Metal>
0.0000

> <Gold.Chemscore.Hbonds>
donor molecule, donor type, donor heavy atom, donor atom, acceptor molecule, acceptor atom, score
      L1  H     1    18       P1  8028  1.00
      P1  H  7989  7998       L1    13  0.96
      P1  H 10752 10765       L1    12  0.98

> <Gold.PLP.Chemscore.Internal.Correction>
0.0612

> <Gold.Rescore>
     Score         DG    S(hbond)    S(metal)    S(lipo)     H(rot)  DE(clash)    DE(int)     intcor
     17.05     -18.70       2.59        0.00      78.97       1.82       0.10       1.55       ----

> <Gold.Chemscore.Fitness>
17.0482

> <Gold.Chemscore.DG>
-18.6987

> <Gold.Chemscore.ZeroCoef>
-5.4800

> <Gold.Chemscore.Hbond>
2.5881

> <Gold.Chemscore.Metal>
0.0000

> <Gold.Chemscore.Lipo>
78.9682

> <Gold.Chemscore.Internal_Hbond>
0.0000

> <Gold.Chemscore.DEClash>
0.1019

> <Gold.Chemscore.DEInternal>
1.5486

> <Gold.Chemscore.Rot>
1.8222

> <Gold.Chemscore.Internal.Correction>
   9.000000E+99

> <Gold.Chemscore.Hbonds>
donor molecule, donor type, donor heavy atom, donor atom, acceptor molecule, acceptor atom, score
      L1  H     1    18       P1  8028  0.85
      P1  H  7989  7998       L1    13  0.90
      P1  H 10752 10765       L1    12  0.35

> <Gold.Chemscore.Hbond.Weighted>
-8.6444

> <Gold.Chemscore.Metal.Weighted>
-0.0000

> <Gold.Chemscore.Lipo.Weighted>
-9.2393

> <Gold.Chemscore.Internal_Hbond.Weighted>
0.0000

> <Gold.Chemscore.DEClash.Weighted>
0.1019

> <Gold.Chemscore.DEInternal.Weighted>
1.5486

> <Gold.Chemscore.Rot.Weighted>
4.6649

> <Gold.Chemscore.Internal.Correction.Weighted>
   9.000000E+99

> <Gold.Protein.RotatedTorsions>
[ 6907 6896 6895 6894 ] final -105.57 input  -60.11 | X-H torsion
[ 7974 7965 7964 7962 ] final  -54.26 input  175.53 | X-H torsion
[ 8008 7997 7996 7995 ] final  -23.51 input   59.86 | X-H torsion
[ 10167 10162 10161 10158 ] final   68.90 input  -65.29 | X-H torsion
[ 10718 10713 10712 10709 ] final -125.52 input   66.30 | X-H torsion
[ 10763 10752 10751 10750 ] final -149.61 input  -60.55 | X-H torsion
[ 11005 11000 10999 10996 ] final  -66.76 input  -57.11 | X-H torsion

> <Gold.Protein.ActiveResidues>
 VAL166  LYS551  ARG553  GLY616  TRP617  ASP618  TYR619  PRO620  LYS621  CYS622 
 ASP623  PHE694  ASN695  SER759  ASP760  ASP761  ALA762  ILE779  LEU786  VAL792 
 PHE793  MET794  SER795  GLU796  ALA797  LYS798  CYS799  TRP800  GLU811  SER814 

> <Gold.Protein.RotatedAtoms>
  150.7343  134.0107  159.3668 H   0  0  0  0  0  0  0  0  0  0  0  0  # atno 6907 bound_to 6896
  151.8067  135.0691  160.0417 H   0  0  0  0  0  0  0  0  0  0  0  0  # atno 6908 bound_to 6896
  152.3102  133.5709  159.5712 H   0  0  0  0  0  0  0  0  0  0  0  0  # atno 6909 bound_to 6896
  145.8876  140.8096  142.9808 H   0  0  0  0  0  0  0  0  0  0  0  0  # atno 7974 bound_to 7965
  154.4581  140.1978  156.0322 H   0  0  0  0  0  0  0  0  0  0  0  0  # atno 8008 bound_to 7997
  156.0786  140.3274  155.7637 H   0  0  0  0  0  0  0  0  0  0  0  0  # atno 8009 bound_to 7997
  155.5148  140.0565  157.2908 H   0  0  0  0  0  0  0  0  0  0  0  0  # atno 8010 bound_to 7997
  140.0737  144.5131  150.7209 H   0  0  0  0  0  0  0  0  0  0  0  0  # atno 10167 bound_to 10162
  156.1683  130.6650  151.0145 H   0  0  0  0  0  0  0  0  0  0  0  0  # atno 10718 bound_to 10713
  154.8167  135.3305  154.7155 H   0  0  0  0  0  0  0  0  0  0  0  0  # atno 10763 bound_to 10752
  153.7794  135.6919  153.4895 H   0  0  0  0  0  0  0  0  0  0  0  0  # atno 10764 bound_to 10752
  153.1990  135.4523  155.0191 H   0  0  0  0  0  0  0  0  0  0  0  0  # atno 10765 bound_to 10752
  141.1490  133.6705  156.6188 H   0  0  0  0  0  0  0  0  0  0  0  0  # atno 11005 bound_to 11000
  144.6729  140.1479  143.7432 LP  0  0  0  0  0  0  0  0  0  0  0  0  # atno 17320 bound_to 7965
  145.8948  139.2396  143.1528 LP  0  0  0  0  0  0  0  0  0  0  0  0  # atno 17321 bound_to 7965
  140.7113  143.2507  151.4573 LP  0  0  0  0  0  0  0  0  0  0  0  0  # atno 17342 bound_to 10162
  139.5821  144.1687  152.1981 LP  0  0  0  0  0  0  0  0  0  0  0  0  # atno 17343 bound_to 10162
  157.6784  131.0844  150.7434 LP  0  0  0  0  0  0  0  0  0  0  0  0  # atno 17370 bound_to 10713
  156.7494  130.4764  149.5460 LP  0  0  0  0  0  0  0  0  0  0  0  0  # atno 17371 bound_to 10713
  140.3556  134.7731  157.4498 LP  0  0  0  0  0  0  0  0  0  0  0  0  # atno 17394 bound_to 11000
  140.0825  134.5711  155.8525 LP  0  0  0  0  0  0  0  0  0  0  0  0  # atno 17395 bound_to 11000

$$$$
