AV-unprocessed.smi:3303|AV-procd|sdf|12691|dock1
  -GOLD-   2272019 23D 1   1.00000     0.00000
 Structure written by MMmdl.
 44 45  0  0  0  0  0  0  0  0  2 V2000
  150.9530  138.5743  154.0252 C   0  0  0  0  0  0  0  0  0  0  0  0
  149.8464  138.9019  155.0498 C   0  0  2  0  0  0  0  0  0  0  0  0
  148.4505  138.5633  154.4875 C   0  0  0  0  0  0  0  0  0  0  0  0
  148.0345  139.5279  153.4362 N   0  3  1  0  0  0  0  0  0  0  0  0
  146.8070  139.1069  152.7241 C   0  0  0  0  0  0  0  0  0  0  0  0
  148.0168  140.9454  153.8995 C   0  0  1  0  0  0  0  0  0  0  0  0
  146.8695  141.2612  154.8836 C   0  0  0  0  0  0  0  0  0  0  0  0
  149.3971  141.3359  154.4653 C   0  0  0  0  0  0  0  0  0  0  0  0
  149.8669  140.3655  155.5654 C   0  0  2  0  0  0  0  0  0  0  0  0
  151.1823  140.7904  156.0329 N   0  0  0  0  0  0  0  0  0  0  0  0
  151.5349  140.1843  157.3089 C   0  0  0  0  0  0  0  0  0  0  0  0
  150.7127  140.8323  158.4308 C   0  0  0  0  0  0  0  0  0  0  0  0
  151.2241  142.2162  158.7833 C   0  0  0  0  0  0  0  0  0  0  0  0
  151.3205  143.2210  157.7968 C   0  0  0  0  0  0  0  0  0  0  0  0
  151.8113  144.4860  158.1735 C   0  0  0  0  0  0  0  0  0  0  0  0
  152.1862  144.6963  159.5144 C   0  0  0  0  0  0  0  0  0  0  0  0
  152.0528  143.6274  160.4231 C   0  0  0  0  0  0  0  0  0  0  0  0
  151.5838  142.4102  160.0724 N   0  0  0  0  0  0  0  0  0  0  0  0
  150.8722  139.1836  153.1255 H   0  0  0  0  0  0  0  0  0  0  0  0
  150.9004  137.5297  153.7180 H   0  0  0  0  0  0  0  0  0  0  0  0
  151.9470  138.7323  154.4442 H   0  0  0  0  0  0  0  0  0  0  0  0
  150.0035  138.2383  155.9001 H   0  0  0  0  0  0  0  0  0  0  0  0
  148.4583  137.5541  154.0732 H   0  0  0  0  0  0  0  0  0  0  0  0
  147.7137  138.5535  155.2910 H   0  0  0  0  0  0  0  0  0  0  0  0
  145.9636  139.0025  153.4072 H   0  0  0  0  0  0  0  0  0  0  0  0
  146.9643  138.1440  152.2374 H   0  0  0  0  0  0  0  0  0  0  0  0
  146.5398  139.8280  151.9510 H   0  0  0  0  0  0  0  0  0  0  0  0
  147.8525  141.5640  153.0160 H   0  0  0  0  0  0  0  0  0  0  0  0
  146.9067  142.3060  155.1932 H   0  0  0  0  0  0  0  0  0  0  0  0
  146.9172  140.6555  155.7879 H   0  0  0  0  0  0  0  0  0  0  0  0
  145.8914  141.1039  154.4289 H   0  0  0  0  0  0  0  0  0  0  0  0
  150.1242  141.3536  153.6524 H   0  0  0  0  0  0  0  0  0  0  0  0
  149.3620  142.3551  154.8528 H   0  0  0  0  0  0  0  0  0  0  0  0
  149.1730  140.4524  156.4027 H   0  0  0  0  0  0  0  0  0  0  0  0
  151.1893  141.7951  156.1399 H   0  0  0  0  0  0  0  0  0  0  0  0
  151.3385  139.1118  157.2746 H   0  0  0  0  0  0  0  0  0  0  0  0
  152.5970  140.3191  157.5128 H   0  0  0  0  0  0  0  0  0  0  0  0
  149.6652  140.9040  158.1338 H   0  0  0  0  0  0  0  0  0  0  0  0
  150.7364  140.2083  159.3256 H   0  0  0  0  0  0  0  0  0  0  0  0
  151.0282  143.0285  156.7750 H   0  0  0  0  0  0  0  0  0  0  0  0
  151.8995  145.2799  157.4466 H   0  0  0  0  0  0  0  0  0  0  0  0
  152.5671  145.6532  159.8390 H   0  0  0  0  0  0  0  0  0  0  0  0
  152.3315  143.7528  161.4590 H   0  0  0  0  0  0  0  0  0  0  0  0
  148.7669  139.4912  152.7414 H   0  0  0  0  0  0  0  0  0  0  0  0
  1  2  1  0  0  0  0
  1 19  1  0  0  0  0
  1 20  1  0  0  0  0
  1 21  1  0  0  0  0
  2  9  1  0  0  0  0
  2  3  1  0  0  0  0
  2 22  1  0  0  0  0
  3  4  1  0  0  0  0
  3 23  1  0  0  0  0
  3 24  1  0  0  0  0
  4  5  1  0  0  0  0
  4  6  1  0  0  0  0
  4 44  1  0  0  0  0
  5 25  1  0  0  0  0
  5 26  1  0  0  0  0
  5 27  1  0  0  0  0
  6  7  1  0  0  0  0
  6  8  1  0  0  0  0
  6 28  1  0  0  0  0
  7 29  1  0  0  0  0
  7 30  1  0  0  0  0
  7 31  1  0  0  0  0
  8  9  1  0  0  0  0
  8 32  1  0  0  0  0
  8 33  1  0  0  0  0
  9 10  1  0  0  0  0
  9 34  1  0  0  0  0
 10 11  1  0  0  0  0
 10 35  1  0  0  0  0
 11 12  1  0  0  0  0
 11 36  1  0  0  0  0
 11 37  1  0  0  0  0
 12 13  1  0  0  0  0
 12 38  1  0  0  0  0
 12 39  1  0  0  0  0
 13 18  1  0  0  0  0
 13 14  2  0  0  0  0
 14 15  1  0  0  0  0
 14 40  1  0  0  0  0
 15 16  2  0  0  0  0
 15 41  1  0  0  0  0
 16 17  1  0  0  0  0
 16 42  1  0  0  0  0
 17 18  2  0  0  0  0
 17 43  1  0  0  0  0
M  CHG  1   4   1
M  END
> <s_m_source_file>
AV-unprocessed.smi

> <i_m_source_file_index>
3303

> <i_lp_mmshare_version>
43012

> <i_f3d_flags>
0

> <s_epik_input>
W0NIM11bQ0BASF0xW0NIMl1OKFtDSDNdKVtDQEBIXShbQ0gzXSlbQ0gyXVtDQEhdMVtOSF1bQ0gyXVtDSDJdYzJbY0hdW2NIXVtjSF1bY0hdbjI=

> <s_epik_cmdline>
J2VwaWtfcHl0aG9uJywgJy1waCcsICc3LjAnLCAnLXRuJywgJzgnLCAnLW1hJywgJzIwMCcsICctbWV0YWxfYmluZGluZycsICctaW1hZScsICc8aW5maWxlLm1hZT4nLCAnLW9tYWUnLCAnPG91dGZpbGUubWFlPic=

> <r_epik_Ionization_Penalty>
2.31085

> <r_epik_Ionization_Penalty_Charging>
0.000313057

> <r_epik_Ionization_Penalty_Neutral>
2.31054

> <r_epik_State_Penalty>
2.4087

> <r_epik_Charging_Adjusted_Penalty>
2.40902

> <i_epik_Tot_Q>
1

> <i_epik_Tot_abs_Q>
1

> <r_epik_Metal_State_Penalty>
2.30979

> <b_epik_Metal_Only>
0

> <s_lp_Force_Field>
OPLS_2005

> <r_lp_Energy>
26.3276

> <b_lp_Chiralities_Consistent>
1

> <s_lp_Variant>
AV-unprocessed.smi:3303-35

> <Gold.Version>
5.8.1

> <Gold.Id.Protein>
6NUR|6NUR_protein|mol2

> <Gold.PLP.Fitness>
42.9647

> <Gold.PLP.PLP>
-40.3737

> <Gold.PLP.part.hbond>
-1.5132

> <Gold.PLP.part.metal>
0.0000

> <Gold.PLP.part.buried>
-4.3744

> <Gold.PLP.part.nonpolar>
-33.9176

> <Gold.PLP.part.repulsive>
0.0714

> <Gold.PLP.ligand.clash>
0.0000

> <Gold.PLP.ligand.torsion>
0.2191

> <Gold.PLP.Chemscore.Hbond>
1.0000

> <Gold.PLP.Chemscore.CHOScore>
0.0000

> <Gold.PLP.Chemscore.Metal>
0.0000

> <Gold.Chemscore.Hbonds>
donor molecule, donor type, donor heavy atom, donor atom, acceptor molecule, acceptor atom, score
      L1  H     4    44       P1  7957  1.00

> <Gold.PLP.Chemscore.Internal.Correction>
0.0292

> <Gold.Rescore>
     Score         DG    S(hbond)    S(metal)    S(lipo)     H(rot)  DE(clash)    DE(int)     intcor
     18.90     -19.74       0.96        0.00     123.50       1.33       0.59       0.26       ----

> <Gold.Chemscore.Fitness>
18.8971

> <Gold.Chemscore.DG>
-19.7449

> <Gold.Chemscore.ZeroCoef>
-5.4800

> <Gold.Chemscore.Hbond>
0.9620

> <Gold.Chemscore.Metal>
0.0000

> <Gold.Chemscore.Lipo>
123.4994

> <Gold.Chemscore.Internal_Hbond>
0.0000

> <Gold.Chemscore.DEClash>
0.5894

> <Gold.Chemscore.DEInternal>
0.2583

> <Gold.Chemscore.Rot>
1.3272

> <Gold.Chemscore.Internal.Correction>
   9.000000E+99

> <Gold.Chemscore.Hbonds>
donor molecule, donor type, donor heavy atom, donor atom, acceptor molecule, acceptor atom, score
      L1  H     4    44       P1  7957  0.98

> <Gold.Chemscore.Hbond.Weighted>
-3.2131

> <Gold.Chemscore.Metal.Weighted>
-0.0000

> <Gold.Chemscore.Lipo.Weighted>
-14.4494

> <Gold.Chemscore.Internal_Hbond.Weighted>
0.0000

> <Gold.Chemscore.DEClash.Weighted>
0.5894

> <Gold.Chemscore.DEInternal.Weighted>
0.2583

> <Gold.Chemscore.Rot.Weighted>
3.3976

> <Gold.Chemscore.Internal.Correction.Weighted>
   9.000000E+99

> <Gold.Protein.RotatedTorsions>
[ 6907 6896 6895 6894 ] final  154.72 input  -60.11 | X-H torsion
[ 7974 7965 7964 7962 ] final   65.26 input  175.53 | X-H torsion
[ 8008 7997 7996 7995 ] final -178.70 input   59.86 | X-H torsion
[ 10167 10162 10161 10158 ] final -162.03 input  -65.29 | X-H torsion
[ 10718 10713 10712 10709 ] final -159.01 input   66.30 | X-H torsion
[ 10763 10752 10751 10750 ] final  175.82 input  -60.55 | X-H torsion
[ 11005 11000 10999 10996 ] final  -48.77 input  -57.11 | X-H torsion

> <Gold.Protein.ActiveResidues>
 VAL166  LYS551  ARG553  GLY616  TRP617  ASP618  TYR619  PRO620  LYS621  CYS622 
 ASP623  PHE694  ASN695  SER759  ASP760  ASP761  ALA762  ILE779  LEU786  VAL792 
 PHE793  MET794  SER795  GLU796  ALA797  LYS798  CYS799  TRP800  GLU811  SER814 

> <Gold.Protein.RotatedAtoms>
  152.0545  133.4034  159.4390 H   0  0  0  0  0  0  0  0  0  0  0  0  # atno 6907 bound_to 6896
  150.6868  134.3270  159.4820 H   0  0  0  0  0  0  0  0  0  0  0  0  # atno 6908 bound_to 6896
  152.1084  134.9291  160.0618 H   0  0  0  0  0  0  0  0  0  0  0  0  # atno 6909 bound_to 6896
  145.8405  139.3193  143.0934 H   0  0  0  0  0  0  0  0  0  0  0  0  # atno 7974 bound_to 7965
  156.0219  140.1263  157.0349 H   0  0  0  0  0  0  0  0  0  0  0  0  # atno 8008 bound_to 7997
  154.4315  140.1067  156.6046 H   0  0  0  0  0  0  0  0  0  0  0  0  # atno 8009 bound_to 7997
  155.5932  140.3469  155.4575 H   0  0  0  0  0  0  0  0  0  0  0  0  # atno 8010 bound_to 7997
  139.6422  144.0239  152.2100 H   0  0  0  0  0  0  0  0  0  0  0  0  # atno 10167 bound_to 10162
  156.5622  130.8652  151.2813 H   0  0  0  0  0  0  0  0  0  0  0  0  # atno 10718 bound_to 10713
  154.4728  135.2772  155.1629 H   0  0  0  0  0  0  0  0  0  0  0  0  # atno 10763 bound_to 10752
  154.3371  135.6178  153.5582 H   0  0  0  0  0  0  0  0  0  0  0  0  # atno 10764 bound_to 10752
  152.9866  135.5779  154.5113 H   0  0  0  0  0  0  0  0  0  0  0  0  # atno 10765 bound_to 10752
  141.0720  133.6676  156.3490 H   0  0  0  0  0  0  0  0  0  0  0  0  # atno 11005 bound_to 11000
  145.9470  140.8937  143.0278 LP  0  0  0  0  0  0  0  0  0  0  0  0  # atno 17320 bound_to 7965
  144.6734  140.1627  143.7421 LP  0  0  0  0  0  0  0  0  0  0  0  0  # atno 17321 bound_to 7965
  139.9931  144.6347  150.7796 LP  0  0  0  0  0  0  0  0  0  0  0  0  # atno 17342 bound_to 10162
  140.7496  143.2942  151.3249 LP  0  0  0  0  0  0  0  0  0  0  0  0  # atno 17343 bound_to 10162
  157.7366  130.9781  150.2146 LP  0  0  0  0  0  0  0  0  0  0  0  0  # atno 17370 bound_to 10713
  156.2789  130.3731  149.7955 LP  0  0  0  0  0  0  0  0  0  0  0  0  # atno 17371 bound_to 10713
  140.5652  134.5894  157.5444 LP  0  0  0  0  0  0  0  0  0  0  0  0  # atno 17394 bound_to 11000
  139.9533  134.7578  156.0398 LP  0  0  0  0  0  0  0  0  0  0  0  0  # atno 17395 bound_to 11000

$$$$
