AV-unprocessed.smi:229|AV-procd|sdf|1755|dock6
  -GOLD-   2262020283D 1   1.00000     0.00000
 Structure written by MMmdl.
 58 62  0  0  0  0  0  0  0  0  1 V2000
  145.6446  135.5965  162.1681 C   0  0  0  0  0  0  0  0  0  0  0  0
  146.8186  134.6212  162.3275 C   0  0  0  0  0  0  0  0  0  0  0  0
  147.7351  134.5496  161.0951 C   0  0  2  0  0  0  0  0  0  0  0  0
  148.2730  135.9263  160.6654 C   0  0  0  0  0  0  0  0  0  0  0  0
  149.0349  135.7987  159.4299 N   0  0  0  0  0  0  0  0  0  0  0  0
  149.8325  136.8553  159.1301 C   0  0  0  0  0  0  0  0  0  0  0  0
  151.1749  136.7727  159.3347 N   0  0  0  0  0  0  0  0  0  0  0  0
  151.9695  137.8049  159.0362 C   0  0  0  0  0  0  0  0  0  0  0  0
  151.6375  138.9961  158.5352 N   0  0  0  0  0  0  0  0  0  0  0  0
  150.2917  139.0890  158.3367 C   0  0  0  0  0  0  0  0  0  0  0  0
  149.3260  138.0778  158.6037 C   0  0  0  0  0  0  0  0  0  0  0  0
  148.0552  138.5446  158.2861 N   0  0  0  0  0  0  0  0  0  0  0  0
  148.2594  139.7573  157.8483 C   0  0  0  0  0  0  0  0  0  0  0  0
  149.5738  140.1646  157.8473 N   0  0  0  0  0  0  0  0  0  0  0  0
  150.0891  141.4545  157.4238 C   0  0  0  0  0  0  0  0  0  0  0  0
  149.6541  142.5981  158.3651 C   0  0  2  0  0  0  0  0  0  0  0  0
  148.3891  143.0625  157.9347 O   0  0  0  0  0  0  0  0  0  0  0  0
  150.6242  143.7957  158.3502 C   0  0  2  0  0  0  0  0  0  0  0  0
  152.0956  143.4294  158.5580 C   0  0  0  0  0  0  0  0  0  0  0  0
  152.7077  144.7017  159.1203 C   0  0  0  0  0  0  0  0  0  0  0  0
  151.5005  145.5005  159.6169 C   0  0  0  0  0  0  0  0  0  0  0  0
  150.3926  144.6213  159.4824 O   0  0  0  0  0  0  0  0  0  0  0  0
  148.2710  135.1812  158.3500 C   0  0  0  0  0  0  0  0  0  0  0  0
  147.6826  133.8238  158.7961 C   0  0  2  0  0  0  0  0  0  0  0  0
  148.7276  132.7070  158.9074 C   0  0  0  0  0  0  0  0  0  0  0  0
  148.4928  131.8603  157.6643 C   0  0  0  0  0  0  0  0  0  0  0  0
  147.0864  131.9205  157.5212 O   0  0  0  0  0  0  0  0  0  0  0  0
  146.7042  133.2704  157.7424 C   0  0  0  0  0  0  0  0  0  0  0  0
  146.9683  133.9964  160.0241 O   0  0  0  0  0  0  0  0  0  0  0  0
  145.0656  135.6557  163.0899 H   0  0  0  0  0  0  0  0  0  0  0  0
  144.9661  135.2822  161.3753 H   0  0  0  0  0  0  0  0  0  0  0  0
  145.9963  136.6011  161.9323 H   0  0  0  0  0  0  0  0  0  0  0  0
  147.4111  134.9354  163.1875 H   0  0  0  0  0  0  0  0  0  0  0  0
  146.4408  133.6267  162.5671 H   0  0  0  0  0  0  0  0  0  0  0  0
  148.5713  133.8876  161.3239 H   0  0  0  0  0  0  0  0  0  0  0  0
  147.4466  136.6189  160.5001 H   0  0  0  0  0  0  0  0  0  0  0  0
  148.8828  136.3487  161.4621 H   0  0  0  0  0  0  0  0  0  0  0  0
  153.0217  137.6550  159.2276 H   0  0  0  0  0  0  0  0  0  0  0  0
  147.4514  140.3943  157.5188 H   0  0  0  0  0  0  0  0  0  0  0  0
  151.1759  141.3786  157.3840 H   0  0  0  0  0  0  0  0  0  0  0  0
  149.7529  141.6492  156.4043 H   0  0  0  0  0  0  0  0  0  0  0  0
  149.5611  142.2151  159.3824 H   0  0  0  0  0  0  0  0  0  0  0  0
  148.4972  143.4792  157.0931 H   0  0  0  0  0  0  0  0  0  0  0  0
  150.5148  144.3812  157.4349 H   0  0  0  0  0  0  0  0  0  0  0  0
  152.1823  142.6288  159.2943 H   0  0  0  0  0  0  0  0  0  0  0  0
  152.5833  143.0977  157.6409 H   0  0  0  0  0  0  0  0  0  0  0  0
  153.4095  144.4789  159.9247 H   0  0  0  0  0  0  0  0  0  0  0  0
  153.2425  145.2582  158.3498 H   0  0  0  0  0  0  0  0  0  0  0  0
  151.6127  145.8299  160.6502 H   0  0  0  0  0  0  0  0  0  0  0  0
  151.3400  146.3814  158.9936 H   0  0  0  0  0  0  0  0  0  0  0  0
  147.4632  135.8567  158.0633 H   0  0  0  0  0  0  0  0  0  0  0  0
  148.9018  135.0416  157.4707 H   0  0  0  0  0  0  0  0  0  0  0  0
  149.7530  133.0709  158.9796 H   0  0  0  0  0  0  0  0  0  0  0  0
  148.5312  132.0927  159.7870 H   0  0  0  0  0  0  0  0  0  0  0  0
  148.9754  132.3001  156.7900 H   0  0  0  0  0  0  0  0  0  0  0  0
  148.8449  130.8351  157.7787 H   0  0  0  0  0  0  0  0  0  0  0  0
  145.6619  133.3330  158.0562 H   0  0  0  0  0  0  0  0  0  0  0  0
  146.7953  133.8090  156.7978 H   0  0  0  0  0  0  0  0  0  0  0  0
  1  2  1  0  0  0  0
  1 30  1  0  0  0  0
  1 31  1  0  0  0  0
  1 32  1  0  0  0  0
  2  3  1  0  0  0  0
  2 33  1  0  0  0  0
  2 34  1  0  0  0  0
  3 29  1  0  0  0  0
  3  4  1  0  0  0  0
  3 35  1  0  0  0  0
  4  5  1  0  0  0  0
  4 36  1  0  0  0  0
  4 37  1  0  0  0  0
  5  6  1  0  0  0  0
  5 23  1  0  0  0  0
  6 11  1  0  0  0  0
  6  7  2  0  0  0  0
  7  8  1  0  0  0  0
  8  9  2  0  0  0  0
  8 38  1  0  0  0  0
  9 10  1  0  0  0  0
 10 14  1  0  0  0  0
 10 11  2  0  0  0  0
 11 12  1  0  0  0  0
 12 13  2  0  0  0  0
 13 14  1  0  0  0  0
 13 39  1  0  0  0  0
 14 15  1  0  0  0  0
 15 16  1  0  0  0  0
 15 40  1  0  0  0  0
 15 41  1  0  0  0  0
 16 17  1  0  0  0  0
 16 18  1  0  0  0  0
 16 42  1  0  0  0  0
 17 43  1  0  0  0  0
 18 22  1  0  0  0  0
 18 19  1  0  0  0  0
 18 44  1  0  0  0  0
 19 20  1  0  0  0  0
 19 45  1  0  0  0  0
 19 46  1  0  0  0  0
 20 21  1  0  0  0  0
 20 47  1  0  0  0  0
 20 48  1  0  0  0  0
 21 22  1  0  0  0  0
 21 49  1  0  0  0  0
 21 50  1  0  0  0  0
 23 24  1  0  0  0  0
 23 51  1  0  0  0  0
 23 52  1  0  0  0  0
 24 28  1  0  0  0  0
 24 25  1  0  0  0  0
 24 29  1  0  0  0  0
 25 26  1  0  0  0  0
 25 53  1  0  0  0  0
 25 54  1  0  0  0  0
 26 27  1  0  0  0  0
 26 55  1  0  0  0  0
 26 56  1  0  0  0  0
 27 28  1  0  0  0  0
 28 57  1  0  0  0  0
 28 58  1  0  0  0  0
M  END
> <s_m_source_file>
AV-unprocessed.smi

> <i_m_source_file_index>
229

> <i_lp_mmshare_version>
43012

> <i_f3d_flags>
0

> <s_epik_input>
W0NIMl0xT1tDSDJdW0NIMl1bQ0BdMTJbQ0gyXU4oW0NIMl1bQ0BIXShPMilbQ0gyXVtDSDNdKWMobltjSF1uMyljKGMzNCluW2NIXW40W0NIMl1bQ0BIXShbT0hdKVtDQEBIXTVbQ0gyXVtDSDJdW0NIMl1PNQ==

> <s_epik_cmdline>
J2VwaWtfcHl0aG9uJywgJy1waCcsICc3LjAnLCAnLXRuJywgJzgnLCAnLW1hJywgJzIwMCcsICctbWV0YWxfYmluZGluZycsICctaW1hZScsICc8aW5maWxlLm1hZT4nLCAnLW9tYWUnLCAnPG91dGZpbGUubWFlPic=

> <r_lp_tautomer_probability>
1

> <r_epik_Ionization_Penalty>
0.00318402

> <r_epik_Ionization_Penalty_Charging>
0

> <r_epik_Ionization_Penalty_Neutral>
0.00318402

> <r_epik_State_Penalty>
0.00215642

> <r_epik_Charging_Adjusted_Penalty>
0.00215642

> <i_epik_Tot_Q>
0

> <i_epik_Tot_abs_Q>
0

> <r_epik_Metal_State_Penalty>
-0

> <b_epik_Metal_Only>
0

> <s_lp_Force_Field>
OPLS_2005

> <r_lp_Energy>
54.5162

> <b_lp_Chiralities_Consistent>
1

> <s_lp_Variant>
AV-unprocessed.smi:229-9

> <Gold.Version>
5.8.1

> <Gold.Id.Protein>
6NUR|6NUR_protein|mol2

> <Gold.PLP.Fitness>
44.1060

> <Gold.PLP.PLP>
-39.2271

> <Gold.PLP.part.hbond>
-4.5767

> <Gold.PLP.part.metal>
0.0000

> <Gold.PLP.part.buried>
-4.2279

> <Gold.PLP.part.nonpolar>
-30.7814

> <Gold.PLP.part.repulsive>
0.1599

> <Gold.PLP.ligand.clash>
0.0000

> <Gold.PLP.ligand.torsion>
0.7727

> <Gold.PLP.Chemscore.Hbond>
2.0000

> <Gold.PLP.Chemscore.CHOScore>
0.0000

> <Gold.PLP.Chemscore.Metal>
0.0000

> <Gold.Chemscore.Hbonds>
donor molecule, donor type, donor heavy atom, donor atom, acceptor molecule, acceptor atom, score
      L1  H    17    43       P1  8028  0.85
      P1  H  6896  6908       L1     7  0.95

> <Gold.PLP.Chemscore.Internal.Correction>
0.4243

> <Gold.Rescore>
     Score         DG    S(hbond)    S(metal)    S(lipo)     H(rot)  DE(clash)    DE(int)     intcor
     15.50     -16.41       1.59        0.00     101.79       2.46       0.15       0.76       ----

> <Gold.Chemscore.Fitness>
15.5010

> <Gold.Chemscore.DG>
-16.4116

> <Gold.Chemscore.ZeroCoef>
-5.4800

> <Gold.Chemscore.Hbond>
1.5919

> <Gold.Chemscore.Metal>
0.0000

> <Gold.Chemscore.Lipo>
101.7937

> <Gold.Chemscore.Internal_Hbond>
0.0000

> <Gold.Chemscore.DEClash>
0.1481

> <Gold.Chemscore.DEInternal>
0.7625

> <Gold.Chemscore.Rot>
2.4591

> <Gold.Chemscore.Internal.Correction>
   9.000000E+99

> <Gold.Chemscore.Hbonds>
donor molecule, donor type, donor heavy atom, donor atom, acceptor molecule, acceptor atom, score
      L1  H    17    43       P1  8028  0.15
      P1  H  6896  6908       L1     7  0.21

> <Gold.Chemscore.Hbond.Weighted>
-5.3170

> <Gold.Chemscore.Metal.Weighted>
-0.0000

> <Gold.Chemscore.Lipo.Weighted>
-11.9099

> <Gold.Chemscore.Internal_Hbond.Weighted>
0.0000

> <Gold.Chemscore.DEClash.Weighted>
0.1481

> <Gold.Chemscore.DEInternal.Weighted>
0.7625

> <Gold.Chemscore.Rot.Weighted>
6.2953

> <Gold.Chemscore.Internal.Correction.Weighted>
   9.000000E+99

> <Gold.Protein.RotatedTorsions>
[ 6907 6896 6895 6894 ] final -139.70 input  -60.11 | X-H torsion
[ 7974 7965 7964 7962 ] final  119.48 input  175.53 | X-H torsion
[ 8008 7997 7996 7995 ] final   -8.21 input   59.86 | X-H torsion
[ 10167 10162 10161 10158 ] final -114.29 input  -65.29 | X-H torsion
[ 10718 10713 10712 10709 ] final  138.57 input   66.30 | X-H torsion
[ 10763 10752 10751 10750 ] final  156.28 input  -60.55 | X-H torsion
[ 11005 11000 10999 10996 ] final -114.43 input  -57.11 | X-H torsion

> <Gold.Protein.ActiveResidues>
 VAL166  LYS551  ARG553  GLY616  TRP617  ASP618  TYR619  PRO620  LYS621  CYS622 
 ASP623  PHE694  ASN695  SER759  ASP760  ASP761  ALA762  ILE779  LEU786  VAL792 
 PHE793  MET794  SER795  GLU796  ALA797  LYS798  CYS799  TRP800  GLU811  SER814 

> <Gold.Protein.RotatedAtoms>
  151.0512  133.5623  159.2641 H   0  0  0  0  0  0  0  0  0  0  0  0  # atno 6907 bound_to 6896
  151.2633  135.0660  159.9116 H   0  0  0  0  0  0  0  0  0  0  0  0  # atno 6908 bound_to 6896
  152.5382  134.0254  159.8054 H   0  0  0  0  0  0  0  0  0  0  0  0  # atno 6909 bound_to 6896
  145.1427  139.3258  143.4608 H   0  0  0  0  0  0  0  0  0  0  0  0  # atno 7974 bound_to 7965
  154.5763  140.2387  155.8118 H   0  0  0  0  0  0  0  0  0  0  0  0  # atno 8008 bound_to 7997
  156.2145  140.3016  155.9765 H   0  0  0  0  0  0  0  0  0  0  0  0  # atno 8009 bound_to 7997
  155.2622  140.0415  157.2989 H   0  0  0  0  0  0  0  0  0  0  0  0  # atno 8010 bound_to 7997
  140.1026  143.4599  152.1803 H   0  0  0  0  0  0  0  0  0  0  0  0  # atno 10167 bound_to 10162
  157.4238  131.1041  151.0324 H   0  0  0  0  0  0  0  0  0  0  0  0  # atno 10718 bound_to 10713
  154.1818  135.2799  155.3049 H   0  0  0  0  0  0  0  0  0  0  0  0  # atno 10763 bound_to 10752
  154.5996  135.5534  153.7364 H   0  0  0  0  0  0  0  0  0  0  0  0  # atno 10764 bound_to 10752
  153.0136  135.6388  154.1957 H   0  0  0  0  0  0  0  0  0  0  0  0  # atno 10765 bound_to 10752
  141.0552  133.9624  157.2766 H   0  0  0  0  0  0  0  0  0  0  0  0  # atno 11005 bound_to 11000
  146.3503  140.1470  142.8593 LP  0  0  0  0  0  0  0  0  0  0  0  0  # atno 17320 bound_to 7965
  145.0515  140.9021  143.4992 LP  0  0  0  0  0  0  0  0  0  0  0  0  # atno 17321 bound_to 7965
  139.5663  144.7437  151.4013 LP  0  0  0  0  0  0  0  0  0  0  0  0  # atno 17342 bound_to 10162
  140.6970  143.7726  150.7342 LP  0  0  0  0  0  0  0  0  0  0  0  0  # atno 17343 bound_to 10162
  157.1245  130.6076  149.5513 LP  0  0  0  0  0  0  0  0  0  0  0  0  # atno 17370 bound_to 10713
  155.9889  130.4935  150.7193 LP  0  0  0  0  0  0  0  0  0  0  0  0  # atno 17371 bound_to 10713
  139.9384  135.0194  156.8630 LP  0  0  0  0  0  0  0  0  0  0  0  0  # atno 17394 bound_to 11000
  140.5978  134.0201  155.7525 LP  0  0  0  0  0  0  0  0  0  0  0  0  # atno 17395 bound_to 11000

$$$$
