AV-unprocessed.smi:2499|AV-procd|sdf|9839|dock3
  -GOLD-   2272013463D 1   1.00000     0.00000
 Structure written by MMmdl.
 26 27  0  0  0  0  0  0  0  0  2 V2000
  153.0526  142.0700  160.7972 C   0  0  0  0  0  0  0  0  0  0  0  0
  152.3647  142.3098  159.4463 C   0  0  2  0  0  0  0  0  0  0  0  0
  152.6658  141.1850  158.5651 N   0  0  0  0  0  0  0  0  0  0  0  0
  151.9994  140.8472  157.4512 C   0  0  0  0  0  0  0  0  0  0  0  0
  151.0254  141.5112  157.0896 O   0  0  0  0  0  0  0  0  0  0  0  0
  152.5038  139.7599  156.8251 N   0  5  0  0  0  0  0  0  0  0  0  0
  151.8280  139.2011  155.8083 C   0  0  0  0  0  0  0  0  0  0  0  0
  150.8933  139.7908  155.0609 N   0  0  0  0  0  0  0  0  0  0  0  0
  150.4772  138.8333  154.1489 C   0  0  0  0  0  0  0  0  0  0  0  0
  151.1831  137.6870  154.3925 C   0  0  0  0  0  0  0  0  0  0  0  0
  152.0358  137.9054  155.4390 O   0  0  0  0  0  0  0  0  0  0  0  0
  152.7652  143.6568  158.8672 C   0  0  0  0  0  0  0  0  0  0  0  0
  152.0640  144.9252  159.2928 C   0  0  0  0  0  0  0  0  0  0  0  0
  151.8759  144.3916  157.8918 C   0  0  0  0  0  0  0  0  0  0  0  0
  152.8091  142.8596  161.5085 H   0  0  0  0  0  0  0  0  0  0  0  0
  154.1377  142.0415  160.6906 H   0  0  0  0  0  0  0  0  0  0  0  0
  152.7357  141.1238  161.2374 H   0  0  0  0  0  0  0  0  0  0  0  0
  151.2889  142.3269  159.6314 H   0  0  0  0  0  0  0  0  0  0  0  0
  153.4547  140.6092  158.8198 H   0  0  0  0  0  0  0  0  0  0  0  0
  149.7193  139.0410  153.4083 H   0  0  0  0  0  0  0  0  0  0  0  0
  151.1985  136.7032  153.9485 H   0  0  0  0  0  0  0  0  0  0  0  0
  153.8361  143.7526  158.6968 H   0  0  0  0  0  0  0  0  0  0  0  0
  151.2248  144.8353  159.9795 H   0  0  0  0  0  0  0  0  0  0  0  0
  152.6728  145.8188  159.4138 H   0  0  0  0  0  0  0  0  0  0  0  0
  152.3608  144.9258  157.0775 H   0  0  0  0  0  0  0  0  0  0  0  0
  150.9108  143.9508  157.6502 H   0  0  0  0  0  0  0  0  0  0  0  0
  1  2  1  0  0  0  0
  1 15  1  0  0  0  0
  1 16  1  0  0  0  0
  1 17  1  0  0  0  0
  2  3  1  0  0  0  0
  2 12  1  0  0  0  0
  2 18  1  0  0  0  0
  3 19  1  0  0  0  0
  3  4  1  0  0  0  0
  4  6  1  0  0  0  0
  4  5  2  0  0  0  0
  6  7  1  0  0  0  0
  7 11  1  0  0  0  0
  7  8  2  0  0  0  0
  8  9  1  0  0  0  0
  9 20  1  0  0  0  0
  9 10  2  0  0  0  0
 10 21  1  0  0  0  0
 10 11  1  0  0  0  0
 12 14  1  0  0  0  0
 12 13  1  0  0  0  0
 12 22  1  0  0  0  0
 13 14  1  0  0  0  0
 13 23  1  0  0  0  0
 13 24  1  0  0  0  0
 14 25  1  0  0  0  0
 14 26  1  0  0  0  0
M  CHG  1   6  -1
M  END
> <s_m_source_file>
AV-unprocessed.smi

> <i_m_source_file_index>
2499

> <i_lp_mmshare_version>
43012

> <i_f3d_flags>
0

> <s_epik_input>
W0NIMl0xW0NIMl1bQ0hdMVtDQEhdKFtDSDNdKVtOSF1DKD1PKVtOSF1jMm5bY0hdW2NIXW8y

> <s_epik_cmdline>
J2VwaWtfcHl0aG9uJywgJy1waCcsICc3LjAnLCAnLXRuJywgJzgnLCAnLW1hJywgJzIwMCcsICctbWV0YWxfYmluZGluZycsICctaW1hZScsICc8aW5maWxlLm1hZT4nLCAnLW9tYWUnLCAnPG91dGZpbGUubWFlPic=

> <r_lp_tautomer_probability>
0.107061

> <r_epik_Ionization_Penalty>
11.2144

> <r_epik_Ionization_Penalty_Charging>
7.87172

> <r_epik_Ionization_Penalty_Neutral>
3.3427

> <r_epik_State_Penalty>
5.96777

> <r_epik_Charging_Adjusted_Penalty>
13.8395

> <i_epik_Tot_Q>
-1

> <i_epik_Tot_abs_Q>
1

> <r_epik_Metal_State_Penalty>
1.88989

> <b_epik_Metal_Only>
1

> <s_lp_Force_Field>
OPLS_2005

> <r_lp_Energy>
7.95905

> <b_lp_Chiralities_Consistent>
1

> <s_lp_Variant>
AV-unprocessed.smi:2499-9

> <Gold.Version>
5.8.1

> <Gold.Id.Protein>
6NUR|6NUR_protein|mol2

> <Gold.PLP.Fitness>
47.4801

> <Gold.PLP.PLP>
-34.6292

> <Gold.PLP.part.hbond>
-2.0000

> <Gold.PLP.part.metal>
0.0000

> <Gold.PLP.part.buried>
-4.6007

> <Gold.PLP.part.nonpolar>
-28.7136

> <Gold.PLP.part.repulsive>
0.2154

> <Gold.PLP.ligand.clash>
0.0000

> <Gold.PLP.ligand.torsion>
0.8573

> <Gold.PLP.Chemscore.Hbond>
2.5000

> <Gold.PLP.Chemscore.CHOScore>
1.9982

> <Gold.PLP.Chemscore.Metal>
0.0000

> <Gold.Chemscore.Hbonds>
donor molecule, donor type, donor heavy atom, donor atom, acceptor molecule, acceptor atom, score
      P1  H  7989  7998       L1     8  0.40
      P1  H  7997  8009       L1     6  2.00
      L1  C     9    20       P1  7957  1.00
      L1  C    10    21       P1  7949  0.93

> <Gold.PLP.Chemscore.Internal.Correction>
1.0708

> <Gold.Rescore>
     Score         DG    S(hbond)    S(metal)    S(lipo)     H(rot)  DE(clash)    DE(int)     intcor
     14.03     -16.73       1.61        0.00      78.11       1.28       0.14       2.56       ----

> <Gold.Chemscore.Fitness>
14.0337

> <Gold.Chemscore.DG>
-16.7283

> <Gold.Chemscore.ZeroCoef>
-5.4800

> <Gold.Chemscore.Hbond>
1.6109

> <Gold.Chemscore.Metal>
0.0000

> <Gold.Chemscore.Lipo>
78.1116

> <Gold.Chemscore.Internal_Hbond>
0.0000

> <Gold.Chemscore.DEClash>
0.1357

> <Gold.Chemscore.DEInternal>
2.5589

> <Gold.Chemscore.Rot>
1.2778

> <Gold.Chemscore.Internal.Correction>
   9.000000E+99

> <Gold.Chemscore.Hbonds>
donor molecule, donor type, donor heavy atom, donor atom, acceptor molecule, acceptor atom, score
      P1  H  7989  7998       L1     8  0.01
      P1  H  7997  8009       L1     6  0.57

> <Gold.Chemscore.Hbond.Weighted>
-5.3803

> <Gold.Chemscore.Metal.Weighted>
-0.0000

> <Gold.Chemscore.Lipo.Weighted>
-9.1391

> <Gold.Chemscore.Internal_Hbond.Weighted>
0.0000

> <Gold.Chemscore.DEClash.Weighted>
0.1357

> <Gold.Chemscore.DEInternal.Weighted>
2.5589

> <Gold.Chemscore.Rot.Weighted>
3.2711

> <Gold.Chemscore.Internal.Correction.Weighted>
   9.000000E+99

> <Gold.Protein.RotatedTorsions>
[ 6907 6896 6895 6894 ] final  173.56 input  -60.11 | X-H torsion
[ 7974 7965 7964 7962 ] final -160.03 input  175.53 | X-H torsion
[ 8008 7997 7996 7995 ] final -166.57 input   59.86 | X-H torsion
[ 10167 10162 10161 10158 ] final  107.12 input  -65.29 | X-H torsion
[ 10718 10713 10712 10709 ] final  129.98 input   66.30 | X-H torsion
[ 10763 10752 10751 10750 ] final  -96.96 input  -60.55 | X-H torsion
[ 11005 11000 10999 10996 ] final  -70.37 input  -57.11 | X-H torsion

> <Gold.Protein.ActiveResidues>
 VAL166  LYS551  ARG553  GLY616  TRP617  ASP618  TYR619  PRO620  LYS621  CYS622 
 ASP623  PHE694  ASN695  SER759  ASP760  ASP761  ALA762  ILE779  LEU786  VAL792 
 PHE793  MET794  SER795  GLU796  ALA797  LYS798  CYS799  TRP800  GLU811  SER814 

> <Gold.Protein.RotatedAtoms>
  151.7663  133.3337  159.3431 H   0  0  0  0  0  0  0  0  0  0  0  0  # atno 6907 bound_to 6896
  150.7478  134.6060  159.6070 H   0  0  0  0  0  0  0  0  0  0  0  0  # atno 6908 bound_to 6896
  152.3371  134.7185  160.0325 H   0  0  0  0  0  0  0  0  0  0  0  0  # atno 6909 bound_to 6896
  144.7442  140.3600  143.6098 H   0  0  0  0  0  0  0  0  0  0  0  0  # atno 7974 bound_to 7965
  155.8657  140.0985  157.1584 H   0  0  0  0  0  0  0  0  0  0  0  0  # atno 8008 bound_to 7997
  154.3993  140.1356  156.4079 H   0  0  0  0  0  0  0  0  0  0  0  0  # atno 8009 bound_to 7997
  155.7807  140.3458  155.5298 H   0  0  0  0  0  0  0  0  0  0  0  0  # atno 8010 bound_to 7997
  139.6953  144.7102  151.1277 H   0  0  0  0  0  0  0  0  0  0  0  0  # atno 10167 bound_to 10162
  157.5104  131.1096  150.9301 H   0  0  0  0  0  0  0  0  0  0  0  0  # atno 10718 bound_to 10713
  154.7286  135.5064  153.8927 H   0  0  0  0  0  0  0  0  0  0  0  0  # atno 10763 bound_to 10752
  153.0928  135.6664  153.9829 H   0  0  0  0  0  0  0  0  0  0  0  0  # atno 10764 bound_to 10752
  153.9636  135.3045  155.3411 H   0  0  0  0  0  0  0  0  0  0  0  0  # atno 10765 bound_to 10752
  141.1573  133.6788  156.6742 H   0  0  0  0  0  0  0  0  0  0  0  0  # atno 11005 bound_to 11000
  145.7187  139.1704  143.2497 LP  0  0  0  0  0  0  0  0  0  0  0  0  # atno 17320 bound_to 7965
  146.1293  140.7206  142.9420 LP  0  0  0  0  0  0  0  0  0  0  0  0  # atno 17321 bound_to 7965
  140.7694  143.5500  150.9215 LP  0  0  0  0  0  0  0  0  0  0  0  0  # atno 17342 bound_to 10162
  139.9179  143.6641  152.3102 LP  0  0  0  0  0  0  0  0  0  0  0  0  # atno 17343 bound_to 10162
  156.9943  130.5575  149.5306 LP  0  0  0  0  0  0  0  0  0  0  0  0  # atno 17370 bound_to 10713
  156.0285  130.5378  150.8472 LP  0  0  0  0  0  0  0  0  0  0  0  0  # atno 17371 bound_to 10713
  140.3151  134.8054  157.4208 LP  0  0  0  0  0  0  0  0  0  0  0  0  # atno 17394 bound_to 11000
  140.1144  134.5302  155.8237 LP  0  0  0  0  0  0  0  0  0  0  0  0  # atno 17395 bound_to 11000

$$$$
