AV-unprocessed.smi:2855|AV-procd|sdf|10986|dock6
  -GOLD-   2272015443D 1   1.00000     0.00000
 Structure written by MMmdl.
 46 47  0  0  0  0  0  0  0  0  2 V2000
  155.1651  140.2492  160.5109 C   0  0  0  0  0  0  0  0  0  0  0  0
  153.7214  140.7717  160.5234 C   0  0  1  0  0  0  0  0  0  0  0  0
  153.6626  142.2599  160.9224 C   0  0  0  0  0  0  0  0  0  0  0  0
  152.2237  142.8070  160.8703 C   0  0  0  0  0  0  0  0  0  0  0  0
  151.5882  142.6414  159.4665 C   0  0  1  0  0  0  0  0  0  0  0  0
  152.2411  143.5644  158.3772 C   0  0  0  0  0  0  0  0  0  0  0  0
  152.3090  145.0426  158.8130 C   0  0  0  0  0  0  0  0  0  0  0  0
  151.5320  143.5109  157.0097 C   0  0  0  0  0  0  0  0  0  0  0  0
  151.5910  141.1086  159.1747 C   0  0  1  0  0  0  0  0  0  0  0  0
  150.8696  140.7154  157.9681 N   0  0  0  0  0  0  0  0  0  0  0  0
  149.5744  140.9603  157.7159 C   0  0  0  0  0  0  0  0  0  0  0  0
  148.8316  141.5468  158.5041 O   0  0  0  0  0  0  0  0  0  0  0  0
  149.0383  140.4345  156.3776 C   0  0  0  0  0  0  0  0  0  0  0  0
  149.5684  139.1062  156.0306 N   0  0  0  0  0  0  0  0  0  0  0  0
  149.1355  138.0088  156.7959 C   0  0  0  0  0  0  0  0  0  0  0  0
  149.5628  136.7561  156.5475 C   0  0  0  0  0  0  0  0  0  0  0  0
  150.4994  136.5516  155.4495 C   0  0  0  0  0  0  0  0  0  0  0  0
  150.9016  135.4150  155.2091 O   0  0  0  0  0  0  0  0  0  0  0  0
  150.8881  137.6477  154.7345 N   0  5  0  0  0  0  0  0  0  0  0  0
  150.4456  138.9162  154.9992 C   0  0  0  0  0  0  0  0  0  0  0  0
  150.8129  139.8914  154.3434 O   0  0  0  0  0  0  0  0  0  0  0  0
  153.0202  140.5312  159.1707 C   0  0  0  0  0  0  0  0  0  0  0  0
  155.7700  140.7727  159.7700 H   0  0  0  0  0  0  0  0  0  0  0  0
  155.1954  139.1853  160.2740 H   0  0  0  0  0  0  0  0  0  0  0  0
  155.6395  140.3839  161.4833 H   0  0  0  0  0  0  0  0  0  0  0  0
  153.1772  140.2071  161.2818 H   0  0  0  0  0  0  0  0  0  0  0  0
  154.0608  142.3863  161.9298 H   0  0  0  0  0  0  0  0  0  0  0  0
  154.3064  142.8478  160.2679 H   0  0  0  0  0  0  0  0  0  0  0  0
  151.6195  142.2671  161.6009 H   0  0  0  0  0  0  0  0  0  0  0  0
  152.1959  143.8417  161.2076 H   0  0  0  0  0  0  0  0  0  0  0  0
  150.5485  142.9577  159.5615 H   0  0  0  0  0  0  0  0  0  0  0  0
  153.2699  143.2469  158.2136 H   0  0  0  0  0  0  0  0  0  0  0  0
  151.3262  145.4176  159.1001 H   0  0  0  0  0  0  0  0  0  0  0  0
  152.6807  145.6769  158.0079 H   0  0  0  0  0  0  0  0  0  0  0  0
  152.9897  145.1916  159.6504 H   0  0  0  0  0  0  0  0  0  0  0  0
  150.4578  143.6666  157.1144 H   0  0  0  0  0  0  0  0  0  0  0  0
  151.6934  142.5659  156.4953 H   0  0  0  0  0  0  0  0  0  0  0  0
  151.9091  144.2801  156.3354 H   0  0  0  0  0  0  0  0  0  0  0  0
  151.0692  140.6179  159.9993 H   0  0  0  0  0  0  0  0  0  0  0  0
  151.4001  140.2277  157.2610 H   0  0  0  0  0  0  0  0  0  0  0  0
  147.9470  140.4119  156.3979 H   0  0  0  0  0  0  0  0  0  0  0  0
  149.2937  141.1584  155.6028 H   0  0  0  0  0  0  0  0  0  0  0  0
  148.4374  138.2459  157.5852 H   0  0  0  0  0  0  0  0  0  0  0  0
  149.2187  135.9237  157.1434 H   0  0  0  0  0  0  0  0  0  0  0  0
  153.6032  140.9648  158.3581 H   0  0  0  0  0  0  0  0  0  0  0  0
  152.9809  139.4589  158.9746 H   0  0  0  0  0  0  0  0  0  0  0  0
  1  2  1  0  0  0  0
  1 23  1  0  0  0  0
  1 24  1  0  0  0  0
  1 25  1  0  0  0  0
  2 22  1  0  0  0  0
  2  3  1  0  0  0  0
  2 26  1  0  0  0  0
  3  4  1  0  0  0  0
  3 27  1  0  0  0  0
  3 28  1  0  0  0  0
  4  5  1  0  0  0  0
  4 29  1  0  0  0  0
  4 30  1  0  0  0  0
  5  6  1  0  0  0  0
  5  9  1  0  0  0  0
  5 31  1  0  0  0  0
  6  7  1  0  0  0  0
  6  8  1  0  0  0  0
  6 32  1  0  0  0  0
  7 33  1  0  0  0  0
  7 34  1  0  0  0  0
  7 35  1  0  0  0  0
  8 36  1  0  0  0  0
  8 37  1  0  0  0  0
  8 38  1  0  0  0  0
  9 10  1  0  0  0  0
  9 22  1  0  0  0  0
  9 39  1  0  0  0  0
 10 11  1  0  0  0  0
 10 40  1  0  0  0  0
 11 12  2  0  0  0  0
 11 13  1  0  0  0  0
 13 14  1  0  0  0  0
 13 41  1  0  0  0  0
 13 42  1  0  0  0  0
 14 20  1  0  0  0  0
 14 15  1  0  0  0  0
 15 16  2  0  0  0  0
 15 43  1  0  0  0  0
 16 17  1  0  0  0  0
 16 44  1  0  0  0  0
 17 18  2  0  0  0  0
 17 19  1  0  0  0  0
 19 20  1  0  0  0  0
 20 21  2  0  0  0  0
 22 45  1  0  0  0  0
 22 46  1  0  0  0  0
M  CHG  1  19  -1
M  END
> <s_m_source_file>
AV-unprocessed.smi

> <i_m_source_file_index>
2855

> <i_lp_mmshare_version>
43012

> <i_f3d_flags>
0

> <s_epik_input>
W0NIM11bQ0BASF0xW0NIMl1bQ0gyXVtDQEBIXShbQ0hdKFtDSDNdKVtDSDNdKVtDQEhdKFtDSDJdMSlbTkhdQyg9TylbQ0gyXW4yW2NIXVtjSF1jKD1PKVtuSF1jMj1P

> <s_epik_cmdline>
J2VwaWtfcHl0aG9uJywgJy1waCcsICc3LjAnLCAnLXRuJywgJzgnLCAnLW1hJywgJzIwMCcsICctbWV0YWxfYmluZGluZycsICctaW1hZScsICc8aW5maWxlLm1hZT4nLCAnLW9tYWUnLCAnPG91dGZpbGUubWFlPic=

> <r_lp_tautomer_probability>
0.999537

> <r_epik_Ionization_Penalty>
3.12102

> <r_epik_Ionization_Penalty_Charging>
2.9581e-08

> <r_epik_Ionization_Penalty_Neutral>
3.12102

> <r_epik_State_Penalty>
3.12011

> <r_epik_Charging_Adjusted_Penalty>
3.12011

> <i_epik_Tot_Q>
-1

> <i_epik_Tot_abs_Q>
1

> <r_epik_Metal_State_Penalty>
0.463583

> <b_epik_Metal_Only>
1

> <s_lp_Force_Field>
OPLS_2005

> <r_lp_Energy>
27.3846

> <b_lp_Chiralities_Consistent>
1

> <s_lp_Variant>
AV-unprocessed.smi:2855-10

> <Gold.Version>
5.8.1

> <Gold.Id.Protein>
6NUR|6NUR_protein|mol2

> <Gold.PLP.Fitness>
41.8728

> <Gold.PLP.PLP>
-36.6959

> <Gold.PLP.part.hbond>
-2.6709

> <Gold.PLP.part.metal>
0.0000

> <Gold.PLP.part.buried>
-6.1617

> <Gold.PLP.part.nonpolar>
-29.3199

> <Gold.PLP.part.repulsive>
0.5269

> <Gold.PLP.ligand.clash>
0.0000

> <Gold.PLP.ligand.torsion>
0.4184

> <Gold.PLP.Chemscore.Hbond>
1.9825

> <Gold.PLP.Chemscore.CHOScore>
0.0000

> <Gold.PLP.Chemscore.Metal>
0.0000

> <Gold.Chemscore.Hbonds>
donor molecule, donor type, donor heavy atom, donor atom, acceptor molecule, acceptor atom, score
      P1  H  7989  7998       L1    21  0.99
      P1  H 10752 10764       L1    18  0.78

> <Gold.PLP.Chemscore.Internal.Correction>
0.0663

> <Gold.Rescore>
     Score         DG    S(hbond)    S(metal)    S(lipo)     H(rot)  DE(clash)    DE(int)     intcor
     18.95     -19.72       1.83        0.00     109.00       1.81       0.24       0.52       ----

> <Gold.Chemscore.Fitness>
18.9535

> <Gold.Chemscore.DG>
-19.7166

> <Gold.Chemscore.ZeroCoef>
-5.4800

> <Gold.Chemscore.Hbond>
1.8314

> <Gold.Chemscore.Metal>
0.0000

> <Gold.Chemscore.Lipo>
109.0022

> <Gold.Chemscore.Internal_Hbond>
0.0000

> <Gold.Chemscore.DEClash>
0.2399

> <Gold.Chemscore.DEInternal>
0.5232

> <Gold.Chemscore.Rot>
1.8100

> <Gold.Chemscore.Internal.Correction>
   9.000000E+99

> <Gold.Chemscore.Hbonds>
donor molecule, donor type, donor heavy atom, donor atom, acceptor molecule, acceptor atom, score
      P1  H  7989  7998       L1    21  0.92
      P1  H 10752 10764       L1    18  0.52

> <Gold.Chemscore.Hbond.Weighted>
-6.1168

> <Gold.Chemscore.Metal.Weighted>
-0.0000

> <Gold.Chemscore.Lipo.Weighted>
-12.7533

> <Gold.Chemscore.Internal_Hbond.Weighted>
0.0000

> <Gold.Chemscore.DEClash.Weighted>
0.2399

> <Gold.Chemscore.DEInternal.Weighted>
0.5232

> <Gold.Chemscore.Rot.Weighted>
4.6335

> <Gold.Chemscore.Internal.Correction.Weighted>
   9.000000E+99

> <Gold.Protein.RotatedTorsions>
[ 6907 6896 6895 6894 ] final -137.00 input  -60.11 | X-H torsion
[ 7974 7965 7964 7962 ] final   41.85 input  175.53 | X-H torsion
[ 8008 7997 7996 7995 ] final   75.49 input   59.86 | X-H torsion
[ 10167 10162 10161 10158 ] final  147.41 input  -65.29 | X-H torsion
[ 10718 10713 10712 10709 ] final  110.45 input   66.30 | X-H torsion
[ 10763 10752 10751 10750 ] final  -47.17 input  -60.55 | X-H torsion
[ 11005 11000 10999 10996 ] final  -26.96 input  -57.11 | X-H torsion

> <Gold.Protein.ActiveResidues>
 VAL166  LYS551  ARG553  GLY616  TRP617  ASP618  TYR619  PRO620  LYS621  CYS622 
 ASP623  PHE694  ASN695  SER759  ASP760  ASP761  ALA762  ILE779  LEU786  VAL792 
 PHE793  MET794  SER795  GLU796  ALA797  LYS798  CYS799  TRP800  GLU811  SER814 

> <Gold.Protein.RotatedAtoms>
  151.0170  133.5912  159.2675 H   0  0  0  0  0  0  0  0  0  0  0  0  # atno 6907 bound_to 6896
  151.3043  135.0776  159.9259 H   0  0  0  0  0  0  0  0  0  0  0  0  # atno 6908 bound_to 6896
  152.5314  133.9846  159.7876 H   0  0  0  0  0  0  0  0  0  0  0  0  # atno 6909 bound_to 6896
  146.0789  139.5367  142.9550 H   0  0  0  0  0  0  0  0  0  0  0  0  # atno 7974 bound_to 7965
  155.8137  140.3472  155.5472 H   0  0  0  0  0  0  0  0  0  0  0  0  # atno 8008 bound_to 7997
  155.8414  140.0942  157.1752 H   0  0  0  0  0  0  0  0  0  0  0  0  # atno 8009 bound_to 7997
  154.4005  140.1393  156.3721 H   0  0  0  0  0  0  0  0  0  0  0  0  # atno 8010 bound_to 7997
  139.4890  144.5757  151.6969 H   0  0  0  0  0  0  0  0  0  0  0  0  # atno 10167 bound_to 10162
  157.6493  131.0933  150.6603 H   0  0  0  0  0  0  0  0  0  0  0  0  # atno 10718 bound_to 10713
  154.0571  135.6623  153.4807 H   0  0  0  0  0  0  0  0  0  0  0  0  # atno 10763 bound_to 10752
  153.0441  135.5126  154.7695 H   0  0  0  0  0  0  0  0  0  0  0  0  # atno 10764 bound_to 10752
  154.6720  135.3031  154.9696 H   0  0  0  0  0  0  0  0  0  0  0  0  # atno 10765 bound_to 10752
  140.9076  133.7482  156.0627 H   0  0  0  0  0  0  0  0  0  0  0  0  # atno 11005 bound_to 11000
  145.6255  141.0314  143.1892 LP  0  0  0  0  0  0  0  0  0  0  0  0  # atno 17320 bound_to 7965
  144.7280  139.7815  143.7358 LP  0  0  0  0  0  0  0  0  0  0  0  0  # atno 17321 bound_to 7965
  140.5353  144.0665  150.6068 LP  0  0  0  0  0  0  0  0  0  0  0  0  # atno 17342 bound_to 10162
  140.3669  143.2876  152.0321 LP  0  0  0  0  0  0  0  0  0  0  0  0  # atno 17343 bound_to 10162
  156.6916  130.4597  149.5598 LP  0  0  0  0  0  0  0  0  0  0  0  0  # atno 17370 bound_to 10713
  156.1857  130.6528  151.1004 LP  0  0  0  0  0  0  0  0  0  0  0  0  # atno 17371 bound_to 10713
  140.8151  134.3354  157.5399 LP  0  0  0  0  0  0  0  0  0  0  0  0  # atno 17394 bound_to 11000
  139.8752  134.9277  156.3431 LP  0  0  0  0  0  0  0  0  0  0  0  0  # atno 17395 bound_to 11000

$$$$
