AV-unprocessed.smi:1703|AV-procd|sdf|6880|dock3
  -GOLD-   22720 8 83D 1   1.00000     0.00000
 Structure written by MMmdl.
 50 52  0  0  0  0  0  0  0  0  3 V2000
  151.2099  136.7828  154.3838 C   0  0  0  0  0  0  0  0  0  0  0  0
  150.4652  136.1820  155.5892 C   0  0  1  0  0  0  0  0  0  0  0  0
  149.0068  136.6657  155.7150 C   0  0  0  0  0  0  0  0  0  0  0  0
  148.1418  136.0315  154.6891 N   0  3  2  0  0  0  0  0  0  0  0  0
  146.7325  136.4969  154.7323 C   0  0  0  0  0  0  0  0  0  0  0  0
  145.9033  136.0062  153.5247 C   0  0  1  0  0  0  0  0  0  0  0  0
  146.7662  135.7878  152.4273 O   0  0  0  0  0  0  0  0  0  0  0  0
  145.1531  134.6853  153.7872 C   0  0  0  0  0  0  0  0  0  0  0  0
  144.3927  134.2129  152.6178 N   0  0  0  0  0  0  0  0  0  0  0  0
  143.0819  134.4080  152.2898 C   0  0  0  0  0  0  0  0  0  0  0  0
  142.0587  135.1610  153.0749 C   0  0  0  0  0  0  0  0  0  0  0  0
  141.9027  134.6500  154.3805 O   0  0  0  0  0  0  0  0  0  0  0  0
  142.8617  133.7695  151.1067 N   0  3  0  0  0  0  0  0  0  0  0  0
  144.0384  133.1604  150.6709 C   0  0  0  0  0  0  0  0  0  0  0  0
  144.3020  132.4031  149.5339 C   0  0  0  0  0  0  0  0  0  0  0  0
  145.6182  131.9192  149.3867 C   0  0  0  0  0  0  0  0  0  0  0  0
  146.6116  132.1922  150.3490 C   0  0  0  0  0  0  0  0  0  0  0  0
  146.3324  132.9612  151.4980 C   0  0  0  0  0  0  0  0  0  0  0  0
  145.0285  133.4400  151.6360 C   0  0  0  0  0  0  0  0  0  0  0  0
  148.2528  134.5569  154.7661 C   0  0  0  0  0  0  0  0  0  0  0  0
  149.7192  134.1190  154.6041 C   0  0  2  0  0  0  0  0  0  0  0  0
  149.8868  132.6037  154.7613 C   0  0  0  0  0  0  0  0  0  0  0  0
  150.5156  134.7551  155.6001 O   0  0  0  0  0  0  0  0  0  0  0  0
  151.2732  137.8678  154.4714 H   0  0  0  0  0  0  0  0  0  0  0  0
  150.7153  136.5634  153.4382 H   0  0  0  0  0  0  0  0  0  0  0  0
  152.2288  136.3989  154.3260 H   0  0  0  0  0  0  0  0  0  0  0  0
  150.9997  136.5080  156.4820 H   0  0  0  0  0  0  0  0  0  0  0  0
  148.6258  136.4133  156.7058 H   0  0  0  0  0  0  0  0  0  0  0  0
  148.9737  137.7520  155.6367 H   0  0  0  0  0  0  0  0  0  0  0  0
  146.2513  136.1447  155.6463 H   0  0  0  0  0  0  0  0  0  0  0  0
  146.7341  137.5857  154.7932 H   0  0  0  0  0  0  0  0  0  0  0  0
  145.1751  136.7599  153.2300 H   0  0  0  0  0  0  0  0  0  0  0  0
  147.6616  135.8292  152.7259 H   0  0  0  0  0  0  0  0  0  0  0  0
  145.8620  133.8988  154.0482 H   0  0  0  0  0  0  0  0  0  0  0  0
  144.4870  134.7781  154.6443 H   0  0  0  0  0  0  0  0  0  0  0  0
  142.3368  136.2133  153.1318 H   0  0  0  0  0  0  0  0  0  0  0  0
  141.0992  135.1116  152.5595 H   0  0  0  0  0  0  0  0  0  0  0  0
  142.2125  133.7567  154.3913 H   0  0  0  0  0  0  0  0  0  0  0  0
  143.5419  132.1913  148.7960 H   0  0  0  0  0  0  0  0  0  0  0  0
  145.8705  131.3265  148.5193 H   0  0  0  0  0  0  0  0  0  0  0  0
  147.6091  131.8035  150.2028 H   0  0  0  0  0  0  0  0  0  0  0  0
  147.1058  133.1574  152.2251 H   0  0  0  0  0  0  0  0  0  0  0  0
  147.8537  134.2102  155.7210 H   0  0  0  0  0  0  0  0  0  0  0  0
  147.6485  134.1004  153.9810 H   0  0  0  0  0  0  0  0  0  0  0  0
  150.0773  134.3967  153.6127 H   0  0  0  0  0  0  0  0  0  0  0  0
  149.2989  132.0638  154.0185 H   0  0  0  0  0  0  0  0  0  0  0  0
  149.5667  132.2704  155.7490 H   0  0  0  0  0  0  0  0  0  0  0  0
  150.9297  132.3123  154.6337 H   0  0  0  0  0  0  0  0  0  0  0  0
  148.5058  136.2940  153.7844 H   0  0  0  0  0  0  0  0  0  0  0  0
  141.9671  133.7524  150.6336 H   0  0  0  0  0  0  0  0  0  0  0  0
  1  2  1  0  0  0  0
  1 24  1  0  0  0  0
  1 25  1  0  0  0  0
  1 26  1  0  0  0  0
  2 23  1  0  0  0  0
  2  3  1  0  0  0  0
  2 27  1  0  0  0  0
  3  4  1  0  0  0  0
  3 28  1  0  0  0  0
  3 29  1  0  0  0  0
  4  5  1  0  0  0  0
  4 20  1  0  0  0  0
  4 49  1  0  0  0  0
  5  6  1  0  0  0  0
  5 30  1  0  0  0  0
  5 31  1  0  0  0  0
  6  7  1  0  0  0  0
  6  8  1  0  0  0  0
  6 32  1  0  0  0  0
  7 33  1  0  0  0  0
  8  9  1  0  0  0  0
  8 34  1  0  0  0  0
  8 35  1  0  0  0  0
  9 19  1  0  0  0  0
  9 10  1  0  0  0  0
 10 11  1  0  0  0  0
 10 13  2  0  0  0  0
 11 12  1  0  0  0  0
 11 36  1  0  0  0  0
 11 37  1  0  0  0  0
 12 38  1  0  0  0  0
 13 14  1  0  0  0  0
 13 50  1  0  0  0  0
 14 19  2  0  0  0  0
 14 15  1  0  0  0  0
 15 16  2  0  0  0  0
 15 39  1  0  0  0  0
 16 17  1  0  0  0  0
 16 40  1  0  0  0  0
 17 18  2  0  0  0  0
 17 41  1  0  0  0  0
 18 19  1  0  0  0  0
 18 42  1  0  0  0  0
 20 21  1  0  0  0  0
 20 43  1  0  0  0  0
 20 44  1  0  0  0  0
 21 22  1  0  0  0  0
 21 23  1  0  0  0  0
 21 45  1  0  0  0  0
 22 46  1  0  0  0  0
 22 47  1  0  0  0  0
 22 48  1  0  0  0  0
M  CHG  1   4   1
M  CHG  1  13   1
M  END
> <s_m_source_file>
AV-unprocessed.smi

> <i_m_source_file_index>
1703

> <i_lp_mmshare_version>
43012

> <i_f3d_flags>
0

> <s_epik_input>
W0NIM11bQ0BASF0xW0NIMl1OKFtDSDJdW0NASF0oTzEpW0NIM10pW0NIMl1bQ0BIXShbT0hdKVtDSDJdbihjKG4yKVtDSDJdW09IXSljKGMyMylbY0hdW2NIXVtjSF1bY0hdMw==

> <s_epik_cmdline>
J2VwaWtfcHl0aG9uJywgJy1waCcsICc3LjAnLCAnLXRuJywgJzgnLCAnLW1hJywgJzIwMCcsICctbWV0YWxfYmluZGluZycsICctaW1hZScsICc8aW5maWxlLm1hZT4nLCAnLW9tYWUnLCAnPG91dGZpbGUubWFlPic=

> <r_epik_Ionization_Penalty>
2.22579

> <r_epik_Ionization_Penalty_Charging>
2.22492

> <r_epik_Ionization_Penalty_Neutral>
0.000870007

> <r_epik_State_Penalty>
2.3141

> <r_epik_Charging_Adjusted_Penalty>
4.53902

> <i_epik_Tot_Q>
2

> <i_epik_Tot_abs_Q>
2

> <r_epik_Metal_State_Penalty>
6.36517

> <b_epik_Metal_Only>
0

> <s_lp_Force_Field>
OPLS_2005

> <r_lp_Energy>
31.7221

> <b_lp_Chiralities_Consistent>
1

> <s_lp_Variant>
AV-unprocessed.smi:1703-28

> <Gold.Version>
5.8.1

> <Gold.Id.Protein>
6NUR|6NUR_protein|mol2

> <Gold.PLP.Fitness>
51.9003

> <Gold.PLP.PLP>
-37.2785

> <Gold.PLP.part.hbond>
-4.3788

> <Gold.PLP.part.metal>
0.0000

> <Gold.PLP.part.buried>
-1.6403

> <Gold.PLP.part.nonpolar>
-30.1059

> <Gold.PLP.part.repulsive>
0.0828

> <Gold.PLP.ligand.clash>
0.0000

> <Gold.PLP.ligand.torsion>
0.8219

> <Gold.PLP.Chemscore.Hbond>
5.3680

> <Gold.PLP.Chemscore.CHOScore>
0.0000

> <Gold.PLP.Chemscore.Metal>
0.0000

> <Gold.Chemscore.Hbonds>
donor molecule, donor type, donor heavy atom, donor atom, acceptor molecule, acceptor atom, score
      L1  H     4    49       P1  7948  2.00
      L1  H     7    33       P1  7948  0.53
      L1  H    12    38       P1 10957  0.91
      L1  H    13    50       P1 10186  1.92

> <Gold.PLP.Chemscore.Internal.Correction>
0.1615

> <Gold.Rescore>
     Score         DG    S(hbond)    S(metal)    S(lipo)     H(rot)  DE(clash)    DE(int)     intcor
     17.63     -20.20       3.41        0.00      94.93       3.04       1.68       0.89       ----

> <Gold.Chemscore.Fitness>
17.6284

> <Gold.Chemscore.DG>
-20.1979

> <Gold.Chemscore.ZeroCoef>
-5.4800

> <Gold.Chemscore.Hbond>
3.4095

> <Gold.Chemscore.Metal>
0.0000

> <Gold.Chemscore.Lipo>
94.9318

> <Gold.Chemscore.Internal_Hbond>
0.0000

> <Gold.Chemscore.DEClash>
1.6807

> <Gold.Chemscore.DEInternal>
0.8889

> <Gold.Chemscore.Rot>
3.0378

> <Gold.Chemscore.Internal.Correction>
   9.000000E+99

> <Gold.Chemscore.Hbonds>
donor molecule, donor type, donor heavy atom, donor atom, acceptor molecule, acceptor atom, score
      L1  H     4    49       P1  7948  0.98
      L1  H     7    33       P1  7948  0.53
      L1  H    12    38       P1 10957  0.87
      L1  H    13    50       P1 10186  0.67

> <Gold.Chemscore.Hbond.Weighted>
-11.3876

> <Gold.Chemscore.Metal.Weighted>
-0.0000

> <Gold.Chemscore.Lipo.Weighted>
-11.1070

> <Gold.Chemscore.Internal_Hbond.Weighted>
0.0000

> <Gold.Chemscore.DEClash.Weighted>
1.6807

> <Gold.Chemscore.DEInternal.Weighted>
0.8889

> <Gold.Chemscore.Rot.Weighted>
7.7767

> <Gold.Chemscore.Internal.Correction.Weighted>
   9.000000E+99

> <Gold.Protein.RotatedTorsions>
[ 6907 6896 6895 6894 ] final -139.27 input  -60.11 | X-H torsion
[ 7974 7965 7964 7962 ] final  -35.76 input  175.53 | X-H torsion
[ 8008 7997 7996 7995 ] final   82.40 input   59.86 | X-H torsion
[ 10167 10162 10161 10158 ] final -124.62 input  -65.29 | X-H torsion
[ 10718 10713 10712 10709 ] final  -96.12 input   66.30 | X-H torsion
[ 10763 10752 10751 10750 ] final -108.23 input  -60.55 | X-H torsion
[ 11005 11000 10999 10996 ] final  147.11 input  -57.11 | X-H torsion

> <Gold.Protein.ActiveResidues>
 VAL166  LYS551  ARG553  GLY616  TRP617  ASP618  TYR619  PRO620  LYS621  CYS622 
 ASP623  PHE694  ASN695  SER759  ASP760  ASP761  ALA762  ILE779  LEU786  VAL792 
 PHE793  MET794  SER795  GLU796  ALA797  LYS798  CYS799  TRP800  GLU811  SER814 

> <Gold.Protein.RotatedAtoms>
  151.0457  133.5668  159.2646 H   0  0  0  0  0  0  0  0  0  0  0  0  # atno 6907 bound_to 6896
  151.2697  135.0680  159.9139 H   0  0  0  0  0  0  0  0  0  0  0  0  # atno 6908 bound_to 6896
  152.5372  134.0189  159.8026 H   0  0  0  0  0  0  0  0  0  0  0  0  # atno 6909 bound_to 6896
  146.0719  140.6198  142.8948 H   0  0  0  0  0  0  0  0  0  0  0  0  # atno 7974 bound_to 7965
  155.9102  140.3428  155.6092 H   0  0  0  0  0  0  0  0  0  0  0  0  # atno 8008 bound_to 7997
  155.7397  140.0806  157.2270 H   0  0  0  0  0  0  0  0  0  0  0  0  # atno 8009 bound_to 7997
  154.4055  140.1573  156.2589 H   0  0  0  0  0  0  0  0  0  0  0  0  # atno 8010 bound_to 7997
  139.9909  143.5642  152.2342 H   0  0  0  0  0  0  0  0  0  0  0  0  # atno 10167 bound_to 10162
  156.0056  130.5138  150.6179 H   0  0  0  0  0  0  0  0  0  0  0  0  # atno 10718 bound_to 10713
  154.8123  135.4645  154.0549 H   0  0  0  0  0  0  0  0  0  0  0  0  # atno 10763 bound_to 10752
  153.1970  135.6863  153.8286 H   0  0  0  0  0  0  0  0  0  0  0  0  # atno 10764 bound_to 10752
  153.7784  135.3260  155.3339 H   0  0  0  0  0  0  0  0  0  0  0  0  # atno 10765 bound_to 10752
  140.0848  134.9075  157.1559 H   0  0  0  0  0  0  0  0  0  0  0  0  # atno 11005 bound_to 11000
  144.7237  140.4456  143.6989 LP  0  0  0  0  0  0  0  0  0  0  0  0  # atno 17320 bound_to 7965
  145.6376  139.1545  143.2933 LP  0  0  0  0  0  0  0  0  0  0  0  0  # atno 17321 bound_to 7965
  139.6341  144.7648  151.2475 LP  0  0  0  0  0  0  0  0  0  0  0  0  # atno 17342 bound_to 10162
  140.7455  143.6429  150.8318 LP  0  0  0  0  0  0  0  0  0  0  0  0  # atno 17343 bound_to 10162
  157.4000  131.0808  151.1317 LP  0  0  0  0  0  0  0  0  0  0  0  0  # atno 17370 bound_to 10713
  157.1982  130.6382  149.5729 LP  0  0  0  0  0  0  0  0  0  0  0  0  # atno 17371 bound_to 10713
  140.3435  134.2677  155.7208 LP  0  0  0  0  0  0  0  0  0  0  0  0  # atno 17394 bound_to 11000
  141.2059  133.7848  157.0207 LP  0  0  0  0  0  0  0  0  0  0  0  0  # atno 17395 bound_to 11000

$$$$
