AV-unprocessed.smi:3201|AV-procd|sdf|12238|dock1
  -GOLD-   2272018 73D 1   1.00000     0.00000
 Structure written by MMmdl.
 41 43  0  0  0  0  0  0  0  0  2 V2000
  148.4569  138.3331  154.6779 C   0  0  0  0  0  0  0  0  0  0  0  0
  148.1560  139.7892  154.5242 C   0  0  0  0  0  0  0  0  0  0  0  0
  148.5417  140.8668  155.2760 C   0  0  0  0  0  0  0  0  0  0  0  0
  149.4011  140.9040  156.5098 C   0  0  0  0  0  0  0  0  0  0  0  0
  150.7843  141.4979  156.2127 C   0  0  0  0  0  0  0  0  0  0  0  0
  150.8352  142.9303  156.5689 N   0  3  0  0  0  0  0  0  0  0  0  0
  150.8534  143.2010  158.0231 C   0  0  1  0  0  0  0  0  0  0  0  0
  151.8975  142.3415  158.7743 C   0  0  0  0  0  0  0  0  0  0  0  0
  152.7790  143.3970  159.4660 C   0  0  2  0  0  0  0  0  0  0  0  0
  151.9771  144.0902  160.5831 C   0  0  0  0  0  0  0  0  0  0  0  0
  150.9902  144.9721  159.7947 C   0  0  0  0  0  0  0  0  0  0  0  0
  151.3300  144.6376  158.3296 C   0  0  1  0  0  0  0  0  0  0  0  0
  152.8467  144.4842  158.4009 C   0  0  0  0  0  0  0  0  0  0  0  0
  147.9321  141.9721  154.6177 C   0  0  0  0  0  0  0  0  0  0  0  0
  147.2294  141.6146  153.5581 N   0  0  0  0  0  0  0  0  0  0  0  0
  147.3672  140.2743  153.4976 N   0  0  0  0  0  0  0  0  0  0  0  0
  146.7104  139.5398  152.4337 C   0  0  0  0  0  0  0  0  0  0  0  0
  149.0611  138.1447  155.5651 H   0  0  0  0  0  0  0  0  0  0  0  0
  149.0064  137.9586  153.8141 H   0  0  0  0  0  0  0  0  0  0  0  0
  147.5373  137.7549  154.7708 H   0  0  0  0  0  0  0  0  0  0  0  0
  148.9169  141.4867  157.2944 H   0  0  0  0  0  0  0  0  0  0  0  0
  149.5210  139.9002  156.9193 H   0  0  0  0  0  0  0  0  0  0  0  0
  151.5489  140.9618  156.7766 H   0  0  0  0  0  0  0  0  0  0  0  0
  151.0207  141.3761  155.1551 H   0  0  0  0  0  0  0  0  0  0  0  0
  151.6553  143.3469  156.1519 H   0  0  0  0  0  0  0  0  0  0  0  0
  149.8489  143.0444  158.4200 H   0  0  0  0  0  0  0  0  0  0  0  0
  151.4351  141.6579  159.4874 H   0  0  0  0  0  0  0  0  0  0  0  0
  152.5004  141.7446  158.0881 H   0  0  0  0  0  0  0  0  0  0  0  0
  153.7451  143.0124  159.7943 H   0  0  0  0  0  0  0  0  0  0  0  0
  151.4706  143.3749  161.2321 H   0  0  0  0  0  0  0  0  0  0  0  0
  152.6272  144.7060  161.2063 H   0  0  0  0  0  0  0  0  0  0  0  0
  149.9497  144.7590  160.0430 H   0  0  0  0  0  0  0  0  0  0  0  0
  151.1719  146.0275  160.0026 H   0  0  0  0  0  0  0  0  0  0  0  0
  150.9719  145.3875  157.6231 H   0  0  0  0  0  0  0  0  0  0  0  0
  153.3588  145.3875  158.7373 H   0  0  0  0  0  0  0  0  0  0  0  0
  153.2960  144.1469  157.4651 H   0  0  0  0  0  0  0  0  0  0  0  0
  147.9776  143.0188  154.8800 H   0  0  0  0  0  0  0  0  0  0  0  0
  147.4315  138.8943  151.9316 H   0  0  0  0  0  0  0  0  0  0  0  0
  146.2823  140.2247  151.7000 H   0  0  0  0  0  0  0  0  0  0  0  0
  145.9122  138.9256  152.8520 H   0  0  0  0  0  0  0  0  0  0  0  0
  150.0154  143.3731  156.1787 H   0  0  0  0  0  0  0  0  0  0  0  0
  1  2  1  0  0  0  0
  1 18  1  0  0  0  0
  1 19  1  0  0  0  0
  1 20  1  0  0  0  0
  2 16  1  0  0  0  0
  2  3  2  0  0  0  0
  3  4  1  0  0  0  0
  3 14  1  0  0  0  0
  4  5  1  0  0  0  0
  4 21  1  0  0  0  0
  4 22  1  0  0  0  0
  5  6  1  0  0  0  0
  5 23  1  0  0  0  0
  5 24  1  0  0  0  0
  6  7  1  0  0  0  0
  6 25  1  0  0  0  0
  6 41  1  0  0  0  0
  7 12  1  0  0  0  0
  7  8  1  0  0  0  0
  7 26  1  0  0  0  0
  8  9  1  0  0  0  0
  8 27  1  0  0  0  0
  8 28  1  0  0  0  0
  9 13  1  0  0  0  0
  9 10  1  0  0  0  0
  9 29  1  0  0  0  0
 10 11  1  0  0  0  0
 10 30  1  0  0  0  0
 10 31  1  0  0  0  0
 11 12  1  0  0  0  0
 11 32  1  0  0  0  0
 11 33  1  0  0  0  0
 12 13  1  0  0  0  0
 12 34  1  0  0  0  0
 13 35  1  0  0  0  0
 13 36  1  0  0  0  0
 14 15  2  0  0  0  0
 14 37  1  0  0  0  0
 15 16  1  0  0  0  0
 16 17  1  0  0  0  0
 17 38  1  0  0  0  0
 17 39  1  0  0  0  0
 17 40  1  0  0  0  0
M  CHG  1   6   1
M  END
> <s_m_source_file>
AV-unprocessed.smi

> <i_m_source_file_index>
3201

> <i_lp_mmshare_version>
43012

> <i_f3d_flags>
0

> <s_epik_input>
W0NIM11uMW5bY0hdYyhjMVtDSDNdKVtDSDJdW0NIMl1bTkhdW0NASF0oW0NIMl1bQ0BIXTIzKVtDQEhdKFtDSDJdMylbQ0gyXVtDSDJdMg==

> <s_epik_cmdline>
J2VwaWtfcHl0aG9uJywgJy1waCcsICc3LjAnLCAnLXRuJywgJzgnLCAnLW1hJywgJzIwMCcsICctbWV0YWxfYmluZGluZycsICctaW1hZScsICc8aW5maWxlLm1hZT4nLCAnLW9tYWUnLCAnPG91dGZpbGUubWFlPic=

> <r_lp_tautomer_probability>
1

> <r_epik_Ionization_Penalty>
0.000331174

> <r_epik_Ionization_Penalty_Charging>
0.000242709

> <r_epik_Ionization_Penalty_Neutral>
8.84659e-05

> <r_epik_State_Penalty>
-0

> <r_epik_Charging_Adjusted_Penalty>
0.000242709

> <i_epik_Tot_Q>
1

> <i_epik_Tot_abs_Q>
1

> <r_epik_Metal_State_Penalty>
-0

> <b_epik_Metal_Only>
0

> <s_lp_Force_Field>
OPLS_2005

> <r_lp_Energy>
49.6372

> <b_lp_Chiralities_Consistent>
1

> <s_lp_Variant>
AV-unprocessed.smi:3201-2

> <Gold.Version>
5.8.1

> <Gold.Id.Protein>
6NUR|6NUR_protein|mol2

> <Gold.PLP.Fitness>
48.4715

> <Gold.PLP.PLP>
-40.5084

> <Gold.PLP.part.hbond>
-1.0000

> <Gold.PLP.part.metal>
0.0000

> <Gold.PLP.part.buried>
-4.4372

> <Gold.PLP.part.nonpolar>
-35.5503

> <Gold.PLP.part.repulsive>
0.2395

> <Gold.PLP.ligand.clash>
0.0000

> <Gold.PLP.ligand.torsion>
0.5344

> <Gold.PLP.Chemscore.Hbond>
2.0000

> <Gold.PLP.Chemscore.CHOScore>
1.0000

> <Gold.PLP.Chemscore.Metal>
0.0000

> <Gold.Chemscore.Hbonds>
donor molecule, donor type, donor heavy atom, donor atom, acceptor molecule, acceptor atom, score
      L1  H     6    41       P1  8028  2.00
      L1  C    14    37       P1  8028  1.00

> <Gold.PLP.Chemscore.Internal.Correction>
0.0318

> <Gold.Rescore>
     Score         DG    S(hbond)    S(metal)    S(lipo)     H(rot)  DE(clash)    DE(int)     intcor
     19.44     -20.16       0.93        0.00     128.56       1.36       0.09       0.64       ----

> <Gold.Chemscore.Fitness>
19.4353

> <Gold.Chemscore.DG>
-20.1595

> <Gold.Chemscore.ZeroCoef>
-5.4800

> <Gold.Chemscore.Hbond>
0.9330

> <Gold.Chemscore.Metal>
0.0000

> <Gold.Chemscore.Lipo>
128.5626

> <Gold.Chemscore.Internal_Hbond>
0.0000

> <Gold.Chemscore.DEClash>
0.0878

> <Gold.Chemscore.DEInternal>
0.6363

> <Gold.Chemscore.Rot>
1.3588

> <Gold.Chemscore.Internal.Correction>
   9.000000E+99

> <Gold.Chemscore.Hbonds>
donor molecule, donor type, donor heavy atom, donor atom, acceptor molecule, acceptor atom, score
      L1  H     6    41       P1  8028  0.99

> <Gold.Chemscore.Hbond.Weighted>
-3.1162

> <Gold.Chemscore.Metal.Weighted>
-0.0000

> <Gold.Chemscore.Lipo.Weighted>
-15.0418

> <Gold.Chemscore.Internal_Hbond.Weighted>
0.0000

> <Gold.Chemscore.DEClash.Weighted>
0.0878

> <Gold.Chemscore.DEInternal.Weighted>
0.6363

> <Gold.Chemscore.Rot.Weighted>
3.4786

> <Gold.Chemscore.Internal.Correction.Weighted>
   9.000000E+99

> <Gold.Protein.RotatedTorsions>
[ 6907 6896 6895 6894 ] final  -94.02 input  -60.11 | X-H torsion
[ 7974 7965 7964 7962 ] final  -69.18 input  175.53 | X-H torsion
[ 8008 7997 7996 7995 ] final  -47.82 input   59.86 | X-H torsion
[ 10167 10162 10161 10158 ] final  -93.54 input  -65.29 | X-H torsion
[ 10718 10713 10712 10709 ] final  154.79 input   66.30 | X-H torsion
[ 10763 10752 10751 10750 ] final   18.49 input  -60.55 | X-H torsion
[ 11005 11000 10999 10996 ] final  -57.67 input  -57.11 | X-H torsion

> <Gold.Protein.ActiveResidues>
 VAL166  LYS551  ARG553  GLY616  TRP617  ASP618  TYR619  PRO620  LYS621  CYS622 
 ASP623  PHE694  ASN695  SER759  ASP760  ASP761  ALA762  ILE779  LEU786  VAL792 
 PHE793  MET794  SER795  GLU796  ALA797  LYS798  CYS799  TRP800  GLU811  SER814 

> <Gold.Protein.RotatedAtoms>
  150.6933  134.1876  159.4272 H   0  0  0  0  0  0  0  0  0  0  0  0  # atno 6907 bound_to 6896
  151.9848  135.0007  160.0568 H   0  0  0  0  0  0  0  0  0  0  0  0  # atno 6908 bound_to 6896
  152.1721  133.4616  159.4951 H   0  0  0  0  0  0  0  0  0  0  0  0  # atno 6909 bound_to 6896
  145.7070  140.9093  143.0700 H   0  0  0  0  0  0  0  0  0  0  0  0  # atno 7974 bound_to 7965
  154.4021  140.1337  156.4237 H   0  0  0  0  0  0  0  0  0  0  0  0  # atno 8008 bound_to 7997
  155.7618  140.3486  155.5181 H   0  0  0  0  0  0  0  0  0  0  0  0  # atno 8009 bound_to 7997
  155.8852  140.0994  157.1448 H   0  0  0  0  0  0  0  0  0  0  0  0  # atno 8010 bound_to 7997
  140.3236  143.3035  152.0019 H   0  0  0  0  0  0  0  0  0  0  0  0  # atno 10167 bound_to 10162
  157.2270  131.0731  151.1877 H   0  0  0  0  0  0  0  0  0  0  0  0  # atno 10718 bound_to 10713
  153.1244  135.6726  153.9281 H   0  0  0  0  0  0  0  0  0  0  0  0  # atno 10763 bound_to 10752
  153.8786  135.3061  155.3446 H   0  0  0  0  0  0  0  0  0  0  0  0  # atno 10764 bound_to 10752
  154.7651  135.4968  153.9620 H   0  0  0  0  0  0  0  0  0  0  0  0  # atno 10765 bound_to 10752
  141.1174  133.6610  156.4804 H   0  0  0  0  0  0  0  0  0  0  0  0  # atno 11005 bound_to 11000
  144.6952  139.9024  143.7459 LP  0  0  0  0  0  0  0  0  0  0  0  0  # atno 17320 bound_to 7965
  146.0746  139.3734  143.0502 LP  0  0  0  0  0  0  0  0  0  0  0  0  # atno 17321 bound_to 7965
  139.4869  144.6291  151.7105 LP  0  0  0  0  0  0  0  0  0  0  0  0  # atno 17342 bound_to 10162
  140.5461  144.0500  150.6108 LP  0  0  0  0  0  0  0  0  0  0  0  0  # atno 17343 bound_to 10162
  157.3517  130.7086  149.6445 LP  0  0  0  0  0  0  0  0  0  0  0  0  # atno 17370 bound_to 10713
  155.9678  130.4250  150.4636 LP  0  0  0  0  0  0  0  0  0  0  0  0  # atno 17371 bound_to 10713
  140.4605  134.6845  157.5083 LP  0  0  0  0  0  0  0  0  0  0  0  0  # atno 17394 bound_to 11000
  140.0106  134.6696  155.9386 LP  0  0  0  0  0  0  0  0  0  0  0  0  # atno 17395 bound_to 11000

$$$$
