AV-unprocessed.smi:1459|AV-procd|sdf|5926|dock5
  -GOLD-   22720 6 13D 1   1.00000     0.00000
 Structure written by MMmdl.
 34 35  0  0  0  0  0  0  0  0  1 V2000
  152.5436  143.9566  161.9234 C   0  0  0  0  0  0  0  0  0  0  0  0
  151.5997  143.8602  160.7742 C   0  0  0  0  0  0  0  0  0  0  0  0
  151.7506  143.4570  159.4772 C   0  0  0  0  0  0  0  0  0  0  0  0
  150.4465  143.6184  158.9382 C   0  0  0  0  0  0  0  0  0  0  0  0
  150.1735  143.2945  157.5847 N   0  0  0  0  0  0  0  0  0  0  0  0
  149.9101  142.0817  157.0693 C   0  0  0  0  0  0  0  0  0  0  0  0
  149.8378  141.0374  157.7177 O   0  0  0  0  0  0  0  0  0  0  0  0
  149.7268  142.1484  155.7421 N   0  0  0  0  0  0  0  0  0  0  0  0
  149.4005  141.0221  154.8701 C   0  0  2  0  0  0  0  0  0  0  0  0
  147.9214  140.6583  155.0721 C   0  0  0  0  0  0  0  0  0  0  0  0
  150.3409  139.8385  155.1752 C   0  0  1  0  0  0  0  0  0  0  0  0
  150.2399  138.6699  154.1942 C   0  0  0  0  0  0  0  0  0  0  0  0
  151.5930  137.9865  154.3126 C   0  0  0  0  0  0  0  0  0  0  0  0
  152.4798  139.0314  154.9953 C   0  0  0  0  0  0  0  0  0  0  0  0
  151.7006  140.2185  155.0273 O   0  0  0  0  0  0  0  0  0  0  0  0
  149.5783  144.0795  159.8255 N   0  0  0  0  0  0  0  0  0  0  0  0
  150.3130  144.2370  161.0066 O   0  0  0  0  0  0  0  0  0  0  0  0
  153.5393  143.6156  161.6398 H   0  0  0  0  0  0  0  0  0  0  0  0
  152.2010  143.3436  162.7572 H   0  0  0  0  0  0  0  0  0  0  0  0
  152.6250  144.9865  162.2708 H   0  0  0  0  0  0  0  0  0  0  0  0
  152.6500  143.1034  158.9953 H   0  0  0  0  0  0  0  0  0  0  0  0
  150.1862  144.0689  156.9379 H   0  0  0  0  0  0  0  0  0  0  0  0
  149.8033  143.0521  155.2994 H   0  0  0  0  0  0  0  0  0  0  0  0
  149.5282  141.3127  153.8257 H   0  0  0  0  0  0  0  0  0  0  0  0
  147.6130  139.8594  154.3978 H   0  0  0  0  0  0  0  0  0  0  0  0
  147.2769  141.5155  154.8740 H   0  0  0  0  0  0  0  0  0  0  0  0
  147.7295  140.3252  156.0926 H   0  0  0  0  0  0  0  0  0  0  0  0
  150.1848  139.4808  156.1951 H   0  0  0  0  0  0  0  0  0  0  0  0
  149.4083  138.0009  154.4173 H   0  0  0  0  0  0  0  0  0  0  0  0
  150.1088  139.0427  153.1773 H   0  0  0  0  0  0  0  0  0  0  0  0
  151.5299  137.0833  154.9206 H   0  0  0  0  0  0  0  0  0  0  0  0
  151.9771  137.7055  153.3315 H   0  0  0  0  0  0  0  0  0  0  0  0
  152.7134  138.7280  156.0169 H   0  0  0  0  0  0  0  0  0  0  0  0
  153.4182  139.1950  154.4652 H   0  0  0  0  0  0  0  0  0  0  0  0
  1  2  1  0  0  0  0
  1 18  1  0  0  0  0
  1 19  1  0  0  0  0
  1 20  1  0  0  0  0
  2 17  1  0  0  0  0
  2  3  2  0  0  0  0
  3  4  1  0  0  0  0
  3 21  1  0  0  0  0
  4  5  1  0  0  0  0
  4 16  2  0  0  0  0
  5  6  1  0  0  0  0
  5 22  1  0  0  0  0
  6  7  2  0  0  0  0
  6  8  1  0  0  0  0
  8  9  1  0  0  0  0
  8 23  1  0  0  0  0
  9 10  1  0  0  0  0
  9 11  1  0  0  0  0
  9 24  1  0  0  0  0
 10 25  1  0  0  0  0
 10 26  1  0  0  0  0
 10 27  1  0  0  0  0
 11 15  1  0  0  0  0
 11 12  1  0  0  0  0
 11 28  1  0  0  0  0
 12 13  1  0  0  0  0
 12 29  1  0  0  0  0
 12 30  1  0  0  0  0
 13 14  1  0  0  0  0
 13 31  1  0  0  0  0
 13 32  1  0  0  0  0
 14 15  1  0  0  0  0
 14 33  1  0  0  0  0
 14 34  1  0  0  0  0
 16 17  1  0  0  0  0
M  END
> <s_m_source_file>
AV-unprocessed.smi

> <i_m_source_file_index>
1459

> <i_lp_mmshare_version>
43012

> <i_f3d_flags>
0

> <s_epik_input>
W0NIM11jMVtjSF1jKG5vMSlbTkhdQyg9TylbTkhdW0NASF0oW0NIM10pW0NAQEhdMltDSDJdW0NIMl1bQ0gyXU8y

> <s_epik_cmdline>
J2VwaWtfcHl0aG9uJywgJy1waCcsICc3LjAnLCAnLXRuJywgJzgnLCAnLW1hJywgJzIwMCcsICctbWV0YWxfYmluZGluZycsICctaW1hZScsICc8aW5maWxlLm1hZT4nLCAnLW9tYWUnLCAnPG91dGZpbGUubWFlPic=

> <r_lp_tautomer_probability>
1

> <r_epik_Ionization_Penalty>
2.20869e-05

> <r_epik_Ionization_Penalty_Charging>
0

> <r_epik_Ionization_Penalty_Neutral>
2.20869e-05

> <r_epik_State_Penalty>
-0

> <r_epik_Charging_Adjusted_Penalty>
0

> <i_epik_Tot_Q>
0

> <i_epik_Tot_abs_Q>
0

> <r_epik_Metal_State_Penalty>
-0

> <b_epik_Metal_Only>
0

> <s_lp_Force_Field>
OPLS_2005

> <r_lp_Energy>
16.1691

> <b_lp_Chiralities_Consistent>
1

> <s_lp_Variant>
AV-unprocessed.smi:1459-3

> <Gold.Version>
5.8.1

> <Gold.Id.Protein>
6NUR|6NUR_protein|mol2

> <Gold.PLP.Fitness>
40.1076

> <Gold.PLP.PLP>
-35.1405

> <Gold.PLP.part.hbond>
-4.7069

> <Gold.PLP.part.metal>
0.0000

> <Gold.PLP.part.buried>
-5.6671

> <Gold.PLP.part.nonpolar>
-26.3721

> <Gold.PLP.part.repulsive>
0.5957

> <Gold.PLP.ligand.clash>
0.0000

> <Gold.PLP.ligand.torsion>
0.9355

> <Gold.PLP.Chemscore.Hbond>
2.2720

> <Gold.PLP.Chemscore.CHOScore>
0.0000

> <Gold.PLP.Chemscore.Metal>
0.0000

> <Gold.Chemscore.Hbonds>
donor molecule, donor type, donor heavy atom, donor atom, acceptor molecule, acceptor atom, score
      L1  H     5    22       P1  8028  0.67
      L1  H     8    23       P1  8028  0.64
      P1  H  7989  7998       L1    15  0.93

> <Gold.PLP.Chemscore.Internal.Correction>
0.0220

> <Gold.Rescore>
     Score         DG    S(hbond)    S(metal)    S(lipo)     H(rot)  DE(clash)    DE(int)     intcor
     16.35     -18.65       2.34        0.00      73.80       1.28       0.07       2.23       ----

> <Gold.Chemscore.Fitness>
16.3525

> <Gold.Chemscore.DG>
-18.6510

> <Gold.Chemscore.ZeroCoef>
-5.4800

> <Gold.Chemscore.Hbond>
2.3375

> <Gold.Chemscore.Metal>
0.0000

> <Gold.Chemscore.Lipo>
73.7985

> <Gold.Chemscore.Internal_Hbond>
0.0000

> <Gold.Chemscore.DEClash>
0.0686

> <Gold.Chemscore.DEInternal>
2.2299

> <Gold.Chemscore.Rot>
1.2776

> <Gold.Chemscore.Internal.Correction>
   9.000000E+99

> <Gold.Chemscore.Hbonds>
donor molecule, donor type, donor heavy atom, donor atom, acceptor molecule, acceptor atom, score
      L1  H     5    22       P1  8028  0.64
      L1  H     8    23       P1  8028  0.64
      P1  H  7989  7998       L1    15  0.16

> <Gold.Chemscore.Hbond.Weighted>
-7.8073

> <Gold.Chemscore.Metal.Weighted>
-0.0000

> <Gold.Chemscore.Lipo.Weighted>
-8.6344

> <Gold.Chemscore.Internal_Hbond.Weighted>
0.0000

> <Gold.Chemscore.DEClash.Weighted>
0.0686

> <Gold.Chemscore.DEInternal.Weighted>
2.2299

> <Gold.Chemscore.Rot.Weighted>
3.2707

> <Gold.Chemscore.Internal.Correction.Weighted>
   9.000000E+99

> <Gold.Protein.RotatedTorsions>
[ 6907 6896 6895 6894 ] final -153.31 input  -60.11 | X-H torsion
[ 7974 7965 7964 7962 ] final -130.16 input  175.53 | X-H torsion
[ 8008 7997 7996 7995 ] final   95.67 input   59.86 | X-H torsion
[ 10167 10162 10161 10158 ] final  123.48 input  -65.29 | X-H torsion
[ 10718 10713 10712 10709 ] final  -64.11 input   66.30 | X-H torsion
[ 10763 10752 10751 10750 ] final   46.71 input  -60.55 | X-H torsion
[ 11005 11000 10999 10996 ] final   -3.52 input  -57.11 | X-H torsion

> <Gold.Protein.ActiveResidues>
 VAL166  LYS551  ARG553  GLY616  TRP617  ASP618  TYR619  PRO620  LYS621  CYS622 
 ASP623  PHE694  ASN695  SER759  ASP760  ASP761  ALA762  ILE779  LEU786  VAL792 
 PHE793  MET794  SER795  GLU796  ALA797  LYS798  CYS799  TRP800  GLU811  SER814 

> <Gold.Protein.RotatedAtoms>
  151.2406  133.4401  159.2606 H   0  0  0  0  0  0  0  0  0  0  0  0  # atno 6907 bound_to 6896
  151.0708  134.9797  159.8318 H   0  0  0  0  0  0  0  0  0  0  0  0  # atno 6908 bound_to 6896
  152.5412  134.2352  159.8893 H   0  0  0  0  0  0  0  0  0  0  0  0  # atno 6909 bound_to 6896
  144.9502  140.7336  143.4792 H   0  0  0  0  0  0  0  0  0  0  0  0  # atno 7974 bound_to 7965
  156.0714  140.3283  155.7581 H   0  0  0  0  0  0  0  0  0  0  0  0  # atno 8008 bound_to 7997
  155.5299  140.0592  157.2908 H   0  0  0  0  0  0  0  0  0  0  0  0  # atno 8009 bound_to 7997
  154.4532  140.1929  156.0473 H   0  0  0  0  0  0  0  0  0  0  0  0  # atno 8010 bound_to 7997
  139.5797  144.6980  151.3560 H   0  0  0  0  0  0  0  0  0  0  0  0  # atno 10167 bound_to 10162
  156.0749  130.4229  150.1373 H   0  0  0  0  0  0  0  0  0  0  0  0  # atno 10718 bound_to 10713
  152.9807  135.5999  154.3643 H   0  0  0  0  0  0  0  0  0  0  0  0  # atno 10763 bound_to 10752
  154.3322  135.2768  155.2467 H   0  0  0  0  0  0  0  0  0  0  0  0  # atno 10764 bound_to 10752
  154.4586  135.5971  153.6296 H   0  0  0  0  0  0  0  0  0  0  0  0  # atno 10765 bound_to 10752
  140.6702  133.9243  155.8490 H   0  0  0  0  0  0  0  0  0  0  0  0  # atno 11005 bound_to 11000
  145.2856  139.1902  143.4768 LP  0  0  0  0  0  0  0  0  0  0  0  0  # atno 17320 bound_to 7965
  146.3318  140.2824  142.8611 LP  0  0  0  0  0  0  0  0  0  0  0  0  # atno 17321 bound_to 7965
  140.7076  143.7473  150.7510 LP  0  0  0  0  0  0  0  0  0  0  0  0  # atno 17342 bound_to 10162
  140.1002  143.4795  152.2430 LP  0  0  0  0  0  0  0  0  0  0  0  0  # atno 17343 bound_to 10162
  156.9417  130.9746  151.3515 LP  0  0  0  0  0  0  0  0  0  0  0  0  # atno 17370 bound_to 10713
  157.5839  130.8396  149.8562 LP  0  0  0  0  0  0  0  0  0  0  0  0  # atno 17371 bound_to 10713
  141.0398  134.0638  157.3916 LP  0  0  0  0  0  0  0  0  0  0  0  0  # atno 17394 bound_to 11000
  139.8984  135.0154  156.7146 LP  0  0  0  0  0  0  0  0  0  0  0  0  # atno 17395 bound_to 11000

$$$$
