AV-unprocessed.smi:2061|AV-procd|sdf|8385|dock3
  -GOLD-   2272011 63D 1   1.00000     0.00000
 Structure written by MMmdl.
 45 46  0  0  0  0  0  0  0  0  3 V2000
  152.3053  139.8191  159.1402 C   0  0  0  0  0  0  0  0  0  0  0  0
  152.4895  138.8765  158.0003 C   0  0  0  0  0  0  0  0  0  0  0  0
  151.6536  137.9845  157.3908 C   0  0  0  0  0  0  0  0  0  0  0  0
  152.4667  137.4236  156.3683 C   0  0  0  0  0  0  0  0  0  0  0  0
  152.0920  136.4789  155.4920 N   0  5  0  0  0  0  0  0  0  0  0  0
  151.1698  135.5541  155.8422 C   0  0  0  0  0  0  0  0  0  0  0  0
  150.9771  135.1055  156.9745 O   0  0  0  0  0  0  0  0  0  0  0  0
  150.4339  135.1129  154.8114 N   0  0  0  0  0  0  0  0  0  0  0  0
  149.3676  134.1159  154.8719 C   0  0  0  0  0  0  0  0  0  0  0  0
  149.1675  133.3604  153.5319 C   0  0  1  0  0  0  0  0  0  0  0  0
  149.1655  131.8279  153.7555 C   0  0  0  0  0  0  0  0  0  0  0  0
  147.9330  133.8655  152.8455 N   0  3  1  0  0  0  0  0  0  0  0  0
  147.4821  132.9686  151.7486 C   0  0  0  0  0  0  0  0  0  0  0  0
  146.3251  133.6032  150.9596 C   0  0  1  0  0  0  0  0  0  0  0  0
  145.8011  132.6729  149.8601 C   0  0  0  0  0  0  0  0  0  0  0  0
  145.2485  133.8783  151.8483 O   0  0  0  0  0  0  0  0  0  0  0  0
  145.5828  134.7433  152.9310 C   0  0  2  0  0  0  0  0  0  0  0  0
  145.7828  136.1992  152.4720 C   0  0  0  0  0  0  0  0  0  0  0  0
  146.7766  134.1802  153.7292 C   0  0  0  0  0  0  0  0  0  0  0  0
  153.6935  137.9169  156.3701 N   0  0  0  0  0  0  0  0  0  0  0  0
  153.7146  138.8544  157.4098 O   0  0  0  0  0  0  0  0  0  0  0  0
  152.1231  139.2727  160.0655 H   0  0  0  0  0  0  0  0  0  0  0  0
  151.4547  140.4770  158.9620 H   0  0  0  0  0  0  0  0  0  0  0  0
  153.1888  140.4418  159.2835 H   0  0  0  0  0  0  0  0  0  0  0  0
  150.6232  137.7712  157.6325 H   0  0  0  0  0  0  0  0  0  0  0  0
  150.6324  135.5116  153.9053 H   0  0  0  0  0  0  0  0  0  0  0  0
  149.5407  133.4030  155.6797 H   0  0  0  0  0  0  0  0  0  0  0  0
  148.4706  134.6643  155.1522 H   0  0  0  0  0  0  0  0  0  0  0  0
  150.0188  133.5762  152.8840 H   0  0  0  0  0  0  0  0  0  0  0  0
  150.0758  131.4902  154.2497 H   0  0  0  0  0  0  0  0  0  0  0  0
  149.1287  131.2746  152.8173 H   0  0  0  0  0  0  0  0  0  0  0  0
  148.3233  131.5161  154.3740 H   0  0  0  0  0  0  0  0  0  0  0  0
  148.2946  132.7540  151.0572 H   0  0  0  0  0  0  0  0  0  0  0  0
  147.1692  132.0114  152.1693 H   0  0  0  0  0  0  0  0  0  0  0  0
  146.6642  134.5251  150.4864 H   0  0  0  0  0  0  0  0  0  0  0  0
  146.5847  132.4354  149.1400 H   0  0  0  0  0  0  0  0  0  0  0  0
  144.9801  133.1387  149.3143 H   0  0  0  0  0  0  0  0  0  0  0  0
  145.4335  131.7349  150.2769 H   0  0  0  0  0  0  0  0  0  0  0  0
  144.7156  134.7423  153.5923 H   0  0  0  0  0  0  0  0  0  0  0  0
  145.8963  136.8621  153.3299 H   0  0  0  0  0  0  0  0  0  0  0  0
  144.9228  136.5479  151.8996 H   0  0  0  0  0  0  0  0  0  0  0  0
  146.6704  136.3206  151.8517 H   0  0  0  0  0  0  0  0  0  0  0  0
  146.4743  133.2725  154.2541 H   0  0  0  0  0  0  0  0  0  0  0  0
  147.0442  134.9169  154.4860 H   0  0  0  0  0  0  0  0  0  0  0  0
  148.1960  134.7427  152.4191 H   0  0  0  0  0  0  0  0  0  0  0  0
  1  2  1  0  0  0  0
  1 22  1  0  0  0  0
  1 23  1  0  0  0  0
  1 24  1  0  0  0  0
  2 21  1  0  0  0  0
  2  3  2  0  0  0  0
  3  4  1  0  0  0  0
  3 25  1  0  0  0  0
  4  5  1  0  0  0  0
  4 20  2  0  0  0  0
  5  6  1  0  0  0  0
  6  7  2  0  0  0  0
  6  8  1  0  0  0  0
  8  9  1  0  0  0  0
  8 26  1  0  0  0  0
  9 10  1  0  0  0  0
  9 27  1  0  0  0  0
  9 28  1  0  0  0  0
 10 11  1  0  0  0  0
 10 12  1  0  0  0  0
 10 29  1  0  0  0  0
 11 30  1  0  0  0  0
 11 31  1  0  0  0  0
 11 32  1  0  0  0  0
 12 19  1  0  0  0  0
 12 13  1  0  0  0  0
 12 45  1  0  0  0  0
 13 14  1  0  0  0  0
 13 33  1  0  0  0  0
 13 34  1  0  0  0  0
 14 15  1  0  0  0  0
 14 16  1  0  0  0  0
 14 35  1  0  0  0  0
 15 36  1  0  0  0  0
 15 37  1  0  0  0  0
 15 38  1  0  0  0  0
 16 17  1  0  0  0  0
 17 18  1  0  0  0  0
 17 19  1  0  0  0  0
 17 39  1  0  0  0  0
 18 40  1  0  0  0  0
 18 41  1  0  0  0  0
 18 42  1  0  0  0  0
 19 43  1  0  0  0  0
 19 44  1  0  0  0  0
 20 21  1  0  0  0  0
M  CHG  1   5  -1
M  CHG  1  12   1
M  END
> <s_m_source_file>
AV-unprocessed.smi

> <i_m_source_file_index>
2061

> <i_lp_mmshare_version>
43012

> <i_f3d_flags>
0

> <s_epik_input>
W0NIM11jMVtjSF1jKG5vMSlbTkhdQyg9TylbTkhdW0NIMl1bQ0BIXShbQ0gzXSlOMltDSDJdW0NAQEhdKFtDSDNdKU9bQ0BASF0oW0NIM10pW0NIMl0y

> <s_epik_cmdline>
J2VwaWtfcHl0aG9uJywgJy1waCcsICc3LjAnLCAnLXRuJywgJzgnLCAnLW1hJywgJzIwMCcsICctbWV0YWxfYmluZGluZycsICctaW1hZScsICc8aW5maWxlLm1hZT4nLCAnLW9tYWUnLCAnPG91dGZpbGUubWFlPic=

> <r_epik_Ionization_Penalty>
6.73511

> <r_epik_Ionization_Penalty_Charging>
6.73502

> <r_epik_Ionization_Penalty_Neutral>
9.50841e-05

> <r_epik_State_Penalty>
6.93549

> <r_epik_Charging_Adjusted_Penalty>
13.6705

> <i_epik_Tot_Q>
0

> <i_epik_Tot_abs_Q>
2

> <r_epik_Metal_State_Penalty>
2.87211

> <b_epik_Metal_Only>
1

> <s_lp_Force_Field>
OPLS_2005

> <r_lp_Energy>
11.2627

> <b_lp_Chiralities_Consistent>
1

> <s_lp_Variant>
AV-unprocessed.smi:2061-26

> <Gold.Version>
5.8.1

> <Gold.Id.Protein>
6NUR|6NUR_protein|mol2

> <Gold.PLP.Fitness>
40.9012

> <Gold.PLP.PLP>
-29.1010

> <Gold.PLP.part.hbond>
-4.2409

> <Gold.PLP.part.metal>
0.0000

> <Gold.PLP.part.buried>
-2.3139

> <Gold.PLP.part.nonpolar>
-22.4330

> <Gold.PLP.part.repulsive>
0.2229

> <Gold.PLP.ligand.clash>
0.0000

> <Gold.PLP.ligand.torsion>
1.6475

> <Gold.PLP.Chemscore.Hbond>
5.0000

> <Gold.PLP.Chemscore.CHOScore>
0.0000

> <Gold.PLP.Chemscore.Metal>
0.0000

> <Gold.Chemscore.Hbonds>
donor molecule, donor type, donor heavy atom, donor atom, acceptor molecule, acceptor atom, score
      L1  H    12    45       P1  7948  2.00
      P1  H  7997  8010       L1    21  0.99
      P1  H 10752 10764       L1     5  1.52

> <Gold.PLP.Chemscore.Internal.Correction>
0.0952

> <Gold.Rescore>
     Score         DG    S(hbond)    S(metal)    S(lipo)     H(rot)  DE(clash)    DE(int)     intcor
     14.83     -16.38       2.28        0.00      62.06       1.56       0.00       1.55       ----

> <Gold.Chemscore.Fitness>
14.8292

> <Gold.Chemscore.DG>
-16.3767

> <Gold.Chemscore.ZeroCoef>
-5.4800

> <Gold.Chemscore.Hbond>
2.2804

> <Gold.Chemscore.Metal>
0.0000

> <Gold.Chemscore.Lipo>
62.0603

> <Gold.Chemscore.Internal_Hbond>
0.0000

> <Gold.Chemscore.DEClash>
0.0000

> <Gold.Chemscore.DEInternal>
1.5476

> <Gold.Chemscore.Rot>
1.5550

> <Gold.Chemscore.Internal.Correction>
   9.000000E+99

> <Gold.Chemscore.Hbonds>
donor molecule, donor type, donor heavy atom, donor atom, acceptor molecule, acceptor atom, score
      L1  H    12    45       P1  7948  0.40
      P1  H  7997  8010       L1    21  0.69
      P1  H 10752 10764       L1     5  0.12

> <Gold.Chemscore.Hbond.Weighted>
-7.6166

> <Gold.Chemscore.Metal.Weighted>
-0.0000

> <Gold.Chemscore.Lipo.Weighted>
-7.2611

> <Gold.Chemscore.Internal_Hbond.Weighted>
0.0000

> <Gold.Chemscore.DEClash.Weighted>
0.0000

> <Gold.Chemscore.DEInternal.Weighted>
1.5476

> <Gold.Chemscore.Rot.Weighted>
3.9809

> <Gold.Chemscore.Internal.Correction.Weighted>
   9.000000E+99

> <Gold.Protein.RotatedTorsions>
[ 6907 6896 6895 6894 ] final   66.12 input  -60.11 | X-H torsion
[ 7974 7965 7964 7962 ] final -135.56 input  175.53 | X-H torsion
[ 8008 7997 7996 7995 ] final   26.30 input   59.86 | X-H torsion
[ 10167 10162 10161 10158 ] final -172.36 input  -65.29 | X-H torsion
[ 10718 10713 10712 10709 ] final  -75.37 input   66.30 | X-H torsion
[ 10763 10752 10751 10750 ] final  -54.34 input  -60.55 | X-H torsion
[ 11005 11000 10999 10996 ] final  135.32 input  -57.11 | X-H torsion

> <Gold.Protein.ActiveResidues>
 VAL166  LYS551  ARG553  GLY616  TRP617  ASP618  TYR619  PRO620  LYS621  CYS622 
 ASP623  PHE694  ASN695  SER759  ASP760  ASP761  ALA762  ILE779  LEU786  VAL792 
 PHE793  MET794  SER795  GLU796  ALA797  LYS798  CYS799  TRP800  GLU811  SER814 

> <Gold.Protein.RotatedAtoms>
  152.4458  134.5498  159.9863 H   0  0  0  0  0  0  0  0  0  0  0  0  # atno 6907 bound_to 6896
  151.5583  133.3401  159.2974 H   0  0  0  0  0  0  0  0  0  0  0  0  # atno 6908 bound_to 6896
  150.8374  134.7685  159.6967 H   0  0  0  0  0  0  0  0  0  0  0  0  # atno 6909 bound_to 6896
  144.9003  140.6762  143.5089 H   0  0  0  0  0  0  0  0  0  0  0  0  # atno 7974 bound_to 7965
  155.0251  140.3152  155.4779 H   0  0  0  0  0  0  0  0  0  0  0  0  # atno 8008 bound_to 7997
  156.2885  140.2190  156.5312 H   0  0  0  0  0  0  0  0  0  0  0  0  # atno 8009 bound_to 7997
  154.7418  140.0473  157.0806 H   0  0  0  0  0  0  0  0  0  0  0  0  # atno 8010 bound_to 7997
  139.5749  144.1556  152.1436 H   0  0  0  0  0  0  0  0  0  0  0  0  # atno 10167 bound_to 10162
  156.0210  130.4439  150.3032 H   0  0  0  0  0  0  0  0  0  0  0  0  # atno 10718 bound_to 10713
  154.1733  135.6455  153.5015 H   0  0  0  0  0  0  0  0  0  0  0  0  # atno 10763 bound_to 10752
  153.0078  135.5388  154.6590 H   0  0  0  0  0  0  0  0  0  0  0  0  # atno 10764 bound_to 10752
  154.5935  135.2936  155.0583 H   0  0  0  0  0  0  0  0  0  0  0  0  # atno 10765 bound_to 10752
  139.9972  134.9492  156.9991 H   0  0  0  0  0  0  0  0  0  0  0  0  # atno 11005 bound_to 11000
  145.3628  139.1677  143.4374 LP  0  0  0  0  0  0  0  0  0  0  0  0  # atno 17320 bound_to 7965
  146.3104  140.3692  142.8672 LP  0  0  0  0  0  0  0  0  0  0  0  0  # atno 17321 bound_to 7965
  140.1096  144.5468  150.6934 LP  0  0  0  0  0  0  0  0  0  0  0  0  # atno 17342 bound_to 10162
  140.7032  143.2449  151.4803 LP  0  0  0  0  0  0  0  0  0  0  0  0  # atno 17343 bound_to 10162
  157.1135  131.0227  151.3038 LP  0  0  0  0  0  0  0  0  0  0  0  0  # atno 17370 bound_to 10713
  157.4686  130.7695  149.7302 LP  0  0  0  0  0  0  0  0  0  0  0  0  # atno 17371 bound_to 10713
  140.4796  134.1303  155.7215 LP  0  0  0  0  0  0  0  0  0  0  0  0  # atno 17394 bound_to 11000
  141.1614  133.8786  157.1838 LP  0  0  0  0  0  0  0  0  0  0  0  0  # atno 17395 bound_to 11000

$$$$
