AV-unprocessed.smi:2888|AV-procd|sdf|11102|dock2
  -GOLD-   2272015573D 1   1.00000     0.00000
 Structure written by MMmdl.
 33 35  0  0  0  0  0  0  0  0  1 V2000
  151.6476  143.7917  160.0176 C   0  0  0  0  0  0  0  0  0  0  0  0
  152.2721  142.5133  159.5008 C   0  0  0  0  0  0  0  0  0  0  0  0
  153.4214  141.9568  160.0999 C   0  0  0  0  0  0  0  0  0  0  0  0
  153.9046  140.7635  159.5234 C   0  0  0  0  0  0  0  0  0  0  0  0
  155.1311  140.0620  160.0668 C   0  0  0  0  0  0  0  0  0  0  0  0
  153.3010  140.1913  158.4578 N   0  0  0  0  0  0  0  0  0  0  0  0
  152.2212  140.8064  157.9688 C   0  0  0  0  0  0  0  0  0  0  0  0
  151.6369  140.1983  156.8731 N   0  0  0  0  0  0  0  0  0  0  0  0
  152.1323  138.9745  156.2536 C   0  0  2  0  0  0  0  0  0  0  0  0
  152.4349  139.1311  154.7617 C   0  0  0  0  0  0  0  0  0  0  0  0
  151.6238  137.9774  154.1543 C   0  0  2  0  0  0  0  0  0  0  0  0
  150.1229  138.2935  154.1369 C   0  0  0  0  0  0  0  0  0  0  0  0
  149.7638  138.1735  155.6165 C   0  0  0  0  0  0  0  0  0  0  0  0
  151.1206  137.8117  156.2457 C   0  0  1  0  0  0  0  0  0  0  0  0
  151.6741  137.0251  155.2040 O   0  0  0  0  0  0  0  0  0  0  0  0
  151.6749  141.9358  158.4354 N   0  0  0  0  0  0  0  0  0  0  0  0
  152.1327  144.1242  160.9355 H   0  0  0  0  0  0  0  0  0  0  0  0
  150.5886  143.6400  160.2286 H   0  0  0  0  0  0  0  0  0  0  0  0
  151.7408  144.5845  159.2751 H   0  0  0  0  0  0  0  0  0  0  0  0
  153.9033  142.4175  160.9498 H   0  0  0  0  0  0  0  0  0  0  0  0
  155.4624  140.5161  161.0011 H   0  0  0  0  0  0  0  0  0  0  0  0
  155.9492  140.1212  159.3487 H   0  0  0  0  0  0  0  0  0  0  0  0
  154.9159  139.0103  160.2578 H   0  0  0  0  0  0  0  0  0  0  0  0
  150.7122  140.5131  156.6191 H   0  0  0  0  0  0  0  0  0  0  0  0
  153.0435  138.6595  156.7643 H   0  0  0  0  0  0  0  0  0  0  0  0
  152.1386  140.0973  154.3508 H   0  0  0  0  0  0  0  0  0  0  0  0
  153.5014  138.9984  154.5766 H   0  0  0  0  0  0  0  0  0  0  0  0
  152.0106  137.6175  153.2006 H   0  0  0  0  0  0  0  0  0  0  0  0
  149.9099  139.2814  153.7269 H   0  0  0  0  0  0  0  0  0  0  0  0
  149.5765  137.5542  153.5502 H   0  0  0  0  0  0  0  0  0  0  0  0
  149.3322  139.0875  156.0251 H   0  0  0  0  0  0  0  0  0  0  0  0
  149.0450  137.3674  155.7675 H   0  0  0  0  0  0  0  0  0  0  0  0
  151.0381  137.2906  157.1998 H   0  0  0  0  0  0  0  0  0  0  0  0
  1  2  1  0  0  0  0
  1 17  1  0  0  0  0
  1 18  1  0  0  0  0
  1 19  1  0  0  0  0
  2 16  1  0  0  0  0
  2  3  2  0  0  0  0
  3  4  1  0  0  0  0
  3 20  1  0  0  0  0
  4  5  1  0  0  0  0
  4  6  2  0  0  0  0
  5 21  1  0  0  0  0
  5 22  1  0  0  0  0
  5 23  1  0  0  0  0
  6  7  1  0  0  0  0
  7  8  1  0  0  0  0
  7 16  2  0  0  0  0
  8  9  1  0  0  0  0
  8 24  1  0  0  0  0
  9 14  1  0  0  0  0
  9 10  1  0  0  0  0
  9 25  1  0  0  0  0
 10 11  1  0  0  0  0
 10 26  1  0  0  0  0
 10 27  1  0  0  0  0
 11 15  1  0  0  0  0
 11 12  1  0  0  0  0
 11 28  1  0  0  0  0
 12 13  1  0  0  0  0
 12 29  1  0  0  0  0
 12 30  1  0  0  0  0
 13 14  1  0  0  0  0
 13 31  1  0  0  0  0
 13 32  1  0  0  0  0
 14 15  1  0  0  0  0
 14 33  1  0  0  0  0
M  END
> <s_m_source_file>
AV-unprocessed.smi

> <i_m_source_file_index>
2888

> <i_lp_mmshare_version>
43012

> <i_f3d_flags>
0

> <s_epik_input>
W0NIM11jMVtjSF1jKFtDSDNdKW5jKG4xKVtOSF1bQ0BIXShbQ0gyXVtDQEBIXTIzKVtDQEBIXShPMylbQ0gyXVtDSDJdMg==

> <s_epik_cmdline>
J2VwaWtfcHl0aG9uJywgJy1waCcsICc3LjAnLCAnLXRuJywgJzgnLCAnLW1hJywgJzIwMCcsICctbWV0YWxfYmluZGluZycsICctaW1hZScsICc8aW5maWxlLm1hZT4nLCAnLW9tYWUnLCAnPG91dGZpbGUubWFlPic=

> <r_lp_tautomer_probability>
1

> <r_epik_Ionization_Penalty>
0.00890508

> <r_epik_Ionization_Penalty_Charging>
0

> <r_epik_Ionization_Penalty_Neutral>
0.00890508

> <r_epik_State_Penalty>
0.0067342

> <r_epik_Charging_Adjusted_Penalty>
0.0067342

> <i_epik_Tot_Q>
0

> <i_epik_Tot_abs_Q>
0

> <r_epik_Metal_State_Penalty>
0.00663442

> <b_epik_Metal_Only>
0

> <s_lp_Force_Field>
OPLS_2005

> <r_lp_Energy>
31.8735

> <b_lp_Chiralities_Consistent>
1

> <s_lp_Variant>
AV-unprocessed.smi:2888-3

> <Gold.Version>
5.8.1

> <Gold.Id.Protein>
6NUR|6NUR_protein|mol2

> <Gold.PLP.Fitness>
37.4335

> <Gold.PLP.PLP>
-31.4632

> <Gold.PLP.part.hbond>
-2.0000

> <Gold.PLP.part.metal>
0.0000

> <Gold.PLP.part.buried>
-3.2965

> <Gold.PLP.part.nonpolar>
-25.9365

> <Gold.PLP.part.repulsive>
0.2000

> <Gold.PLP.ligand.clash>
0.0000

> <Gold.PLP.ligand.torsion>
0.0073

> <Gold.PLP.Chemscore.Hbond>
1.9920

> <Gold.PLP.Chemscore.CHOScore>
0.0000

> <Gold.PLP.Chemscore.Metal>
0.0000

> <Gold.Chemscore.Hbonds>
donor molecule, donor type, donor heavy atom, donor atom, acceptor molecule, acceptor atom, score
      P1  H  7997  8008       L1     6  0.93
      P1  H 10752 10763       L1    15  1.00

> <Gold.PLP.Chemscore.Internal.Correction>
0.0089

> <Gold.Rescore>
     Score         DG    S(hbond)    S(metal)    S(lipo)     H(rot)  DE(clash)    DE(int)     intcor
     17.44     -17.71       1.30        0.00      89.36       1.00       0.20       0.06       ----

> <Gold.Chemscore.Fitness>
17.4406

> <Gold.Chemscore.DG>
-17.7065

> <Gold.Chemscore.ZeroCoef>
-5.4800

> <Gold.Chemscore.Hbond>
1.2970

> <Gold.Chemscore.Metal>
0.0000

> <Gold.Chemscore.Lipo>
89.3557

> <Gold.Chemscore.Internal_Hbond>
0.0000

> <Gold.Chemscore.DEClash>
0.2021

> <Gold.Chemscore.DEInternal>
0.0637

> <Gold.Chemscore.Rot>
1.0000

> <Gold.Chemscore.Internal.Correction>
   9.000000E+99

> <Gold.Chemscore.Hbonds>
donor molecule, donor type, donor heavy atom, donor atom, acceptor molecule, acceptor atom, score
      P1  H  7997  8008       L1     6  0.33
      P1  H 10752 10763       L1    15  0.73

> <Gold.Chemscore.Hbond.Weighted>
-4.3318

> <Gold.Chemscore.Metal.Weighted>
-0.0000

> <Gold.Chemscore.Lipo.Weighted>
-10.4546

> <Gold.Chemscore.Internal_Hbond.Weighted>
0.0000

> <Gold.Chemscore.DEClash.Weighted>
0.2021

> <Gold.Chemscore.DEInternal.Weighted>
0.0637

> <Gold.Chemscore.Rot.Weighted>
2.5600

> <Gold.Chemscore.Internal.Correction.Weighted>
   9.000000E+99

> <Gold.Protein.RotatedTorsions>
[ 6907 6896 6895 6894 ] final    2.50 input  -60.11 | X-H torsion
[ 7974 7965 7964 7962 ] final  135.98 input  175.53 | X-H torsion
[ 8008 7997 7996 7995 ] final  -95.83 input   59.86 | X-H torsion
[ 10167 10162 10161 10158 ] final  -71.71 input  -65.29 | X-H torsion
[ 10718 10713 10712 10709 ] final  -32.03 input   66.30 | X-H torsion
[ 10763 10752 10751 10750 ] final   74.13 input  -60.55 | X-H torsion
[ 11005 11000 10999 10996 ] final  -78.25 input  -57.11 | X-H torsion

> <Gold.Protein.ActiveResidues>
 VAL166  LYS551  ARG553  GLY616  TRP617  ASP618  TYR619  PRO620  LYS621  CYS622 
 ASP623  PHE694  ASN695  SER759  ASP760  ASP761  ALA762  ILE779  LEU786  VAL792 
 PHE793  MET794  SER795  GLU796  ALA797  LYS798  CYS799  TRP800  GLU811  SER814 

> <Gold.Protein.RotatedAtoms>
  151.6099  135.1041  160.0078 H   0  0  0  0  0  0  0  0  0  0  0  0  # atno 6907 bound_to 6896
  152.4213  133.7118  159.6493 H   0  0  0  0  0  0  0  0  0  0  0  0  # atno 6908 bound_to 6896
  150.8101  133.8364  159.3208 H   0  0  0  0  0  0  0  0  0  0  0  0  # atno 6909 bound_to 6896
  144.9609  139.4711  143.5480 H   0  0  0  0  0  0  0  0  0  0  0  0  # atno 7974 bound_to 7965
  154.7664  140.0476  157.1016 H   0  0  0  0  0  0  0  0  0  0  0  0  # atno 8008 bound_to 7997
  154.9874  140.3109  155.4901 H   0  0  0  0  0  0  0  0  0  0  0  0  # atno 8009 bound_to 7997
  156.2913  140.2225  156.4976 H   0  0  0  0  0  0  0  0  0  0  0  0  # atno 8010 bound_to 7997
  140.5251  143.2327  151.7361 H   0  0  0  0  0  0  0  0  0  0  0  0  # atno 10167 bound_to 10162
  156.3799  130.4354  149.7477 H   0  0  0  0  0  0  0  0  0  0  0  0  # atno 10718 bound_to 10713
  153.0567  135.5037  154.7997 H   0  0  0  0  0  0  0  0  0  0  0  0  # atno 10763 bound_to 10752
  154.6818  135.2969  154.9605 H   0  0  0  0  0  0  0  0  0  0  0  0  # atno 10764 bound_to 10752
  154.0389  135.6719  153.4840 H   0  0  0  0  0  0  0  0  0  0  0  0  # atno 10765 bound_to 10752
  141.1664  133.7055  156.7943 H   0  0  0  0  0  0  0  0  0  0  0  0  # atno 11005 bound_to 11000
  146.3353  139.8759  142.8832 LP  0  0  0  0  0  0  0  0  0  0  0  0  # atno 17320 bound_to 7965
  145.2701  141.0106  143.3777 LP  0  0  0  0  0  0  0  0  0  0  0  0  # atno 17321 bound_to 7965
  139.4935  144.4197  151.9991 LP  0  0  0  0  0  0  0  0  0  0  0  0  # atno 17342 bound_to 10162
  140.3296  144.3332  150.5990 LP  0  0  0  0  0  0  0  0  0  0  0  0  # atno 17343 bound_to 10162
  156.4572  130.7934  151.2955 LP  0  0  0  0  0  0  0  0  0  0  0  0  # atno 17370 bound_to 10713
  157.7491  131.0077  150.3200 LP  0  0  0  0  0  0  0  0  0  0  0  0  # atno 17371 bound_to 10713
  140.2302  134.8691  157.3469 LP  0  0  0  0  0  0  0  0  0  0  0  0  # atno 17394 bound_to 11000
  140.1898  134.4385  155.7722 LP  0  0  0  0  0  0  0  0  0  0  0  0  # atno 17395 bound_to 11000

$$$$
