#       Name:                AV-unprocessed.smi:3349
#       Creating user name   scv26
#       Creation time:       Fri Mar 27 19:36:31 2020


#       File generated by GOLD software.
#

@<TRIPOS>MOLECULE
AV-unprocessed.smi:3349
    47    48     1
SMALL
NO_CHARGES


@<TRIPOS>ATOM
      1 ****        -0.3516   2.0766   1.1516 C.3            1 S1                 0.0000
      2 ****        -0.9961   1.0510   0.1835 C.3            1 S1                 0.0000
      3 ****        -0.4385  -0.3640   0.5027 C.3            1 S1                 0.0000
      4 ****         1.0184  -0.4159   0.4619 N.am           1 S1                 0.0000
      5 ****         1.7543  -1.4692   0.8460 C.2            1 S1                 0.0000
      6 ****         1.2601  -2.5197   1.2574 O.2            1 S1                 0.0000
      7 ****         3.2787  -1.3054   0.7458 C.3            1 S1                 0.0000
      8 ****         4.0370  -2.1708   1.7689 C.3            1 S1                 0.0000
      9 ****         3.7329  -1.5842  -0.6093 N.pl3          1 S1                 0.0000
     10 ****         3.6104  -2.6772  -1.3683 C.2            1 S1                 0.0000
     11 ****         4.1726  -2.5667  -2.5637 N.2            1 S1                 0.0000
     12 ****         4.6625  -1.2950  -2.4682 C.2            1 S1                 0.0000
     13 ****         4.4300  -0.6635  -1.3174 N.2            1 S1                 0.0000
     14 ****        -2.4768   1.1092   0.1929 N.3            1 S1                 0.0000
     15 ****        -3.0908   0.1605  -0.7436 C.3            1 S1                 0.0000
     16 ****        -4.6276   0.2388  -0.7525 C.3            1 S1                 0.0000
     17 ****        -5.0392   1.5641  -1.0574 O.3            1 S1                 0.0000
     18 ****        -4.5297   2.5078  -0.1255 C.3            1 S1                 0.0000
     19 ****        -2.9924   2.4479  -0.1171 C.3            1 S1                 0.0000
     20 ****         0.7350   2.0021   1.1790 H              1 S1                 0.0000
     21 ****        -0.7144   1.9373   2.1705 H              1 S1                 0.0000
     22 ****        -0.5540   3.1058   0.8591 H              1 S1                 0.0000
     23 ****        -0.6566   1.3068  -0.8216 H              1 S1                 0.0000
     24 ****        -0.7898  -0.6887   1.4837 H              1 S1                 0.0000
     25 ****        -0.7819  -1.1003  -0.2227 H              1 S1                 0.0000
     26 ****         1.4986   0.4081   0.1298 H              1 S1                 0.0000
     27 ****         3.5074  -0.2615   0.9705 H              1 S1                 0.0000
     28 ****         3.6978  -1.9702   2.7857 H              1 S1                 0.0000
     29 ****         5.1067  -1.9630   1.7348 H              1 S1                 0.0000
     30 ****         3.9029  -3.2360   1.5768 H              1 S1                 0.0000
     31 ****         3.1006  -3.5712  -1.0389 H              1 S1                 0.0000
     32 ****         5.2089  -0.8206  -3.2701 H              1 S1                 0.0000
     33 ****        -2.7131   0.3382  -1.7516 H              1 S1                 0.0000
     34 ****        -2.8304  -0.8632  -0.4825 H              1 S1                 0.0000
     35 ****        -5.0367  -0.4409  -1.5002 H              1 S1                 0.0000
     36 ****        -5.0353  -0.0648   0.2131 H              1 S1                 0.0000
     37 ****        -4.8680   3.5049  -0.4079 H              1 S1                 0.0000
     38 ****        -4.9302   2.3032   0.8688 H              1 S1                 0.0000
     39 ****        -2.6510   3.1723   0.6201 H              1 S1                 0.0000
     40 ****        -2.6119   2.7761  -1.0855 H              1 S1                 0.0000
     41 ****         0.2665  -2.6152   1.3167 LP             1 S1                 0.0000
     42 ****         1.8525  -3.2770   1.5322 LP             1 S1                 0.0000
     43 ****         4.2234  -3.2231  -3.3163 LP             1 S1                 0.0000
     44 ****         4.7022   0.2594  -1.0449 LP             1 S1                 0.0000
     45 ****        -2.7278   0.8616   1.1287 LP             1 S1                 0.0000
     46 ****        -6.0383   1.6032  -1.0428 LP             1 S1                 0.0000
     47 ****        -4.7096   1.8024  -1.9709 LP             1 S1                 0.0000
@<TRIPOS>BOND
    1    1    2 1     
    2    1   20 1     
    3    1   21 1     
    4    1   22 1     
    5    2    3 1     
    6    2   14 1     
    7    2   23 1     
    8    3    4 1     
    9    3   24 1     
   10    3   25 1     
   11    4    5 am    
   12    4   26 1     
   13    5    6 2     
   14    5    7 1     
   15    7    8 1     
   16    7    9 1     
   17    7   27 1     
   18    8   28 1     
   19    8   29 1     
   20    8   30 1     
   21    9   13 1     
   22    9   10 1     
   23   10   11 2     
   24   10   31 1     
   25   11   12 1     
   26   12   13 2     
   27   12   32 1     
   28   14   19 1     
   29   14   15 1     
   30   15   16 1     
   31   15   33 1     
   32   15   34 1     
   33   16   17 1     
   34   16   35 1     
   35   16   36 1     
   36   17   18 1     
   37   18   19 1     
   38   18   37 1     
   39   18   38 1     
   40   19   39 1     
   41   19   40 1     
   42    6   41 1     
   43    6   42 1     
   44   11   43 1     
   45   13   44 1     
   46   14   45 1     
   47   17   46 1     
   48   17   47 1     
@<TRIPOS>SUBSTRUCTURE
      1 S1             1
@<TRIPOS>SET
LONE_PAIRS      STATIC     ATOMS    <user>   **** ""
7 41 42 43 44 45 46 47
DONOR_HYDROGENS      STATIC     ATOMS    <user>   **** ""
1 26
ATOM$BLUE        STATIC     ATOMS    COLORGROUP SYSTEM
7 41 42 43 44 45 46 47
ATOM$RED        STATIC     ATOMS    COLORGROUP SYSTEM
1 26
