AV-unprocessed.smi:3165|AV-procd|sdf|12090|dock6
  -GOLD-   2272017523D 1   1.00000     0.00000
 Structure written by MMmdl.
 37 38  0  0  0  0  0  0  0  0  1 V2000
  143.9219  136.2319  152.9920 C   0  0  0  0  0  0  0  0  0  0  0  0
  145.2029  136.6042  152.2172 C   0  0  1  0  0  0  0  0  0  0  0  0
  145.2390  135.9871  150.8040 C   0  0  0  0  0  0  0  0  0  0  0  0
  145.2891  134.5358  150.8202 N   0  0  0  0  0  0  0  0  0  0  0  0
  144.2902  133.6443  150.4909 C   0  0  0  0  0  0  0  0  0  0  0  0
  144.7938  132.3871  150.6649 C   0  0  0  0  0  0  0  0  0  0  0  0
  146.1250  132.6155  151.1126 C   0  0  0  0  0  0  0  0  0  0  0  0
  146.4178  133.9024  151.2072 N   0  0  0  0  0  0  0  0  0  0  0  0
  145.3718  138.0558  152.1066 N   0  0  0  0  0  0  0  0  0  0  0  0
  146.7536  138.5302  152.0156 C   0  0  0  0  0  0  0  0  0  0  0  0
  147.1252  139.4341  153.2033 C   0  0  2  0  0  0  0  0  0  0  0  0
  147.1094  140.9408  152.8685 C   0  0  0  0  0  0  0  0  0  0  0  0
  147.5317  141.7649  154.0894 C   0  0  0  0  0  0  0  0  0  0  0  0
  148.8685  141.2418  154.6264 C   0  0  0  0  0  0  0  0  0  0  0  0
  148.7869  139.7289  154.8876 C   0  0  0  0  0  0  0  0  0  0  0  0
  148.4055  139.0445  153.6976 O   0  0  0  0  0  0  0  0  0  0  0  0
  143.7967  135.1514  153.0604 H   0  0  0  0  0  0  0  0  0  0  0  0
  143.0340  136.6360  152.5046 H   0  0  0  0  0  0  0  0  0  0  0  0
  143.9409  136.6030  154.0162 H   0  0  0  0  0  0  0  0  0  0  0  0
  146.0525  136.1993  152.7685 H   0  0  0  0  0  0  0  0  0  0  0  0
  144.3689  136.3079  150.2277 H   0  0  0  0  0  0  0  0  0  0  0  0
  146.1168  136.3425  150.2625 H   0  0  0  0  0  0  0  0  0  0  0  0
  143.3160  133.9757  150.1630 H   0  0  0  0  0  0  0  0  0  0  0  0
  144.2878  131.4478  150.4991 H   0  0  0  0  0  0  0  0  0  0  0  0
  146.8814  131.8895  151.3714 H   0  0  0  0  0  0  0  0  0  0  0  0
  144.8478  138.3986  151.3076 H   0  0  0  0  0  0  0  0  0  0  0  0
  147.4437  137.6875  151.9863 H   0  0  0  0  0  0  0  0  0  0  0  0
  146.8965  139.0851  151.0877 H   0  0  0  0  0  0  0  0  0  0  0  0
  146.3934  139.2475  153.9912 H   0  0  0  0  0  0  0  0  0  0  0  0
  147.7920  141.1520  152.0448 H   0  0  0  0  0  0  0  0  0  0  0  0
  146.1164  141.2444  152.5361 H   0  0  0  0  0  0  0  0  0  0  0  0
  147.6131  142.8200  153.8265 H   0  0  0  0  0  0  0  0  0  0  0  0
  146.7687  141.6918  154.8651 H   0  0  0  0  0  0  0  0  0  0  0  0
  149.6585  141.4435  153.9021 H   0  0  0  0  0  0  0  0  0  0  0  0
  149.1401  141.7692  155.5411 H   0  0  0  0  0  0  0  0  0  0  0  0
  149.7571  139.3531  155.2131 H   0  0  0  0  0  0  0  0  0  0  0  0
  148.0776  139.5108  155.6874 H   0  0  0  0  0  0  0  0  0  0  0  0
  1  2  1  0  0  0  0
  1 17  1  0  0  0  0
  1 18  1  0  0  0  0
  1 19  1  0  0  0  0
  2  3  1  0  0  0  0
  2  9  1  0  0  0  0
  2 20  1  0  0  0  0
  3  4  1  0  0  0  0
  3 21  1  0  0  0  0
  3 22  1  0  0  0  0
  4  8  1  0  0  0  0
  4  5  1  0  0  0  0
  5  6  2  0  0  0  0
  5 23  1  0  0  0  0
  6  7  1  0  0  0  0
  6 24  1  0  0  0  0
  7  8  2  0  0  0  0
  7 25  1  0  0  0  0
  9 10  1  0  0  0  0
  9 26  1  0  0  0  0
 10 11  1  0  0  0  0
 10 27  1  0  0  0  0
 10 28  1  0  0  0  0
 11 16  1  0  0  0  0
 11 12  1  0  0  0  0
 11 29  1  0  0  0  0
 12 13  1  0  0  0  0
 12 30  1  0  0  0  0
 12 31  1  0  0  0  0
 13 14  1  0  0  0  0
 13 32  1  0  0  0  0
 13 33  1  0  0  0  0
 14 15  1  0  0  0  0
 14 34  1  0  0  0  0
 14 35  1  0  0  0  0
 15 16  1  0  0  0  0
 15 36  1  0  0  0  0
 15 37  1  0  0  0  0
M  END
> <s_m_source_file>
AV-unprocessed.smi

> <i_m_source_file_index>
3165

> <i_lp_mmshare_version>
43012

> <i_f3d_flags>
0

> <s_epik_input>
bjFbY0hdW2NIXVtjSF1uMVtDSDJdW0NAQEhdKFtDSDNdKVtOSF1bQ0gyXVtDQEBIXTJbQ0gyXVtDSDJdW0NIMl1bQ0gyXU8y

> <s_epik_cmdline>
J2VwaWtfcHl0aG9uJywgJy1waCcsICc3LjAnLCAnLXRuJywgJzgnLCAnLW1hJywgJzIwMCcsICctbWV0YWxfYmluZGluZycsICctaW1hZScsICc8aW5maWxlLm1hZT4nLCAnLW9tYWUnLCAnPG91dGZpbGUubWFlPic=

> <r_lp_tautomer_probability>
1

> <r_epik_Ionization_Penalty>
2.51982

> <r_epik_Ionization_Penalty_Charging>
0

> <r_epik_Ionization_Penalty_Neutral>
2.51982

> <r_epik_State_Penalty>
2.68614

> <r_epik_Charging_Adjusted_Penalty>
2.68614

> <i_epik_Tot_Q>
0

> <i_epik_Tot_abs_Q>
0

> <r_epik_Metal_State_Penalty>
2.6861

> <b_epik_Metal_Only>
0

> <s_lp_Force_Field>
OPLS_2005

> <r_lp_Energy>
15.9673

> <b_lp_Chiralities_Consistent>
1

> <s_lp_Variant>
AV-unprocessed.smi:3165-6

> <Gold.Version>
5.8.1

> <Gold.Id.Protein>
6NUR|6NUR_protein|mol2

> <Gold.PLP.Fitness>
39.6495

> <Gold.PLP.PLP>
-33.5227

> <Gold.PLP.part.hbond>
-2.0000

> <Gold.PLP.part.metal>
0.0000

> <Gold.PLP.part.buried>
-3.8145

> <Gold.PLP.part.nonpolar>
-28.2863

> <Gold.PLP.part.repulsive>
1.1846

> <Gold.PLP.ligand.clash>
0.0000

> <Gold.PLP.ligand.torsion>
1.4549

> <Gold.PLP.Chemscore.Hbond>
1.0000

> <Gold.PLP.Chemscore.CHOScore>
2.0000

> <Gold.PLP.Chemscore.Metal>
0.0000

> <Gold.Chemscore.Hbonds>
donor molecule, donor type, donor heavy atom, donor atom, acceptor molecule, acceptor atom, score
      L1  H     9    26       P1 10171  1.00
      L1  C     5    23       P1 10186  1.00
      L1  C     7    25       P1 10747  0.87

> <Gold.PLP.Chemscore.Internal.Correction>
0.0367

> <Gold.Rescore>
     Score         DG    S(hbond)    S(metal)    S(lipo)     H(rot)  DE(clash)    DE(int)     intcor
     12.85     -14.30       1.00        0.00      81.32       1.57       0.14       1.31       ----

> <Gold.Chemscore.Fitness>
12.8534

> <Gold.Chemscore.DG>
-14.2999

> <Gold.Chemscore.ZeroCoef>
-5.4800

> <Gold.Chemscore.Hbond>
0.9978

> <Gold.Chemscore.Metal>
0.0000

> <Gold.Chemscore.Lipo>
81.3200

> <Gold.Chemscore.Internal_Hbond>
0.0000

> <Gold.Chemscore.DEClash>
0.1384

> <Gold.Chemscore.DEInternal>
1.3081

> <Gold.Chemscore.Rot>
1.5731

> <Gold.Chemscore.Internal.Correction>
   9.000000E+99

> <Gold.Chemscore.Hbonds>
donor molecule, donor type, donor heavy atom, donor atom, acceptor molecule, acceptor atom, score
      L1  H     9    26       P1 10171  1.00

> <Gold.Chemscore.Hbond.Weighted>
-3.3327

> <Gold.Chemscore.Metal.Weighted>
-0.0000

> <Gold.Chemscore.Lipo.Weighted>
-9.5144

> <Gold.Chemscore.Internal_Hbond.Weighted>
0.0000

> <Gold.Chemscore.DEClash.Weighted>
0.1384

> <Gold.Chemscore.DEInternal.Weighted>
1.3081

> <Gold.Chemscore.Rot.Weighted>
4.0273

> <Gold.Chemscore.Internal.Correction.Weighted>
   9.000000E+99

> <Gold.Protein.RotatedTorsions>
[ 6907 6896 6895 6894 ] final  121.38 input  -60.11 | X-H torsion
[ 7974 7965 7964 7962 ] final   84.82 input  175.53 | X-H torsion
[ 8008 7997 7996 7995 ] final  126.75 input   59.86 | X-H torsion
[ 10167 10162 10161 10158 ] final  176.46 input  -65.29 | X-H torsion
[ 10718 10713 10712 10709 ] final  -18.49 input   66.30 | X-H torsion
[ 10763 10752 10751 10750 ] final  108.99 input  -60.55 | X-H torsion
[ 11005 11000 10999 10996 ] final  -75.02 input  -57.11 | X-H torsion

> <Gold.Protein.ActiveResidues>
 VAL166  LYS551  ARG553  GLY616  TRP617  ASP618  TYR619  PRO620  LYS621  CYS622 
 ASP623  PHE694  ASN695  SER759  ASP760  ASP761  ALA762  ILE779  LEU786  VAL792 
 PHE793  MET794  SER795  GLU796  ALA797  LYS798  CYS799  TRP800  GLU811  SER814 

> <Gold.Protein.RotatedAtoms>
  152.4326  133.7304  159.6583 H   0  0  0  0  0  0  0  0  0  0  0  0  # atno 6907 bound_to 6896
  150.8206  133.8248  159.3146 H   0  0  0  0  0  0  0  0  0  0  0  0  # atno 6908 bound_to 6896
  151.5932  135.1054  160.0095 H   0  0  0  0  0  0  0  0  0  0  0  0  # atno 6909 bound_to 6896
  145.5936  139.2342  143.2285 H   0  0  0  0  0  0  0  0  0  0  0  0  # atno 7974 bound_to 7965
  156.2872  140.2685  156.2161 H   0  0  0  0  0  0  0  0  0  0  0  0  # atno 8008 bound_to 7997
  155.0215  140.0386  157.2457 H   0  0  0  0  0  0  0  0  0  0  0  0  # atno 8009 bound_to 7997
  154.7432  140.2729  155.6361 H   0  0  0  0  0  0  0  0  0  0  0  0  # atno 8010 bound_to 7997
  139.5215  144.2912  152.0462 H   0  0  0  0  0  0  0  0  0  0  0  0  # atno 10167 bound_to 10162
  156.5588  130.4720  149.6417 H   0  0  0  0  0  0  0  0  0  0  0  0  # atno 10718 bound_to 10713
  153.4285  135.3794  155.2155 H   0  0  0  0  0  0  0  0  0  0  0  0  # atno 10763 bound_to 10752
  154.8749  135.3834  154.4297 H   0  0  0  0  0  0  0  0  0  0  0  0  # atno 10764 bound_to 10752
  153.4827  135.7088  153.5992 H   0  0  0  0  0  0  0  0  0  0  0  0  # atno 10765 bound_to 10752
  141.1641  133.6932  156.7453 H   0  0  0  0  0  0  0  0  0  0  0  0  # atno 11005 bound_to 11000
  146.1628  140.6762  142.9269 LP  0  0  0  0  0  0  0  0  0  0  0  0  # atno 17320 bound_to 7965
  144.7340  140.4755  143.6917 LP  0  0  0  0  0  0  0  0  0  0  0  0  # atno 17321 bound_to 7965
  140.2363  144.4316  150.6278 LP  0  0  0  0  0  0  0  0  0  0  0  0  # atno 17342 bound_to 10162
  140.6321  143.2189  151.6473 LP  0  0  0  0  0  0  0  0  0  0  0  0  # atno 17343 bound_to 10162
  156.2818  130.7075  151.1901 LP  0  0  0  0  0  0  0  0  0  0  0  0  # atno 17370 bound_to 10713
  157.7373  131.0553  150.5365 LP  0  0  0  0  0  0  0  0  0  0  0  0  # atno 17371 bound_to 10713
  140.2644  134.8441  157.3789 LP  0  0  0  0  0  0  0  0  0  0  0  0  # atno 17394 bound_to 11000
  140.1580  134.4764  155.7914 LP  0  0  0  0  0  0  0  0  0  0  0  0  # atno 17395 bound_to 11000

$$$$
