AV-unprocessed.smi:11|AV-procd|sdf|59|dock2
  -GOLD-   2262015173D 1   1.00000     0.00000
 Structure written by MMmdl.
 33 35  0  0  0  0  0  0  0  0  1 V2000
  147.6622  138.5513  155.2464 C   0  0  0  0  0  0  0  0  0  0  0  0
  149.0642  138.7320  155.8529 C   0  0  0  0  0  0  0  0  0  0  0  0
  150.0690  139.5170  154.9729 C   0  0  1  0  0  0  0  0  0  0  0  0
  150.1897  138.8595  153.7263 O   0  0  0  0  0  0  0  0  0  0  0  0
  149.6130  140.9650  154.7507 C   0  0  0  0  0  0  0  0  0  0  0  0
  150.1833  141.6993  155.9616 C   0  0  0  0  0  0  0  0  0  0  0  0
  151.4362  141.0173  156.2581 N   0  0  0  0  0  0  0  0  0  0  0  0
  152.0918  141.2289  157.4900 C   0  0  0  0  0  0  0  0  0  0  0  0
  152.7934  140.1994  158.0300 N   0  0  0  0  0  0  0  0  0  0  0  0
  153.4258  140.4131  159.2114 C   0  0  0  0  0  0  0  0  0  0  0  0
  153.4474  141.5482  159.9518 N   0  0  0  0  0  0  0  0  0  0  0  0
  152.7347  142.5935  159.4372 C   0  0  0  0  0  0  0  0  0  0  0  0
  152.5733  143.8043  159.9606 N   0  0  0  0  0  0  0  0  0  0  0  0
  151.7795  144.4785  159.1120 C   0  0  0  0  0  0  0  0  0  0  0  0
  151.3796  143.6986  157.9604 C   0  0  0  0  0  0  0  0  0  0  0  0
  152.0457  142.4579  158.2069 C   0  0  0  0  0  0  0  0  0  0  0  0
  151.4493  139.7004  155.6326 C   0  0  0  0  0  0  0  0  0  0  0  0
  147.0140  138.0157  155.9399 H   0  0  0  0  0  0  0  0  0  0  0  0
  147.6879  137.9788  154.3200 H   0  0  0  0  0  0  0  0  0  0  0  0
  147.1902  139.5110  155.0356 H   0  0  0  0  0  0  0  0  0  0  0  0
  148.9574  139.2409  156.8117 H   0  0  0  0  0  0  0  0  0  0  0  0
  149.4707  137.7466  156.0842 H   0  0  0  0  0  0  0  0  0  0  0  0
  149.9538  139.4680  153.0428 H   0  0  0  0  0  0  0  0  0  0  0  0
  150.0657  141.3714  153.8446 H   0  0  0  0  0  0  0  0  0  0  0  0
  148.5319  141.0750  154.6572 H   0  0  0  0  0  0  0  0  0  0  0  0
  150.3439  142.7574  155.7539 H   0  0  0  0  0  0  0  0  0  0  0  0
  149.4980  141.6156  156.8062 H   0  0  0  0  0  0  0  0  0  0  0  0
  153.9789  139.5757  159.6103 H   0  0  0  0  0  0  0  0  0  0  0  0
  151.4869  145.5021  159.3114 H   0  0  0  0  0  0  0  0  0  0  0  0
  150.7412  143.9917  157.1372 H   0  0  0  0  0  0  0  0  0  0  0  0
  151.6726  138.9089  156.3469 H   0  0  0  0  0  0  0  0  0  0  0  0
  152.2360  139.6999  154.8772 H   0  0  0  0  0  0  0  0  0  0  0  0
  153.9623  141.5663  160.8205 H   0  0  0  0  0  0  0  0  0  0  0  0
  1  2  1  0  0  0  0
  1 18  1  0  0  0  0
  1 19  1  0  0  0  0
  1 20  1  0  0  0  0
  2  3  1  0  0  0  0
  2 21  1  0  0  0  0
  2 22  1  0  0  0  0
  3 17  1  0  0  0  0
  3  4  1  0  0  0  0
  3  5  1  0  0  0  0
  4 23  1  0  0  0  0
  5  6  1  0  0  0  0
  5 24  1  0  0  0  0
  5 25  1  0  0  0  0
  6  7  1  0  0  0  0
  6 26  1  0  0  0  0
  6 27  1  0  0  0  0
  7  8  1  0  0  0  0
  7 17  1  0  0  0  0
  8 16  2  0  0  0  0
  8  9  1  0  0  0  0
  9 10  2  0  0  0  0
 10 11  1  0  0  0  0
 10 28  1  0  0  0  0
 11 12  1  0  0  0  0
 11 33  1  0  0  0  0
 12 16  1  0  0  0  0
 12 13  2  0  0  0  0
 13 14  1  0  0  0  0
 14 15  2  0  0  0  0
 14 29  1  0  0  0  0
 15 16  1  0  0  0  0
 15 30  1  0  0  0  0
 17 31  1  0  0  0  0
 17 32  1  0  0  0  0
M  END
> <s_m_source_file>
AV-unprocessed.smi

> <i_m_source_file_index>
11

> <i_lp_mmshare_version>
43012

> <i_f3d_flags>
0

> <s_epik_input>
W0NIM11bQ0gyXVtDQEBdMShbT0hdKVtDSDJdW0NIMl1OKFtDSDJdMSljKG5bY0hdbjIpYyhjMjMpW2NIXVtjSF1bbkhdMw==

> <s_epik_cmdline>
J2VwaWtfcHl0aG9uJywgJy1waCcsICc3LjAnLCAnLXRuJywgJzgnLCAnLW1hJywgJzIwMCcsICctbWV0YWxfYmluZGluZycsICctaW1hZScsICc8aW5maWxlLm1hZT4nLCAnLW9tYWUnLCAnPG91dGZpbGUubWFlPic=

> <r_lp_tautomer_probability>
1.75997e-05

> <r_epik_Ionization_Penalty>
5.31594

> <r_epik_Ionization_Penalty_Charging>
0

> <r_epik_Ionization_Penalty_Neutral>
5.31594

> <r_epik_State_Penalty>
7.79803

> <r_epik_Charging_Adjusted_Penalty>
7.79803

> <i_epik_Tot_Q>
0

> <i_epik_Tot_abs_Q>
0

> <r_epik_Metal_State_Penalty>
4.83511

> <b_epik_Metal_Only>
1

> <s_lp_Force_Field>
OPLS_2005

> <r_lp_Energy>
41.5281

> <b_lp_Chiralities_Consistent>
1

> <s_lp_Variant>
AV-unprocessed.smi:11-5

> <Gold.Version>
5.8.1

> <Gold.Id.Protein>
6NUR|6NUR_protein|mol2

> <Gold.PLP.Fitness>
37.3112

> <Gold.PLP.PLP>
-31.7729

> <Gold.PLP.part.hbond>
-2.0000

> <Gold.PLP.part.metal>
0.0000

> <Gold.PLP.part.buried>
-3.8682

> <Gold.PLP.part.nonpolar>
-23.9261

> <Gold.PLP.part.repulsive>
0.0739

> <Gold.PLP.ligand.clash>
0.0000

> <Gold.PLP.ligand.torsion>
0.2220

> <Gold.PLP.Chemscore.Hbond>
1.8897

> <Gold.PLP.Chemscore.CHOScore>
0.0000

> <Gold.PLP.Chemscore.Metal>
0.0000

> <Gold.Chemscore.Hbonds>
donor molecule, donor type, donor heavy atom, donor atom, acceptor molecule, acceptor atom, score
      L1  H     4    23       P1  7957  1.00
      P1  H  7997  8009       L1     9  0.89

> <Gold.PLP.Chemscore.Internal.Correction>
0.3132

> <Gold.Rescore>
     Score         DG    S(hbond)    S(metal)    S(lipo)     H(rot)  DE(clash)    DE(int)     intcor
     11.92     -12.89       0.98        0.00      66.71       1.43       0.09       0.88       ----

> <Gold.Chemscore.Fitness>
11.9180

> <Gold.Chemscore.DG>
-12.8928

> <Gold.Chemscore.ZeroCoef>
-5.4800

> <Gold.Chemscore.Hbond>
0.9772

> <Gold.Chemscore.Metal>
0.0000

> <Gold.Chemscore.Lipo>
66.7134

> <Gold.Chemscore.Internal_Hbond>
0.0000

> <Gold.Chemscore.DEClash>
0.0940

> <Gold.Chemscore.DEInternal>
0.8807

> <Gold.Chemscore.Rot>
1.4283

> <Gold.Chemscore.Internal.Correction>
   9.000000E+99

> <Gold.Chemscore.Hbonds>
donor molecule, donor type, donor heavy atom, donor atom, acceptor molecule, acceptor atom, score
      L1  H     4    23       P1  7957  0.94
      P1  H  7997  8009       L1     9  0.07

> <Gold.Chemscore.Hbond.Weighted>
-3.2639

> <Gold.Chemscore.Metal.Weighted>
-0.0000

> <Gold.Chemscore.Lipo.Weighted>
-7.8055

> <Gold.Chemscore.Internal_Hbond.Weighted>
0.0000

> <Gold.Chemscore.DEClash.Weighted>
0.0940

> <Gold.Chemscore.DEInternal.Weighted>
0.8807

> <Gold.Chemscore.Rot.Weighted>
3.6566

> <Gold.Chemscore.Internal.Correction.Weighted>
   9.000000E+99

> <Gold.Protein.RotatedTorsions>
[ 6907 6896 6895 6894 ] final   67.77 input  -60.11 | X-H torsion
[ 7974 7965 7964 7962 ] final   44.22 input  175.53 | X-H torsion
[ 8008 7997 7996 7995 ] final  172.51 input   59.86 | X-H torsion
[ 10167 10162 10161 10158 ] final   27.83 input  -65.29 | X-H torsion
[ 10718 10713 10712 10709 ] final    7.19 input   66.30 | X-H torsion
[ 10763 10752 10751 10750 ] final   99.79 input  -60.55 | X-H torsion
[ 11005 11000 10999 10996 ] final  -52.79 input  -57.11 | X-H torsion

> <Gold.Protein.ActiveResidues>
 VAL166  LYS551  ARG553  GLY616  TRP617  ASP618  TYR619  PRO620  LYS621  CYS622 
 ASP623  PHE694  ASN695  SER759  ASP760  ASP761  ALA762  ILE779  LEU786  VAL792 
 PHE793  MET794  SER795  GLU796  ALA797  LYS798  CYS799  TRP800  GLU811  SER814 

> <Gold.Protein.RotatedAtoms>
  152.4574  134.5260  159.9796 H   0  0  0  0  0  0  0  0  0  0  0  0  # atno 6907 bound_to 6896
  151.5317  133.3442  159.2927 H   0  0  0  0  0  0  0  0  0  0  0  0  # atno 6908 bound_to 6896
  150.8524  134.7883  159.7082 H   0  0  0  0  0  0  0  0  0  0  0  0  # atno 6909 bound_to 6896
  146.0588  139.5099  142.9671 H   0  0  0  0  0  0  0  0  0  0  0  0  # atno 7974 bound_to 7965
  156.1167  140.1484  156.9262 H   0  0  0  0  0  0  0  0  0  0  0  0  # atno 8008 bound_to 7997
  154.4806  140.0880  156.7410 H   0  0  0  0  0  0  0  0  0  0  0  0  # atno 8009 bound_to 7997
  155.4500  140.3434  155.4302 H   0  0  0  0  0  0  0  0  0  0  0  0  # atno 8010 bound_to 7997
  140.4905  144.0475  150.6295 H   0  0  0  0  0  0  0  0  0  0  0  0  # atno 10167 bound_to 10162
  156.9333  130.5834  149.5650 H   0  0  0  0  0  0  0  0  0  0  0  0  # atno 10718 bound_to 10713
  153.3058  135.4101  155.1292 H   0  0  0  0  0  0  0  0  0  0  0  0  # atno 10763 bound_to 10752
  154.8562  135.3552  154.5790 H   0  0  0  0  0  0  0  0  0  0  0  0  # atno 10764 bound_to 10752
  153.6217  135.7064  153.5366 H   0  0  0  0  0  0  0  0  0  0  0  0  # atno 10765 bound_to 10752
  141.0942  133.6627  156.4076 H   0  0  0  0  0  0  0  0  0  0  0  0  # atno 11005 bound_to 11000
  145.6597  141.0243  143.1715 LP  0  0  0  0  0  0  0  0  0  0  0  0  # atno 17320 bound_to 7965
  144.7163  139.8186  143.7397 LP  0  0  0  0  0  0  0  0  0  0  0  0  # atno 17321 bound_to 7965
  140.3742  143.2838  152.0243 LP  0  0  0  0  0  0  0  0  0  0  0  0  # atno 17342 bound_to 10162
  139.4850  144.6206  151.7263 LP  0  0  0  0  0  0  0  0  0  0  0  0  # atno 17343 bound_to 10162
  156.0437  130.5516  150.8831 LP  0  0  0  0  0  0  0  0  0  0  0  0  # atno 17370 bound_to 10713
  157.5833  131.0946  150.9237 LP  0  0  0  0  0  0  0  0  0  0  0  0  # atno 17371 bound_to 10713
  140.5179  134.6332  157.5308 LP  0  0  0  0  0  0  0  0  0  0  0  0  # atno 17394 bound_to 11000
  139.9775  134.7191  155.9922 LP  0  0  0  0  0  0  0  0  0  0  0  0  # atno 17395 bound_to 11000

$$$$
