AV-unprocessed.smi:3048|AV-procd|sdf|11625|dock8
  -GOLD-   2272017 13D 1   1.00000     0.00000
 Structure written by MMmdl.
 38 39  0  0  0  0  0  0  0  0  2 V2000
  143.2938  143.5689  161.9698 C   0  0  0  0  0  0  0  0  0  0  0  0
  144.5274  143.3078  161.1546 C   0  0  0  0  0  0  0  0  0  0  0  0
  145.8112  142.9005  161.6169 C   0  0  0  0  0  0  0  0  0  0  0  0
  146.6866  142.7508  160.6361 N   0  0  0  0  0  0  0  0  0  0  0  0
  145.9969  143.0618  159.5180 N   0  0  0  0  0  0  0  0  0  0  0  0
  146.6504  142.9909  158.2233 C   0  0  0  0  0  0  0  0  0  0  0  0
  148.0094  142.2783  158.3044 C   0  0  0  0  0  0  0  0  0  0  0  0
  148.6973  142.2745  156.9978 N   0  3  0  0  0  0  0  0  0  0  0  0
  150.0768  141.7529  157.0392 C   0  0  0  0  0  0  0  0  0  0  0  0
  150.8487  142.3393  158.2293 C   0  0  2  0  0  0  0  0  0  0  0  0
  151.2179  143.8181  158.0034 C   0  0  0  0  0  0  0  0  0  0  0  0
  152.0691  144.3453  159.1644 C   0  0  0  0  0  0  0  0  0  0  0  0
  153.2735  143.4239  159.3841 C   0  0  0  0  0  0  0  0  0  0  0  0
  152.8109  141.9658  159.5301 C   0  0  0  0  0  0  0  0  0  0  0  0
  152.0476  141.5830  158.3899 O   0  0  0  0  0  0  0  0  0  0  0  0
  144.6911  143.4013  159.8016 C   0  0  0  0  0  0  0  0  0  0  0  0
  143.4676  143.4057  163.0336 H   0  0  0  0  0  0  0  0  0  0  0  0
  142.4719  142.9159  161.6758 H   0  0  0  0  0  0  0  0  0  0  0  0
  142.9467  144.5959  161.8553 H   0  0  0  0  0  0  0  0  0  0  0  0
  146.1297  142.7080  162.6308 H   0  0  0  0  0  0  0  0  0  0  0  0
  145.9911  142.4547  157.5397 H   0  0  0  0  0  0  0  0  0  0  0  0
  146.7642  143.9992  157.8213 H   0  0  0  0  0  0  0  0  0  0  0  0
  148.6387  142.7685  159.0486 H   0  0  0  0  0  0  0  0  0  0  0  0
  147.8691  141.2481  158.6332 H   0  0  0  0  0  0  0  0  0  0  0  0
  148.1566  141.7258  156.3448 H   0  0  0  0  0  0  0  0  0  0  0  0
  150.0565  140.6641  157.1062 H   0  0  0  0  0  0  0  0  0  0  0  0
  150.5770  142.0101  156.1044 H   0  0  0  0  0  0  0  0  0  0  0  0
  150.2384  142.2505  159.1303 H   0  0  0  0  0  0  0  0  0  0  0  0
  151.7731  143.9209  157.0699 H   0  0  0  0  0  0  0  0  0  0  0  0
  150.3165  144.4228  157.8990 H   0  0  0  0  0  0  0  0  0  0  0  0
  152.4009  145.3640  158.9620 H   0  0  0  0  0  0  0  0  0  0  0  0
  151.4669  144.3859  160.0729 H   0  0  0  0  0  0  0  0  0  0  0  0
  153.9573  143.5053  158.5381 H   0  0  0  0  0  0  0  0  0  0  0  0
  153.8306  143.7347  160.2685 H   0  0  0  0  0  0  0  0  0  0  0  0
  153.6744  141.3057  159.6135 H   0  0  0  0  0  0  0  0  0  0  0  0
  152.2208  141.8334  160.4382 H   0  0  0  0  0  0  0  0  0  0  0  0
  143.9915  143.6743  159.0249 H   0  0  0  0  0  0  0  0  0  0  0  0
  148.7332  143.2270  156.6615 H   0  0  0  0  0  0  0  0  0  0  0  0
  1  2  1  0  0  0  0
  1 17  1  0  0  0  0
  1 18  1  0  0  0  0
  1 19  1  0  0  0  0
  2 16  2  0  0  0  0
  2  3  1  0  0  0  0
  3  4  2  0  0  0  0
  3 20  1  0  0  0  0
  4  5  1  0  0  0  0
  5  6  1  0  0  0  0
  5 16  1  0  0  0  0
  6  7  1  0  0  0  0
  6 21  1  0  0  0  0
  6 22  1  0  0  0  0
  7  8  1  0  0  0  0
  7 23  1  0  0  0  0
  7 24  1  0  0  0  0
  8  9  1  0  0  0  0
  8 25  1  0  0  0  0
  8 38  1  0  0  0  0
  9 10  1  0  0  0  0
  9 26  1  0  0  0  0
  9 27  1  0  0  0  0
 10 15  1  0  0  0  0
 10 11  1  0  0  0  0
 10 28  1  0  0  0  0
 11 12  1  0  0  0  0
 11 29  1  0  0  0  0
 11 30  1  0  0  0  0
 12 13  1  0  0  0  0
 12 31  1  0  0  0  0
 12 32  1  0  0  0  0
 13 14  1  0  0  0  0
 13 33  1  0  0  0  0
 13 34  1  0  0  0  0
 14 15  1  0  0  0  0
 14 35  1  0  0  0  0
 14 36  1  0  0  0  0
 16 37  1  0  0  0  0
M  CHG  1   8   1
M  END
> <s_m_source_file>
AV-unprocessed.smi

> <i_m_source_file_index>
3048

> <i_lp_mmshare_version>
43012

> <i_f3d_flags>
0

> <s_epik_input>
W0NIM11jMVtjSF1ubihbY0hdMSlbQ0gyXVtDSDJdW05IXVtDSDJdW0NAQEhdMltDSDJdW0NIMl1bQ0gyXVtDSDJdTzI=

> <s_epik_cmdline>
J2VwaWtfcHl0aG9uJywgJy1waCcsICc3LjAnLCAnLXRuJywgJzgnLCAnLW1hJywgJzIwMCcsICctbWV0YWxfYmluZGluZycsICctaW1hZScsICc8aW5maWxlLm1hZT4nLCAnLW9tYWUnLCAnPG91dGZpbGUubWFlPic=

> <r_lp_tautomer_probability>
1

> <r_epik_Ionization_Penalty>
0.0084937

> <r_epik_Ionization_Penalty_Charging>
0.00848754

> <r_epik_Ionization_Penalty_Neutral>
6.1613e-06

> <r_epik_State_Penalty>
0.00639836

> <r_epik_Charging_Adjusted_Penalty>
0.0148859

> <i_epik_Tot_Q>
1

> <i_epik_Tot_abs_Q>
1

> <r_epik_Metal_State_Penalty>
0.00642541

> <b_epik_Metal_Only>
0

> <s_lp_Force_Field>
OPLS_2005

> <r_lp_Energy>
10.6877

> <b_lp_Chiralities_Consistent>
1

> <s_lp_Variant>
AV-unprocessed.smi:3048-1

> <Gold.Version>
5.8.1

> <Gold.Id.Protein>
6NUR|6NUR_protein|mol2

> <Gold.PLP.Fitness>
45.7484

> <Gold.PLP.PLP>
-34.9794

> <Gold.PLP.part.hbond>
-3.0000

> <Gold.PLP.part.metal>
0.0000

> <Gold.PLP.part.buried>
-5.0700

> <Gold.PLP.part.nonpolar>
-28.2195

> <Gold.PLP.part.repulsive>
0.0393

> <Gold.PLP.ligand.clash>
0.0000

> <Gold.PLP.ligand.torsion>
0.2859

> <Gold.PLP.Chemscore.Hbond>
3.7730

> <Gold.PLP.Chemscore.CHOScore>
0.0000

> <Gold.PLP.Chemscore.Metal>
0.0000

> <Gold.Chemscore.Hbonds>
donor molecule, donor type, donor heavy atom, donor atom, acceptor molecule, acceptor atom, score
      L1  H     8    38       P1  8028  2.00
      P1  H  6933  6944       L1     4  0.85
      P1  H  6934  6946       L1     4  0.90

> <Gold.PLP.Chemscore.Internal.Correction>
0.0218

> <Gold.Rescore>
     Score         DG    S(hbond)    S(metal)    S(lipo)     H(rot)  DE(clash)    DE(int)     intcor
     18.08     -18.27       1.95        0.00      88.91       1.61       0.01       0.18       ----

> <Gold.Chemscore.Fitness>
18.0838

> <Gold.Chemscore.DG>
-18.2744

> <Gold.Chemscore.ZeroCoef>
-5.4800

> <Gold.Chemscore.Hbond>
1.9540

> <Gold.Chemscore.Metal>
0.0000

> <Gold.Chemscore.Lipo>
88.9074

> <Gold.Chemscore.Internal_Hbond>
0.0000

> <Gold.Chemscore.DEClash>
0.0064

> <Gold.Chemscore.DEInternal>
0.1842

> <Gold.Chemscore.Rot>
1.6149

> <Gold.Chemscore.Internal.Correction>
   9.000000E+99

> <Gold.Chemscore.Hbonds>
donor molecule, donor type, donor heavy atom, donor atom, acceptor molecule, acceptor atom, score
      L1  H     8    38       P1  8028  0.82
      P1  H  6933  6944       L1     4  0.52
      P1  H  6934  6946       L1     4  0.15

> <Gold.Chemscore.Hbond.Weighted>
-6.5264

> <Gold.Chemscore.Metal.Weighted>
-0.0000

> <Gold.Chemscore.Lipo.Weighted>
-10.4022

> <Gold.Chemscore.Internal_Hbond.Weighted>
0.0000

> <Gold.Chemscore.DEClash.Weighted>
0.0064

> <Gold.Chemscore.DEInternal.Weighted>
0.1842

> <Gold.Chemscore.Rot.Weighted>
4.1341

> <Gold.Chemscore.Internal.Correction.Weighted>
   9.000000E+99

> <Gold.Protein.RotatedTorsions>
[ 6907 6896 6895 6894 ] final -115.07 input  -60.11 | X-H torsion
[ 7974 7965 7964 7962 ] final -136.47 input  175.53 | X-H torsion
[ 8008 7997 7996 7995 ] final   70.65 input   59.86 | X-H torsion
[ 10167 10162 10161 10158 ] final  -91.62 input  -65.29 | X-H torsion
[ 10718 10713 10712 10709 ] final   -9.97 input   66.30 | X-H torsion
[ 10763 10752 10751 10750 ] final   60.10 input  -60.55 | X-H torsion
[ 11005 11000 10999 10996 ] final  -69.45 input  -57.11 | X-H torsion

> <Gold.Protein.ActiveResidues>
 VAL166  LYS551  ARG553  GLY616  TRP617  ASP618  TYR619  PRO620  LYS621  CYS622 
 ASP623  PHE694  ASN695  SER759  ASP760  ASP761  ALA762  ILE779  LEU786  VAL792 
 PHE793  MET794  SER795  GLU796  ALA797  LYS798  CYS799  TRP800  GLU811  SER814 

> <Gold.Protein.RotatedAtoms>
  150.7949  133.8711  159.3258 H   0  0  0  0  0  0  0  0  0  0  0  0  # atno 6907 bound_to 6896
  151.6539  135.0996  160.0175 H   0  0  0  0  0  0  0  0  0  0  0  0  # atno 6908 bound_to 6896
  152.4030  133.6807  159.6367 H   0  0  0  0  0  0  0  0  0  0  0  0  # atno 6909 bound_to 6896
  144.8924  140.6660  143.5137 H   0  0  0  0  0  0  0  0  0  0  0  0  # atno 7974 bound_to 7965
  155.7420  140.3490  155.5108 H   0  0  0  0  0  0  0  0  0  0  0  0  # atno 8008 bound_to 7997
  155.9085  140.1046  157.1318 H   0  0  0  0  0  0  0  0  0  0  0  0  # atno 8009 bound_to 7997
  154.4053  140.1272  156.4514 H   0  0  0  0  0  0  0  0  0  0  0  0  # atno 8010 bound_to 7997
  140.3431  143.2931  151.9813 H   0  0  0  0  0  0  0  0  0  0  0  0  # atno 10167 bound_to 10162
  156.6803  130.5035  149.5973 H   0  0  0  0  0  0  0  0  0  0  0  0  # atno 10718 bound_to 10713
  152.9912  135.5548  154.5819 H   0  0  0  0  0  0  0  0  0  0  0  0  # atno 10763 bound_to 10752
  154.5198  135.2807  155.1274 H   0  0  0  0  0  0  0  0  0  0  0  0  # atno 10764 bound_to 10752
  154.2631  135.6377  153.5335 H   0  0  0  0  0  0  0  0  0  0  0  0  # atno 10765 bound_to 10752
  141.1554  133.6765  156.6602 H   0  0  0  0  0  0  0  0  0  0  0  0  # atno 11005 bound_to 11000
  145.3759  139.1648  143.4306 LP  0  0  0  0  0  0  0  0  0  0  0  0  # atno 17320 bound_to 7965
  146.3061  140.3836  142.8686 LP  0  0  0  0  0  0  0  0  0  0  0  0  # atno 17321 bound_to 7965
  139.4837  144.6140  151.7381 LP  0  0  0  0  0  0  0  0  0  0  0  0  # atno 17342 bound_to 10162
  140.5290  144.0760  150.6047 LP  0  0  0  0  0  0  0  0  0  0  0  0  # atno 17343 bound_to 10162
  156.1873  130.6537  151.1020 LP  0  0  0  0  0  0  0  0  0  0  0  0  # atno 17370 bound_to 10713
  157.7046  131.0762  150.6709 LP  0  0  0  0  0  0  0  0  0  0  0  0  # atno 17371 bound_to 10713
  140.3253  134.7973  157.4284 LP  0  0  0  0  0  0  0  0  0  0  0  0  # atno 17394 bound_to 11000
  140.1062  134.5406  155.8307 LP  0  0  0  0  0  0  0  0  0  0  0  0  # atno 17395 bound_to 11000

$$$$
