AV-unprocessed.smi:2772|AV-procd|sdf|10669|dock3
  -GOLD-   2272015113D 1   1.00000     0.00000
 Structure written by MMmdl.
 54 56  0  0  0  0  0  0  0  0  2 V2000
  151.8188  141.1820  156.6724 C   0  0  0  0  0  0  0  0  0  0  0  0
  151.4438  139.8360  156.0884 C   0  0  0  0  0  0  0  0  0  0  0  0
  151.5636  138.6559  156.8508 C   0  0  0  0  0  0  0  0  0  0  0  0
  151.2031  137.4333  156.2529 C   0  0  0  0  0  0  0  0  0  0  0  0
  150.7473  137.4275  154.9187 C   0  0  0  0  0  0  0  0  0  0  0  0
  150.3791  136.1814  154.3437 N   0  0  0  0  0  0  0  0  0  0  0  0
  149.7143  135.1638  154.9174 C   0  0  0  0  0  0  0  0  0  0  0  0
  149.3087  135.1430  156.0793 O   0  0  0  0  0  0  0  0  0  0  0  0
  149.5190  134.1610  154.0493 N   0  0  0  0  0  0  0  0  0  0  0  0
  148.8018  132.9242  154.3458 C   0  0  0  0  0  0  0  0  0  0  0  0
  149.7680  131.7374  154.3343 C   0  0  0  0  0  0  0  0  0  0  0  0
  149.0158  130.4108  154.5387 C   0  0  0  0  0  0  0  0  0  0  0  0
  148.0083  130.1846  153.4883 N   0  0  0  0  0  0  0  0  0  0  0  0
  147.3468  128.8688  153.6500 C   0  0  2  0  0  0  0  0  0  0  0  0
  148.3430  127.6895  153.7982 C   0  0  0  0  0  0  0  0  0  0  0  0
  149.1038  127.4112  152.4892 C   0  0  0  0  0  0  0  0  0  0  0  0
  148.1658  127.1217  151.3770 N   0  3  2  0  0  0  0  0  0  0  0  0
  148.8685  126.7675  150.1253 C   0  0  0  0  0  0  0  0  0  0  0  0
  147.1741  128.2074  151.1810 C   0  0  0  0  0  0  0  0  0  0  0  0
  146.3998  128.4909  152.4811 C   0  0  0  0  0  0  0  0  0  0  0  0
  147.0383  131.2915  153.5420 C   0  0  0  0  0  0  0  0  0  0  0  0
  147.7078  132.6560  153.3053 C   0  0  0  0  0  0  0  0  0  0  0  0
  150.6514  138.6719  154.2484 C   0  0  0  0  0  0  0  0  0  0  0  0
  150.9936  139.8489  154.8155 N   0  0  0  0  0  0  0  0  0  0  0  0
  152.1210  141.0908  157.7159 H   0  0  0  0  0  0  0  0  0  0  0  0
  150.9719  141.8671  156.6226 H   0  0  0  0  0  0  0  0  0  0  0  0
  152.6478  141.6188  156.1147 H   0  0  0  0  0  0  0  0  0  0  0  0
  151.9230  138.6831  157.8690 H   0  0  0  0  0  0  0  0  0  0  0  0
  151.2831  136.5126  156.8124 H   0  0  0  0  0  0  0  0  0  0  0  0
  150.5784  136.0827  153.3592 H   0  0  0  0  0  0  0  0  0  0  0  0
  149.8842  134.2629  153.1136 H   0  0  0  0  0  0  0  0  0  0  0  0
  148.3500  132.9963  155.3372 H   0  0  0  0  0  0  0  0  0  0  0  0
  150.3116  131.7031  153.3890 H   0  0  0  0  0  0  0  0  0  0  0  0
  150.5167  131.8591  155.1179 H   0  0  0  0  0  0  0  0  0  0  0  0
  149.7728  129.6315  154.5331 H   0  0  0  0  0  0  0  0  0  0  0  0
  148.5429  130.3907  155.5219 H   0  0  0  0  0  0  0  0  0  0  0  0
  146.7479  128.9231  154.5606 H   0  0  0  0  0  0  0  0  0  0  0  0
  149.0354  127.8108  154.6278 H   0  0  0  0  0  0  0  0  0  0  0  0
  147.7772  126.7939  154.0587 H   0  0  0  0  0  0  0  0  0  0  0  0
  149.7334  128.2639  152.2294 H   0  0  0  0  0  0  0  0  0  0  0  0
  149.7690  126.5585  152.6308 H   0  0  0  0  0  0  0  0  0  0  0  0
  149.4652  127.6048  149.7612 H   0  0  0  0  0  0  0  0  0  0  0  0
  148.1555  126.4914  149.3477 H   0  0  0  0  0  0  0  0  0  0  0  0
  149.5329  125.9173  150.2841 H   0  0  0  0  0  0  0  0  0  0  0  0
  147.6782  129.1116  150.8360 H   0  0  0  0  0  0  0  0  0  0  0  0
  146.4729  127.9179  150.3973 H   0  0  0  0  0  0  0  0  0  0  0  0
  145.8600  127.5841  152.7578 H   0  0  0  0  0  0  0  0  0  0  0  0
  145.6107  129.2205  152.3128 H   0  0  0  0  0  0  0  0  0  0  0  0
  146.2857  131.1903  152.7642 H   0  0  0  0  0  0  0  0  0  0  0  0
  146.5156  131.2863  154.4998 H   0  0  0  0  0  0  0  0  0  0  0  0
  146.9528  133.4419  153.3427 H   0  0  0  0  0  0  0  0  0  0  0  0
  148.1315  132.6827  152.3000 H   0  0  0  0  0  0  0  0  0  0  0  0
  150.2750  138.7514  153.2407 H   0  0  0  0  0  0  0  0  0  0  0  0
  147.6414  126.3034  151.6522 H   0  0  0  0  0  0  0  0  0  0  0  0
  1  2  1  0  0  0  0
  1 25  1  0  0  0  0
  1 26  1  0  0  0  0
  1 27  1  0  0  0  0
  2 24  1  0  0  0  0
  2  3  2  0  0  0  0
  3  4  1  0  0  0  0
  3 28  1  0  0  0  0
  4  5  2  0  0  0  0
  4 29  1  0  0  0  0
  5  6  1  0  0  0  0
  5 23  1  0  0  0  0
  6  7  1  0  0  0  0
  6 30  1  0  0  0  0
  7  8  2  0  0  0  0
  7  9  1  0  0  0  0
  9 10  1  0  0  0  0
  9 31  1  0  0  0  0
 10 22  1  0  0  0  0
 10 11  1  0  0  0  0
 10 32  1  0  0  0  0
 11 12  1  0  0  0  0
 11 33  1  0  0  0  0
 11 34  1  0  0  0  0
 12 13  1  0  0  0  0
 12 35  1  0  0  0  0
 12 36  1  0  0  0  0
 13 14  1  0  0  0  0
 13 21  1  0  0  0  0
 14 20  1  0  0  0  0
 14 15  1  0  0  0  0
 14 37  1  0  0  0  0
 15 16  1  0  0  0  0
 15 38  1  0  0  0  0
 15 39  1  0  0  0  0
 16 17  1  0  0  0  0
 16 40  1  0  0  0  0
 16 41  1  0  0  0  0
 17 18  1  0  0  0  0
 17 19  1  0  0  0  0
 17 54  1  0  0  0  0
 18 42  1  0  0  0  0
 18 43  1  0  0  0  0
 18 44  1  0  0  0  0
 19 20  1  0  0  0  0
 19 45  1  0  0  0  0
 19 46  1  0  0  0  0
 20 47  1  0  0  0  0
 20 48  1  0  0  0  0
 21 22  1  0  0  0  0
 21 49  1  0  0  0  0
 21 50  1  0  0  0  0
 22 51  1  0  0  0  0
 22 52  1  0  0  0  0
 23 24  2  0  0  0  0
 23 53  1  0  0  0  0
M  CHG  1  17   1
M  END
> <s_m_source_file>
AV-unprocessed.smi

> <i_m_source_file_index>
2772

> <i_lp_mmshare_version>
43012

> <i_f3d_flags>
0

> <s_epik_input>
W0NIM11jMVtjSF1bY0hdYyhbY0hdbjEpW05IXUMoPU8pW05IXVtDSF0yW0NIMl1bQ0gyXU4oW0NIMl1bQ0gyXTIpW0NIXTNbQ0gyXVtDSDJdTihbQ0gzXSlbQ0gyXVtDSDJdMw==

> <s_epik_cmdline>
J2VwaWtfcHl0aG9uJywgJy1waCcsICc3LjAnLCAnLXRuJywgJzgnLCAnLW1hJywgJzIwMCcsICctbWV0YWxfYmluZGluZycsICctaW1hZScsICc8aW5maWxlLm1hZT4nLCAnLW9tYWUnLCAnPG91dGZpbGUubWFlPic=

> <r_epik_Ionization_Penalty>
1.02952

> <r_epik_Ionization_Penalty_Charging>
0.000974969

> <r_epik_Ionization_Penalty_Neutral>
1.02854

> <r_epik_State_Penalty>
1.11259

> <r_epik_Charging_Adjusted_Penalty>
1.11356

> <i_epik_Tot_Q>
1

> <i_epik_Tot_abs_Q>
1

> <r_epik_Metal_State_Penalty>
1.1091

> <b_epik_Metal_Only>
0

> <s_lp_Force_Field>
OPLS_2005

> <r_lp_Energy>
36.1162

> <b_lp_Chiralities_Consistent>
1

> <s_lp_Variant>
AV-unprocessed.smi:2772-6

> <Gold.Version>
5.8.1

> <Gold.Id.Protein>
6NUR|6NUR_protein|mol2

> <Gold.PLP.Fitness>
46.9699

> <Gold.PLP.PLP>
-40.1841

> <Gold.PLP.part.hbond>
-4.0000

> <Gold.PLP.part.metal>
0.0000

> <Gold.PLP.part.buried>
-3.8183

> <Gold.PLP.part.nonpolar>
-31.7059

> <Gold.PLP.part.repulsive>
0.4240

> <Gold.PLP.ligand.clash>
0.0000

> <Gold.PLP.ligand.torsion>
0.4342

> <Gold.PLP.Chemscore.Hbond>
1.5500

> <Gold.PLP.Chemscore.CHOScore>
1.0000

> <Gold.PLP.Chemscore.Metal>
0.0000

> <Gold.Chemscore.Hbonds>
donor molecule, donor type, donor heavy atom, donor atom, acceptor molecule, acceptor atom, score
      L1  H     6    30       P1  7949  0.30
      P1  H  7989  7998       L1    24  1.00
      L1  C    23    53       P1  7957  1.00

> <Gold.PLP.Chemscore.Internal.Correction>
0.0042

> <Gold.Rescore>
     Score         DG    S(hbond)    S(metal)    S(lipo)     H(rot)  DE(clash)    DE(int)     intcor
     15.40     -17.07       0.97        0.00      97.50       1.20       0.07       1.59       ----

> <Gold.Chemscore.Fitness>
15.4045

> <Gold.Chemscore.DG>
-17.0730

> <Gold.Chemscore.ZeroCoef>
-5.4800

> <Gold.Chemscore.Hbond>
0.9731

> <Gold.Chemscore.Metal>
0.0000

> <Gold.Chemscore.Lipo>
97.5032

> <Gold.Chemscore.Internal_Hbond>
0.0000

> <Gold.Chemscore.DEClash>
0.0744

> <Gold.Chemscore.DEInternal>
1.5941

> <Gold.Chemscore.Rot>
1.1974

> <Gold.Chemscore.Internal.Correction>
   9.000000E+99

> <Gold.Chemscore.Hbonds>
donor molecule, donor type, donor heavy atom, donor atom, acceptor molecule, acceptor atom, score
      P1  H  7989  7998       L1    24  0.55

> <Gold.Chemscore.Hbond.Weighted>
-3.2503

> <Gold.Chemscore.Metal.Weighted>
-0.0000

> <Gold.Chemscore.Lipo.Weighted>
-11.4079

> <Gold.Chemscore.Internal_Hbond.Weighted>
0.0000

> <Gold.Chemscore.DEClash.Weighted>
0.0744

> <Gold.Chemscore.DEInternal.Weighted>
1.5941

> <Gold.Chemscore.Rot.Weighted>
3.0652

> <Gold.Chemscore.Internal.Correction.Weighted>
   9.000000E+99

> <Gold.Protein.RotatedTorsions>
[ 6907 6896 6895 6894 ] final  130.91 input  -60.11 | X-H torsion
[ 7974 7965 7964 7962 ] final  -52.64 input  175.53 | X-H torsion
[ 8008 7997 7996 7995 ] final  -19.81 input   59.86 | X-H torsion
[ 10167 10162 10161 10158 ] final   -9.22 input  -65.29 | X-H torsion
[ 10718 10713 10712 10709 ] final  119.97 input   66.30 | X-H torsion
[ 10763 10752 10751 10750 ] final -178.17 input  -60.55 | X-H torsion
[ 11005 11000 10999 10996 ] final   11.91 input  -57.11 | X-H torsion

> <Gold.Protein.ActiveResidues>
 VAL166  LYS551  ARG553  GLY616  TRP617  ASP618  TYR619  PRO620  LYS621  CYS622 
 ASP623  PHE694  ASN695  SER759  ASP760  ASP761  ALA762  ILE779  LEU786  VAL792 
 PHE793  MET794  SER795  GLU796  ALA797  LYS798  CYS799  TRP800  GLU811  SER814 

> <Gold.Protein.RotatedAtoms>
  152.3479  133.6144  159.5922 H   0  0  0  0  0  0  0  0  0  0  0  0  # atno 6907 bound_to 6896
  150.7519  133.9621  159.3527 H   0  0  0  0  0  0  0  0  0  0  0  0  # atno 6908 bound_to 6896
  151.7476  135.0841  160.0377 H   0  0  0  0  0  0  0  0  0  0  0  0  # atno 6909 bound_to 6896
  145.9057  140.7957  142.9720 H   0  0  0  0  0  0  0  0  0  0  0  0  # atno 7974 bound_to 7965
  154.4811  140.2078  155.9761 H   0  0  0  0  0  0  0  0  0  0  0  0  # atno 8008 bound_to 7997
  156.1166  140.3220  155.8118 H   0  0  0  0  0  0  0  0  0  0  0  0  # atno 8009 bound_to 7997
  155.4541  140.0519  157.2989 H   0  0  0  0  0  0  0  0  0  0  0  0  # atno 8010 bound_to 7997
  140.7081  143.5882  150.8921 H   0  0  0  0  0  0  0  0  0  0  0  0  # atno 10167 bound_to 10162
  157.5924  131.1062  150.7971 H   0  0  0  0  0  0  0  0  0  0  0  0  # atno 10718 bound_to 10713
  154.5511  135.2813  155.1008 H   0  0  0  0  0  0  0  0  0  0  0  0  # atno 10763 bound_to 10752
  154.2453  135.6349  153.5225 H   0  0  0  0  0  0  0  0  0  0  0  0  # atno 10764 bound_to 10752
  153.0003  135.5570  154.6077 H   0  0  0  0  0  0  0  0  0  0  0  0  # atno 10765 bound_to 10752
  140.4980  134.0775  155.7787 H   0  0  0  0  0  0  0  0  0  0  0  0  # atno 11005 bound_to 11000
  144.6739  140.1747  143.7411 LP  0  0  0  0  0  0  0  0  0  0  0  0  # atno 17320 bound_to 7965
  145.8735  139.2284  143.1647 LP  0  0  0  0  0  0  0  0  0  0  0  0  # atno 17321 bound_to 7965
  139.9608  143.6166  152.3003 LP  0  0  0  0  0  0  0  0  0  0  0  0  # atno 17342 bound_to 10162
  139.6718  144.7660  151.1769 LP  0  0  0  0  0  0  0  0  0  0  0  0  # atno 17343 bound_to 10162
  156.8389  130.5041  149.5323 LP  0  0  0  0  0  0  0  0  0  0  0  0  # atno 17370 bound_to 10713
  156.0981  130.5947  150.9847 LP  0  0  0  0  0  0  0  0  0  0  0  0  # atno 17371 bound_to 10713
  141.1450  133.9070  157.2236 LP  0  0  0  0  0  0  0  0  0  0  0  0  # atno 17394 bound_to 11000
  139.9730  135.0122  156.9560 LP  0  0  0  0  0  0  0  0  0  0  0  0  # atno 17395 bound_to 11000

$$$$
