AV-unprocessed.smi:2136|AV-procd|sdf|8703|dock5
  -GOLD-   2272011463D 1   1.00000     0.00000
 Structure written by MMmdl.
 42 43  0  0  0  0  0  0  0  0  1 V2000
  149.1684  134.3262  155.5315 C   0  0  0  0  0  0  0  0  0  0  0  0
  150.1723  135.5671  156.4473 S   0  0  0  0  0  0  0  0  0  0  0  0
  149.8529  135.4465  157.8774 O   0  0  0  0  0  0  0  0  0  0  0  0
  151.5721  135.4303  156.0162 O   0  0  0  0  0  0  0  0  0  0  0  0
  149.5658  137.0939  155.8310 N   0  0  0  0  0  0  0  0  0  0  0  0
  150.6049  137.9564  155.2156 C   0  0  0  0  0  0  0  0  0  0  0  0
  150.1214  139.3844  154.9368 C   0  0  0  0  0  0  0  0  0  0  0  0
  148.8740  139.3653  154.0625 C   0  0  0  0  0  0  0  0  0  0  0  0
  147.7917  138.5835  154.7997 C   0  0  0  0  0  0  0  0  0  0  0  0
  148.2305  137.1398  155.1493 C   0  0  2  0  0  0  0  0  0  0  0  0
  147.0603  136.4648  155.8800 C   0  0  0  0  0  0  0  0  0  0  0  0
  146.0359  136.1775  155.2609 O   0  0  0  0  0  0  0  0  0  0  0  0
  147.2226  136.2197  157.1905 N   0  0  0  0  0  0  0  0  0  0  0  0
  146.2379  135.5756  158.0495 C   0  0  0  0  0  0  0  0  0  0  0  0
  146.9044  134.6448  159.0753 C   0  0  0  0  0  0  0  0  0  0  0  0
  147.1049  135.3256  160.4143 C   0  0  0  0  0  0  0  0  0  0  0  0
  146.8163  134.6549  161.6205 C   0  0  0  0  0  0  0  0  0  0  0  0
  147.0146  135.3344  162.8378 C   0  0  0  0  0  0  0  0  0  0  0  0
  147.4941  136.6591  162.7960 C   0  0  0  0  0  0  0  0  0  0  0  0
  147.7734  137.3110  161.6468 N   0  0  0  0  0  0  0  0  0  0  0  0
  147.5807  136.6521  160.4839 C   0  0  0  0  0  0  0  0  0  0  0  0
  149.4966  133.3245  155.8074 H   0  0  0  0  0  0  0  0  0  0  0  0
  149.2982  134.4639  154.4588 H   0  0  0  0  0  0  0  0  0  0  0  0
  148.1163  134.4411  155.7910 H   0  0  0  0  0  0  0  0  0  0  0  0
  151.4740  138.0121  155.8706 H   0  0  0  0  0  0  0  0  0  0  0  0
  150.9411  137.4943  154.2869 H   0  0  0  0  0  0  0  0  0  0  0  0
  149.9129  139.8959  155.8774 H   0  0  0  0  0  0  0  0  0  0  0  0
  150.9112  139.9519  154.4439 H   0  0  0  0  0  0  0  0  0  0  0  0
  148.5358  140.3824  153.8618 H   0  0  0  0  0  0  0  0  0  0  0  0
  149.0892  138.9028  153.0983 H   0  0  0  0  0  0  0  0  0  0  0  0
  147.5269  139.1266  155.7088 H   0  0  0  0  0  0  0  0  0  0  0  0
  146.8889  138.5619  154.1872 H   0  0  0  0  0  0  0  0  0  0  0  0
  148.3513  136.6088  154.2039 H   0  0  0  0  0  0  0  0  0  0  0  0
  148.1007  136.4804  157.6155 H   0  0  0  0  0  0  0  0  0  0  0  0
  145.6323  136.3324  158.5515 H   0  0  0  0  0  0  0  0  0  0  0  0
  145.5587  135.0049  157.4155 H   0  0  0  0  0  0  0  0  0  0  0  0
  146.3000  133.7475  159.2158 H   0  0  0  0  0  0  0  0  0  0  0  0
  147.8749  134.3073  158.7086 H   0  0  0  0  0  0  0  0  0  0  0  0
  146.4480  133.6394  161.6150 H   0  0  0  0  0  0  0  0  0  0  0  0
  146.8040  134.8526  163.7811 H   0  0  0  0  0  0  0  0  0  0  0  0
  147.6574  137.2100  163.7104 H   0  0  0  0  0  0  0  0  0  0  0  0
  147.8108  137.2005  159.5822 H   0  0  0  0  0  0  0  0  0  0  0  0
  1  2  1  0  0  0  0
  1 22  1  0  0  0  0
  1 23  1  0  0  0  0
  1 24  1  0  0  0  0
  2  3  2  0  0  0  0
  2  4  2  0  0  0  0
  2  5  1  0  0  0  0
  5 10  1  0  0  0  0
  5  6  1  0  0  0  0
  6  7  1  0  0  0  0
  6 25  1  0  0  0  0
  6 26  1  0  0  0  0
  7  8  1  0  0  0  0
  7 27  1  0  0  0  0
  7 28  1  0  0  0  0
  8  9  1  0  0  0  0
  8 29  1  0  0  0  0
  8 30  1  0  0  0  0
  9 10  1  0  0  0  0
  9 31  1  0  0  0  0
  9 32  1  0  0  0  0
 10 11  1  0  0  0  0
 10 33  1  0  0  0  0
 11 12  2  0  0  0  0
 11 13  1  0  0  0  0
 13 14  1  0  0  0  0
 13 34  1  0  0  0  0
 14 15  1  0  0  0  0
 14 35  1  0  0  0  0
 14 36  1  0  0  0  0
 15 16  1  0  0  0  0
 15 37  1  0  0  0  0
 15 38  1  0  0  0  0
 16 21  1  0  0  0  0
 16 17  2  0  0  0  0
 17 18  1  0  0  0  0
 17 39  1  0  0  0  0
 18 19  2  0  0  0  0
 18 40  1  0  0  0  0
 19 20  1  0  0  0  0
 19 41  1  0  0  0  0
 20 21  2  0  0  0  0
 21 42  1  0  0  0  0
M  END
> <s_m_source_file>
AV-unprocessed.smi

> <i_m_source_file_index>
2136

> <i_lp_mmshare_version>
43012

> <i_f3d_flags>
0

> <s_epik_input>
W0NIM11TKD1PKSg9TylOMVtDSDJdW0NIMl1bQ0gyXVtDSDJdW0NASF0xQyg9TylbTkhdW0NIMl1bQ0gyXWMyW2NIXVtjSF1bY0hdbltjSF0y

> <s_epik_cmdline>
J2VwaWtfcHl0aG9uJywgJy1waCcsICc3LjAnLCAnLXRuJywgJzgnLCAnLW1hJywgJzIwMCcsICctbWV0YWxfYmluZGluZycsICctaW1hZScsICc8aW5maWxlLm1hZT4nLCAnLW9tYWUnLCAnPG91dGZpbGUubWFlPic=

> <r_epik_Ionization_Penalty>
0.0126915

> <r_epik_Ionization_Penalty_Charging>
0

> <r_epik_Ionization_Penalty_Neutral>
0.0126915

> <r_epik_State_Penalty>
0.0098379

> <r_epik_Charging_Adjusted_Penalty>
0.0098379

> <i_epik_Tot_Q>
0

> <i_epik_Tot_abs_Q>
0

> <r_epik_Metal_State_Penalty>
0.00962913

> <b_epik_Metal_Only>
0

> <s_lp_Force_Field>
OPLS_2005

> <r_lp_Energy>
2.71494

> <b_lp_Chiralities_Consistent>
1

> <s_lp_Variant>
AV-unprocessed.smi:2136-2

> <Gold.Version>
5.8.1

> <Gold.Id.Protein>
6NUR|6NUR_protein|mol2

> <Gold.PLP.Fitness>
38.1468

> <Gold.PLP.PLP>
-29.9833

> <Gold.PLP.part.hbond>
-4.0000

> <Gold.PLP.part.metal>
0.0000

> <Gold.PLP.part.buried>
-3.1498

> <Gold.PLP.part.nonpolar>
-22.7786

> <Gold.PLP.part.repulsive>
0.0909

> <Gold.PLP.ligand.clash>
0.0000

> <Gold.PLP.ligand.torsion>
1.3774

> <Gold.PLP.Chemscore.Hbond>
3.3893

> <Gold.PLP.Chemscore.CHOScore>
0.0000

> <Gold.PLP.Chemscore.Metal>
0.0000

> <Gold.Chemscore.Hbonds>
donor molecule, donor type, donor heavy atom, donor atom, acceptor molecule, acceptor atom, score
      P1  H  6896  6907       L1     3  0.76
      P1  H  6931  6943       L1    20  0.99
      P1  H  6934  6947       L1    20  0.50
      P1  H 10752 10763       L1     4  0.99

> <Gold.PLP.Chemscore.Internal.Correction>
0.7502

> <Gold.Rescore>
     Score         DG    S(hbond)    S(metal)    S(lipo)     H(rot)  DE(clash)    DE(int)     intcor
     16.63     -18.07       2.75        0.00      69.51       1.84       0.00       1.44       ----

> <Gold.Chemscore.Fitness>
16.6319

> <Gold.Chemscore.DG>
-18.0672

> <Gold.Chemscore.ZeroCoef>
-5.4800

> <Gold.Chemscore.Hbond>
2.7456

> <Gold.Chemscore.Metal>
0.0000

> <Gold.Chemscore.Lipo>
69.5062

> <Gold.Chemscore.Internal_Hbond>
0.0000

> <Gold.Chemscore.DEClash>
0.0000

> <Gold.Chemscore.DEInternal>
1.4354

> <Gold.Chemscore.Rot>
1.8419

> <Gold.Chemscore.Internal.Correction>
   9.000000E+99

> <Gold.Chemscore.Hbonds>
donor molecule, donor type, donor heavy atom, donor atom, acceptor molecule, acceptor atom, score
      P1  H  6896  6907       L1     3  0.71
      P1  H  6931  6943       L1    20  0.59
      P1  H  6934  6947       L1    20  0.06
      P1  H 10752 10763       L1     4  0.94

> <Gold.Chemscore.Hbond.Weighted>
-9.1703

> <Gold.Chemscore.Metal.Weighted>
-0.0000

> <Gold.Chemscore.Lipo.Weighted>
-8.1322

> <Gold.Chemscore.Internal_Hbond.Weighted>
0.0000

> <Gold.Chemscore.DEClash.Weighted>
0.0000

> <Gold.Chemscore.DEInternal.Weighted>
1.4354

> <Gold.Chemscore.Rot.Weighted>
4.7153

> <Gold.Chemscore.Internal.Correction.Weighted>
   9.000000E+99

> <Gold.Protein.RotatedTorsions>
[ 6907 6896 6895 6894 ] final  -59.48 input  -60.11 | X-H torsion
[ 7974 7965 7964 7962 ] final -143.48 input  175.53 | X-H torsion
[ 8008 7997 7996 7995 ] final -110.11 input   59.86 | X-H torsion
[ 10167 10162 10161 10158 ] final -125.22 input  -65.29 | X-H torsion
[ 10718 10713 10712 10709 ] final  138.49 input   66.30 | X-H torsion
[ 10763 10752 10751 10750 ] final  100.53 input  -60.55 | X-H torsion
[ 11005 11000 10999 10996 ] final  -61.21 input  -57.11 | X-H torsion

> <Gold.Protein.ActiveResidues>
 VAL166  LYS551  ARG553  GLY616  TRP617  ASP618  TYR619  PRO620  LYS621  CYS622 
 ASP623  PHE694  ASN695  SER759  ASP760  ASP761  ALA762  ILE779  LEU786  VAL792 
 PHE793  MET794  SER795  GLU796  ALA797  LYS798  CYS799  TRP800  GLU811  SER814 

> <Gold.Protein.RotatedAtoms>
  150.7927  134.6963  159.6524 H   0  0  0  0  0  0  0  0  0  0  0  0  # atno 6907 bound_to 6896
  152.4035  134.6243  160.0068 H   0  0  0  0  0  0  0  0  0  0  0  0  # atno 6908 bound_to 6896
  151.6507  133.3284  159.3187 H   0  0  0  0  0  0  0  0  0  0  0  0  # atno 6909 bound_to 6896
  144.8366  140.5829  143.5480 H   0  0  0  0  0  0  0  0  0  0  0  0  # atno 7974 bound_to 7965
  154.9695  140.0398  157.2228 H   0  0  0  0  0  0  0  0  0  0  0  0  # atno 8008 bound_to 7997
  154.7814  140.2819  155.6039 H   0  0  0  0  0  0  0  0  0  0  0  0  # atno 8009 bound_to 7997
  156.2936  140.2591  156.2640 H   0  0  0  0  0  0  0  0  0  0  0  0  # atno 8010 bound_to 7997
  139.9844  143.5708  152.2366 H   0  0  0  0  0  0  0  0  0  0  0  0  # atno 10167 bound_to 10162
  157.4248  131.1042  151.0315 H   0  0  0  0  0  0  0  0  0  0  0  0  # atno 10718 bound_to 10713
  153.3151  135.4076  155.1369 H   0  0  0  0  0  0  0  0  0  0  0  0  # atno 10763 bound_to 10752
  154.8586  135.3574  154.5671 H   0  0  0  0  0  0  0  0  0  0  0  0  # atno 10764 bound_to 10752
  153.6102  135.7068  153.5409 H   0  0  0  0  0  0  0  0  0  0  0  0  # atno 10765 bound_to 10752
  141.1316  133.6628  156.5340 H   0  0  0  0  0  0  0  0  0  0  0  0  # atno 11005 bound_to 11000
  145.4781  139.1497  143.3777 LP  0  0  0  0  0  0  0  0  0  0  0  0  # atno 17320 bound_to 7965
  146.2664  140.4916  142.8832 LP  0  0  0  0  0  0  0  0  0  0  0  0  # atno 17321 bound_to 7965
  139.6386  144.7652  151.2386 LP  0  0  0  0  0  0  0  0  0  0  0  0  # atno 17342 bound_to 10162
  140.7477  143.6356  150.8383 LP  0  0  0  0  0  0  0  0  0  0  0  0  # atno 17343 bound_to 10162
  157.1232  130.6070  149.5510 LP  0  0  0  0  0  0  0  0  0  0  0  0  # atno 17370 bound_to 10713
  155.9893  130.4939  150.7206 LP  0  0  0  0  0  0  0  0  0  0  0  0  # atno 17371 bound_to 10713
  140.4193  134.7202  157.4881 LP  0  0  0  0  0  0  0  0  0  0  0  0  # atno 17394 bound_to 11000
  140.0371  134.6321  155.9029 LP  0  0  0  0  0  0  0  0  0  0  0  0  # atno 17395 bound_to 11000

$$$$
