AV-unprocessed.smi:34|AV-procd|sdf|244|dock1
  -GOLD-   2262015593D 1   1.00000     0.00000
 Structure written by MMmdl.
 54 58  0  0  0  0  0  0  0  0  2 V2000
  148.0667  132.4980  159.0323 O   0  0  0  0  0  0  0  0  0  0  0  0
  148.2113  133.6949  159.2904 C   0  0  0  0  0  0  0  0  0  0  0  0
  148.9216  134.6163  158.5911 N   0  5  0  0  0  0  0  0  0  0  0  0
  148.3119  135.3716  157.6645 C   0  0  0  0  0  0  0  0  0  0  0  0
  147.5902  134.7861  156.6747 N   0  0  0  0  0  0  0  0  0  0  0  0
  146.9832  135.5343  155.7457 C   0  0  0  0  0  0  0  0  0  0  0  0
  146.9677  136.8646  155.6157 N   0  0  0  0  0  0  0  0  0  0  0  0
  147.6958  137.4634  156.6024 C   0  0  0  0  0  0  0  0  0  0  0  0
  148.3946  136.7919  157.6464 C   0  0  0  0  0  0  0  0  0  0  0  0
  149.0340  137.7050  158.4725 N   0  0  0  0  0  0  0  0  0  0  0  0
  148.6915  138.8635  157.9116 C   0  0  0  0  0  0  0  0  0  0  0  0
  147.9118  138.8134  156.8111 N   0  0  0  0  0  0  0  0  0  0  0  0
  147.3588  139.9261  155.9802 C   0  0  1  0  0  0  0  0  0  0  0  0
  147.9207  141.1302  156.4242 O   0  0  0  0  0  0  0  0  0  0  0  0
  148.7269  141.7221  155.4066 C   0  0  1  0  0  0  0  0  0  0  0  0
  150.2079  141.3767  155.6290 C   0  0  0  0  0  0  0  0  0  0  0  0
  150.7519  142.2703  156.5869 O   0  0  0  0  0  0  0  0  0  0  0  0
  151.4846  141.7990  157.6141 C   0  0  0  0  0  0  0  0  0  0  0  0
  151.8963  140.6393  157.6830 O   0  0  0  0  0  0  0  0  0  0  0  0
  151.7454  142.8298  158.6601 C   0  0  0  0  0  0  0  0  0  0  0  0
  151.4720  144.1888  158.3782 C   0  0  0  0  0  0  0  0  0  0  0  0
  151.7106  145.1843  159.3455 C   0  0  0  0  0  0  0  0  0  0  0  0
  152.2266  144.8335  160.6067 C   0  0  0  0  0  0  0  0  0  0  0  0
  152.5033  143.4854  160.8993 C   0  0  0  0  0  0  0  0  0  0  0  0
  152.2644  142.4882  159.9336 C   0  0  0  0  0  0  0  0  0  0  0  0
  148.1471  141.1576  154.1115 C   0  0  2  0  0  0  0  0  0  0  0  0
  147.0638  141.8783  153.8088 F   0  0  0  0  0  0  0  0  0  0  0  0
  147.7692  139.7405  154.5126 C   0  0  2  0  0  0  0  0  0  0  0  0
  146.7310  139.2464  153.6908 O   0  0  0  0  0  0  0  0  0  0  0  0
  147.6012  134.2430  160.5535 C   0  0  0  0  0  0  0  0  0  0  0  0
  147.9258  135.5525  160.9767 C   0  0  0  0  0  0  0  0  0  0  0  0
  147.3894  136.0747  162.1698 C   0  0  0  0  0  0  0  0  0  0  0  0
  146.5270  135.2900  162.9577 C   0  0  0  0  0  0  0  0  0  0  0  0
  146.2053  133.9810  162.5538 C   0  0  0  0  0  0  0  0  0  0  0  0
  146.7434  133.4573  161.3620 C   0  0  0  0  0  0  0  0  0  0  0  0
  146.4287  134.9867  154.9981 H   0  0  0  0  0  0  0  0  0  0  0  0
  149.0252  139.7994  158.3333 H   0  0  0  0  0  0  0  0  0  0  0  0
  146.2824  139.9153  156.1581 H   0  0  0  0  0  0  0  0  0  0  0  0
  148.6078  142.8057  155.4524 H   0  0  0  0  0  0  0  0  0  0  0  0
  150.2939  140.3583  156.0099 H   0  0  0  0  0  0  0  0  0  0  0  0
  150.7689  141.4262  154.6951 H   0  0  0  0  0  0  0  0  0  0  0  0
  151.0756  144.4822  157.4167 H   0  0  0  0  0  0  0  0  0  0  0  0
  151.4976  146.2187  159.1190 H   0  0  0  0  0  0  0  0  0  0  0  0
  152.4105  145.5969  161.3481 H   0  0  0  0  0  0  0  0  0  0  0  0
  152.9001  143.2145  161.8667 H   0  0  0  0  0  0  0  0  0  0  0  0
  152.4891  141.4636  160.1913 H   0  0  0  0  0  0  0  0  0  0  0  0
  148.8274  141.2073  153.2604 H   0  0  0  0  0  0  0  0  0  0  0  0
  148.6418  139.0881  154.4496 H   0  0  0  0  0  0  0  0  0  0  0  0
  146.9092  138.3378  153.4989 H   0  0  0  0  0  0  0  0  0  0  0  0
  148.5879  136.1679  160.3851 H   0  0  0  0  0  0  0  0  0  0  0  0
  147.6420  137.0774  162.4809 H   0  0  0  0  0  0  0  0  0  0  0  0
  146.1161  135.6899  163.8727 H   0  0  0  0  0  0  0  0  0  0  0  0
  145.5483  133.3752  163.1600 H   0  0  0  0  0  0  0  0  0  0  0  0
  146.4930  132.4453  161.0783 H   0  0  0  0  0  0  0  0  0  0  0  0
  1  2  2  0  0  0  0
  2  3  1  0  0  0  0
  2 30  1  0  0  0  0
  3  4  1  0  0  0  0
  4  9  1  0  0  0  0
  4  5  2  0  0  0  0
  5  6  1  0  0  0  0
  6  7  2  0  0  0  0
  6 36  1  0  0  0  0
  7  8  1  0  0  0  0
  8 12  1  0  0  0  0
  8  9  2  0  0  0  0
  9 10  1  0  0  0  0
 10 11  2  0  0  0  0
 11 12  1  0  0  0  0
 11 37  1  0  0  0  0
 12 13  1  0  0  0  0
 13 28  1  0  0  0  0
 13 14  1  0  0  0  0
 13 38  1  0  0  0  0
 14 15  1  0  0  0  0
 15 16  1  0  0  0  0
 15 26  1  0  0  0  0
 15 39  1  0  0  0  0
 16 17  1  0  0  0  0
 16 40  1  0  0  0  0
 16 41  1  0  0  0  0
 17 18  1  0  0  0  0
 18 19  2  0  0  0  0
 18 20  1  0  0  0  0
 20 25  1  0  0  0  0
 20 21  2  0  0  0  0
 21 22  1  0  0  0  0
 21 42  1  0  0  0  0
 22 23  2  0  0  0  0
 22 43  1  0  0  0  0
 23 24  1  0  0  0  0
 23 44  1  0  0  0  0
 24 25  2  0  0  0  0
 24 45  1  0  0  0  0
 25 46  1  0  0  0  0
 26 27  1  0  0  0  0
 26 28  1  0  0  0  0
 26 47  1  0  0  0  0
 28 29  1  0  0  0  0
 28 48  1  0  0  0  0
 29 49  1  0  0  0  0
 30 35  1  0  0  0  0
 30 31  2  0  0  0  0
 31 32  1  0  0  0  0
 31 50  1  0  0  0  0
 32 33  2  0  0  0  0
 32 51  1  0  0  0  0
 33 34  1  0  0  0  0
 33 52  1  0  0  0  0
 34 35  2  0  0  0  0
 34 53  1  0  0  0  0
 35 54  1  0  0  0  0
M  CHG  1   3  -1
M  END
> <s_m_source_file>
AV-unprocessed.smi

> <i_m_source_file_index>
34

> <i_lp_mmshare_version>
43012

> <i_f3d_flags>
0

> <s_epik_input>
W2NIXTFbY0hdW2NIXVtjSF1bY0hdYzFDKD1PKVtOSF1jKG5bY0hdbjIpYyhjMjMpbltjSF1uM1tDQEBIXTRPW0NASF0oW0NAQEhdKEYpW0NASF00W09IXSlbQ0gyXU9DKD1PKWM1W2NIXVtjSF1bY0hdW2NIXVtjSF01

> <s_epik_cmdline>
J2VwaWtfcHl0aG9uJywgJy1waCcsICc3LjAnLCAnLXRuJywgJzgnLCAnLW1hJywgJzIwMCcsICctbWV0YWxfYmluZGluZycsICctaW1hZScsICc8aW5maWxlLm1hZT4nLCAnLW9tYWUnLCAnPG91dGZpbGUubWFlPic=

> <r_lp_tautomer_probability>
1

> <r_epik_Ionization_Penalty>
4.33227

> <r_epik_Ionization_Penalty_Charging>
3.41027

> <r_epik_Ionization_Penalty_Neutral>
0.922001

> <r_epik_State_Penalty>
3.41358

> <r_epik_Charging_Adjusted_Penalty>
6.82385

> <i_epik_Tot_Q>
-1

> <i_epik_Tot_abs_Q>
1

> <r_epik_Metal_State_Penalty>
0.496292

> <b_epik_Metal_Only>
1

> <s_epik_Chemistry_Notes>
This compound has an ester and may undergo hydrolysis at high or low pH. This compound contains an acetal/aminal-like group ( X-CH(R)-Y where X, Y are N, S, or O) that may be acid/base labile, releasing an aldehyde.

> <s_lp_Force_Field>
OPLS_2005

> <r_lp_Energy>
49.0999

> <b_lp_Chiralities_Consistent>
1

> <s_lp_Variant>
AV-unprocessed.smi:34-30

> <Gold.Version>
5.8.1

> <Gold.Id.Protein>
6NUR|6NUR_protein|mol2

> <Gold.PLP.Fitness>
57.7653

> <Gold.PLP.PLP>
-55.0131

> <Gold.PLP.part.hbond>
-1.0000

> <Gold.PLP.part.metal>
0.0000

> <Gold.PLP.part.buried>
-7.7782

> <Gold.PLP.part.nonpolar>
-47.1011

> <Gold.PLP.part.repulsive>
0.2174

> <Gold.PLP.ligand.clash>
0.0223

> <Gold.PLP.ligand.torsion>
2.0444

> <Gold.PLP.Chemscore.Hbond>
2.0000

> <Gold.PLP.Chemscore.CHOScore>
0.0000

> <Gold.PLP.Chemscore.Metal>
0.0000

> <Gold.Chemscore.Hbonds>
donor molecule, donor type, donor heavy atom, donor atom, acceptor molecule, acceptor atom, score
      P1  H  6896  6907       L1     3  2.00

> <Gold.PLP.Chemscore.Internal.Correction>
0.8634

> <Gold.Rescore>
     Score         DG    S(hbond)    S(metal)    S(lipo)     H(rot)  DE(clash)    DE(int)     intcor
     15.21     -17.30       0.53        0.00     144.88       2.69       0.14       1.94       ----

> <Gold.Chemscore.Fitness>
15.2138

> <Gold.Chemscore.DG>
-17.3019

> <Gold.Chemscore.ZeroCoef>
-5.4800

> <Gold.Chemscore.Hbond>
0.5294

> <Gold.Chemscore.Metal>
0.0000

> <Gold.Chemscore.Lipo>
144.8836

> <Gold.Chemscore.Internal_Hbond>
0.0000

> <Gold.Chemscore.DEClash>
0.1440

> <Gold.Chemscore.DEInternal>
1.9442

> <Gold.Chemscore.Rot>
2.6944

> <Gold.Chemscore.Internal.Correction>
   9.000000E+99

> <Gold.Chemscore.Hbonds>
donor molecule, donor type, donor heavy atom, donor atom, acceptor molecule, acceptor atom, score
      P1  H  6896  6907       L1     3  0.32

> <Gold.Chemscore.Hbond.Weighted>
-1.7681

> <Gold.Chemscore.Metal.Weighted>
-0.0000

> <Gold.Chemscore.Lipo.Weighted>
-16.9514

> <Gold.Chemscore.Internal_Hbond.Weighted>
0.0000

> <Gold.Chemscore.DEClash.Weighted>
0.1440

> <Gold.Chemscore.DEInternal.Weighted>
1.9442

> <Gold.Chemscore.Rot.Weighted>
6.8975

> <Gold.Chemscore.Internal.Correction.Weighted>
   9.000000E+99

> <Gold.Protein.RotatedTorsions>
[ 6907 6896 6895 6894 ] final  -67.05 input  -60.11 | X-H torsion
[ 7974 7965 7964 7962 ] final   35.07 input  175.53 | X-H torsion
[ 8008 7997 7996 7995 ] final  108.10 input   59.86 | X-H torsion
[ 10167 10162 10161 10158 ] final  100.49 input  -65.29 | X-H torsion
[ 10718 10713 10712 10709 ] final -137.59 input   66.30 | X-H torsion
[ 10763 10752 10751 10750 ] final  -78.16 input  -60.55 | X-H torsion
[ 11005 11000 10999 10996 ] final -118.88 input  -57.11 | X-H torsion

> <Gold.Protein.ActiveResidues>
 VAL166  LYS551  ARG553  GLY616  TRP617  ASP618  TYR619  PRO620  LYS621  CYS622 
 ASP623  PHE694  ASN695  SER759  ASP760  ASP761  ALA762  ILE779  LEU786  VAL792 
 PHE793  MET794  SER795  GLU796  ALA797  LYS798  CYS799  TRP800  GLU811  SER814 

> <Gold.Protein.RotatedAtoms>
  150.7431  134.5936  159.5999 H   0  0  0  0  0  0  0  0  0  0  0  0  # atno 6907 bound_to 6896
  152.3317  134.7248  160.0297 H   0  0  0  0  0  0  0  0  0  0  0  0  # atno 6908 bound_to 6896
  151.7730  133.3307  159.3486 H   0  0  0  0  0  0  0  0  0  0  0  0  # atno 6909 bound_to 6896
  146.1309  139.6189  142.9227 H   0  0  0  0  0  0  0  0  0  0  0  0  # atno 7974 bound_to 7965
  156.1877  140.3082  155.9270 H   0  0  0  0  0  0  0  0  0  0  0  0  # atno 8008 bound_to 7997
  155.3245  140.0457  157.3057 H   0  0  0  0  0  0  0  0  0  0  0  0  # atno 8009 bound_to 7997
  154.5414  140.2263  155.8644 H   0  0  0  0  0  0  0  0  0  0  0  0  # atno 8010 bound_to 7997
  139.7523  144.6980  151.0414 H   0  0  0  0  0  0  0  0  0  0  0  0  # atno 10167 bound_to 10162
  156.2899  130.7369  151.1391 H   0  0  0  0  0  0  0  0  0  0  0  0  # atno 10718 bound_to 10713
  154.5223  135.5739  153.6690 H   0  0  0  0  0  0  0  0  0  0  0  0  # atno 10763 bound_to 10752
  152.9920  135.6184  154.2738 H   0  0  0  0  0  0  0  0  0  0  0  0  # atno 10764 bound_to 10752
  154.2660  135.2854  155.2738 H   0  0  0  0  0  0  0  0  0  0  0  0  # atno 10765 bound_to 10752
  141.0255  134.0061  157.3221 H   0  0  0  0  0  0  0  0  0  0  0  0  # atno 11005 bound_to 11000
  145.5263  141.0429  143.2408 LP  0  0  0  0  0  0  0  0  0  0  0  0  # atno 17320 bound_to 7965
  144.7689  139.6780  143.7203 LP  0  0  0  0  0  0  0  0  0  0  0  0  # atno 17321 bound_to 7965
  140.7799  143.4794  151.0038 LP  0  0  0  0  0  0  0  0  0  0  0  0  # atno 17342 bound_to 10162
  139.8482  143.7473  152.3179 LP  0  0  0  0  0  0  0  0  0  0  0  0  # atno 17343 bound_to 10162
  157.7339  131.0586  150.5551 LP  0  0  0  0  0  0  0  0  0  0  0  0  # atno 17370 bound_to 10713
  156.5666  130.4269  149.6038 LP  0  0  0  0  0  0  0  0  0  0  0  0  # atno 17371 bound_to 10713
  139.9173  135.0198  156.7930 LP  0  0  0  0  0  0  0  0  0  0  0  0  # atno 17394 bound_to 11000
  140.6499  133.9741  155.7750 LP  0  0  0  0  0  0  0  0  0  0  0  0  # atno 17395 bound_to 11000

$$$$
