AV-unprocessed.smi:1480|AV-procd|sdf|5985|dock2
  -GOLD-   22720 6 73D 1   1.00000     0.00000
 Structure written by MMmdl.
 37 38  0  0  0  0  0  0  0  0  1 V2000
  151.2645  142.7888  157.9086 C   0  0  0  0  0  0  0  0  0  0  0  0
  152.1002  142.3029  159.0081 N   0  0  0  0  0  0  0  0  0  0  0  0
  152.2707  143.2463  160.1222 C   0  0  0  0  0  0  0  0  0  0  0  0
  152.7808  142.5889  161.4109 C   0  0  0  0  0  0  0  0  0  0  0  0
  153.9805  141.6847  161.1012 C   0  0  1  0  0  0  0  0  0  0  0  0
  154.5444  141.0689  162.3901 C   0  0  0  0  0  0  0  0  0  0  0  0
  154.8201  139.8694  162.4223 O   0  0  0  0  0  0  0  0  0  0  0  0
  154.6982  141.9167  163.4238 N   0  0  0  0  0  0  0  0  0  0  0  0
  155.1871  141.6456  164.7281 C   0  0  0  0  0  0  0  0  0  0  0  0
  155.9605  140.5116  165.1196 C   0  0  0  0  0  0  0  0  0  0  0  0
  156.1682  140.7203  166.4531 C   0  0  0  0  0  0  0  0  0  0  0  0
  155.5486  141.9073  166.7908 N   0  0  0  0  0  0  0  0  0  0  0  0
  155.4853  142.5535  168.0905 C   0  0  0  0  0  0  0  0  0  0  0  0
  156.0749  143.9656  168.0424 C   0  0  0  0  0  0  0  0  0  0  0  0
  156.2502  144.5930  169.2083 N   0  0  0  0  0  0  0  0  0  0  0  0
  156.3706  144.4846  166.9680 O   0  0  0  0  0  0  0  0  0  0  0  0
  154.9382  142.4749  165.7272 N   0  0  0  0  0  0  0  0  0  0  0  0
  153.5585  140.5885  160.1020 C   0  0  0  0  0  0  0  0  0  0  0  0
  152.7115  141.0964  158.9227 C   0  0  0  0  0  0  0  0  0  0  0  0
  152.5934  140.3651  157.9392 O   0  0  0  0  0  0  0  0  0  0  0  0
  151.8202  142.7881  156.9698 H   0  0  0  0  0  0  0  0  0  0  0  0
  150.9145  143.8082  158.0757 H   0  0  0  0  0  0  0  0  0  0  0  0
  150.3867  142.1530  157.7866 H   0  0  0  0  0  0  0  0  0  0  0  0
  152.9738  144.0170  159.8035 H   0  0  0  0  0  0  0  0  0  0  0  0
  151.3276  143.7524  160.3329 H   0  0  0  0  0  0  0  0  0  0  0  0
  153.0511  143.3588  162.1352 H   0  0  0  0  0  0  0  0  0  0  0  0
  151.9758  142.0061  161.8621 H   0  0  0  0  0  0  0  0  0  0  0  0
  154.7583  142.2944  160.6368 H   0  0  0  0  0  0  0  0  0  0  0  0
  154.4373  142.8770  163.2539 H   0  0  0  0  0  0  0  0  0  0  0  0
  156.3133  139.6753  164.5354 H   0  0  0  0  0  0  0  0  0  0  0  0
  156.7025  140.1300  167.1830 H   0  0  0  0  0  0  0  0  0  0  0  0
  154.4474  142.6079  168.4231 H   0  0  0  0  0  0  0  0  0  0  0  0
  156.0209  141.9338  168.8112 H   0  0  0  0  0  0  0  0  0  0  0  0
  156.6363  145.5255  169.2279 H   0  0  0  0  0  0  0  0  0  0  0  0
  155.9951  144.1298  170.0684 H   0  0  0  0  0  0  0  0  0  0  0  0
  154.4452  140.0904  159.7075 H   0  0  0  0  0  0  0  0  0  0  0  0
  152.9716  139.8178  160.6043 H   0  0  0  0  0  0  0  0  0  0  0  0
  1  2  1  0  0  0  0
  1 21  1  0  0  0  0
  1 22  1  0  0  0  0
  1 23  1  0  0  0  0
  2 19  1  0  0  0  0
  2  3  1  0  0  0  0
  3  4  1  0  0  0  0
  3 24  1  0  0  0  0
  3 25  1  0  0  0  0
  4  5  1  0  0  0  0
  4 26  1  0  0  0  0
  4 27  1  0  0  0  0
  5  6  1  0  0  0  0
  5 18  1  0  0  0  0
  5 28  1  0  0  0  0
  6  7  2  0  0  0  0
  6  8  1  0  0  0  0
  8  9  1  0  0  0  0
  8 29  1  0  0  0  0
  9 17  2  0  0  0  0
  9 10  1  0  0  0  0
 10 11  2  0  0  0  0
 10 30  1  0  0  0  0
 11 12  1  0  0  0  0
 11 31  1  0  0  0  0
 12 13  1  0  0  0  0
 12 17  1  0  0  0  0
 13 14  1  0  0  0  0
 13 32  1  0  0  0  0
 13 33  1  0  0  0  0
 14 15  1  0  0  0  0
 14 16  2  0  0  0  0
 15 34  1  0  0  0  0
 15 35  1  0  0  0  0
 18 19  1  0  0  0  0
 18 36  1  0  0  0  0
 18 37  1  0  0  0  0
 19 20  2  0  0  0  0
M  END
> <s_m_source_file>
AV-unprocessed.smi

> <i_m_source_file_index>
1480

> <i_lp_mmshare_version>
43012

> <i_f3d_flags>
0

> <s_epik_input>
W0NIM11OMVtDSDJdW0NIMl1bQ0BIXShbQ0gyXUMxPU8pQyg9TylbTkhdYzJbY0hdW2NIXW4objIpW0NIMl1DKD1PKVtOSDJd

> <s_epik_cmdline>
J2VwaWtfcHl0aG9uJywgJy1waCcsICc3LjAnLCAnLXRuJywgJzgnLCAnLW1hJywgJzIwMCcsICctbWV0YWxfYmluZGluZycsICctaW1hZScsICc8aW5maWxlLm1hZT4nLCAnLW9tYWUnLCAnPG91dGZpbGUubWFlPic=

> <r_lp_tautomer_probability>
1

> <r_epik_Ionization_Penalty>
3.93272e-06

> <r_epik_Ionization_Penalty_Charging>
0

> <r_epik_Ionization_Penalty_Neutral>
3.93272e-06

> <r_epik_State_Penalty>
-0

> <r_epik_Charging_Adjusted_Penalty>
0

> <i_epik_Tot_Q>
0

> <i_epik_Tot_abs_Q>
0

> <r_epik_Metal_State_Penalty>
-0

> <b_epik_Metal_Only>
0

> <s_lp_Force_Field>
OPLS_2005

> <r_lp_Energy>
17.1692

> <b_lp_Chiralities_Consistent>
1

> <s_lp_Variant>
AV-unprocessed.smi:1480-1

> <Gold.Version>
5.8.1

> <Gold.Id.Protein>
6NUR|6NUR_protein|mol2

> <Gold.PLP.Fitness>
43.1155

> <Gold.PLP.PLP>
-41.9623

> <Gold.PLP.part.hbond>
-4.6712

> <Gold.PLP.part.metal>
0.0000

> <Gold.PLP.part.buried>
-2.9179

> <Gold.PLP.part.nonpolar>
-32.8804

> <Gold.PLP.part.repulsive>
0.1296

> <Gold.PLP.ligand.clash>
0.0000

> <Gold.PLP.ligand.torsion>
0.4753

> <Gold.PLP.Chemscore.Hbond>
0.6965

> <Gold.PLP.Chemscore.CHOScore>
0.0000

> <Gold.PLP.Chemscore.Metal>
0.0000

> <Gold.Chemscore.Hbonds>
donor molecule, donor type, donor heavy atom, donor atom, acceptor molecule, acceptor atom, score
      P1  H  7997  8010       L1    20  0.30

> <Gold.PLP.Chemscore.Internal.Correction>
0.0142

> <Gold.Rescore>
     Score         DG    S(hbond)    S(metal)    S(lipo)     H(rot)  DE(clash)    DE(int)     intcor
      7.12     -10.25       0.74        0.00      63.90       2.03       0.41       2.71       ----

> <Gold.Chemscore.Fitness>
7.1223

> <Gold.Chemscore.DG>
-10.2484

> <Gold.Chemscore.ZeroCoef>
-5.4800

> <Gold.Chemscore.Hbond>
0.7427

> <Gold.Chemscore.Metal>
0.0000

> <Gold.Chemscore.Lipo>
63.9016

> <Gold.Chemscore.Internal_Hbond>
0.0000

> <Gold.Chemscore.DEClash>
0.4126

> <Gold.Chemscore.DEInternal>
2.7134

> <Gold.Chemscore.Rot>
2.0269

> <Gold.Chemscore.Internal.Correction>
   9.000000E+99

> <Gold.Chemscore.Hbonds>
donor molecule, donor type, donor heavy atom, donor atom, acceptor molecule, acceptor atom, score
      P1  H  7997  8010       L1    20  0.19

> <Gold.Chemscore.Hbond.Weighted>
-2.4807

> <Gold.Chemscore.Metal.Weighted>
-0.0000

> <Gold.Chemscore.Lipo.Weighted>
-7.4765

> <Gold.Chemscore.Internal_Hbond.Weighted>
0.0000

> <Gold.Chemscore.DEClash.Weighted>
0.4126

> <Gold.Chemscore.DEInternal.Weighted>
2.7134

> <Gold.Chemscore.Rot.Weighted>
5.1888

> <Gold.Chemscore.Internal.Correction.Weighted>
   9.000000E+99

> <Gold.Protein.RotatedTorsions>
[ 6907 6896 6895 6894 ] final  121.30 input  -60.11 | X-H torsion
[ 7974 7965 7964 7962 ] final  156.73 input  175.53 | X-H torsion
[ 8008 7997 7996 7995 ] final   27.00 input   59.86 | X-H torsion
[ 10167 10162 10161 10158 ] final -145.99 input  -65.29 | X-H torsion
[ 10718 10713 10712 10709 ] final  -37.75 input   66.30 | X-H torsion
[ 10763 10752 10751 10750 ] final  -53.66 input  -60.55 | X-H torsion
[ 11005 11000 10999 10996 ] final -128.32 input  -57.11 | X-H torsion

> <Gold.Protein.ActiveResidues>
 VAL166  LYS551  ARG553  GLY616  TRP617  ASP618  TYR619  PRO620  LYS621  CYS622 
 ASP623  PHE694  ASN695  SER759  ASP760  ASP761  ALA762  ILE779  LEU786  VAL792 
 PHE793  MET794  SER795  GLU796  ALA797  LYS798  CYS799  TRP800  GLU811  SER814 

> <Gold.Protein.RotatedAtoms>
  152.4332  133.7315  159.6589 H   0  0  0  0  0  0  0  0  0  0  0  0  # atno 6907 bound_to 6896
  150.8213  133.8237  159.3143 H   0  0  0  0  0  0  0  0  0  0  0  0  # atno 6908 bound_to 6896
  151.5918  135.1055  160.0092 H   0  0  0  0  0  0  0  0  0  0  0  0  # atno 6909 bound_to 6896
  144.7945  139.7244  143.6207 H   0  0  0  0  0  0  0  0  0  0  0  0  # atno 7974 bound_to 7965
  155.0361  140.3164  155.4741 H   0  0  0  0  0  0  0  0  0  0  0  0  # atno 8008 bound_to 7997
  156.2864  140.2171  156.5426 H   0  0  0  0  0  0  0  0  0  0  0  0  # atno 8009 bound_to 7997
  154.7329  140.0480  157.0730 H   0  0  0  0  0  0  0  0  0  0  0  0  # atno 8010 bound_to 7997
  139.7754  143.8177  152.2631 H   0  0  0  0  0  0  0  0  0  0  0  0  # atno 10167 bound_to 10162
  156.3116  130.4253  149.8045 H   0  0  0  0  0  0  0  0  0  0  0  0  # atno 10718 bound_to 10713
  154.1624  135.6472  153.4989 H   0  0  0  0  0  0  0  0  0  0  0  0  # atno 10763 bound_to 10752
  153.0107  135.5364  154.6697 H   0  0  0  0  0  0  0  0  0  0  0  0  # atno 10764 bound_to 10752
  154.6014  135.2944  155.0503 H   0  0  0  0  0  0  0  0  0  0  0  0  # atno 10765 bound_to 10752
  140.9526  134.1045  157.4047 H   0  0  0  0  0  0  0  0  0  0  0  0  # atno 11005 bound_to 11000
  146.2209  139.5633  142.9619 LP  0  0  0  0  0  0  0  0  0  0  0  0  # atno 17320 bound_to 7965
  145.5708  141.0394  143.2175 LP  0  0  0  0  0  0  0  0  0  0  0  0  # atno 17321 bound_to 7965
  139.8224  144.7290  150.9556 LP  0  0  0  0  0  0  0  0  0  0  0  0  # atno 17342 bound_to 10162
  140.7816  143.4147  151.0937 LP  0  0  0  0  0  0  0  0  0  0  0  0  # atno 17343 bound_to 10162
  156.5386  130.8290  151.3261 LP  0  0  0  0  0  0  0  0  0  0  0  0  # atno 17370 bound_to 10713
  157.7392  130.9827  150.2300 LP  0  0  0  0  0  0  0  0  0  0  0  0  # atno 17371 bound_to 10713
  139.8852  135.0070  156.6420 LP  0  0  0  0  0  0  0  0  0  0  0  0  # atno 17394 bound_to 11000
  140.7581  133.8841  155.8397 LP  0  0  0  0  0  0  0  0  0  0  0  0  # atno 17395 bound_to 11000

$$$$
