AV-unprocessed.smi:2310|AV-procd|sdf|9256|dock6
  -GOLD-   2272012473D 1   1.00000     0.00000
 Structure written by MMmdl.
 45 46  0  0  0  0  0  0  0  0  1 V2000
  147.8079  133.2410  153.0006 C   0  0  0  0  0  0  0  0  0  0  0  0
  149.2159  132.9059  153.5135 C   0  0  0  0  0  0  0  0  0  0  0  0
  149.5108  133.4521  154.9232 C   0  0  1  0  0  0  0  0  0  0  0  0
  150.6109  132.6351  155.6183 C   0  0  0  0  0  0  0  0  0  0  0  0
  150.3909  132.4746  157.0646 C   0  0  0  0  0  0  0  0  0  0  0  0
  150.2188  132.3481  158.2015 N   0  0  0  0  0  0  0  0  0  0  0  0
  149.9155  134.8569  154.8507 N   0  0  0  0  0  0  0  0  0  0  0  0
  150.2538  135.6316  155.8923 C   0  0  0  0  0  0  0  0  0  0  0  0
  150.2447  135.2449  157.0606 O   0  0  0  0  0  0  0  0  0  0  0  0
  150.5756  136.8726  155.4880 N   0  0  0  0  0  0  0  0  0  0  0  0
  150.9836  137.9840  156.2786 C   0  0  0  0  0  0  0  0  0  0  0  0
  150.4049  138.2813  157.5364 C   0  0  0  0  0  0  0  0  0  0  0  0
  150.8783  139.3852  158.2689 C   0  0  0  0  0  0  0  0  0  0  0  0
  151.9267  140.1571  157.7329 C   0  0  0  0  0  0  0  0  0  0  0  0
  152.4007  141.2565  158.4646 N   0  0  0  0  0  0  0  0  0  0  0  0
  151.4293  142.3107  158.7066 C   0  0  0  0  0  0  0  0  0  0  0  0
  152.0361  143.1769  159.8130 C   0  0  0  0  0  0  0  0  0  0  0  0
  153.0416  142.2610  160.5217 C   0  0  0  0  0  0  0  0  0  0  0  0
  152.9684  140.9329  159.7630 C   0  0  0  0  0  0  0  0  0  0  0  0
  152.4973  139.8736  156.5390 N   0  0  0  0  0  0  0  0  0  0  0  0
  152.0433  138.8150  155.8324 C   0  0  0  0  0  0  0  0  0  0  0  0
  152.7651  138.5953  154.5121 C   0  0  0  0  0  0  0  0  0  0  0  0
  147.6332  132.7862  152.0254 H   0  0  0  0  0  0  0  0  0  0  0  0
  147.6645  134.3162  152.8922 H   0  0  0  0  0  0  0  0  0  0  0  0
  147.0431  132.8683  153.6825 H   0  0  0  0  0  0  0  0  0  0  0  0
  149.3315  131.8214  153.5218 H   0  0  0  0  0  0  0  0  0  0  0  0
  149.9575  133.2828  152.8080 H   0  0  0  0  0  0  0  0  0  0  0  0
  148.6021  133.3468  155.5185 H   0  0  0  0  0  0  0  0  0  0  0  0
  150.6648  131.6343  155.1891 H   0  0  0  0  0  0  0  0  0  0  0  0
  151.5870  133.0989  155.4730 H   0  0  0  0  0  0  0  0  0  0  0  0
  149.9455  135.2696  153.9299 H   0  0  0  0  0  0  0  0  0  0  0  0
  150.4457  137.0666  154.5060 H   0  0  0  0  0  0  0  0  0  0  0  0
  149.6190  137.6766  157.9613 H   0  0  0  0  0  0  0  0  0  0  0  0
  150.4465  139.6278  159.2290 H   0  0  0  0  0  0  0  0  0  0  0  0
  151.2429  142.8884  157.8009 H   0  0  0  0  0  0  0  0  0  0  0  0
  150.4794  141.8905  159.0405 H   0  0  0  0  0  0  0  0  0  0  0  0
  152.5554  144.0332  159.3808 H   0  0  0  0  0  0  0  0  0  0  0  0
  151.2714  143.5588  160.4899 H   0  0  0  0  0  0  0  0  0  0  0  0
  154.0441  142.6849  160.4513 H   0  0  0  0  0  0  0  0  0  0  0  0
  152.8099  142.1305  161.5791 H   0  0  0  0  0  0  0  0  0  0  0  0
  152.3270  140.2308  160.2977 H   0  0  0  0  0  0  0  0  0  0  0  0
  153.9529  140.4760  159.6581 H   0  0  0  0  0  0  0  0  0  0  0  0
  152.3576  137.7736  153.9250 H   0  0  0  0  0  0  0  0  0  0  0  0
  153.8186  138.3832  154.6956 H   0  0  0  0  0  0  0  0  0  0  0  0
  152.7047  139.4967  153.9010 H   0  0  0  0  0  0  0  0  0  0  0  0
  1  2  1  0  0  0  0
  1 23  1  0  0  0  0
  1 24  1  0  0  0  0
  1 25  1  0  0  0  0
  2  3  1  0  0  0  0
  2 26  1  0  0  0  0
  2 27  1  0  0  0  0
  3  4  1  0  0  0  0
  3  7  1  0  0  0  0
  3 28  1  0  0  0  0
  4  5  1  0  0  0  0
  4 29  1  0  0  0  0
  4 30  1  0  0  0  0
  5  6  3  0  0  0  0
  7  8  1  0  0  0  0
  7 31  1  0  0  0  0
  8  9  2  0  0  0  0
  8 10  1  0  0  0  0
 10 11  1  0  0  0  0
 10 32  1  0  0  0  0
 11 21  1  0  0  0  0
 11 12  2  0  0  0  0
 12 13  1  0  0  0  0
 12 33  1  0  0  0  0
 13 14  2  0  0  0  0
 13 34  1  0  0  0  0
 14 15  1  0  0  0  0
 14 20  1  0  0  0  0
 15 19  1  0  0  0  0
 15 16  1  0  0  0  0
 16 17  1  0  0  0  0
 16 35  1  0  0  0  0
 16 36  1  0  0  0  0
 17 18  1  0  0  0  0
 17 37  1  0  0  0  0
 17 38  1  0  0  0  0
 18 19  1  0  0  0  0
 18 39  1  0  0  0  0
 18 40  1  0  0  0  0
 19 41  1  0  0  0  0
 19 42  1  0  0  0  0
 20 21  2  0  0  0  0
 21 22  1  0  0  0  0
 22 43  1  0  0  0  0
 22 44  1  0  0  0  0
 22 45  1  0  0  0  0
M  END
> <s_m_source_file>
AV-unprocessed.smi

> <i_m_source_file_index>
2310

> <i_lp_mmshare_version>
43012

> <i_f3d_flags>
0

> <s_epik_input>
TiNDW0NIMl1bQ0BASF0oW0NIMl1bQ0gzXSlbTkhdQyg9TylbTkhdYzFbY0hdW2NIXWMobmMxW0NIM10pTjJbQ0gyXVtDSDJdW0NIMl1bQ0gyXTI=

> <s_epik_cmdline>
J2VwaWtfcHl0aG9uJywgJy1waCcsICc3LjAnLCAnLXRuJywgJzgnLCAnLW1hJywgJzIwMCcsICctbWV0YWxfYmluZGluZycsICctaW1hZScsICc8aW5maWxlLm1hZT4nLCAnLW9tYWUnLCAnPG91dGZpbGUubWFlPic=

> <r_lp_tautomer_probability>
1

> <r_epik_Ionization_Penalty>
0.281354

> <r_epik_Ionization_Penalty_Charging>
0

> <r_epik_Ionization_Penalty_Neutral>
0.281354

> <r_epik_State_Penalty>
0.273364

> <r_epik_Charging_Adjusted_Penalty>
0.273364

> <i_epik_Tot_Q>
0

> <i_epik_Tot_abs_Q>
0

> <r_epik_Metal_State_Penalty>
0.18752

> <b_epik_Metal_Only>
0

> <s_lp_Force_Field>
OPLS_2005

> <r_lp_Energy>
36.0303

> <b_lp_Chiralities_Consistent>
1

> <s_lp_Variant>
AV-unprocessed.smi:2310-2

> <Gold.Version>
5.8.1

> <Gold.Id.Protein>
6NUR|6NUR_protein|mol2

> <Gold.PLP.Fitness>
42.1311

> <Gold.PLP.PLP>
-37.7468

> <Gold.PLP.part.hbond>
-2.2246

> <Gold.PLP.part.metal>
0.0000

> <Gold.PLP.part.buried>
-5.4036

> <Gold.PLP.part.nonpolar>
-30.0060

> <Gold.PLP.part.repulsive>
0.1144

> <Gold.PLP.ligand.clash>
0.0000

> <Gold.PLP.ligand.torsion>
1.0556

> <Gold.PLP.Chemscore.Hbond>
2.1381

> <Gold.PLP.Chemscore.CHOScore>
0.0000

> <Gold.PLP.Chemscore.Metal>
0.0000

> <Gold.Chemscore.Hbonds>
donor molecule, donor type, donor heavy atom, donor atom, acceptor molecule, acceptor atom, score
      P1  H  6896  6907       L1     6  1.00
      P1  H  7997  8008       L1    20  1.00

> <Gold.PLP.Chemscore.Internal.Correction>
0.0811

> <Gold.Rescore>
     Score         DG    S(hbond)    S(metal)    S(lipo)     H(rot)  DE(clash)    DE(int)     intcor
     15.23     -18.15       1.94        0.00      88.97       1.65       0.02       2.89       ----

> <Gold.Chemscore.Fitness>
15.2326

> <Gold.Chemscore.DG>
-18.1454

> <Gold.Chemscore.ZeroCoef>
-5.4800

> <Gold.Chemscore.Hbond>
1.9411

> <Gold.Chemscore.Metal>
0.0000

> <Gold.Chemscore.Lipo>
88.9715

> <Gold.Chemscore.Internal_Hbond>
0.0000

> <Gold.Chemscore.DEClash>
0.0240

> <Gold.Chemscore.DEInternal>
2.8888

> <Gold.Chemscore.Rot>
1.6514

> <Gold.Chemscore.Internal.Correction>
   9.000000E+99

> <Gold.Chemscore.Hbonds>
donor molecule, donor type, donor heavy atom, donor atom, acceptor molecule, acceptor atom, score
      P1  H  6896  6907       L1     6  0.93
      P1  H  7997  8008       L1    20  0.82

> <Gold.Chemscore.Hbond.Weighted>
-6.4834

> <Gold.Chemscore.Metal.Weighted>
-0.0000

> <Gold.Chemscore.Lipo.Weighted>
-10.4097

> <Gold.Chemscore.Internal_Hbond.Weighted>
0.0000

> <Gold.Chemscore.DEClash.Weighted>
0.0240

> <Gold.Chemscore.DEInternal.Weighted>
2.8888

> <Gold.Chemscore.Rot.Weighted>
4.2276

> <Gold.Chemscore.Internal.Correction.Weighted>
   9.000000E+99

> <Gold.Protein.RotatedTorsions>
[ 6907 6896 6895 6894 ] final -139.26 input  -60.11 | X-H torsion
[ 7974 7965 7964 7962 ] final -125.64 input  175.53 | X-H torsion
[ 8008 7997 7996 7995 ] final  -41.80 input   59.86 | X-H torsion
[ 10167 10162 10161 10158 ] final  -59.57 input  -65.29 | X-H torsion
[ 10718 10713 10712 10709 ] final   80.95 input   66.30 | X-H torsion
[ 10763 10752 10751 10750 ] final  155.38 input  -60.55 | X-H torsion
[ 11005 11000 10999 10996 ] final   -6.29 input  -57.11 | X-H torsion

> <Gold.Protein.ActiveResidues>
 VAL166  LYS551  ARG553  GLY616  TRP617  ASP618  TYR619  PRO620  LYS621  CYS622 
 ASP623  PHE694  ASN695  SER759  ASP760  ASP761  ALA762  ILE779  LEU786  VAL792 
 PHE793  MET794  SER795  GLU796  ALA797  LYS798  CYS799  TRP800  GLU811  SER814 

> <Gold.Protein.RotatedAtoms>
  151.0455  133.5669  159.2646 H   0  0  0  0  0  0  0  0  0  0  0  0  # atno 6907 bound_to 6896
  151.2700  135.0680  159.9140 H   0  0  0  0  0  0  0  0  0  0  0  0  # atno 6908 bound_to 6896
  152.5372  134.0187  159.8025 H   0  0  0  0  0  0  0  0  0  0  0  0  # atno 6909 bound_to 6896
  144.9955  140.7772  143.4528 H   0  0  0  0  0  0  0  0  0  0  0  0  # atno 7974 bound_to 7965
  154.4002  140.1490  156.3250 H   0  0  0  0  0  0  0  0  0  0  0  0  # atno 8008 bound_to 7997
  155.8495  140.3458  155.5663 H   0  0  0  0  0  0  0  0  0  0  0  0  # atno 8009 bound_to 7997
  155.7999  140.0869  157.1953 H   0  0  0  0  0  0  0  0  0  0  0  0  # atno 8010 bound_to 7997
  140.6126  143.2392  151.5672 H   0  0  0  0  0  0  0  0  0  0  0  0  # atno 10167 bound_to 10162
  157.6820  130.9982  150.2154 H   0  0  0  0  0  0  0  0  0  0  0  0  # atno 10718 bound_to 10713
  154.1674  135.2806  155.3091 H   0  0  0  0  0  0  0  0  0  0  0  0  # atno 10763 bound_to 10752
  154.6101  135.5501  153.7468 H   0  0  0  0  0  0  0  0  0  0  0  0  # atno 10764 bound_to 10752
  153.0174  135.6413  154.1814 H   0  0  0  0  0  0  0  0  0  0  0  0  # atno 10765 bound_to 10752
  140.7004  133.8994  155.8679 H   0  0  0  0  0  0  0  0  0  0  0  0  # atno 11005 bound_to 11000
  145.2226  139.2152  143.5085 LP  0  0  0  0  0  0  0  0  0  0  0  0  # atno 17320 bound_to 7965
  146.3441  140.2087  142.8590 LP  0  0  0  0  0  0  0  0  0  0  0  0  # atno 17321 bound_to 7965
  139.5373  144.2744  152.1279 LP  0  0  0  0  0  0  0  0  0  0  0  0  # atno 17342 bound_to 10162
  140.1947  144.4717  150.6461 LP  0  0  0  0  0  0  0  0  0  0  0  0  # atno 17343 bound_to 10162
  156.2816  130.3734  149.7929 LP  0  0  0  0  0  0  0  0  0  0  0  0  # atno 17370 bound_to 10713
  156.5616  130.8386  151.3330 LP  0  0  0  0  0  0  0  0  0  0  0  0  # atno 17371 bound_to 10713
  141.0168  134.0944  157.4163 LP  0  0  0  0  0  0  0  0  0  0  0  0  # atno 17394 bound_to 11000
  139.8898  135.0108  156.6701 LP  0  0  0  0  0  0  0  0  0  0  0  0  # atno 17395 bound_to 11000

$$$$
