AV-unprocessed.smi:289|AV-procd|sdf|2214|dock10
  -GOLD-   2262022 53D 1   1.00000     0.00000
 Structure written by MMmdl.
 51 54  0  0  0  0  0  0  0  0  1 V2000
  149.7382  137.6360  159.5723 O   0  0  0  0  0  0  0  0  0  0  0  0
  150.4044  137.8583  158.5592 C   0  0  0  0  0  0  0  0  0  0  0  0
  151.9065  137.5032  158.5581 C   0  0  0  0  0  0  0  0  0  0  0  0
  152.6970  138.2605  159.5545 N   0  0  0  0  0  0  0  0  0  0  0  0
  153.3891  137.5424  160.5604 C   0  0  0  0  0  0  0  0  0  0  0  0
  153.3192  136.3146  160.6320 O   0  0  0  0  0  0  0  0  0  0  0  0
  154.1889  138.3514  161.4715 C   0  0  0  0  0  0  0  0  0  0  0  0
  154.9144  137.7524  162.4310 F   0  0  0  0  0  0  0  0  0  0  0  0
  154.2278  139.6949  161.3568 C   0  0  0  0  0  0  0  0  0  0  0  0
  153.5122  140.3916  160.3967 N   0  0  0  0  0  0  0  0  0  0  0  0
  153.6216  141.8993  160.2233 C   0  0  1  0  0  0  0  0  0  0  0  0
  152.2723  142.6275  160.1510 C   0  0  0  0  0  0  0  0  0  0  0  0
  152.0659  143.1275  161.5784 C   0  0  0  0  0  0  0  0  0  0  0  0
  153.3057  142.6517  162.3431 C   0  0  0  0  0  0  0  0  0  0  0  0
  154.2783  142.4252  161.3321 O   0  0  0  0  0  0  0  0  0  0  0  0
  152.7660  139.6698  159.4378 C   0  0  0  0  0  0  0  0  0  0  0  0
  152.1894  140.2546  158.5179 O   0  0  0  0  0  0  0  0  0  0  0  0
  149.8580  138.4040  157.4456 N   0  0  0  0  0  0  0  0  0  0  0  0
  148.4647  138.8483  157.2979 C   0  0  0  0  0  0  0  0  0  0  0  0
  148.4414  140.3805  157.1202 C   0  0  0  0  0  0  0  0  0  0  0  0
  149.2616  140.7501  155.9512 N   0  0  0  0  0  0  0  0  0  0  0  0
  148.8012  141.3151  154.8068 C   0  0  0  0  0  0  0  0  0  0  0  0
  149.4502  141.3167  153.7604 O   0  0  0  0  0  0  0  0  0  0  0  0
  147.4755  141.9701  154.8063 C   0  0  0  0  0  0  0  0  0  0  0  0
  146.6683  142.3282  153.7603 C   0  0  0  0  0  0  0  0  0  0  0  0
  145.5345  142.9761  154.3236 C   0  0  0  0  0  0  0  0  0  0  0  0
  145.7420  142.9904  155.6728 C   0  0  0  0  0  0  0  0  0  0  0  0
  146.9255  142.3947  155.9823 O   0  0  0  0  0  0  0  0  0  0  0  0
  150.6468  140.2685  156.0815 C   0  0  0  0  0  0  0  0  0  0  0  0
  150.6465  138.7377  156.2520 C   0  0  0  0  0  0  0  0  0  0  0  0
  152.0172  136.4313  158.7282 H   0  0  0  0  0  0  0  0  0  0  0  0
  152.3028  137.6631  157.5542 H   0  0  0  0  0  0  0  0  0  0  0  0
  154.8634  140.2254  162.0479 H   0  0  0  0  0  0  0  0  0  0  0  0
  154.1986  142.0444  159.3085 H   0  0  0  0  0  0  0  0  0  0  0  0
  152.3817  143.4787  159.4778 H   0  0  0  0  0  0  0  0  0  0  0  0
  151.4727  142.0001  159.7582 H   0  0  0  0  0  0  0  0  0  0  0  0
  152.0074  144.2166  161.5854 H   0  0  0  0  0  0  0  0  0  0  0  0
  151.1490  142.7421  162.0250 H   0  0  0  0  0  0  0  0  0  0  0  0
  153.6544  143.3840  163.0716 H   0  0  0  0  0  0  0  0  0  0  0  0
  153.1034  141.7207  162.8745 H   0  0  0  0  0  0  0  0  0  0  0  0
  148.0297  138.3659  156.4213 H   0  0  0  0  0  0  0  0  0  0  0  0
  147.8207  138.5679  158.1292 H   0  0  0  0  0  0  0  0  0  0  0  0
  147.4006  140.6864  157.0390 H   0  0  0  0  0  0  0  0  0  0  0  0
  148.8377  140.8741  158.0088 H   0  0  0  0  0  0  0  0  0  0  0  0
  146.8693  142.1432  152.7152 H   0  0  0  0  0  0  0  0  0  0  0  0
  144.6805  143.3879  153.8062 H   0  0  0  0  0  0  0  0  0  0  0  0
  145.1820  143.3703  156.5147 H   0  0  0  0  0  0  0  0  0  0  0  0
  151.2722  140.5429  155.2309 H   0  0  0  0  0  0  0  0  0  0  0  0
  151.1065  140.7422  156.9505 H   0  0  0  0  0  0  0  0  0  0  0  0
  151.6739  138.3759  156.3060 H   0  0  0  0  0  0  0  0  0  0  0  0
  150.2058  138.2571  155.3771 H   0  0  0  0  0  0  0  0  0  0  0  0
  1  2  2  0  0  0  0
  2  3  1  0  0  0  0
  2 18  1  0  0  0  0
  3  4  1  0  0  0  0
  3 31  1  0  0  0  0
  3 32  1  0  0  0  0
  4 16  1  0  0  0  0
  4  5  1  0  0  0  0
  5  6  2  0  0  0  0
  5  7  1  0  0  0  0
  7  8  1  0  0  0  0
  7  9  2  0  0  0  0
  9 10  1  0  0  0  0
  9 33  1  0  0  0  0
 10 11  1  0  0  0  0
 10 16  1  0  0  0  0
 11 15  1  0  0  0  0
 11 12  1  0  0  0  0
 11 34  1  0  0  0  0
 12 13  1  0  0  0  0
 12 35  1  0  0  0  0
 12 36  1  0  0  0  0
 13 14  1  0  0  0  0
 13 37  1  0  0  0  0
 13 38  1  0  0  0  0
 14 15  1  0  0  0  0
 14 39  1  0  0  0  0
 14 40  1  0  0  0  0
 16 17  2  0  0  0  0
 18 30  1  0  0  0  0
 18 19  1  0  0  0  0
 19 20  1  0  0  0  0
 19 41  1  0  0  0  0
 19 42  1  0  0  0  0
 20 21  1  0  0  0  0
 20 43  1  0  0  0  0
 20 44  1  0  0  0  0
 21 22  1  0  0  0  0
 21 29  1  0  0  0  0
 22 23  2  0  0  0  0
 22 24  1  0  0  0  0
 24 28  1  0  0  0  0
 24 25  2  0  0  0  0
 25 26  1  0  0  0  0
 25 45  1  0  0  0  0
 26 27  2  0  0  0  0
 26 46  1  0  0  0  0
 27 28  1  0  0  0  0
 27 47  1  0  0  0  0
 29 30  1  0  0  0  0
 29 48  1  0  0  0  0
 29 49  1  0  0  0  0
 30 50  1  0  0  0  0
 30 51  1  0  0  0  0
M  END
> <s_m_source_file>
AV-unprocessed.smi

> <i_m_source_file_index>
289

> <i_lp_mmshare_version>
43012

> <i_f3d_flags>
0

> <s_epik_input>
bzFbY0hdW2NIXVtjSF1jMUMoPU8pTihbQ0gyXVtDSDJdMilbQ0gyXVtDSDJdTjJDKD1PKVtDSDJdbjNjKD1PKWMoRilbY0hdbihjMz1PKVtDQEBIXTRbQ0gyXVtDSDJdW0NIMl1PNA==

> <s_epik_cmdline>
J2VwaWtfcHl0aG9uJywgJy1waCcsICc3LjAnLCAnLXRuJywgJzgnLCAnLW1hJywgJzIwMCcsICctbWV0YWxfYmluZGluZycsICctaW1hZScsICc8aW5maWxlLm1hZT4nLCAnLW9tYWUnLCAnPG91dGZpbGUubWFlPic=

> <r_lp_tautomer_probability>
1

> <r_epik_Ionization_Penalty>
6.38128e-09

> <r_epik_Ionization_Penalty_Charging>
4.20153e-09

> <r_epik_Ionization_Penalty_Neutral>
2.17976e-09

> <r_epik_State_Penalty>
-0

> <r_epik_Charging_Adjusted_Penalty>
4.20153e-09

> <i_epik_Tot_Q>
0

> <i_epik_Tot_abs_Q>
0

> <r_epik_Metal_State_Penalty>
-0

> <b_epik_Metal_Only>
0

> <s_epik_Chemistry_Notes>
This compound contains an acetal/aminal-like group ( X-CH(R)-Y where X, Y are N, S, or O) that may be acid/base labile, releasing an aldehyde.

> <s_lp_Force_Field>
OPLS_2005

> <r_lp_Energy>
67.9556

> <b_lp_Chiralities_Consistent>
1

> <s_lp_Variant>
AV-unprocessed.smi:289-2

> <Gold.Version>
5.8.1

> <Gold.Id.Protein>
6NUR|6NUR_protein|mol2

> <Gold.PLP.Fitness>
53.7064

> <Gold.PLP.PLP>
-47.9814

> <Gold.PLP.part.hbond>
-5.0000

> <Gold.PLP.part.metal>
0.0000

> <Gold.PLP.part.buried>
0.2352

> <Gold.PLP.part.nonpolar>
-43.4396

> <Gold.PLP.part.repulsive>
2.0697

> <Gold.PLP.ligand.clash>
0.0000

> <Gold.PLP.ligand.torsion>
0.4259

> <Gold.PLP.Chemscore.Hbond>
2.0036

> <Gold.PLP.Chemscore.CHOScore>
0.0000

> <Gold.PLP.Chemscore.Metal>
0.0000

> <Gold.Chemscore.Hbonds>
donor molecule, donor type, donor heavy atom, donor atom, acceptor molecule, acceptor atom, score
      P1  H  6896  6909       L1     6  1.00
      P1  H  7989  7998       L1    23  0.13
      P1  H  8011  8017       L1    23  0.85

> <Gold.PLP.Chemscore.Internal.Correction>
0.5660

> <Gold.Rescore>
     Score         DG    S(hbond)    S(metal)    S(lipo)     H(rot)  DE(clash)    DE(int)     intcor
      9.80     -18.61       2.21        0.00      85.33       1.66       3.67       5.15       ----

> <Gold.Chemscore.Fitness>
9.7969

> <Gold.Chemscore.DG>
-18.6127

> <Gold.Chemscore.ZeroCoef>
-5.4800

> <Gold.Chemscore.Hbond>
2.2139

> <Gold.Chemscore.Metal>
0.0000

> <Gold.Chemscore.Lipo>
85.3252

> <Gold.Chemscore.Internal_Hbond>
0.0000

> <Gold.Chemscore.DEClash>
3.6667

> <Gold.Chemscore.DEInternal>
5.1491

> <Gold.Chemscore.Rot>
1.6580

> <Gold.Chemscore.Internal.Correction>
   9.000000E+99

> <Gold.Chemscore.Hbonds>
donor molecule, donor type, donor heavy atom, donor atom, acceptor molecule, acceptor atom, score
      P1  H  6896  6909       L1     6  0.99
      P1  H  7989  7998       L1    23  0.13
      P1  H  8011  8017       L1    23  0.83

> <Gold.Chemscore.Hbond.Weighted>
-7.3943

> <Gold.Chemscore.Metal.Weighted>
-0.0000

> <Gold.Chemscore.Lipo.Weighted>
-9.9830

> <Gold.Chemscore.Internal_Hbond.Weighted>
0.0000

> <Gold.Chemscore.DEClash.Weighted>
3.6667

> <Gold.Chemscore.DEInternal.Weighted>
5.1491

> <Gold.Chemscore.Rot.Weighted>
4.2446

> <Gold.Chemscore.Internal.Correction.Weighted>
   9.000000E+99

> <Gold.Protein.RotatedTorsions>
[ 6907 6896 6895 6894 ] final  145.21 input  -60.11 | X-H torsion
[ 7974 7965 7964 7962 ] final  -59.29 input  175.53 | X-H torsion
[ 8008 7997 7996 7995 ] final   57.82 input   59.86 | X-H torsion
[ 10167 10162 10161 10158 ] final    2.89 input  -65.29 | X-H torsion
[ 10718 10713 10712 10709 ] final -142.94 input   66.30 | X-H torsion
[ 10763 10752 10751 10750 ] final  121.92 input  -60.55 | X-H torsion
[ 11005 11000 10999 10996 ] final  -75.79 input  -57.11 | X-H torsion

> <Gold.Protein.ActiveResidues>
 VAL166  LYS551  ARG553  GLY616  TRP617  ASP618  TYR619  PRO620  LYS621  CYS622 
 ASP623  PHE694  ASN695  SER759  ASP760  ASP761  ALA762  ILE779  LEU786  VAL792 
 PHE793  MET794  SER795  GLU796  ALA797  LYS798  CYS799  TRP800  GLU811  SER814 

> <Gold.Protein.RotatedAtoms>
  152.1838  133.4725  159.4971 H   0  0  0  0  0  0  0  0  0  0  0  0  # atno 6907 bound_to 6896
  150.6939  134.1800  159.4254 H   0  0  0  0  0  0  0  0  0  0  0  0  # atno 6908 bound_to 6896
  151.9712  135.0075  160.0603 H   0  0  0  0  0  0  0  0  0  0  0  0  # atno 6909 bound_to 6896
  145.8292  140.8490  143.0092 H   0  0  0  0  0  0  0  0  0  0  0  0  # atno 7974 bound_to 7965
  155.5399  140.3484  155.4444 H   0  0  0  0  0  0  0  0  0  0  0  0  # atno 8008 bound_to 7997
  156.0658  140.1351  156.9913 H   0  0  0  0  0  0  0  0  0  0  0  0  # atno 8009 bound_to 7997
  154.4503  140.0976  156.6570 H   0  0  0  0  0  0  0  0  0  0  0  0  # atno 8010 bound_to 7997
  140.6613  143.7296  150.7744 H   0  0  0  0  0  0  0  0  0  0  0  0  # atno 10167 bound_to 10162
  156.3520  130.7693  151.1847 H   0  0  0  0  0  0  0  0  0  0  0  0  # atno 10718 bound_to 10713
  153.6217  135.3412  155.3013 H   0  0  0  0  0  0  0  0  0  0  0  0  # atno 10763 bound_to 10752
  154.8598  135.4274  154.2201 H   0  0  0  0  0  0  0  0  0  0  0  0  # atno 10764 bound_to 10752
  153.3075  135.7029  153.7219 H   0  0  0  0  0  0  0  0  0  0  0  0  # atno 10765 bound_to 10752
  141.1648  133.6959  156.7570 H   0  0  0  0  0  0  0  0  0  0  0  0  # atno 11005 bound_to 11000
  144.6741  140.0647  143.7475 LP  0  0  0  0  0  0  0  0  0  0  0  0  # atno 17320 bound_to 7965
  145.9589  139.2786  143.1167 LP  0  0  0  0  0  0  0  0  0  0  0  0  # atno 17321 bound_to 7965
  140.0966  143.4827  152.2449 LP  0  0  0  0  0  0  0  0  0  0  0  0  # atno 17342 bound_to 10162
  139.5848  144.7526  151.3549 LP  0  0  0  0  0  0  0  0  0  0  0  0  # atno 17343 bound_to 10162
  157.7462  131.0425  150.4696 LP  0  0  0  0  0  0  0  0  0  0  0  0  # atno 17370 bound_to 10713
  156.4893  130.4091  149.6416 LP  0  0  0  0  0  0  0  0  0  0  0  0  # atno 17371 bound_to 10713
  140.2562  134.8502  157.3714 LP  0  0  0  0  0  0  0  0  0  0  0  0  # atno 17394 bound_to 11000
  140.1655  134.4674  155.7866 LP  0  0  0  0  0  0  0  0  0  0  0  0  # atno 17395 bound_to 11000

$$$$
