AV-unprocessed.smi:175|AV-procd|sdf|1431|dock5
  -GOLD-   2262019213D 1   1.00000     0.00000
 Structure written by MMmdl.
 47 50  0  0  0  0  0  0  0  0  1 V2000
  147.2236  133.3092  151.5370 C   0  0  0  0  0  0  0  0  0  0  0  0
  146.0805  133.9675  152.3269 C   0  0  2  0  0  0  0  0  0  0  0  0
  145.5732  135.0911  151.6203 O   0  0  0  0  0  0  0  0  0  0  0  0
  144.8604  135.8845  152.5517 C   0  0  0  0  0  0  0  0  0  0  0  0
  145.7897  135.8930  153.7583 C   0  0  0  0  0  0  0  0  0  0  0  0
  146.4181  134.4964  153.7474 C   0  0  2  0  0  0  0  0  0  0  0  0
  147.8156  134.6388  153.9409 O   0  0  0  0  0  0  0  0  0  0  0  0
  145.8559  133.6007  154.8796 C   0  0  0  0  0  0  0  0  0  0  0  0
  146.2525  134.0281  156.2130 N   0  0  0  0  0  0  0  0  0  0  0  0
  145.4812  134.7128  157.1264 C   0  0  0  0  0  0  0  0  0  0  0  0
  146.0652  134.9771  158.2637 N   0  0  0  0  0  0  0  0  0  0  0  0
  147.3389  134.4441  158.1172 C   0  0  0  0  0  0  0  0  0  0  0  0
  148.4811  134.3765  158.9555 C   0  0  0  0  0  0  0  0  0  0  0  0
  148.4860  134.9032  160.2000 N   0  0  0  0  0  0  0  0  0  0  0  0
  148.2991  136.3525  160.2752 C   0  0  0  0  0  0  0  0  0  0  0  0
  147.2439  136.5010  161.3531 C   0  0  0  0  0  0  0  0  0  0  0  0
  146.8147  137.5894  161.7323 O   0  0  0  0  0  0  0  0  0  0  0  0
  146.8800  135.3003  161.8066 N   0  0  0  0  0  0  0  0  0  0  0  0
  145.9011  135.0192  162.8543 C   0  0  0  0  0  0  0  0  0  0  0  0
  144.4752  135.4366  162.4521 C   0  0  0  0  0  0  0  0  0  0  0  0
  143.6103  134.9171  163.3223 F   0  0  0  0  0  0  0  0  0  0  0  0
  144.3395  136.7623  162.4620 F   0  0  0  0  0  0  0  0  0  0  0  0
  144.1831  134.9749  161.2362 F   0  0  0  0  0  0  0  0  0  0  0  0
  147.6131  134.2256  161.1592 C   0  0  0  0  0  0  0  0  0  0  0  0
  149.5959  133.7699  158.4687 N   0  0  0  0  0  0  0  0  0  0  0  0
  149.5885  133.2559  157.2349 C   0  0  0  0  0  0  0  0  0  0  0  0
  148.5960  133.2416  156.3415 N   0  0  0  0  0  0  0  0  0  0  0  0
  147.4778  133.8510  156.8318 C   0  0  0  0  0  0  0  0  0  0  0  0
  147.6302  132.4519  152.0742 H   0  0  0  0  0  0  0  0  0  0  0  0
  148.0380  134.0102  151.3523 H   0  0  0  0  0  0  0  0  0  0  0  0
  146.8696  132.9556  150.5685 H   0  0  0  0  0  0  0  0  0  0  0  0
  145.2532  133.2597  152.3919 H   0  0  0  0  0  0  0  0  0  0  0  0
  144.6627  136.8840  152.1639 H   0  0  0  0  0  0  0  0  0  0  0  0
  143.9076  135.4100  152.7916 H   0  0  0  0  0  0  0  0  0  0  0  0
  146.5474  136.6643  153.6080 H   0  0  0  0  0  0  0  0  0  0  0  0
  145.2653  136.1291  154.6849 H   0  0  0  0  0  0  0  0  0  0  0  0
  148.1697  135.1402  153.2225 H   0  0  0  0  0  0  0  0  0  0  0  0
  144.7660  133.5782  154.8387 H   0  0  0  0  0  0  0  0  0  0  0  0
  146.1853  132.5699  154.7414 H   0  0  0  0  0  0  0  0  0  0  0  0
  144.4620  135.0082  156.9249 H   0  0  0  0  0  0  0  0  0  0  0  0
  149.2263  136.8371  160.5816 H   0  0  0  0  0  0  0  0  0  0  0  0
  147.9592  136.8054  159.3424 H   0  0  0  0  0  0  0  0  0  0  0  0
  145.9204  133.9522  163.0800 H   0  0  0  0  0  0  0  0  0  0  0  0
  146.1948  135.5291  163.7734 H   0  0  0  0  0  0  0  0  0  0  0  0
  146.9217  133.5209  160.6929 H   0  0  0  0  0  0  0  0  0  0  0  0
  148.2155  133.6831  161.8886 H   0  0  0  0  0  0  0  0  0  0  0  0
  150.5097  132.7894  156.9179 H   0  0  0  0  0  0  0  0  0  0  0  0
  1  2  1  0  0  0  0
  1 29  1  0  0  0  0
  1 30  1  0  0  0  0
  1 31  1  0  0  0  0
  2  6  1  0  0  0  0
  2  3  1  0  0  0  0
  2 32  1  0  0  0  0
  3  4  1  0  0  0  0
  4  5  1  0  0  0  0
  4 33  1  0  0  0  0
  4 34  1  0  0  0  0
  5  6  1  0  0  0  0
  5 35  1  0  0  0  0
  5 36  1  0  0  0  0
  6  7  1  0  0  0  0
  6  8  1  0  0  0  0
  7 37  1  0  0  0  0
  8  9  1  0  0  0  0
  8 38  1  0  0  0  0
  8 39  1  0  0  0  0
  9 28  1  0  0  0  0
  9 10  1  0  0  0  0
 10 11  2  0  0  0  0
 10 40  1  0  0  0  0
 11 12  1  0  0  0  0
 12 28  2  0  0  0  0
 12 13  1  0  0  0  0
 13 14  1  0  0  0  0
 13 25  2  0  0  0  0
 14 24  1  0  0  0  0
 14 15  1  0  0  0  0
 15 16  1  0  0  0  0
 15 41  1  0  0  0  0
 15 42  1  0  0  0  0
 16 17  2  0  0  0  0
 16 18  1  0  0  0  0
 18 19  1  0  0  0  0
 18 24  1  0  0  0  0
 19 20  1  0  0  0  0
 19 43  1  0  0  0  0
 19 44  1  0  0  0  0
 20 21  1  0  0  0  0
 20 22  1  0  0  0  0
 20 23  1  0  0  0  0
 24 45  1  0  0  0  0
 24 46  1  0  0  0  0
 25 26  1  0  0  0  0
 26 27  2  0  0  0  0
 26 47  1  0  0  0  0
 27 28  1  0  0  0  0
M  END
> <s_m_source_file>
AV-unprocessed.smi

> <i_m_source_file_index>
175

> <i_lp_mmshare_version>
43012

> <i_f3d_flags>
0

> <s_epik_input>
W0NIMl0xW0NIMl1PW0NAQEhdKFtDSDNdKVtDQEBdMShbT0hdKVtDSDJdbihbY0hdbjIpYyhjMjMpbltjSF1uYzNONFtDSDJdQyg9TylOKFtDSDJdNClbQ0gyXUMoRikoRilG

> <s_epik_cmdline>
J2VwaWtfcHl0aG9uJywgJy1waCcsICc3LjAnLCAnLXRuJywgJzgnLCAnLW1hJywgJzIwMCcsICctbWV0YWxfYmluZGluZycsICctaW1hZScsICc8aW5maWxlLm1hZT4nLCAnLW9tYWUnLCAnPG91dGZpbGUubWFlPic=

> <r_lp_tautomer_probability>
1

> <r_epik_Ionization_Penalty>
0.000307802

> <r_epik_Ionization_Penalty_Charging>
0

> <r_epik_Ionization_Penalty_Neutral>
0.000307802

> <r_epik_State_Penalty>
-0

> <r_epik_Charging_Adjusted_Penalty>
0

> <i_epik_Tot_Q>
0

> <i_epik_Tot_abs_Q>
0

> <r_epik_Metal_State_Penalty>
-0

> <b_epik_Metal_Only>
0

> <s_epik_Chemistry_Notes>
This compound contains an acetal/aminal-like group ( X-CH(R)-Y where X, Y are N, S, or O) that may be acid/base labile, releasing an aldehyde.

> <s_lp_Force_Field>
OPLS_2005

> <r_lp_Energy>
38.2687

> <b_lp_Chiralities_Consistent>
1

> <s_lp_Variant>
AV-unprocessed.smi:175-3

> <Gold.Version>
5.8.1

> <Gold.Id.Protein>
6NUR|6NUR_protein|mol2

> <Gold.PLP.Fitness>
42.9903

> <Gold.PLP.PLP>
-32.5082

> <Gold.PLP.part.hbond>
-5.0000

> <Gold.PLP.part.metal>
0.0000

> <Gold.PLP.part.buried>
-4.8108

> <Gold.PLP.part.nonpolar>
-22.7669

> <Gold.PLP.part.repulsive>
0.2020

> <Gold.PLP.ligand.clash>
0.0000

> <Gold.PLP.ligand.torsion>
0.4648

> <Gold.PLP.Chemscore.Hbond>
3.7420

> <Gold.PLP.Chemscore.CHOScore>
0.0000

> <Gold.PLP.Chemscore.Metal>
0.0000

> <Gold.Chemscore.Hbonds>
donor molecule, donor type, donor heavy atom, donor atom, acceptor molecule, acceptor atom, score
      L1  H     7    37       P1  7948  1.00
      P1  H  6896  6907       L1    25  0.87
      P1  H  6931  6943       L1    17  0.07
      P1  H  6934  6947       L1    17  0.90

> <Gold.PLP.Chemscore.Internal.Correction>
0.1857

> <Gold.Rescore>
     Score         DG    S(hbond)    S(metal)    S(lipo)     H(rot)  DE(clash)    DE(int)     intcor
      9.48     -11.56       2.76        0.00      39.78       3.05       0.00       2.08       ----

> <Gold.Chemscore.Fitness>
9.4805

> <Gold.Chemscore.DG>
-11.5577

> <Gold.Chemscore.ZeroCoef>
-5.4800

> <Gold.Chemscore.Hbond>
2.7631

> <Gold.Chemscore.Metal>
0.0000

> <Gold.Chemscore.Lipo>
39.7753

> <Gold.Chemscore.Internal_Hbond>
0.0000

> <Gold.Chemscore.DEClash>
0.0009

> <Gold.Chemscore.DEInternal>
2.0763

> <Gold.Chemscore.Rot>
3.0487

> <Gold.Chemscore.Internal.Correction>
   9.000000E+99

> <Gold.Chemscore.Hbonds>
donor molecule, donor type, donor heavy atom, donor atom, acceptor molecule, acceptor atom, score
      L1  H     7    37       P1  7948  0.98
      P1  H  6896  6907       L1    25  0.76
      P1  H  6934  6947       L1    17  0.87

> <Gold.Chemscore.Hbond.Weighted>
-9.2286

> <Gold.Chemscore.Metal.Weighted>
-0.0000

> <Gold.Chemscore.Lipo.Weighted>
-4.6537

> <Gold.Chemscore.Internal_Hbond.Weighted>
0.0000

> <Gold.Chemscore.DEClash.Weighted>
0.0009

> <Gold.Chemscore.DEInternal.Weighted>
2.0763

> <Gold.Chemscore.Rot.Weighted>
7.8046

> <Gold.Chemscore.Internal.Correction.Weighted>
   9.000000E+99

> <Gold.Protein.RotatedTorsions>
[ 6907 6896 6895 6894 ] final -128.57 input  -60.11 | X-H torsion
[ 7974 7965 7964 7962 ] final   12.22 input  175.53 | X-H torsion
[ 8008 7997 7996 7995 ] final -151.28 input   59.86 | X-H torsion
[ 10167 10162 10161 10158 ] final  102.51 input  -65.29 | X-H torsion
[ 10718 10713 10712 10709 ] final   29.68 input   66.30 | X-H torsion
[ 10763 10752 10751 10750 ] final  -57.41 input  -60.55 | X-H torsion
[ 11005 11000 10999 10996 ] final -112.65 input  -57.11 | X-H torsion

> <Gold.Protein.ActiveResidues>
 VAL166  LYS551  ARG553  GLY616  TRP617  ASP618  TYR619  PRO620  LYS621  CYS622 
 ASP623  PHE694  ASN695  SER759  ASP760  ASP761  ALA762  ILE779  LEU786  VAL792 
 PHE793  MET794  SER795  GLU796  ALA797  LYS798  CYS799  TRP800  GLU811  SER814 

> <Gold.Protein.RotatedAtoms>
  150.9194  133.6899  159.2835 H   0  0  0  0  0  0  0  0  0  0  0  0  # atno 6907 bound_to 6896
  151.4359  135.1013  159.9665 H   0  0  0  0  0  0  0  0  0  0  0  0  # atno 6908 bound_to 6896
  152.4971  133.8613  159.7306 H   0  0  0  0  0  0  0  0  0  0  0  0  # atno 6909 bound_to 6896
  146.2356  139.9369  142.8488 H   0  0  0  0  0  0  0  0  0  0  0  0  # atno 7974 bound_to 7965
  155.6368  140.0697  157.2631 H   0  0  0  0  0  0  0  0  0  0  0  0  # atno 8008 bound_to 7997
  154.4193  140.1757  156.1580 H   0  0  0  0  0  0  0  0  0  0  0  0  # atno 8009 bound_to 7997
  155.9888  140.3347  155.6736 H   0  0  0  0  0  0  0  0  0  0  0  0  # atno 8010 bound_to 7997
  139.7344  144.7028  151.0672 H   0  0  0  0  0  0  0  0  0  0  0  0  # atno 10167 bound_to 10162
  157.2497  130.7109  149.6399 H   0  0  0  0  0  0  0  0  0  0  0  0  # atno 10718 bound_to 10713
  154.2219  135.6376  153.5147 H   0  0  0  0  0  0  0  0  0  0  0  0  # atno 10763 bound_to 10752
  152.9967  135.5499  154.6105 H   0  0  0  0  0  0  0  0  0  0  0  0  # atno 10764 bound_to 10752
  154.5567  135.2906  155.0932 H   0  0  0  0  0  0  0  0  0  0  0  0  # atno 10765 bound_to 10752
  141.0662  133.9455  157.2574 H   0  0  0  0  0  0  0  0  0  0  0  0  # atno 11005 bound_to 11000
  145.1990  140.9846  143.4167 LP  0  0  0  0  0  0  0  0  0  0  0  0  # atno 17320 bound_to 7965
  144.9790  139.3802  143.6271 LP  0  0  0  0  0  0  0  0  0  0  0  0  # atno 17321 bound_to 7965
  140.7776  143.5003  150.9780 LP  0  0  0  0  0  0  0  0  0  0  0  0  # atno 17342 bound_to 10162
  139.8691  143.7215  152.3168 LP  0  0  0  0  0  0  0  0  0  0  0  0  # atno 17343 bound_to 10162
  155.9666  130.4431  150.5410 LP  0  0  0  0  0  0  0  0  0  0  0  0  # atno 17370 bound_to 10713
  157.3291  131.0696  151.1874 LP  0  0  0  0  0  0  0  0  0  0  0  0  # atno 17371 bound_to 10713
  139.9479  135.0181  156.8906 LP  0  0  0  0  0  0  0  0  0  0  0  0  # atno 17394 bound_to 11000
  140.5768  134.0390  155.7450 LP  0  0  0  0  0  0  0  0  0  0  0  0  # atno 17395 bound_to 11000

$$$$
