AV-unprocessed.smi:110|AV-procd|sdf|1074|dock1
  -GOLD-   2262018163D 1   1.00000     0.00000
 Structure written by MMmdl.
 46 50  0  0  0  0  0  0  0  0  1 V2000
  145.1175  143.8643  154.8195 O   0  0  0  0  0  0  0  0  0  0  0  0
  146.0447  143.2722  153.9353 C   0  0  0  0  0  0  0  0  0  0  0  0
  146.2179  141.7823  154.2714 C   0  0  2  0  0  0  0  0  0  0  0  0
  146.8441  141.6913  155.5494 O   0  0  0  0  0  0  0  0  0  0  0  0
  147.7966  140.6824  155.5330 C   0  0  2  0  0  0  0  0  0  0  0  0
  148.8191  140.9686  156.5824 N   0  0  0  0  0  0  0  0  0  0  0  0
  148.7208  141.7772  157.6929 C   0  0  0  0  0  0  0  0  0  0  0  0
  149.7948  141.8349  158.4332 N   0  0  0  0  0  0  0  0  0  0  0  0
  150.7050  141.0056  157.7860 C   0  0  0  0  0  0  0  0  0  0  0  0
  152.0491  140.6043  158.0393 C   0  0  0  0  0  0  0  0  0  0  0  0
  152.7822  141.0526  159.0911 N   0  0  0  0  0  0  0  0  0  0  0  0
  153.7113  140.1321  159.7647 C   0  0  0  0  0  0  0  0  0  0  0  0
  153.9874  140.6835  161.1745 C   0  0  0  0  0  0  0  0  0  0  0  0
  153.2514  141.9810  161.1196 C   0  0  0  0  0  0  0  0  0  0  0  0
  153.2022  142.9704  162.1168 C   0  0  0  0  0  0  0  0  0  0  0  0
  152.4544  144.1386  161.8588 C   0  0  0  0  0  0  0  0  0  0  0  0
  151.7836  144.2978  160.6244 C   0  0  0  0  0  0  0  0  0  0  0  0
  151.8472  143.2899  159.6371 C   0  0  0  0  0  0  0  0  0  0  0  0
  152.5851  142.1164  159.9047 C   0  0  0  0  0  0  0  0  0  0  0  0
  152.6181  139.7477  157.1514 N   0  0  0  0  0  0  0  0  0  0  0  0
  151.9288  139.3081  156.0949 C   0  0  0  0  0  0  0  0  0  0  0  0
  150.6763  139.5962  155.7378 N   0  0  0  0  0  0  0  0  0  0  0  0
  150.0955  140.4560  156.6227 C   0  0  0  0  0  0  0  0  0  0  0  0
  148.3824  140.6829  154.1201 C   0  0  2  0  0  0  0  0  0  0  0  0
  149.4178  141.6340  153.9480 O   0  0  0  0  0  0  0  0  0  0  0  0
  147.1601  141.0506  153.2889 C   0  0  1  0  0  0  0  0  0  0  0  0
  146.5297  139.8732  152.8223 O   0  0  0  0  0  0  0  0  0  0  0  0
  145.2456  141.2869  154.3080 H   0  0  0  0  0  0  0  0  0  0  0  0
  147.3402  139.7315  155.8125 H   0  0  0  0  0  0  0  0  0  0  0  0
  148.7823  139.6956  153.8839 H   0  0  0  0  0  0  0  0  0  0  0  0
  147.4225  141.6566  152.4204 H   0  0  0  0  0  0  0  0  0  0  0  0
  145.5747  144.1270  155.6038 H   0  0  0  0  0  0  0  0  0  0  0  0
  145.6477  143.3884  152.9266 H   0  0  0  0  0  0  0  0  0  0  0  0
  146.9975  143.8014  153.9725 H   0  0  0  0  0  0  0  0  0  0  0  0
  147.8244  142.3278  157.9386 H   0  0  0  0  0  0  0  0  0  0  0  0
  153.2987  139.1234  159.8146 H   0  0  0  0  0  0  0  0  0  0  0  0
  154.6408  140.0858  159.1965 H   0  0  0  0  0  0  0  0  0  0  0  0
  153.5707  140.0437  161.9529 H   0  0  0  0  0  0  0  0  0  0  0  0
  155.0512  140.8363  161.3594 H   0  0  0  0  0  0  0  0  0  0  0  0
  153.7252  142.8424  163.0530 H   0  0  0  0  0  0  0  0  0  0  0  0
  152.3996  144.9175  162.6050 H   0  0  0  0  0  0  0  0  0  0  0  0
  151.2216  145.2000  160.4329 H   0  0  0  0  0  0  0  0  0  0  0  0
  151.3433  143.4326  158.6930 H   0  0  0  0  0  0  0  0  0  0  0  0
  152.4576  138.6301  155.4415 H   0  0  0  0  0  0  0  0  0  0  0  0
  149.8142  141.7989  154.7897 H   0  0  0  0  0  0  0  0  0  0  0  0
  145.6534  140.0918  152.5432 H   0  0  0  0  0  0  0  0  0  0  0  0
  1  2  1  0  0  0  0
  1 32  1  0  0  0  0
  2  3  1  0  0  0  0
  2 33  1  0  0  0  0
  2 34  1  0  0  0  0
  3 28  1  0  0  0  0
  3 26  1  0  0  0  0
  3  4  1  0  0  0  0
  4  5  1  0  0  0  0
  5 29  1  0  0  0  0
  5  6  1  0  0  0  0
  5 24  1  0  0  0  0
  6 23  1  0  0  0  0
  6  7  1  0  0  0  0
  7  8  2  0  0  0  0
  7 35  1  0  0  0  0
  8  9  1  0  0  0  0
  9 23  2  0  0  0  0
  9 10  1  0  0  0  0
 10 11  1  0  0  0  0
 10 20  2  0  0  0  0
 11 19  1  0  0  0  0
 11 12  1  0  0  0  0
 12 13  1  0  0  0  0
 12 36  1  0  0  0  0
 12 37  1  0  0  0  0
 13 14  1  0  0  0  0
 13 38  1  0  0  0  0
 13 39  1  0  0  0  0
 14 19  2  0  0  0  0
 14 15  1  0  0  0  0
 15 16  2  0  0  0  0
 15 40  1  0  0  0  0
 16 17  1  0  0  0  0
 16 41  1  0  0  0  0
 17 18  2  0  0  0  0
 17 42  1  0  0  0  0
 18 19  1  0  0  0  0
 18 43  1  0  0  0  0
 20 21  1  0  0  0  0
 21 22  2  0  0  0  0
 21 44  1  0  0  0  0
 22 23  1  0  0  0  0
 24 30  1  0  0  0  0
 24 25  1  0  0  0  0
 24 26  1  0  0  0  0
 25 45  1  0  0  0  0
 26 31  1  0  0  0  0
 26 27  1  0  0  0  0
 27 46  1  0  0  0  0
M  END
> <s_m_source_file>
AV-unprocessed.smi

> <i_m_source_file_index>
110

> <i_lp_mmshare_version>
43012

> <i_f3d_flags>
0

> <s_epik_input>
W09IXVtDSDJdW0NASF0xT1tDQEhdKFtDQEhdKFtPSF0pW0NAQEhdMVtPSF0pbihbY0hdbjIpYyhjMjMpbltjSF1uYzNOKFtDSDJdW0NIMl00KWMoYzQ1KVtjSF1bY0hdW2NIXVtjSF01

> <s_epik_cmdline>
J2VwaWtfcHl0aG9uJywgJy1waCcsICc3LjAnLCAnLXRuJywgJzgnLCAnLW1hJywgJzIwMCcsICctbWV0YWxfYmluZGluZycsICctaW1hZScsICc8aW5maWxlLm1hZT4nLCAnLW9tYWUnLCAnPG91dGZpbGUubWFlPic=

> <r_lp_tautomer_probability>
1

> <r_epik_Ionization_Penalty>
0.00068475

> <r_epik_Ionization_Penalty_Charging>
0

> <r_epik_Ionization_Penalty_Neutral>
0.00068475

> <r_epik_State_Penalty>
0.000417442

> <r_epik_Charging_Adjusted_Penalty>
0.000417442

> <i_epik_Tot_Q>
0

> <i_epik_Tot_abs_Q>
0

> <r_epik_Metal_State_Penalty>
-0

> <b_epik_Metal_Only>
0

> <s_epik_Chemistry_Notes>
This compound contains an acetal/aminal-like group ( X-CH(R)-Y where X, Y are N, S, or O) that may be acid/base labile, releasing an aldehyde.

> <s_lp_Force_Field>
OPLS_2005

> <r_lp_Energy>
59.3181

> <b_lp_Chiralities_Consistent>
1

> <s_lp_Variant>
AV-unprocessed.smi:110-12

> <Gold.Version>
5.8.1

> <Gold.Id.Protein>
6NUR|6NUR_protein|mol2

> <Gold.PLP.Fitness>
60.7343

> <Gold.PLP.PLP>
-54.5289

> <Gold.PLP.part.hbond>
-4.3026

> <Gold.PLP.part.metal>
0.0000

> <Gold.PLP.part.buried>
-7.0837

> <Gold.PLP.part.nonpolar>
-42.5690

> <Gold.PLP.part.repulsive>
0.1749

> <Gold.PLP.ligand.clash>
0.0000

> <Gold.PLP.ligand.torsion>
0.8873

> <Gold.PLP.Chemscore.Hbond>
2.6101

> <Gold.PLP.Chemscore.CHOScore>
0.0000

> <Gold.PLP.Chemscore.Metal>
0.0000

> <Gold.Chemscore.Hbonds>
donor molecule, donor type, donor heavy atom, donor atom, acceptor molecule, acceptor atom, score
      L1  H    27    46       P1 10175  1.00
      P1  H  7997  8008       L1    20  1.00
      P1  H  8011  8017       L1    25  0.62

> <Gold.PLP.Chemscore.Internal.Correction>
0.1498

> <Gold.Rescore>
     Score         DG    S(hbond)    S(metal)    S(lipo)     H(rot)  DE(clash)    DE(int)     intcor
     15.76     -18.22       2.34        0.00     116.16       3.38       0.44       2.01       ----

> <Gold.Chemscore.Fitness>
15.7626

> <Gold.Chemscore.DG>
-18.2165

> <Gold.Chemscore.ZeroCoef>
-5.4800

> <Gold.Chemscore.Hbond>
2.3377

> <Gold.Chemscore.Metal>
0.0000

> <Gold.Chemscore.Lipo>
116.1611

> <Gold.Chemscore.Internal_Hbond>
0.0000

> <Gold.Chemscore.DEClash>
0.4417

> <Gold.Chemscore.DEInternal>
2.0122

> <Gold.Chemscore.Rot>
3.3837

> <Gold.Chemscore.Internal.Correction>
   9.000000E+99

> <Gold.Chemscore.Hbonds>
donor molecule, donor type, donor heavy atom, donor atom, acceptor molecule, acceptor atom, score
      L1  H    27    46       P1 10175  0.87
      P1  H  7997  8008       L1    20  0.79
      P1  H  8011  8017       L1    25  0.62

> <Gold.Chemscore.Hbond.Weighted>
-7.8079

> <Gold.Chemscore.Metal.Weighted>
-0.0000

> <Gold.Chemscore.Lipo.Weighted>
-13.5908

> <Gold.Chemscore.Internal_Hbond.Weighted>
0.0000

> <Gold.Chemscore.DEClash.Weighted>
0.4417

> <Gold.Chemscore.DEInternal.Weighted>
2.0122

> <Gold.Chemscore.Rot.Weighted>
8.6622

> <Gold.Chemscore.Internal.Correction.Weighted>
   9.000000E+99

> <Gold.Protein.RotatedTorsions>
[ 6907 6896 6895 6894 ] final  -17.65 input  -60.11 | X-H torsion
[ 7974 7965 7964 7962 ] final   70.50 input  175.53 | X-H torsion
[ 8008 7997 7996 7995 ] final  -74.15 input   59.86 | X-H torsion
[ 10167 10162 10161 10158 ] final   98.03 input  -65.29 | X-H torsion
[ 10718 10713 10712 10709 ] final   -8.16 input   66.30 | X-H torsion
[ 10763 10752 10751 10750 ] final  120.22 input  -60.55 | X-H torsion
[ 11005 11000 10999 10996 ] final  -27.78 input  -57.11 | X-H torsion

> <Gold.Protein.ActiveResidues>
 VAL166  LYS551  ARG553  GLY616  TRP617  ASP618  TYR619  PRO620  LYS621  CYS622 
 ASP623  PHE694  ASN695  SER759  ASP760  ASP761  ALA762  ILE779  LEU786  VAL792 
 PHE793  MET794  SER795  GLU796  ALA797  LYS798  CYS799  TRP800  GLU811  SER814 

> <Gold.Protein.RotatedAtoms>
  151.2901  135.0739  159.9200 H   0  0  0  0  0  0  0  0  0  0  0  0  # atno 6907 bound_to 6896
  152.5318  133.9940  159.7874 H   0  0  0  0  0  0  0  0  0  0  0  0  # atno 6908 bound_to 6896
  151.0209  133.5827  159.2702 H   0  0  0  0  0  0  0  0  0  0  0  0  # atno 6909 bound_to 6896
  145.7774  139.2871  143.1286 H   0  0  0  0  0  0  0  0  0  0  0  0  # atno 7974 bound_to 7965
  154.5306  140.0766  156.8338 H   0  0  0  0  0  0  0  0  0  0  0  0  # atno 8008 bound_to 7997
  155.3382  140.3406  155.4221 H   0  0  0  0  0  0  0  0  0  0  0  0  # atno 8009 bound_to 7997
  156.1777  140.1641  156.8318 H   0  0  0  0  0  0  0  0  0  0  0  0  # atno 8010 bound_to 7997
  139.7746  144.6910  151.0107 H   0  0  0  0  0  0  0  0  0  0  0  0  # atno 10167 bound_to 10162
  156.7066  130.5109  149.5903 H   0  0  0  0  0  0  0  0  0  0  0  0  # atno 10718 bound_to 10713
  153.5951  135.3458  155.2925 H   0  0  0  0  0  0  0  0  0  0  0  0  # atno 10763 bound_to 10752
  154.8646  135.4214  154.2473 H   0  0  0  0  0  0  0  0  0  0  0  0  # atno 10764 bound_to 10752
  153.3289  135.7043  153.7036 H   0  0  0  0  0  0  0  0  0  0  0  0  # atno 10765 bound_to 10752
  140.9150  133.7436  156.0722 H   0  0  0  0  0  0  0  0  0  0  0  0  # atno 11005 bound_to 11000
  146.0109  140.8436  142.9971 LP  0  0  0  0  0  0  0  0  0  0  0  0  # atno 17320 bound_to 7965
  144.6802  140.2488  143.7334 LP  0  0  0  0  0  0  0  0  0  0  0  0  # atno 17321 bound_to 7965
  140.7816  143.4550  151.0358 LP  0  0  0  0  0  0  0  0  0  0  0  0  # atno 17342 bound_to 10162
  139.8233  143.7790  152.3177 LP  0  0  0  0  0  0  0  0  0  0  0  0  # atno 17343 bound_to 10162
  156.1691  130.6425  151.0815 LP  0  0  0  0  0  0  0  0  0  0  0  0  # atno 17370 bound_to 10713
  157.6952  131.0796  150.6989 LP  0  0  0  0  0  0  0  0  0  0  0  0  # atno 17371 bound_to 10713
  140.8062  134.3452  157.5425 LP  0  0  0  0  0  0  0  0  0  0  0  0  # atno 17394 bound_to 11000
  139.8764  134.9227  156.3306 LP  0  0  0  0  0  0  0  0  0  0  0  0  # atno 17395 bound_to 11000

$$$$
