AV-unprocessed.smi:1501|AV-procd|sdf|6065|dock4
  -GOLD-   22720 6183D 1   1.00000     0.00000
 Structure written by MMmdl.
 49 50  0  0  0  0  0  0  0  0  1 V2000
  148.6468  141.6940  154.4307 C   0  0  0  0  0  0  0  0  0  0  0  0
  149.8083  141.2343  155.2940 C   0  0  0  0  0  0  0  0  0  0  0  0
  150.1663  142.1203  156.2930 N   0  0  0  0  0  0  0  0  0  0  0  0
  151.2320  141.8085  157.1282 C   0  0  0  0  0  0  0  0  0  0  0  0
  151.5204  142.7815  158.0849 N   0  0  0  0  0  0  0  0  0  0  0  0
  152.4756  142.4983  159.1561 C   0  0  0  0  0  0  0  0  0  0  0  0
  152.2876  143.4605  160.3410 C   0  0  0  0  0  0  0  0  0  0  0  0
  152.3896  144.8036  159.8872 O   0  0  0  0  0  0  0  0  0  0  0  0
  151.3822  145.1068  158.9313 C   0  0  0  0  0  0  0  0  0  0  0  0
  151.5410  144.1942  157.7033 C   0  0  0  0  0  0  0  0  0  0  0  0
  151.9011  140.6951  157.0371 N   0  0  0  0  0  0  0  0  0  0  0  0
  151.5717  139.7454  156.0584 C   0  0  0  0  0  0  0  0  0  0  0  0
  152.1929  138.6863  155.9824 O   0  0  0  0  0  0  0  0  0  0  0  0
  150.4603  140.0580  155.1364 C   0  0  0  0  0  0  0  0  0  0  0  0
  150.1157  139.0535  154.0408 C   0  0  0  0  0  0  0  0  0  0  0  0
  148.6785  138.5142  154.1758 C   0  0  0  0  0  0  0  0  0  0  0  0
  148.5772  137.2557  155.0436 C   0  0  0  0  0  0  0  0  0  0  0  0
  148.0617  137.2965  156.1615 O   0  0  0  0  0  0  0  0  0  0  0  0
  149.0817  136.1332  154.5096 N   0  0  0  0  0  0  0  0  0  0  0  0
  149.0802  134.8239  155.1547 C   0  0  0  0  0  0  0  0  0  0  0  0
  149.6162  133.7086  154.2317 C   0  0  0  0  0  0  0  0  0  0  0  0
  148.5588  133.3045  153.1940 C   0  0  0  0  0  0  0  0  0  0  0  0
  150.1011  132.4799  155.0202 C   0  0  0  0  0  0  0  0  0  0  0  0
  149.6410  142.9786  156.3740 H   0  0  0  0  0  0  0  0  0  0  0  0
  147.8520  140.9476  154.4326 H   0  0  0  0  0  0  0  0  0  0  0  0
  148.9754  141.8473  153.4026 H   0  0  0  0  0  0  0  0  0  0  0  0
  148.2247  142.6332  154.7907 H   0  0  0  0  0  0  0  0  0  0  0  0
  153.4884  142.5872  158.7602 H   0  0  0  0  0  0  0  0  0  0  0  0
  152.3589  141.4715  159.5063 H   0  0  0  0  0  0  0  0  0  0  0  0
  151.3226  143.2986  160.8242 H   0  0  0  0  0  0  0  0  0  0  0  0
  153.0547  143.2818  161.0944 H   0  0  0  0  0  0  0  0  0  0  0  0
  150.3929  144.9904  159.3768 H   0  0  0  0  0  0  0  0  0  0  0  0
  151.4774  146.1517  158.6364 H   0  0  0  0  0  0  0  0  0  0  0  0
  150.7506  144.4221  156.9875 H   0  0  0  0  0  0  0  0  0  0  0  0
  152.4868  144.4083  157.2033 H   0  0  0  0  0  0  0  0  0  0  0  0
  150.8323  138.2307  154.0621 H   0  0  0  0  0  0  0  0  0  0  0  0
  150.2458  139.5204  153.0645 H   0  0  0  0  0  0  0  0  0  0  0  0
  148.0365  139.2854  154.6040 H   0  0  0  0  0  0  0  0  0  0  0  0
  148.2747  138.2828  153.1895 H   0  0  0  0  0  0  0  0  0  0  0  0
  149.4868  136.1870  153.5862 H   0  0  0  0  0  0  0  0  0  0  0  0
  149.6935  134.8897  156.0540 H   0  0  0  0  0  0  0  0  0  0  0  0
  148.0702  134.5851  155.4929 H   0  0  0  0  0  0  0  0  0  0  0  0
  150.4702  134.1052  153.6809 H   0  0  0  0  0  0  0  0  0  0  0  0
  147.6693  132.8932  153.6727 H   0  0  0  0  0  0  0  0  0  0  0  0
  148.9478  132.5503  152.5090 H   0  0  0  0  0  0  0  0  0  0  0  0
  148.2491  134.1613  152.5950 H   0  0  0  0  0  0  0  0  0  0  0  0
  149.2950  132.0479  155.6140 H   0  0  0  0  0  0  0  0  0  0  0  0
  150.9157  132.7342  155.6986 H   0  0  0  0  0  0  0  0  0  0  0  0
  150.4708  131.7047  154.3486 H   0  0  0  0  0  0  0  0  0  0  0  0
  1 25  1  0  0  0  0
  1 26  1  0  0  0  0
  1 27  1  0  0  0  0
  1  2  1  0  0  0  0
  2 14  2  0  0  0  0
  2  3  1  0  0  0  0
  3 24  1  0  0  0  0
  3  4  1  0  0  0  0
  4  5  1  0  0  0  0
  4 11  2  0  0  0  0
  5 10  1  0  0  0  0
  5  6  1  0  0  0  0
  6  7  1  0  0  0  0
  6 28  1  0  0  0  0
  6 29  1  0  0  0  0
  7  8  1  0  0  0  0
  7 30  1  0  0  0  0
  7 31  1  0  0  0  0
  8  9  1  0  0  0  0
  9 10  1  0  0  0  0
  9 32  1  0  0  0  0
  9 33  1  0  0  0  0
 10 34  1  0  0  0  0
 10 35  1  0  0  0  0
 11 12  1  0  0  0  0
 12 13  2  0  0  0  0
 12 14  1  0  0  0  0
 14 15  1  0  0  0  0
 15 16  1  0  0  0  0
 15 36  1  0  0  0  0
 15 37  1  0  0  0  0
 16 17  1  0  0  0  0
 16 38  1  0  0  0  0
 16 39  1  0  0  0  0
 17 18  2  0  0  0  0
 17 19  1  0  0  0  0
 19 20  1  0  0  0  0
 19 40  1  0  0  0  0
 20 21  1  0  0  0  0
 20 41  1  0  0  0  0
 20 42  1  0  0  0  0
 21 22  1  0  0  0  0
 21 23  1  0  0  0  0
 21 43  1  0  0  0  0
 22 44  1  0  0  0  0
 22 45  1  0  0  0  0
 22 46  1  0  0  0  0
 23 47  1  0  0  0  0
 23 48  1  0  0  0  0
 23 49  1  0  0  0  0
M  END
> <s_m_source_file>
AV-unprocessed.smi

> <i_m_source_file_index>
1501

> <i_lp_mmshare_version>
43012

> <i_f3d_flags>
0

> <s_epik_input>
W0NIMl0xW0NIMl1PW0NIMl1bQ0gyXU4xYyhuYzJbQ0gzXSlbbkhdYyg9TyljMltDSDJdW0NIMl1DKD1PKVtOSF1bQ0gyXVtDSF0oW0NIM10pW0NIM10=

> <s_epik_cmdline>
J2VwaWtfcHl0aG9uJywgJy1waCcsICc3LjAnLCAnLXRuJywgJzgnLCAnLW1hJywgJzIwMCcsICctbWV0YWxfYmluZGluZycsICctaW1hZScsICc8aW5maWxlLm1hZT4nLCAnLW9tYWUnLCAnPG91dGZpbGUubWFlPic=

> <r_lp_tautomer_probability>
0.108306

> <r_epik_Ionization_Penalty>
0.0740208

> <r_epik_Ionization_Penalty_Charging>
0.0617106

> <r_epik_Ionization_Penalty_Neutral>
0.0123101

> <r_epik_State_Penalty>
1.70915

> <r_epik_Charging_Adjusted_Penalty>
1.77086

> <i_epik_Tot_Q>
0

> <i_epik_Tot_abs_Q>
0

> <r_epik_Metal_State_Penalty>
2.68075

> <b_epik_Metal_Only>
0

> <s_lp_Force_Field>
OPLS_2005

> <r_lp_Energy>
26.7913

> <b_lp_Chiralities_Consistent>
1

> <s_lp_Variant>
AV-unprocessed.smi:1501-2

> <Gold.Version>
5.8.1

> <Gold.Id.Protein>
6NUR|6NUR_protein|mol2

> <Gold.PLP.Fitness>
50.5761

> <Gold.PLP.PLP>
-46.4282

> <Gold.PLP.part.hbond>
-2.0000

> <Gold.PLP.part.metal>
0.0000

> <Gold.PLP.part.buried>
-0.2252

> <Gold.PLP.part.nonpolar>
-42.6785

> <Gold.PLP.part.repulsive>
0.1735

> <Gold.PLP.ligand.clash>
0.0000

> <Gold.PLP.ligand.torsion>
0.8671

> <Gold.PLP.Chemscore.Hbond>
1.8320

> <Gold.PLP.Chemscore.CHOScore>
0.0000

> <Gold.PLP.Chemscore.Metal>
0.0000

> <Gold.Chemscore.Hbonds>
donor molecule, donor type, donor heavy atom, donor atom, acceptor molecule, acceptor atom, score
      L1  H     3    24       P1  8028  1.00
      L1  H    19    40       P1  7948  0.82

> <Gold.PLP.Chemscore.Internal.Correction>
0.3861

> <Gold.Rescore>
     Score         DG    S(hbond)    S(metal)    S(lipo)     H(rot)  DE(clash)    DE(int)     intcor
     16.94     -17.76       1.39        0.00     105.39       1.83       0.23       0.60       ----

> <Gold.Chemscore.Fitness>
16.9357

> <Gold.Chemscore.DG>
-17.7619

> <Gold.Chemscore.ZeroCoef>
-5.4800

> <Gold.Chemscore.Hbond>
1.3908

> <Gold.Chemscore.Metal>
0.0000

> <Gold.Chemscore.Lipo>
105.3894

> <Gold.Chemscore.Internal_Hbond>
0.0000

> <Gold.Chemscore.DEClash>
0.2251

> <Gold.Chemscore.DEInternal>
0.6012

> <Gold.Chemscore.Rot>
1.8335

> <Gold.Chemscore.Internal.Correction>
   9.000000E+99

> <Gold.Chemscore.Hbonds>
donor molecule, donor type, donor heavy atom, donor atom, acceptor molecule, acceptor atom, score
      L1  H     3    24       P1  8028  0.91
      L1  H    19    40       P1  7948  0.49

> <Gold.Chemscore.Hbond.Weighted>
-4.6451

> <Gold.Chemscore.Metal.Weighted>
-0.0000

> <Gold.Chemscore.Lipo.Weighted>
-12.3306

> <Gold.Chemscore.Internal_Hbond.Weighted>
0.0000

> <Gold.Chemscore.DEClash.Weighted>
0.2251

> <Gold.Chemscore.DEInternal.Weighted>
0.6012

> <Gold.Chemscore.Rot.Weighted>
4.6938

> <Gold.Chemscore.Internal.Correction.Weighted>
   9.000000E+99

> <Gold.Protein.RotatedTorsions>
[ 6907 6896 6895 6894 ] final -142.24 input  -60.11 | X-H torsion
[ 7974 7965 7964 7962 ] final   43.46 input  175.53 | X-H torsion
[ 8008 7997 7996 7995 ] final  170.95 input   59.86 | X-H torsion
[ 10167 10162 10161 10158 ] final  -47.46 input  -65.29 | X-H torsion
[ 10718 10713 10712 10709 ] final  141.64 input   66.30 | X-H torsion
[ 10763 10752 10751 10750 ] final   61.66 input  -60.55 | X-H torsion
[ 11005 11000 10999 10996 ] final  152.85 input  -57.11 | X-H torsion

> <Gold.Protein.ActiveResidues>
 VAL166  LYS551  ARG553  GLY616  TRP617  ASP618  TYR619  PRO620  LYS621  CYS622 
 ASP623  PHE694  ASN695  SER759  ASP760  ASP761  ALA762  ILE779  LEU786  VAL792 
 PHE793  MET794  SER795  GLU796  ALA797  LYS798  CYS799  TRP800  GLU811  SER814 

> <Gold.Protein.RotatedAtoms>
  151.0845  133.5364  159.2618 H   0  0  0  0  0  0  0  0  0  0  0  0  # atno 6907 bound_to 6896
  151.2255  135.0534  159.8976 H   0  0  0  0  0  0  0  0  0  0  0  0  # atno 6908 bound_to 6896
  152.5427  134.0641  159.8219 H   0  0  0  0  0  0  0  0  0  0  0  0  # atno 6909 bound_to 6896
  146.0653  139.5184  142.9632 H   0  0  0  0  0  0  0  0  0  0  0  0  # atno 7974 bound_to 7965
  156.1317  140.1524  156.9055 H   0  0  0  0  0  0  0  0  0  0  0  0  # atno 8008 bound_to 7997
  154.4915  140.0850  156.7643 H   0  0  0  0  0  0  0  0  0  0  0  0  # atno 8009 bound_to 7997
  155.4243  140.3424  155.4276 H   0  0  0  0  0  0  0  0  0  0  0  0  # atno 8010 bound_to 7997
  140.6774  143.2783  151.3930 H   0  0  0  0  0  0  0  0  0  0  0  0  # atno 10167 bound_to 10162
  157.3897  131.1003  151.0658 H   0  0  0  0  0  0  0  0  0  0  0  0  # atno 10718 bound_to 10713
  152.9957  135.5492  154.6070 H   0  0  0  0  0  0  0  0  0  0  0  0  # atno 10763 bound_to 10752
  154.5399  135.2819  155.1107 H   0  0  0  0  0  0  0  0  0  0  0  0  # atno 10764 bound_to 10752
  154.2389  135.6420  153.5253 H   0  0  0  0  0  0  0  0  0  0  0  0  # atno 10765 bound_to 10752
  140.1345  134.8780  157.2248 H   0  0  0  0  0  0  0  0  0  0  0  0  # atno 11005 bound_to 11000
  145.6488  141.0268  143.1772 LP  0  0  0  0  0  0  0  0  0  0  0  0  # atno 17320 bound_to 7965
  144.7199  139.8067  143.7385 LP  0  0  0  0  0  0  0  0  0  0  0  0  # atno 17321 bound_to 7965
  139.6074  144.1168  152.2264 LP  0  0  0  0  0  0  0  0  0  0  0  0  # atno 17342 bound_to 10162
  140.0571  144.5886  150.7291 LP  0  0  0  0  0  0  0  0  0  0  0  0  # atno 17343 bound_to 10162
  157.1697  130.6262  149.5636 LP  0  0  0  0  0  0  0  0  0  0  0  0  # atno 17370 bound_to 10713
  155.9795  130.4789  150.6720 LP  0  0  0  0  0  0  0  0  0  0  0  0  # atno 17371 bound_to 10713
  140.2800  134.3361  155.7346 LP  0  0  0  0  0  0  0  0  0  0  0  0  # atno 17394 bound_to 11000
  141.2176  133.7473  156.9350 LP  0  0  0  0  0  0  0  0  0  0  0  0  # atno 17395 bound_to 11000

$$$$
