AV-unprocessed.smi:2862|AV-procd|sdf|11008|dock5
  -GOLD-   2272015463D 1   1.00000     0.00000
 Structure written by MMmdl.
 52 54  0  0  0  0  0  0  0  0  1 V2000
  146.3420  138.0732  152.1990 C   0  0  0  0  0  0  0  0  0  0  0  0
  146.1398  137.0529  153.3323 C   0  0  2  0  0  0  0  0  0  0  0  0
  147.4267  136.7512  153.9534 N   0  0  0  0  0  0  0  0  0  0  0  0
  147.6284  136.5330  155.2658 C   0  0  0  0  0  0  0  0  0  0  0  0
  146.7107  136.5163  156.0855 O   0  0  0  0  0  0  0  0  0  0  0  0
  149.0681  136.3154  155.7622 C   0  0  0  0  0  0  0  0  0  0  0  0
  150.0032  137.4149  155.4632 N   0  0  0  0  0  0  0  0  0  0  0  0
  151.0748  137.1158  154.5965 C   0  0  0  0  0  0  0  0  0  0  0  0
  151.9903  138.0332  154.2471 C   0  0  0  0  0  0  0  0  0  0  0  0
  151.8635  139.3655  154.7849 C   0  0  0  0  0  0  0  0  0  0  0  0
  150.8564  139.6530  155.6350 C   0  0  0  0  0  0  0  0  0  0  0  0
  150.6854  141.0055  156.1625 C   0  0  0  0  0  0  0  0  0  0  0  0
  150.2665  141.9208  155.4513 O   0  0  0  0  0  0  0  0  0  0  0  0
  151.0373  141.2156  157.4642 N   0  0  0  0  0  0  0  0  0  0  0  0
  151.6214  140.0897  158.2075 C   0  0  0  0  0  0  0  0  0  0  0  0
  150.7601  142.4257  158.2740 C   0  0  2  0  0  0  0  0  0  0  0  0
  149.2584  142.7692  158.2683 C   0  0  0  0  0  0  0  0  0  0  0  0
  151.6290  143.6217  157.9160 C   0  0  0  0  0  0  0  0  0  0  0  0
  152.9256  143.8843  158.6434 C   0  0  0  0  0  0  0  0  0  0  0  0
  151.7453  144.8082  158.8435 C   0  0  0  0  0  0  0  0  0  0  0  0
  149.8249  138.6587  156.0076 C   0  0  0  0  0  0  0  0  0  0  0  0
  148.8674  138.9033  156.7461 O   0  0  0  0  0  0  0  0  0  0  0  0
  145.4298  135.8158  152.8142 C   0  0  0  0  0  0  0  0  0  0  0  0
  145.2917  135.5771  151.3284 C   0  0  0  0  0  0  0  0  0  0  0  0
  144.0723  135.9019  152.1573 C   0  0  0  0  0  0  0  0  0  0  0  0
  145.3906  138.3446  151.7410 H   0  0  0  0  0  0  0  0  0  0  0  0
  146.9852  137.6722  151.4147 H   0  0  0  0  0  0  0  0  0  0  0  0
  146.7984  138.9930  152.5656 H   0  0  0  0  0  0  0  0  0  0  0  0
  145.4908  137.5069  154.0836 H   0  0  0  0  0  0  0  0  0  0  0  0
  148.2328  136.7462  153.3452 H   0  0  0  0  0  0  0  0  0  0  0  0
  149.0262  136.1589  156.8412 H   0  0  0  0  0  0  0  0  0  0  0  0
  149.4333  135.3676  155.3627 H   0  0  0  0  0  0  0  0  0  0  0  0
  151.1040  136.0959  154.2409 H   0  0  0  0  0  0  0  0  0  0  0  0
  152.8038  137.7793  153.5834 H   0  0  0  0  0  0  0  0  0  0  0  0
  152.5817  140.1237  154.5062 H   0  0  0  0  0  0  0  0  0  0  0  0
  150.9459  139.2327  158.2062 H   0  0  0  0  0  0  0  0  0  0  0  0
  151.8300  140.3218  159.2509 H   0  0  0  0  0  0  0  0  0  0  0  0
  152.5636  139.7816  157.7521 H   0  0  0  0  0  0  0  0  0  0  0  0
  150.9840  142.2391  159.3218 H   0  0  0  0  0  0  0  0  0  0  0  0
  149.0427  143.5756  158.9669 H   0  0  0  0  0  0  0  0  0  0  0  0
  148.6524  141.9140  158.5655 H   0  0  0  0  0  0  0  0  0  0  0  0
  148.9104  143.0962  157.2893 H   0  0  0  0  0  0  0  0  0  0  0  0
  151.6293  143.8644  156.8553 H   0  0  0  0  0  0  0  0  0  0  0  0
  153.1888  143.2212  159.4650 H   0  0  0  0  0  0  0  0  0  0  0  0
  153.7634  144.2556  158.0567 H   0  0  0  0  0  0  0  0  0  0  0  0
  151.7964  145.7965  158.3913 H   0  0  0  0  0  0  0  0  0  0  0  0
  151.2360  144.7608  159.8034 H   0  0  0  0  0  0  0  0  0  0  0  0
  145.6156  134.9254  153.4122 H   0  0  0  0  0  0  0  0  0  0  0  0
  145.6567  136.3478  150.6522 H   0  0  0  0  0  0  0  0  0  0  0  0
  145.4005  134.5546  150.9726 H   0  0  0  0  0  0  0  0  0  0  0  0
  143.3689  135.0917  152.3346 H   0  0  0  0  0  0  0  0  0  0  0  0
  143.6278  136.8878  152.0354 H   0  0  0  0  0  0  0  0  0  0  0  0
  1  2  1  0  0  0  0
  1 26  1  0  0  0  0
  1 27  1  0  0  0  0
  1 28  1  0  0  0  0
  2  3  1  0  0  0  0
  2 23  1  0  0  0  0
  2 29  1  0  0  0  0
  3  4  1  0  0  0  0
  3 30  1  0  0  0  0
  4  5  2  0  0  0  0
  4  6  1  0  0  0  0
  6  7  1  0  0  0  0
  6 31  1  0  0  0  0
  6 32  1  0  0  0  0
  7 21  1  0  0  0  0
  7  8  1  0  0  0  0
  8  9  2  0  0  0  0
  8 33  1  0  0  0  0
  9 10  1  0  0  0  0
  9 34  1  0  0  0  0
 10 11  2  0  0  0  0
 10 35  1  0  0  0  0
 11 12  1  0  0  0  0
 11 21  1  0  0  0  0
 12 13  2  0  0  0  0
 12 14  1  0  0  0  0
 14 15  1  0  0  0  0
 14 16  1  0  0  0  0
 15 36  1  0  0  0  0
 15 37  1  0  0  0  0
 15 38  1  0  0  0  0
 16 17  1  0  0  0  0
 16 18  1  0  0  0  0
 16 39  1  0  0  0  0
 17 40  1  0  0  0  0
 17 41  1  0  0  0  0
 17 42  1  0  0  0  0
 18 20  1  0  0  0  0
 18 19  1  0  0  0  0
 18 43  1  0  0  0  0
 19 20  1  0  0  0  0
 19 44  1  0  0  0  0
 19 45  1  0  0  0  0
 20 46  1  0  0  0  0
 20 47  1  0  0  0  0
 21 22  2  0  0  0  0
 23 25  1  0  0  0  0
 23 24  1  0  0  0  0
 23 48  1  0  0  0  0
 24 25  1  0  0  0  0
 24 49  1  0  0  0  0
 24 50  1  0  0  0  0
 25 51  1  0  0  0  0
 25 52  1  0  0  0  0
M  END
> <s_m_source_file>
AV-unprocessed.smi

> <i_m_source_file_index>
2862

> <i_lp_mmshare_version>
43012

> <i_f3d_flags>
0

> <s_epik_input>
W0NIMl0xW0NIMl1bQ0hdMVtDQEhdKFtDSDNdKVtOSF1DKD1PKVtDSDJdbjJbY0hdW2NIXVtjSF1jKGMyPU8pQyg9TylOKFtDSDNdKVtDQEhdKFtDSDNdKVtDSF0zW0NIMl1bQ0gyXTM=

> <s_epik_cmdline>
J2VwaWtfcHl0aG9uJywgJy1waCcsICc3LjAnLCAnLXRuJywgJzgnLCAnLW1hJywgJzIwMCcsICctbWV0YWxfYmluZGluZycsICctaW1hZScsICc8aW5maWxlLm1hZT4nLCAnLW9tYWUnLCAnPG91dGZpbGUubWFlPic=

> <r_lp_tautomer_probability>
1

> <r_epik_Ionization_Penalty>
4.00841e-08

> <r_epik_Ionization_Penalty_Charging>
2.07773e-08

> <r_epik_Ionization_Penalty_Neutral>
1.93069e-08

> <r_epik_State_Penalty>
-0

> <r_epik_Charging_Adjusted_Penalty>
2.07773e-08

> <i_epik_Tot_Q>
0

> <i_epik_Tot_abs_Q>
0

> <r_epik_Metal_State_Penalty>
-0

> <b_epik_Metal_Only>
0

> <s_lp_Force_Field>
OPLS_2005

> <r_lp_Energy>
63.2381

> <b_lp_Chiralities_Consistent>
1

> <s_lp_Variant>
AV-unprocessed.smi:2862-1

> <Gold.Version>
5.8.1

> <Gold.Id.Protein>
6NUR|6NUR_protein|mol2

> <Gold.PLP.Fitness>
44.8499

> <Gold.PLP.PLP>
-44.1017

> <Gold.PLP.part.hbond>
-1.6956

> <Gold.PLP.part.metal>
0.0000

> <Gold.PLP.part.buried>
-0.2751

> <Gold.PLP.part.nonpolar>
-42.3623

> <Gold.PLP.part.repulsive>
0.1388

> <Gold.PLP.ligand.clash>
1.1158

> <Gold.PLP.ligand.torsion>
3.1884

> <Gold.PLP.Chemscore.Hbond>
0.8800

> <Gold.PLP.Chemscore.CHOScore>
0.2778

> <Gold.PLP.Chemscore.Metal>
0.0000

> <Gold.Chemscore.Hbonds>
donor molecule, donor type, donor heavy atom, donor atom, acceptor molecule, acceptor atom, score
      L1  H     3    30       P1  7948  0.98
      L1  C     8    33       P1  7949  0.30

> <Gold.PLP.Chemscore.Internal.Correction>
4.7674

> <Gold.Rescore>
     Score         DG    S(hbond)    S(metal)    S(lipo)     H(rot)  DE(clash)    DE(int)     intcor
     14.07     -17.65       0.94        0.00     114.98       1.73       0.39       3.19       ----

> <Gold.Chemscore.Fitness>
14.0687

> <Gold.Chemscore.DG>
-17.6453

> <Gold.Chemscore.ZeroCoef>
-5.4800

> <Gold.Chemscore.Hbond>
0.9442

> <Gold.Chemscore.Metal>
0.0000

> <Gold.Chemscore.Lipo>
114.9821

> <Gold.Chemscore.Internal_Hbond>
0.0000

> <Gold.Chemscore.DEClash>
0.3882

> <Gold.Chemscore.DEInternal>
3.1884

> <Gold.Chemscore.Rot>
1.7348

> <Gold.Chemscore.Internal.Correction>
   9.000000E+99

> <Gold.Chemscore.Hbonds>
donor molecule, donor type, donor heavy atom, donor atom, acceptor molecule, acceptor atom, score
      L1  H     3    30       P1  7948  0.93

> <Gold.Chemscore.Hbond.Weighted>
-3.1535

> <Gold.Chemscore.Metal.Weighted>
-0.0000

> <Gold.Chemscore.Lipo.Weighted>
-13.4529

> <Gold.Chemscore.Internal_Hbond.Weighted>
0.0000

> <Gold.Chemscore.DEClash.Weighted>
0.3882

> <Gold.Chemscore.DEInternal.Weighted>
3.1884

> <Gold.Chemscore.Rot.Weighted>
4.4412

> <Gold.Chemscore.Internal.Correction.Weighted>
   9.000000E+99

> <Gold.Protein.RotatedTorsions>
[ 6907 6896 6895 6894 ] final  -71.25 input  -60.11 | X-H torsion
[ 7974 7965 7964 7962 ] final   83.84 input  175.53 | X-H torsion
[ 8008 7997 7996 7995 ] final  106.94 input   59.86 | X-H torsion
[ 10167 10162 10161 10158 ] final   -7.24 input  -65.29 | X-H torsion
[ 10718 10713 10712 10709 ] final  -22.07 input   66.30 | X-H torsion
[ 10763 10752 10751 10750 ] final -160.42 input  -60.55 | X-H torsion
[ 11005 11000 10999 10996 ] final   -4.21 input  -57.11 | X-H torsion

> <Gold.Protein.ActiveResidues>
 VAL166  LYS551  ARG553  GLY616  TRP617  ASP618  TYR619  PRO620  LYS621  CYS622 
 ASP623  PHE694  ASN695  SER759  ASP760  ASP761  ALA762  ILE779  LEU786  VAL792 
 PHE793  MET794  SER795  GLU796  ALA797  LYS798  CYS799  TRP800  GLU811  SER814 

> <Gold.Protein.RotatedAtoms>
  150.7221  134.5335  159.5711 H   0  0  0  0  0  0  0  0  0  0  0  0  # atno 6907 bound_to 6896
  152.2863  134.7769  160.0396 H   0  0  0  0  0  0  0  0  0  0  0  0  # atno 6908 bound_to 6896
  151.8398  133.3386  159.3676 H   0  0  0  0  0  0  0  0  0  0  0  0  # atno 6909 bound_to 6896
  145.6066  139.2361  143.2216 H   0  0  0  0  0  0  0  0  0  0  0  0  # atno 7974 bound_to 7965
  156.1784  140.3104  155.9102 H   0  0  0  0  0  0  0  0  0  0  0  0  # atno 8008 bound_to 7997
  155.3438  140.0467  157.3062 H   0  0  0  0  0  0  0  0  0  0  0  0  # atno 8009 bound_to 7997
  154.5315  140.2232  155.8806 H   0  0  0  0  0  0  0  0  0  0  0  0  # atno 8010 bound_to 7997
  140.7022  143.6103  150.8710 H   0  0  0  0  0  0  0  0  0  0  0  0  # atno 10167 bound_to 10162
  156.5095  130.4606  149.6656 H   0  0  0  0  0  0  0  0  0  0  0  0  # atno 10718 bound_to 10713
  154.7392  135.3064  154.8759 H   0  0  0  0  0  0  0  0  0  0  0  0  # atno 10763 bound_to 10752
  153.9578  135.6756  153.4749 H   0  0  0  0  0  0  0  0  0  0  0  0  # atno 10764 bound_to 10752
  153.0992  135.4920  154.8759 H   0  0  0  0  0  0  0  0  0  0  0  0  # atno 10765 bound_to 10752
  140.6778  133.9180  155.8535 H   0  0  0  0  0  0  0  0  0  0  0  0  # atno 11005 bound_to 11000
  146.1536  140.6890  142.9310 LP  0  0  0  0  0  0  0  0  0  0  0  0  # atno 17320 bound_to 7965
  144.7287  140.4606  143.6954 LP  0  0  0  0  0  0  0  0  0  0  0  0  # atno 17321 bound_to 7965
  139.9826  143.5934  152.2938 LP  0  0  0  0  0  0  0  0  0  0  0  0  # atno 17342 bound_to 10162
  139.6561  144.7662  151.2053 LP  0  0  0  0  0  0  0  0  0  0  0  0  # atno 17343 bound_to 10162
  156.3254  130.7303  151.2223 LP  0  0  0  0  0  0  0  0  0  0  0  0  # atno 17370 bound_to 10713
  157.7452  131.0444  150.4792 LP  0  0  0  0  0  0  0  0  0  0  0  0  # atno 17371 bound_to 10713
  141.0342  134.0713  157.3979 LP  0  0  0  0  0  0  0  0  0  0  0  0  # atno 17394 bound_to 11000
  139.8961  135.0144  156.7036 LP  0  0  0  0  0  0  0  0  0  0  0  0  # atno 17395 bound_to 11000

$$$$
