#       Name:                AV-unprocessed.smi:229
#       Creating user name   scv26
#       Creation time:       Thu Mar 26 20:26:29 2020


#       File generated by GOLD software.
#

@<TRIPOS>MOLECULE
AV-unprocessed.smi:229
    70    74     1
SMALL
NO_CHARGES


@<TRIPOS>ATOM
      1 ****        -4.1410  -0.1384   2.9845 C.3            1 S1                 0.0000
      2 ****        -4.6973   0.7845   1.8921 C.3            1 S1                 0.0000
      3 ****        -4.1027   0.5229   0.4985 C.3            1 S1                 0.0000
      4 ****        -2.6076   0.8799   0.4072 C.3            1 S1                 0.0000
      5 ****        -2.1411   0.7232  -0.9644 N.3            1 S1                 0.0000
      6 ****        -0.7926   0.6836  -1.1121 C.ar           1 S1                 0.0000
      7 ****        -0.1598   1.6401  -1.8436 N.ar           1 S1                 0.0000
      8 ****         1.1687   1.6136  -1.9860 C.ar           1 S1                 0.0000
      9 ****         2.0431   0.7342  -1.4941 N.ar           1 S1                 0.0000
     10 ****         1.4150  -0.2326  -0.7662 C.ar           1 S1                 0.0000
     11 ****         0.0149  -0.3332  -0.5278 C.ar           1 S1                 0.0000
     12 ****        -0.2527  -1.4579   0.2450 N.2            1 S1                 0.0000
     13 ****         0.9219  -1.9837   0.4615 C.2            1 S1                 0.0000
     14 ****         1.9788  -1.3110  -0.1074 N.pl3          1 S1                 0.0000
     15 ****         3.3827  -1.6733  -0.0229 C.3            1 S1                 0.0000
     16 ****         4.0241  -1.2302   1.3067 C.3            1 S1                 0.0000
     17 ****         3.9114   0.1705   1.4748 O.3            1 S1                 0.0000
     18 ****         5.4937  -1.6796   1.4397 C.3            1 S1                 0.0000
     19 ****         6.2337  -1.2315   2.7035 C.3            1 S1                 0.0000
     20 ****         7.6728  -1.3070   2.2442 C.3            1 S1                 0.0000
     21 ****         7.5650  -0.8158   0.8027 C.3            1 S1                 0.0000
     22 ****         6.2891  -1.2478   0.3380 O.3            1 S1                 0.0000
     23 ****        -2.9167   1.5089  -1.9188 C.3            1 S1                 0.0000
     24 ****        -4.4237   1.1859  -1.7981 C.3            1 S1                 0.0000
     25 ****        -5.2586   2.1518  -2.6327 C.3            1 S1                 0.0000
     26 ****        -5.4585   1.3998  -3.9396 C.3            1 S1                 0.0000
     27 ****        -5.6835   0.0756  -3.4942 O.3            1 S1                 0.0000
     28 ****        -4.8023  -0.1849  -2.4073 C.3            1 S1                 0.0000
     29 ****        -4.8327   1.3230  -0.4338 O.3            1 S1                 0.0000
     30 ****        -4.6403   0.0462   3.9357 H              1 S1                 0.0000
     31 ****        -3.0738   0.0197   3.1396 H              1 S1                 0.0000
     32 ****        -4.2925  -1.1873   2.7286 H              1 S1                 0.0000
     33 ****        -5.7781   0.6467   1.8443 H              1 S1                 0.0000
     34 ****        -4.5373   1.8259   2.1741 H              1 S1                 0.0000
     35 ****        -4.2369  -0.5323   0.2589 H              1 S1                 0.0000
     36 ****        -2.4473   1.9132   0.7181 H              1 S1                 0.0000
     37 ****        -2.0360   0.2536   1.0901 H              1 S1                 0.0000
     38 ****         1.5916   2.4111  -2.5787 H              1 S1                 0.0000
     39 ****         1.0511  -2.8822   1.0472 H              1 S1                 0.0000
     40 ****         3.4619  -2.7549  -0.1368 H              1 S1                 0.0000
     41 ****         3.9094  -1.2323  -0.8701 H              1 S1                 0.0000
     42 ****         3.4643  -1.6831   2.1258 H              1 S1                 0.0000
     43 ****         4.2877   0.4040   2.3094 H              1 S1                 0.0000
     44 ****         5.5194  -2.7702   1.4116 H              1 S1                 0.0000
     45 ****         5.9915  -0.2025   2.9712 H              1 S1                 0.0000
     46 ****         6.0251  -1.8661   3.5653 H              1 S1                 0.0000
     47 ****         8.3508  -0.7054   2.8502 H              1 S1                 0.0000
     48 ****         8.0199  -2.3411   2.2647 H              1 S1                 0.0000
     49 ****         7.5926   0.2742   0.7711 H              1 S1                 0.0000
     50 ****         8.3692  -1.1934   0.1710 H              1 S1                 0.0000
     51 ****        -2.7466   2.5672  -1.7147 H              1 S1                 0.0000
     52 ****        -2.5726   1.3192  -2.9367 H              1 S1                 0.0000
     53 ****        -6.2310   2.3103  -2.1637 H              1 S1                 0.0000
     54 ****        -4.7954   3.1294  -2.7695 H              1 S1                 0.0000
     55 ****        -6.2992   1.7778  -4.5217 H              1 S1                 0.0000
     56 ****        -4.5605   1.4363  -4.5583 H              1 S1                 0.0000
     57 ****        -3.9231  -0.7153  -2.7753 H              1 S1                 0.0000
     58 ****        -5.3101  -0.8390  -1.6992 H              1 S1                 0.0000
     59 ****        -2.3571  -0.2147  -1.2358 LP             1 S1                 0.0000
     60 ****        -0.6918   2.3673  -2.2773 LP             1 S1                 0.0000
     61 ****         3.0314   0.7784  -1.6404 LP             1 S1                 0.0000
     62 ****        -1.1417  -1.7882   0.5622 LP             1 S1                 0.0000
     63 ****         2.9476   0.4362   1.4533 LP             1 S1                 0.0000
     64 ****         4.4028   0.6389   0.7405 LP             1 S1                 0.0000
     65 ****         5.8305  -0.4895  -0.1254 LP             1 S1                 0.0000
     66 ****         6.4087  -2.0064  -0.3025 LP             1 S1                 0.0000
     67 ****        -5.5019  -0.5671  -4.2385 LP             1 S1                 0.0000
     68 ****        -6.6316  -0.0233  -3.1922 LP             1 S1                 0.0000
     69 ****        -4.7234   2.2819  -0.1720 LP             1 S1                 0.0000
     70 ****        -5.7978   1.0685  -0.3722 LP             1 S1                 0.0000
@<TRIPOS>BOND
    1    1    2 1     
    2    1   30 1     
    3    1   31 1     
    4    1   32 1     
    5    2    3 1     
    6    2   33 1     
    7    2   34 1     
    8    3   29 1     
    9    3    4 1     
   10    3   35 1     
   11    4    5 1     
   12    4   36 1     
   13    4   37 1     
   14    5    6 1     
   15    5   23 1     
   16    6   11 ar    
   17    6    7 ar    
   18    7    8 ar    
   19    8    9 ar    
   20    8   38 1     
   21    9   10 ar    
   22   10   14 1     
   23   10   11 ar    
   24   11   12 1     
   25   12   13 2     
   26   13   14 1     
   27   13   39 1     
   28   14   15 1     
   29   15   16 1     
   30   15   40 1     
   31   15   41 1     
   32   16   17 1     
   33   16   18 1     
   34   16   42 1     
   35   17   43 1     
   36   18   22 1     
   37   18   19 1     
   38   18   44 1     
   39   19   20 1     
   40   19   45 1     
   41   19   46 1     
   42   20   21 1     
   43   20   47 1     
   44   20   48 1     
   45   21   22 1     
   46   21   49 1     
   47   21   50 1     
   48   23   24 1     
   49   23   51 1     
   50   23   52 1     
   51   24   28 1     
   52   24   25 1     
   53   24   29 1     
   54   25   26 1     
   55   25   53 1     
   56   25   54 1     
   57   26   27 1     
   58   26   55 1     
   59   26   56 1     
   60   27   28 1     
   61   28   57 1     
   62   28   58 1     
   63    5   59 1     
   64    7   60 1     
   65    9   61 1     
   66   12   62 1     
   67   17   63 1     
   68   17   64 1     
   69   22   65 1     
   70   22   66 1     
   71   27   67 1     
   72   27   68 1     
   73   29   69 1     
   74   29   70 1     
@<TRIPOS>SUBSTRUCTURE
      1 S1             1
@<TRIPOS>SET
LONE_PAIRS      STATIC     ATOMS    <user>   **** ""
12 59 60 61 62 63 64 65 66 67 68 69 70
DONOR_HYDROGENS      STATIC     ATOMS    <user>   **** ""
1 43
ATOM$BLUE        STATIC     ATOMS    COLORGROUP SYSTEM
12 59 60 61 62 63 64 65 66 67 68 69 70
ATOM$RED        STATIC     ATOMS    COLORGROUP SYSTEM
1 43
