AV-unprocessed.smi:2565|AV-procd|sdf|10070|dock3
  -GOLD-   2272014103D 1   1.00000     0.00000
 Structure written by MMmdl.
 24 25  0  0  0  0  0  0  0  0  1 V2000
  153.7333  141.8346  161.7534 C   0  0  0  0  0  0  0  0  0  0  0  0
  153.5562  141.2150  160.4552 N   0  0  0  0  0  0  0  0  0  0  0  0
  154.1768  140.1384  159.9503 C   0  0  0  0  0  0  0  0  0  0  0  0
  153.7952  139.7922  158.7219 N   0  0  0  0  0  0  0  0  0  0  0  0
  152.8347  140.7240  158.3817 N   0  0  0  0  0  0  0  0  0  0  0  0
  152.7378  141.5466  159.4353 C   0  0  0  0  0  0  0  0  0  0  0  0
  151.7912  142.7087  159.5104 C   0  0  2  0  0  0  0  0  0  0  0  0
  151.0334  142.9313  158.1871 C   0  0  0  0  0  0  0  0  0  0  0  0
  150.1872  144.1198  158.2819 N   0  0  0  0  0  0  0  0  0  0  0  0
  150.9663  145.2941  158.6722 C   0  0  0  0  0  0  0  0  0  0  0  0
  151.7396  145.0171  159.9742 C   0  0  0  0  0  0  0  0  0  0  0  0
  152.5649  143.8692  159.8057 O   0  0  0  0  0  0  0  0  0  0  0  0
  154.3958  141.2279  162.3714 H   0  0  0  0  0  0  0  0  0  0  0  0
  152.7691  141.9263  162.2540 H   0  0  0  0  0  0  0  0  0  0  0  0
  154.1711  142.8255  161.6314 H   0  0  0  0  0  0  0  0  0  0  0  0
  154.9280  139.5882  160.4980 H   0  0  0  0  0  0  0  0  0  0  0  0
  151.0859  142.5403  160.3259 H   0  0  0  0  0  0  0  0  0  0  0  0
  151.7454  143.0493  157.3694 H   0  0  0  0  0  0  0  0  0  0  0  0
  150.4253  142.0578  157.9505 H   0  0  0  0  0  0  0  0  0  0  0  0
  149.7404  144.2911  157.3867 H   0  0  0  0  0  0  0  0  0  0  0  0
  151.6675  145.5547  157.8786 H   0  0  0  0  0  0  0  0  0  0  0  0
  150.3081  146.1533  158.8032 H   0  0  0  0  0  0  0  0  0  0  0  0
  152.3693  145.8710  160.2242 H   0  0  0  0  0  0  0  0  0  0  0  0
  151.0553  144.8711  160.8116 H   0  0  0  0  0  0  0  0  0  0  0  0
  1  2  1  0  0  0  0
  1 13  1  0  0  0  0
  1 14  1  0  0  0  0
  1 15  1  0  0  0  0
  2  6  1  0  0  0  0
  2  3  1  0  0  0  0
  3  4  2  0  0  0  0
  3 16  1  0  0  0  0
  4  5  1  0  0  0  0
  5  6  2  0  0  0  0
  6  7  1  0  0  0  0
  7 12  1  0  0  0  0
  7  8  1  0  0  0  0
  7 17  1  0  0  0  0
  8  9  1  0  0  0  0
  8 18  1  0  0  0  0
  8 19  1  0  0  0  0
  9 10  1  0  0  0  0
  9 20  1  0  0  0  0
 10 11  1  0  0  0  0
 10 21  1  0  0  0  0
 10 22  1  0  0  0  0
 11 12  1  0  0  0  0
 11 23  1  0  0  0  0
 11 24  1  0  0  0  0
M  END
> <s_m_source_file>
AV-unprocessed.smi

> <i_m_source_file_index>
2565

> <i_lp_mmshare_version>
43012

> <i_f3d_flags>
0

> <s_epik_input>
W0NIM11uMVtjSF1ubmMxW0NAQEhdMltDSDJdW05IXVtDSDJdW0NIMl1PMg==

> <s_epik_cmdline>
J2VwaWtfcHl0aG9uJywgJy1waCcsICc3LjAnLCAnLXRuJywgJzgnLCAnLW1hJywgJzIwMCcsICctbWV0YWxfYmluZGluZycsICctaW1hZScsICc8aW5maWxlLm1hZT4nLCAnLW9tYWUnLCAnPG91dGZpbGUubWFlPic=

> <r_lp_tautomer_probability>
1

> <r_epik_Ionization_Penalty>
0.980774

> <r_epik_Ionization_Penalty_Charging>
0

> <r_epik_Ionization_Penalty_Neutral>
0.980774

> <r_epik_State_Penalty>
1.0271

> <r_epik_Charging_Adjusted_Penalty>
1.0271

> <i_epik_Tot_Q>
0

> <i_epik_Tot_abs_Q>
0

> <r_epik_Metal_State_Penalty>
1.02688

> <b_epik_Metal_Only>
0

> <s_lp_Force_Field>
OPLS_2005

> <r_lp_Energy>
14.243

> <b_lp_Chiralities_Consistent>
1

> <s_lp_Variant>
AV-unprocessed.smi:2565-3

> <Gold.Version>
5.8.1

> <Gold.Id.Protein>
6NUR|6NUR_protein|mol2

> <Gold.PLP.Fitness>
34.0420

> <Gold.PLP.PLP>
-28.1201

> <Gold.PLP.part.hbond>
-3.4971

> <Gold.PLP.part.metal>
0.0000

> <Gold.PLP.part.buried>
-3.1366

> <Gold.PLP.part.nonpolar>
-21.3297

> <Gold.PLP.part.repulsive>
0.0067

> <Gold.PLP.ligand.clash>
0.0000

> <Gold.PLP.ligand.torsion>
0.0405

> <Gold.PLP.Chemscore.Hbond>
2.0000

> <Gold.PLP.Chemscore.CHOScore>
0.0000

> <Gold.PLP.Chemscore.Metal>
0.0000

> <Gold.Chemscore.Hbonds>
donor molecule, donor type, donor heavy atom, donor atom, acceptor molecule, acceptor atom, score
      L1  H     9    20       P1  8028  1.00
      P1  H  7997  8008       L1     4  0.95

> <Gold.PLP.Chemscore.Internal.Correction>
0.0030

> <Gold.Rescore>
     Score         DG    S(hbond)    S(metal)    S(lipo)     H(rot)  DE(clash)    DE(int)     intcor
     12.23     -12.36       0.92        0.00      54.33       1.00       0.13       0.00       ----

> <Gold.Chemscore.Fitness>
12.2269

> <Gold.Chemscore.DG>
-12.3643

> <Gold.Chemscore.ZeroCoef>
-5.4800

> <Gold.Chemscore.Hbond>
0.9244

> <Gold.Chemscore.Metal>
0.0000

> <Gold.Chemscore.Lipo>
54.3307

> <Gold.Chemscore.Internal_Hbond>
0.0000

> <Gold.Chemscore.DEClash>
0.1349

> <Gold.Chemscore.DEInternal>
0.0025

> <Gold.Chemscore.Rot>
1.0000

> <Gold.Chemscore.Internal.Correction>
   9.000000E+99

> <Gold.Chemscore.Hbonds>
donor molecule, donor type, donor heavy atom, donor atom, acceptor molecule, acceptor atom, score
      L1  H     9    20       P1  8028  0.30
      P1  H  7997  8008       L1     4  0.21

> <Gold.Chemscore.Hbond.Weighted>
-3.0876

> <Gold.Chemscore.Metal.Weighted>
-0.0000

> <Gold.Chemscore.Lipo.Weighted>
-6.3567

> <Gold.Chemscore.Internal_Hbond.Weighted>
0.0000

> <Gold.Chemscore.DEClash.Weighted>
0.1349

> <Gold.Chemscore.DEInternal.Weighted>
0.0025

> <Gold.Chemscore.Rot.Weighted>
2.5600

> <Gold.Chemscore.Internal.Correction.Weighted>
   9.000000E+99

> <Gold.Protein.RotatedTorsions>
[ 6907 6896 6895 6894 ] final   32.12 input  -60.11 | X-H torsion
[ 7974 7965 7964 7962 ] final  155.38 input  175.53 | X-H torsion
[ 8008 7997 7996 7995 ] final -111.16 input   59.86 | X-H torsion
[ 10167 10162 10161 10158 ] final  -88.48 input  -65.29 | X-H torsion
[ 10718 10713 10712 10709 ] final  136.40 input   66.30 | X-H torsion
[ 10763 10752 10751 10750 ] final  -26.79 input  -60.55 | X-H torsion
[ 11005 11000 10999 10996 ] final   58.57 input  -57.11 | X-H torsion

> <Gold.Protein.ActiveResidues>
 VAL166  LYS551  ARG553  GLY616  TRP617  ASP618  TYR619  PRO620  LYS621  CYS622 
 ASP623  PHE694  ASN695  SER759  ASP760  ASP761  ALA762  ILE779  LEU786  VAL792 
 PHE793  MET794  SER795  GLU796  ALA797  LYS798  CYS799  TRP800  GLU811  SER814 

> <Gold.Protein.RotatedAtoms>
  152.0700  134.9540  160.0574 H   0  0  0  0  0  0  0  0  0  0  0  0  # atno 6907 bound_to 6896
  152.0870  133.4176  159.4535 H   0  0  0  0  0  0  0  0  0  0  0  0  # atno 6908 bound_to 6896
  150.6836  134.2836  159.4681 H   0  0  0  0  0  0  0  0  0  0  0  0  # atno 6909 bound_to 6896
  144.8029  139.7060  143.6174 H   0  0  0  0  0  0  0  0  0  0  0  0  # atno 7974 bound_to 7965
  154.9855  140.0396  157.2296 H   0  0  0  0  0  0  0  0  0  0  0  0  # atno 8008 bound_to 7997
  154.7675  140.2796  155.6142 H   0  0  0  0  0  0  0  0  0  0  0  0  # atno 8009 bound_to 7997
  156.2915  140.2616  156.2469 H   0  0  0  0  0  0  0  0  0  0  0  0  # atno 8010 bound_to 7997
  140.3742  143.2779  151.9463 H   0  0  0  0  0  0  0  0  0  0  0  0  # atno 10167 bound_to 10162
  157.4471  131.1063  151.0077 H   0  0  0  0  0  0  0  0  0  0  0  0  # atno 10718 bound_to 10713
  153.7217  135.6944  153.5011 H   0  0  0  0  0  0  0  0  0  0  0  0  # atno 10763 bound_to 10752
  153.2199  135.4373  155.0476 H   0  0  0  0  0  0  0  0  0  0  0  0  # atno 10764 bound_to 10752
  154.8282  135.3458  154.6750 H   0  0  0  0  0  0  0  0  0  0  0  0  # atno 10765 bound_to 10752
  140.0368  134.5931  155.9434 H   0  0  0  0  0  0  0  0  0  0  0  0  # atno 11005 bound_to 11000
  146.2314  139.5821  142.9553 LP  0  0  0  0  0  0  0  0  0  0  0  0  # atno 17320 bound_to 7965
  145.5510  141.0413  143.2278 LP  0  0  0  0  0  0  0  0  0  0  0  0  # atno 17321 bound_to 7965
  139.4801  144.5878  151.7823 LP  0  0  0  0  0  0  0  0  0  0  0  0  # atno 17342 bound_to 10162
  140.5002  144.1180  150.5969 LP  0  0  0  0  0  0  0  0  0  0  0  0  # atno 17343 bound_to 10162
  157.0920  130.5946  149.5441 LP  0  0  0  0  0  0  0  0  0  0  0  0  # atno 17370 bound_to 10713
  155.9972  130.5043  150.7524 LP  0  0  0  0  0  0  0  0  0  0  0  0  # atno 17371 bound_to 10713
  141.1862  133.6556  156.5228 LP  0  0  0  0  0  0  0  0  0  0  0  0  # atno 17394 bound_to 11000
  140.4134  134.7252  157.4849 LP  0  0  0  0  0  0  0  0  0  0  0  0  # atno 17395 bound_to 11000

$$$$
