AV-unprocessed.smi:2975|AV-procd|sdf|11358|dock2
  -GOLD-   2272016273D 1   1.00000     0.00000
 Structure written by MMmdl.
 40 42  0  0  0  0  0  0  0  0  2 V2000
  151.7669  137.2535  156.2165 C   0  0  0  0  0  0  0  0  0  0  0  0
  151.6597  137.5815  154.7215 C   0  0  1  0  0  0  0  0  0  0  0  0
  151.4432  136.3796  154.0121 O   0  0  0  0  0  0  0  0  0  0  0  0
  150.5725  138.5816  154.4740 C   0  0  0  0  0  0  0  0  0  0  0  0
  149.5134  138.4051  153.6332 N   0  3  0  0  0  0  0  0  0  0  0  0
  148.6804  139.5225  153.6763 C   0  0  0  0  0  0  0  0  0  0  0  0
  147.4941  139.8003  153.0044 C   0  0  0  0  0  0  0  0  0  0  0  0
  146.8839  141.0404  153.2847 C   0  0  0  0  0  0  0  0  0  0  0  0
  147.4527  141.9472  154.2024 C   0  0  0  0  0  0  0  0  0  0  0  0
  148.6567  141.6543  154.8768 C   0  0  0  0  0  0  0  0  0  0  0  0
  149.2560  140.4273  154.5913 C   0  0  0  0  0  0  0  0  0  0  0  0
  150.4247  139.8098  155.0534 N   0  0  0  0  0  0  0  0  0  0  0  0
  151.2600  140.5115  156.0392 C   0  0  0  0  0  0  0  0  0  0  0  0
  150.4356  141.0200  157.2275 C   0  0  0  0  0  0  0  0  0  0  0  0
  151.2866  141.7760  158.0767 O   0  0  0  0  0  0  0  0  0  0  0  0
  152.0970  141.0968  158.9620 C   0  0  0  0  0  0  0  0  0  0  0  0
  152.2691  139.6888  158.9627 C   0  0  0  0  0  0  0  0  0  0  0  0
  153.1213  139.0743  159.9009 C   0  0  0  0  0  0  0  0  0  0  0  0
  153.8083  139.8540  160.8491 C   0  0  0  0  0  0  0  0  0  0  0  0
  153.6414  141.2510  160.8588 C   0  0  0  0  0  0  0  0  0  0  0  0
  152.7906  141.8668  159.9204 C   0  0  0  0  0  0  0  0  0  0  0  0
  152.6398  143.2128  159.9402 F   0  0  0  0  0  0  0  0  0  0  0  0
  151.9775  138.1490  156.8013 H   0  0  0  0  0  0  0  0  0  0  0  0
  152.5704  136.5413  156.4067 H   0  0  0  0  0  0  0  0  0  0  0  0
  150.8413  136.8199  156.5967 H   0  0  0  0  0  0  0  0  0  0  0  0
  152.6104  137.9894  154.3798 H   0  0  0  0  0  0  0  0  0  0  0  0
  151.3029  136.5890  153.1012 H   0  0  0  0  0  0  0  0  0  0  0  0
  147.0552  139.1053  152.3034 H   0  0  0  0  0  0  0  0  0  0  0  0
  145.9605  141.3004  152.7874 H   0  0  0  0  0  0  0  0  0  0  0  0
  146.9551  142.8870  154.3940 H   0  0  0  0  0  0  0  0  0  0  0  0
  149.0806  142.3560  155.5796 H   0  0  0  0  0  0  0  0  0  0  0  0
  152.0324  139.8233  156.3816 H   0  0  0  0  0  0  0  0  0  0  0  0
  151.7836  141.3309  155.5466 H   0  0  0  0  0  0  0  0  0  0  0  0
  149.6118  141.6403  156.8710 H   0  0  0  0  0  0  0  0  0  0  0  0
  150.0163  140.1730  157.7720 H   0  0  0  0  0  0  0  0  0  0  0  0
  151.7586  139.0559  158.2529 H   0  0  0  0  0  0  0  0  0  0  0  0
  153.2482  138.0016  159.8924 H   0  0  0  0  0  0  0  0  0  0  0  0
  154.4614  139.3818  161.5682 H   0  0  0  0  0  0  0  0  0  0  0  0
  154.1669  141.8518  161.5862 H   0  0  0  0  0  0  0  0  0  0  0  0
  149.3745  137.5729  153.0743 H   0  0  0  0  0  0  0  0  0  0  0  0
  1  2  1  0  0  0  0
  1 23  1  0  0  0  0
  1 24  1  0  0  0  0
  1 25  1  0  0  0  0
  2  3  1  0  0  0  0
  2  4  1  0  0  0  0
  2 26  1  0  0  0  0
  3 27  1  0  0  0  0
  4 12  1  0  0  0  0
  4  5  2  0  0  0  0
  5  6  1  0  0  0  0
  5 40  1  0  0  0  0
  6 11  2  0  0  0  0
  6  7  1  0  0  0  0
  7  8  2  0  0  0  0
  7 28  1  0  0  0  0
  8  9  1  0  0  0  0
  8 29  1  0  0  0  0
  9 10  2  0  0  0  0
  9 30  1  0  0  0  0
 10 11  1  0  0  0  0
 10 31  1  0  0  0  0
 11 12  1  0  0  0  0
 12 13  1  0  0  0  0
 13 14  1  0  0  0  0
 13 32  1  0  0  0  0
 13 33  1  0  0  0  0
 14 15  1  0  0  0  0
 14 34  1  0  0  0  0
 14 35  1  0  0  0  0
 15 16  1  0  0  0  0
 16 21  1  0  0  0  0
 16 17  2  0  0  0  0
 17 18  1  0  0  0  0
 17 36  1  0  0  0  0
 18 19  2  0  0  0  0
 18 37  1  0  0  0  0
 19 20  1  0  0  0  0
 19 38  1  0  0  0  0
 20 21  2  0  0  0  0
 20 39  1  0  0  0  0
 21 22  1  0  0  0  0
M  CHG  1   5   1
M  END
> <s_m_source_file>
AV-unprocessed.smi

> <i_m_source_file_index>
2975

> <i_lp_mmshare_version>
43012

> <i_f3d_flags>
0

> <s_epik_input>
W2NIXTFbY0hdW2NIXVtjSF1jKGMxMiluKGMobjIpW0NASF0oW0NIM10pW09IXSlbQ0gyXVtDSDJdT2MzW2NIXVtjSF1bY0hdW2NIXWMzRg==

> <s_epik_cmdline>
J2VwaWtfcHl0aG9uJywgJy1waCcsICc3LjAnLCAnLXRuJywgJzgnLCAnLW1hJywgJzIwMCcsICctbWV0YWxfYmluZGluZycsICctaW1hZScsICc8aW5maWxlLm1hZT4nLCAnLW9tYWUnLCAnPG91dGZpbGUubWFlPic=

> <r_lp_tautomer_probability>
1

> <r_epik_Ionization_Penalty>
1.61121

> <r_epik_Ionization_Penalty_Charging>
1.61119

> <r_epik_Ionization_Penalty_Neutral>
2.92192e-05

> <r_epik_State_Penalty>
1.71016

> <r_epik_Charging_Adjusted_Penalty>
3.32134

> <i_epik_Tot_Q>
1

> <i_epik_Tot_abs_Q>
1

> <r_epik_Metal_State_Penalty>
5.76893

> <b_epik_Metal_Only>
0

> <s_lp_Force_Field>
OPLS_2005

> <r_lp_Energy>
20.882

> <b_lp_Chiralities_Consistent>
1

> <s_lp_Variant>
AV-unprocessed.smi:2975-4

> <Gold.Version>
5.8.1

> <Gold.Id.Protein>
6NUR|6NUR_protein|mol2

> <Gold.PLP.Fitness>
62.3844

> <Gold.PLP.PLP>
-50.9698

> <Gold.PLP.part.hbond>
-4.0000

> <Gold.PLP.part.metal>
0.0000

> <Gold.PLP.part.buried>
1.5587

> <Gold.PLP.part.nonpolar>
-48.1811

> <Gold.PLP.part.repulsive>
0.1112

> <Gold.PLP.ligand.clash>
0.0000

> <Gold.PLP.ligand.torsion>
0.2944

> <Gold.PLP.Chemscore.Hbond>
3.9760

> <Gold.PLP.Chemscore.CHOScore>
0.0000

> <Gold.PLP.Chemscore.Metal>
0.0000

> <Gold.Chemscore.Hbonds>
donor molecule, donor type, donor heavy atom, donor atom, acceptor molecule, acceptor atom, score
      L1  H     3    27       P1  7949  0.93
      L1  H     5    40       P1  7948  2.00
      P1  H 10752 10764       L1     3  1.00

> <Gold.PLP.Chemscore.Internal.Correction>
0.0754

> <Gold.Rescore>
     Score         DG    S(hbond)    S(metal)    S(lipo)     H(rot)  DE(clash)    DE(int)     intcor
     20.59     -21.02       2.41        0.00     113.82       2.28       0.29       0.14       ----

> <Gold.Chemscore.Fitness>
20.5921

> <Gold.Chemscore.DG>
-21.0165

> <Gold.Chemscore.ZeroCoef>
-5.4800

> <Gold.Chemscore.Hbond>
2.4100

> <Gold.Chemscore.Metal>
0.0000

> <Gold.Chemscore.Lipo>
113.8243

> <Gold.Chemscore.Internal_Hbond>
0.0000

> <Gold.Chemscore.DEClash>
0.2860

> <Gold.Chemscore.DEInternal>
0.1384

> <Gold.Chemscore.Rot>
2.2774

> <Gold.Chemscore.Internal.Correction>
   9.000000E+99

> <Gold.Chemscore.Hbonds>
donor molecule, donor type, donor heavy atom, donor atom, acceptor molecule, acceptor atom, score
      L1  H     3    27       P1  7949  0.63
      L1  H     5    40       P1  7948  0.94
      P1  H 10752 10764       L1     3  0.17

> <Gold.Chemscore.Hbond.Weighted>
-8.0493

> <Gold.Chemscore.Metal.Weighted>
-0.0000

> <Gold.Chemscore.Lipo.Weighted>
-13.3174

> <Gold.Chemscore.Internal_Hbond.Weighted>
0.0000

> <Gold.Chemscore.DEClash.Weighted>
0.2860

> <Gold.Chemscore.DEInternal.Weighted>
0.1384

> <Gold.Chemscore.Rot.Weighted>
5.8302

> <Gold.Chemscore.Internal.Correction.Weighted>
   9.000000E+99

> <Gold.Protein.RotatedTorsions>
[ 6907 6896 6895 6894 ] final  157.42 input  -60.11 | X-H torsion
[ 7974 7965 7964 7962 ] final   92.05 input  175.53 | X-H torsion
[ 8008 7997 7996 7995 ] final   47.94 input   59.86 | X-H torsion
[ 10167 10162 10161 10158 ] final -172.36 input  -65.29 | X-H torsion
[ 10718 10713 10712 10709 ] final  142.73 input   66.30 | X-H torsion
[ 10763 10752 10751 10750 ] final  -89.00 input  -60.55 | X-H torsion
[ 11005 11000 10999 10996 ] final   91.74 input  -57.11 | X-H torsion

> <Gold.Protein.ActiveResidues>
 VAL166  LYS551  ARG553  GLY616  TRP617  ASP618  TYR619  PRO620  LYS621  CYS622 
 ASP623  PHE694  ASN695  SER759  ASP760  ASP761  ALA762  ILE779  LEU786  VAL792 
 PHE793  MET794  SER795  GLU796  ALA797  LYS798  CYS799  TRP800  GLU811  SER814 

> <Gold.Protein.RotatedAtoms>
  152.0153  133.3877  159.4235 H   0  0  0  0  0  0  0  0  0  0  0  0  # atno 6907 bound_to 6896
  150.6895  134.3685  159.4991 H   0  0  0  0  0  0  0  0  0  0  0  0  # atno 6908 bound_to 6896
  152.1452  134.9031  160.0602 H   0  0  0  0  0  0  0  0  0  0  0  0  # atno 6909 bound_to 6896
  145.4975  139.2276  143.2795 H   0  0  0  0  0  0  0  0  0  0  0  0  # atno 7974 bound_to 7965
  155.3774  140.3427  155.4245 H   0  0  0  0  0  0  0  0  0  0  0  0  # atno 8008 bound_to 7997
  156.1629  140.1606  156.8615 H   0  0  0  0  0  0  0  0  0  0  0  0  # atno 8009 bound_to 7997
  154.5157  140.0779  156.8058 H   0  0  0  0  0  0  0  0  0  0  0  0  # atno 8010 bound_to 7997
  139.5749  144.1556  152.1436 H   0  0  0  0  0  0  0  0  0  0  0  0  # atno 10167 bound_to 10162
  157.3772  131.0987  151.0773 H   0  0  0  0  0  0  0  0  0  0  0  0  # atno 10718 bound_to 10713
  154.6506  135.5356  153.7898 H   0  0  0  0  0  0  0  0  0  0  0  0  # atno 10763 bound_to 10752
  153.0384  135.6481  154.1022 H   0  0  0  0  0  0  0  0  0  0  0  0  # atno 10764 bound_to 10752
  154.0939  135.2938  155.3245 H   0  0  0  0  0  0  0  0  0  0  0  0  # atno 10765 bound_to 10752
  139.8834  134.8692  156.3471 H   0  0  0  0  0  0  0  0  0  0  0  0  # atno 11005 bound_to 11000
  146.2246  140.5774  142.9002 LP  0  0  0  0  0  0  0  0  0  0  0  0  # atno 17320 bound_to 7965
  144.7799  140.5817  143.6613 LP  0  0  0  0  0  0  0  0  0  0  0  0  # atno 17321 bound_to 7965
  140.1096  144.5468  150.6933 LP  0  0  0  0  0  0  0  0  0  0  0  0  # atno 17342 bound_to 10162
  140.7032  143.2449  151.4803 LP  0  0  0  0  0  0  0  0  0  0  0  0  # atno 17343 bound_to 10162
  157.1855  130.6328  149.5686 LP  0  0  0  0  0  0  0  0  0  0  0  0  # atno 17370 bound_to 10713
  155.9768  130.4739  150.6550 LP  0  0  0  0  0  0  0  0  0  0  0  0  # atno 17371 bound_to 10713
  140.9619  133.7383  156.0413 LP  0  0  0  0  0  0  0  0  0  0  0  0  # atno 17394 bound_to 11000
  140.7979  134.3543  157.5447 LP  0  0  0  0  0  0  0  0  0  0  0  0  # atno 17395 bound_to 11000

$$$$
