#       Name:                AV-unprocessed.smi:252
#       Creating user name   scv26
#       Creation time:       Thu Mar 26 21:07:15 2020


#       File generated by GOLD software.
#

@<TRIPOS>MOLECULE
AV-unprocessed.smi:252
    66    69     1
SMALL
NO_CHARGES


@<TRIPOS>ATOM
      1 ****        -5.4302   6.3046   0.0245 C.3            1 S1                 0.0000
      2 ****        -5.5267   5.0097  -0.7978 C.3            1 S1                 0.0000
      3 ****        -4.7575   3.8344  -0.1860 C.2            1 S1                 0.0000
      4 ****        -4.2782   3.9107   0.9460 O.2            1 S1                 0.0000
      5 ****        -4.6467   2.7429  -0.9587 N.am           1 S1                 0.0000
      6 ****        -3.9493   1.5157  -0.5885 C.3            1 S1                 0.0000
      7 ****        -4.4788   0.3415  -1.4311 C.3            1 S1                 0.0000
      8 ****        -3.6936  -0.9410  -1.1172 C.3            1 S1                 0.0000
      9 ****        -2.1841  -0.7226  -1.3053 C.3            1 S1                 0.0000
     10 ****        -1.7229   0.4234  -0.5225 N.3            1 S1                 0.0000
     11 ****        -0.3786   0.4834  -0.3446 C.ar           1 S1                 0.0000
     12 ****         0.3270   1.5315  -0.8485 N.ar           1 S1                 0.0000
     13 ****         1.6517   1.5944  -0.6866 C.ar           1 S1                 0.0000
     14 ****         2.4580   0.7322  -0.0653 N.ar           1 S1                 0.0000
     15 ****         1.7573  -0.3197   0.4467 C.ar           1 S1                 0.0000
     16 ****         0.3501  -0.5178   0.3580 C.ar           1 S1                 0.0000
     17 ****        -0.0044  -1.6882   1.0189 N.2            1 S1                 0.0000
     18 ****         1.1280  -2.1583   1.4651 C.2            1 S1                 0.0000
     19 ****         2.2392  -1.4075   1.1540 N.pl3          1 S1                 0.0000
     20 ****         3.6167  -1.6973   1.5209 C.3            1 S1                 0.0000
     21 ****         4.4106  -2.4771   0.4359 C.3            1 S1                 0.0000
     22 ****         4.5207  -1.6873  -0.7331 O.3            1 S1                 0.0000
     23 ****         3.7969  -3.8224   0.0661 C.3            1 S1                 0.0000
     24 ****         4.3256  -4.7398   1.1644 C.3            1 S1                 0.0000
     25 ****         5.5941  -4.2059   1.5330 O.3            1 S1                 0.0000
     26 ****         5.8043  -2.9482   0.8954 C.3            1 S1                 0.0000
     27 ****         6.5889  -1.9977   1.8119 C.3            1 S1                 0.0000
     28 ****        -2.4281   1.6794  -0.7844 C.3            1 S1                 0.0000
     29 ****        -5.9730   7.1132  -0.4654 H              1 S1                 0.0000
     30 ****        -4.3944   6.6260   0.1405 H              1 S1                 0.0000
     31 ****        -5.8585   6.1777   1.0194 H              1 S1                 0.0000
     32 ****        -6.5728   4.7216  -0.9065 H              1 S1                 0.0000
     33 ****        -5.1444   5.1920  -1.8030 H              1 S1                 0.0000
     34 ****        -5.0714   2.7660  -1.8743 H              1 S1                 0.0000
     35 ****        -4.1487   1.2957   0.4622 H              1 S1                 0.0000
     36 ****        -5.5406   0.1845  -1.2373 H              1 S1                 0.0000
     37 ****        -4.3854   0.5732  -2.4932 H              1 S1                 0.0000
     38 ****        -3.8914  -1.2484  -0.0895 H              1 S1                 0.0000
     39 ****        -4.0345  -1.7556  -1.7565 H              1 S1                 0.0000
     40 ****        -1.6526  -1.6337  -1.0326 H              1 S1                 0.0000
     41 ****        -1.9645  -0.5375  -2.3574 H              1 S1                 0.0000
     42 ****         2.1351   2.4587  -1.1177 H              1 S1                 0.0000
     43 ****         1.1855  -3.0763   2.0318 H              1 S1                 0.0000
     44 ****         4.1084  -0.7495   1.7429 H              1 S1                 0.0000
     45 ****         3.6031  -2.2566   2.4571 H              1 S1                 0.0000
     46 ****         5.0046  -2.1755  -1.3814 H              1 S1                 0.0000
     47 ****         2.7106  -3.8262  -0.0120 H              1 S1                 0.0000
     48 ****         4.1878  -4.1641  -0.8941 H              1 S1                 0.0000
     49 ****         3.6692  -4.7146   2.0347 H              1 S1                 0.0000
     50 ****         4.4097  -5.7755   0.8342 H              1 S1                 0.0000
     51 ****         6.4125  -3.1565   0.0130 H              1 S1                 0.0000
     52 ****         6.7214  -1.0220   1.3436 H              1 S1                 0.0000
     53 ****         7.5792  -2.4003   2.0255 H              1 S1                 0.0000
     54 ****         6.0854  -1.8499   2.7672 H              1 S1                 0.0000
     55 ****        -2.2151   2.0018  -1.8049 H              1 S1                 0.0000
     56 ****        -2.0557   2.4575  -0.1163 H              1 S1                 0.0000
     57 ****        -4.3884   4.7489   1.4802 LP             1 S1                 0.0000
     58 ****        -3.7788   3.1345   1.3309 LP             1 S1                 0.0000
     59 ****        -2.0319   0.2340   0.4095 LP             1 S1                 0.0000
     60 ****        -0.1485   2.2591  -1.3430 LP             1 S1                 0.0000
     61 ****         3.4486   0.8430   0.0147 LP             1 S1                 0.0000
     62 ****        -0.9180  -2.0801   1.1275 LP             1 S1                 0.0000
     63 ****         5.0034  -0.8374  -0.5215 LP             1 S1                 0.0000
     64 ****         3.6085  -1.4742  -1.0831 LP             1 S1                 0.0000
     65 ****         6.3136  -4.8418   1.2539 LP             1 S1                 0.0000
     66 ****         5.6247  -4.0824   2.5248 LP             1 S1                 0.0000
@<TRIPOS>BOND
    1    1    2 1     
    2    1   29 1     
    3    1   30 1     
    4    1   31 1     
    5    2    3 1     
    6    2   32 1     
    7    2   33 1     
    8    3    4 2     
    9    3    5 am    
   10    5    6 1     
   11    5   34 1     
   12    6   28 1     
   13    6    7 1     
   14    6   35 1     
   15    7    8 1     
   16    7   36 1     
   17    7   37 1     
   18    8    9 1     
   19    8   38 1     
   20    8   39 1     
   21    9   10 1     
   22    9   40 1     
   23    9   41 1     
   24   10   11 1     
   25   10   28 1     
   26   11   16 ar    
   27   11   12 ar    
   28   12   13 ar    
   29   13   14 ar    
   30   13   42 1     
   31   14   15 ar    
   32   15   19 1     
   33   15   16 ar    
   34   16   17 1     
   35   17   18 2     
   36   18   19 1     
   37   18   43 1     
   38   19   20 1     
   39   20   21 1     
   40   20   44 1     
   41   20   45 1     
   42   21   26 1     
   43   21   22 1     
   44   21   23 1     
   45   22   46 1     
   46   23   24 1     
   47   23   47 1     
   48   23   48 1     
   49   24   25 1     
   50   24   49 1     
   51   24   50 1     
   52   25   26 1     
   53   26   27 1     
   54   26   51 1     
   55   27   52 1     
   56   27   53 1     
   57   27   54 1     
   58   28   55 1     
   59   28   56 1     
   60    4   57 1     
   61    4   58 1     
   62   10   59 1     
   63   12   60 1     
   64   14   61 1     
   65   17   62 1     
   66   22   63 1     
   67   22   64 1     
   68   25   65 1     
   69   25   66 1     
@<TRIPOS>SUBSTRUCTURE
      1 S1             1
@<TRIPOS>SET
LONE_PAIRS      STATIC     ATOMS    <user>   **** ""
10 57 58 59 60 61 62 63 64 65 66
DONOR_HYDROGENS      STATIC     ATOMS    <user>   **** ""
2 34 46
ATOM$BLUE        STATIC     ATOMS    COLORGROUP SYSTEM
10 57 58 59 60 61 62 63 64 65 66
ATOM$RED        STATIC     ATOMS    COLORGROUP SYSTEM
2 34 46
