AV-unprocessed.smi:1703|AV-procd|sdf|6868|dock5
  -GOLD-   22720 8 63D 1   1.00000     0.00000
 Structure written by MMmdl.
 49 51  0  0  0  0  0  0  0  0  2 V2000
  150.5018  132.4428  156.4805 C   0  0  0  0  0  0  0  0  0  0  0  0
  150.0558  133.9077  156.4270 C   0  0  2  0  0  0  0  0  0  0  0  0
  151.2471  134.8755  156.2888 C   0  0  0  0  0  0  0  0  0  0  0  0
  150.8250  136.2734  156.3025 N   0  0  0  0  0  0  0  0  0  0  0  0
  151.9752  137.1703  156.1547 C   0  0  0  0  0  0  0  0  0  0  0  0
  151.6502  138.6669  155.9484 C   0  0  2  0  0  0  0  0  0  0  0  0
  152.8384  139.2797  155.4866 O   0  0  0  0  0  0  0  0  0  0  0  0
  151.1607  139.4233  157.2038 C   0  0  0  0  0  0  0  0  0  0  0  0
  150.9440  140.8602  156.9700 N   0  0  0  0  0  0  0  0  0  0  0  0
  150.2041  141.5007  156.0193 C   0  0  0  0  0  0  0  0  0  0  0  0
  149.3926  140.8560  154.9405 C   0  0  0  0  0  0  0  0  0  0  0  0
  149.8939  141.1000  153.6431 O   0  0  0  0  0  0  0  0  0  0  0  0
  150.3420  142.8398  156.2401 N   0  3  0  0  0  0  0  0  0  0  0  0
  151.1768  143.0569  157.3369 C   0  0  0  0  0  0  0  0  0  0  0  0
  151.6086  144.2359  157.9365 C   0  0  0  0  0  0  0  0  0  0  0  0
  152.4647  144.1032  159.0498 C   0  0  0  0  0  0  0  0  0  0  0  0
  152.8601  142.8358  159.5252 C   0  0  0  0  0  0  0  0  0  0  0  0
  152.4163  141.6473  158.9086 C   0  0  0  0  0  0  0  0  0  0  0  0
  151.5691  141.7883  157.8098 C   0  0  0  0  0  0  0  0  0  0  0  0
  150.0849  136.5061  157.5424 C   0  0  0  0  0  0  0  0  0  0  0  0
  148.8855  135.5503  157.6889 C   0  0  2  0  0  0  0  0  0  0  0  0
  148.1490  135.7449  159.0184 C   0  0  0  0  0  0  0  0  0  0  0  0
  149.3520  134.2059  157.6289 O   0  0  0  0  0  0  0  0  0  0  0  0
  151.0390  132.1631  155.5741 H   0  0  0  0  0  0  0  0  0  0  0  0
  149.6430  131.7779  156.5766 H   0  0  0  0  0  0  0  0  0  0  0  0
  151.1602  132.2617  157.3305 H   0  0  0  0  0  0  0  0  0  0  0  0
  149.3796  134.0373  155.5800 H   0  0  0  0  0  0  0  0  0  0  0  0
  151.9586  134.6964  157.0969 H   0  0  0  0  0  0  0  0  0  0  0  0
  151.7731  134.6584  155.3581 H   0  0  0  0  0  0  0  0  0  0  0  0
  152.6708  137.0380  156.9849 H   0  0  0  0  0  0  0  0  0  0  0  0
  152.5316  136.8608  155.2681 H   0  0  0  0  0  0  0  0  0  0  0  0
  150.9125  138.7633  155.1514 H   0  0  0  0  0  0  0  0  0  0  0  0
  152.8920  139.1598  154.5508 H   0  0  0  0  0  0  0  0  0  0  0  0
  150.2200  139.0156  157.5689 H   0  0  0  0  0  0  0  0  0  0  0  0
  151.8846  139.3239  158.0132 H   0  0  0  0  0  0  0  0  0  0  0  0
  149.3627  139.7795  155.1110 H   0  0  0  0  0  0  0  0  0  0  0  0
  148.3673  141.2223  154.9963 H   0  0  0  0  0  0  0  0  0  0  0  0
  149.6161  140.3955  153.0769 H   0  0  0  0  0  0  0  0  0  0  0  0
  151.3079  145.2080  157.5737 H   0  0  0  0  0  0  0  0  0  0  0  0
  152.8257  144.9909  159.5486 H   0  0  0  0  0  0  0  0  0  0  0  0
  153.5176  142.7735  160.3804 H   0  0  0  0  0  0  0  0  0  0  0  0
  152.7245  140.6812  159.2803 H   0  0  0  0  0  0  0  0  0  0  0  0
  150.7516  136.3798  158.3969 H   0  0  0  0  0  0  0  0  0  0  0  0
  149.7180  137.5260  157.5934 H   0  0  0  0  0  0  0  0  0  0  0  0
  148.1827  135.7185  156.8709 H   0  0  0  0  0  0  0  0  0  0  0  0
  147.7668  136.7619  159.1103 H   0  0  0  0  0  0  0  0  0  0  0  0
  148.8087  135.5567  159.8661 H   0  0  0  0  0  0  0  0  0  0  0  0
  147.3022  135.0630  159.0977 H   0  0  0  0  0  0  0  0  0  0  0  0
  149.8931  143.5493  155.6749 H   0  0  0  0  0  0  0  0  0  0  0  0
  1  2  1  0  0  0  0
  1 24  1  0  0  0  0
  1 25  1  0  0  0  0
  1 26  1  0  0  0  0
  2 23  1  0  0  0  0
  2  3  1  0  0  0  0
  2 27  1  0  0  0  0
  3  4  1  0  0  0  0
  3 28  1  0  0  0  0
  3 29  1  0  0  0  0
  4  5  1  0  0  0  0
  4 20  1  0  0  0  0
  5  6  1  0  0  0  0
  5 30  1  0  0  0  0
  5 31  1  0  0  0  0
  6  7  1  0  0  0  0
  6  8  1  0  0  0  0
  6 32  1  0  0  0  0
  7 33  1  0  0  0  0
  8  9  1  0  0  0  0
  8 34  1  0  0  0  0
  8 35  1  0  0  0  0
  9 19  1  0  0  0  0
  9 10  1  0  0  0  0
 10 11  1  0  0  0  0
 10 13  2  0  0  0  0
 11 12  1  0  0  0  0
 11 36  1  0  0  0  0
 11 37  1  0  0  0  0
 12 38  1  0  0  0  0
 13 14  1  0  0  0  0
 13 49  1  0  0  0  0
 14 19  2  0  0  0  0
 14 15  1  0  0  0  0
 15 16  2  0  0  0  0
 15 39  1  0  0  0  0
 16 17  1  0  0  0  0
 16 40  1  0  0  0  0
 17 18  2  0  0  0  0
 17 41  1  0  0  0  0
 18 19  1  0  0  0  0
 18 42  1  0  0  0  0
 20 21  1  0  0  0  0
 20 43  1  0  0  0  0
 20 44  1  0  0  0  0
 21 22  1  0  0  0  0
 21 23  1  0  0  0  0
 21 45  1  0  0  0  0
 22 46  1  0  0  0  0
 22 47  1  0  0  0  0
 22 48  1  0  0  0  0
M  CHG  1  13   1
M  END
> <s_m_source_file>
AV-unprocessed.smi

> <i_m_source_file_index>
1703

> <i_lp_mmshare_version>
43012

> <i_f3d_flags>
0

> <s_epik_input>
W0NIM11bQ0BASF0xW0NIMl1OKFtDSDJdW0NASF0oTzEpW0NIM10pW0NIMl1bQ0BIXShbT0hdKVtDSDJdbihjKG4yKVtDSDJdW09IXSljKGMyMylbY0hdW2NIXVtjSF1bY0hdMw==

> <s_epik_cmdline>
J2VwaWtfcHl0aG9uJywgJy1waCcsICc3LjAnLCAnLXRuJywgJzgnLCAnLW1hJywgJzIwMCcsICctbWV0YWxfYmluZGluZycsICctaW1hZScsICc8aW5maWxlLm1hZT4nLCAnLW9tYWUnLCAnPG91dGZpbGUubWFlPic=

> <r_epik_Ionization_Penalty>
1.7682

> <r_epik_Ionization_Penalty_Charging>
1.55298

> <r_epik_Ionization_Penalty_Neutral>
0.215215

> <r_epik_State_Penalty>
1.83821

> <r_epik_Charging_Adjusted_Penalty>
3.39119

> <i_epik_Tot_Q>
1

> <i_epik_Tot_abs_Q>
1

> <r_epik_Metal_State_Penalty>
5.89206

> <b_epik_Metal_Only>
0

> <s_lp_Force_Field>
OPLS_2005

> <r_lp_Energy>
30.4523

> <b_lp_Chiralities_Consistent>
1

> <s_lp_Variant>
AV-unprocessed.smi:1703-16

> <Gold.Version>
5.8.1

> <Gold.Id.Protein>
6NUR|6NUR_protein|mol2

> <Gold.PLP.Fitness>
59.0443

> <Gold.PLP.PLP>
-42.0611

> <Gold.PLP.part.hbond>
-5.5934

> <Gold.PLP.part.metal>
0.0000

> <Gold.PLP.part.buried>
-4.3525

> <Gold.PLP.part.nonpolar>
-33.1565

> <Gold.PLP.part.repulsive>
0.1151

> <Gold.PLP.ligand.clash>
0.0000

> <Gold.PLP.ligand.torsion>
0.2330

> <Gold.PLP.Chemscore.Hbond>
5.7920

> <Gold.PLP.Chemscore.CHOScore>
0.0000

> <Gold.PLP.Chemscore.Metal>
0.0000

> <Gold.Chemscore.Hbonds>
donor molecule, donor type, donor heavy atom, donor atom, acceptor molecule, acceptor atom, score
      L1  H    12    38       P1  7957  0.72
      L1  H    13    49       P1  8028  1.86
      P1  H  6896  6907       L1    23  0.65
      P1  H  7989  7998       L1    12  0.24
      P1  H  7997  8008       L1     7  1.00
      P1  H  8011  8017       L1    12  0.68

> <Gold.PLP.Chemscore.Internal.Correction>
0.0731

> <Gold.Rescore>
     Score         DG    S(hbond)    S(metal)    S(lipo)     H(rot)  DE(clash)    DE(int)     intcor
     21.31     -22.73       3.58        0.00     109.98       2.96       0.22       1.20       ----

> <Gold.Chemscore.Fitness>
21.3053

> <Gold.Chemscore.DG>
-22.7258

> <Gold.Chemscore.ZeroCoef>
-5.4800

> <Gold.Chemscore.Hbond>
3.5759

> <Gold.Chemscore.Metal>
0.0000

> <Gold.Chemscore.Lipo>
109.9840

> <Gold.Chemscore.Internal_Hbond>
0.0000

> <Gold.Chemscore.DEClash>
0.2230

> <Gold.Chemscore.DEInternal>
1.1974

> <Gold.Chemscore.Rot>
2.9555

> <Gold.Chemscore.Internal.Correction>
   9.000000E+99

> <Gold.Chemscore.Hbonds>
donor molecule, donor type, donor heavy atom, donor atom, acceptor molecule, acceptor atom, score
      L1  H    12    38       P1  7957  0.71
      L1  H    13    49       P1  8028  0.85
      P1  H  6896  6907       L1    23  0.25
      P1  H  7989  7998       L1    12  0.05
      P1  H  7997  8008       L1     7  0.90
      P1  H  8011  8017       L1    12  0.08

> <Gold.Chemscore.Hbond.Weighted>
-11.9436

> <Gold.Chemscore.Metal.Weighted>
-0.0000

> <Gold.Chemscore.Lipo.Weighted>
-12.8681

> <Gold.Chemscore.Internal_Hbond.Weighted>
0.0000

> <Gold.Chemscore.DEClash.Weighted>
0.2230

> <Gold.Chemscore.DEInternal.Weighted>
1.1974

> <Gold.Chemscore.Rot.Weighted>
7.5660

> <Gold.Chemscore.Internal.Correction.Weighted>
   9.000000E+99

> <Gold.Protein.RotatedTorsions>
[ 6907 6896 6895 6894 ] final -111.29 input  -60.11 | X-H torsion
[ 7974 7965 7964 7962 ] final  158.99 input  175.53 | X-H torsion
[ 8008 7997 7996 7995 ] final  -40.12 input   59.86 | X-H torsion
[ 10167 10162 10161 10158 ] final  -36.92 input  -65.29 | X-H torsion
[ 10718 10713 10712 10709 ] final   16.68 input   66.30 | X-H torsion
[ 10763 10752 10751 10750 ] final -177.92 input  -60.55 | X-H torsion
[ 11005 11000 10999 10996 ] final   87.42 input  -57.11 | X-H torsion

> <Gold.Protein.ActiveResidues>
 VAL166  LYS551  ARG553  GLY616  TRP617  ASP618  TYR619  PRO620  LYS621  CYS622 
 ASP623  PHE694  ASN695  SER759  ASP760  ASP761  ALA762  ILE779  LEU786  VAL792 
 PHE793  MET794  SER795  GLU796  ALA797  LYS798  CYS799  TRP800  GLU811  SER814 

> <Gold.Protein.RotatedAtoms>
  150.7680  133.9257  159.3411 H   0  0  0  0  0  0  0  0  0  0  0  0  # atno 6907 bound_to 6896
  151.7150  135.0903  160.0284 H   0  0  0  0  0  0  0  0  0  0  0  0  # atno 6908 bound_to 6896
  152.3685  133.6351  159.6105 H   0  0  0  0  0  0  0  0  0  0  0  0  # atno 6909 bound_to 6896
  144.7815  139.7556  143.6258 H   0  0  0  0  0  0  0  0  0  0  0  0  # atno 7974 bound_to 7965
  154.4015  140.1534  156.2975 H   0  0  0  0  0  0  0  0  0  0  0  0  # atno 8008 bound_to 7997
  155.8730  140.3448  155.5813 H   0  0  0  0  0  0  0  0  0  0  0  0  # atno 8009 bound_to 7997
  155.7753  140.0836  157.2078 H   0  0  0  0  0  0  0  0  0  0  0  0  # atno 8010 bound_to 7997
  140.7131  143.3376  151.2428 H   0  0  0  0  0  0  0  0  0  0  0  0  # atno 10167 bound_to 10162
  157.0713  130.6349  149.5806 H   0  0  0  0  0  0  0  0  0  0  0  0  # atno 10718 bound_to 10713
  154.5542  135.2815  155.0980 H   0  0  0  0  0  0  0  0  0  0  0  0  # atno 10763 bound_to 10752
  154.2414  135.6356  153.5212 H   0  0  0  0  0  0  0  0  0  0  0  0  # atno 10764 bound_to 10752
  153.0011  135.5561  154.6117 H   0  0  0  0  0  0  0  0  0  0  0  0  # atno 10765 bound_to 10752
  139.8920  134.8421  156.2858 H   0  0  0  0  0  0  0  0  0  0  0  0  # atno 11005 bound_to 11000
  146.2025  139.5328  142.9734 LP  0  0  0  0  0  0  0  0  0  0  0  0  # atno 17320 bound_to 7965
  145.6039  141.0351  143.2003 LP  0  0  0  0  0  0  0  0  0  0  0  0  # atno 17321 bound_to 7965
  139.6875  143.9748  152.2842 LP  0  0  0  0  0  0  0  0  0  0  0  0  # atno 17342 bound_to 10162
  139.9399  144.6688  150.8277 LP  0  0  0  0  0  0  0  0  0  0  0  0  # atno 17343 bound_to 10162
  155.9949  130.5015  150.7440 LP  0  0  0  0  0  0  0  0  0  0  0  0  # atno 17370 bound_to 10713
  157.4875  131.0908  151.0465 LP  0  0  0  0  0  0  0  0  0  0  0  0  # atno 17371 bound_to 10713
  141.0009  133.7152  156.0958 LP  0  0  0  0  0  0  0  0  0  0  0  0  # atno 17394 bound_to 11000
  140.7499  134.4056  157.5543 LP  0  0  0  0  0  0  0  0  0  0  0  0  # atno 17395 bound_to 11000

$$$$
