AV-unprocessed.smi:509|AV-procd|sdf|2761|dock2
  -GOLD-   2262023223D 1   1.00000     0.00000
 Structure written by MMmdl.
 45 47  0  0  0  0  0  0  0  0  1 V2000
  149.1532  127.2273  152.4011 C   0  0  0  0  0  0  0  0  0  0  0  0
  148.3518  127.5777  153.5145 O   0  0  0  0  0  0  0  0  0  0  0  0
  148.7851  128.7714  154.1460 C   0  0  0  0  0  0  0  0  0  0  0  0
  148.8775  129.8961  153.1058 C   0  0  0  0  0  0  0  0  0  0  0  0
  148.9770  131.2127  153.7344 N   0  0  0  0  0  0  0  0  0  0  0  0
  148.1987  132.3144  153.5437 C   0  0  0  0  0  0  0  0  0  0  0  0
  147.0960  132.3178  152.6889 N   0  0  0  0  0  0  0  0  0  0  0  0
  146.2021  131.1993  152.3968 C   0  0  0  0  0  0  0  0  0  0  0  0
  145.9743  131.0589  150.8788 C   0  0  0  0  0  0  0  0  0  0  0  0
  145.3459  132.2729  150.3694 N   0  0  0  0  0  0  0  0  0  0  0  0
  146.2259  133.4041  150.6439 C   0  0  0  0  0  0  0  0  0  0  0  0
  146.4661  133.5251  152.1623 C   0  0  0  0  0  0  0  0  0  0  0  0
  148.6048  133.3999  154.2067 N   0  0  0  0  0  0  0  0  0  0  0  0
  149.7163  132.9482  154.8997 C   0  0  0  0  0  0  0  0  0  0  0  0
  149.9603  131.6448  154.6292 C   0  0  0  0  0  0  0  0  0  0  0  0
  151.1004  130.9168  155.2027 C   0  0  0  0  0  0  0  0  0  0  0  0
  151.3192  129.7395  154.9151 O   0  0  0  0  0  0  0  0  0  0  0  0
  151.8656  131.6639  156.0593 N   0  0  0  0  0  0  0  0  0  0  0  0
  153.0254  131.0206  156.7047 C   0  0  0  0  0  0  0  0  0  0  0  0
  151.6433  132.9929  156.3740 C   0  0  0  0  0  0  0  0  0  0  0  0
  152.3757  133.5929  157.1663 O   0  0  0  0  0  0  0  0  0  0  0  0
  150.5856  133.6367  155.7838 N   0  0  0  0  0  0  0  0  0  0  0  0
  150.3256  135.0481  156.0818 C   0  0  0  0  0  0  0  0  0  0  0  0
  148.7780  126.3054  151.9569 H   0  0  0  0  0  0  0  0  0  0  0  0
  150.1895  127.0613  152.6981 H   0  0  0  0  0  0  0  0  0  0  0  0
  149.1269  128.0047  151.6366 H   0  0  0  0  0  0  0  0  0  0  0  0
  148.0833  129.0531  154.9321 H   0  0  0  0  0  0  0  0  0  0  0  0
  149.7564  128.6133  154.6170 H   0  0  0  0  0  0  0  0  0  0  0  0
  149.7302  129.7156  152.4601 H   0  0  0  0  0  0  0  0  0  0  0  0
  148.0144  129.8785  152.4421 H   0  0  0  0  0  0  0  0  0  0  0  0
  146.5982  130.2754  152.8161 H   0  0  0  0  0  0  0  0  0  0  0  0
  145.2495  131.3639  152.9026 H   0  0  0  0  0  0  0  0  0  0  0  0
  146.9145  130.8775  150.3562 H   0  0  0  0  0  0  0  0  0  0  0  0
  145.3217  130.2105  150.6729 H   0  0  0  0  0  0  0  0  0  0  0  0
  145.2023  132.1891  149.3732 H   0  0  0  0  0  0  0  0  0  0  0  0
  147.1695  133.2788  150.1114 H   0  0  0  0  0  0  0  0  0  0  0  0
  145.7611  134.3137  150.2635 H   0  0  0  0  0  0  0  0  0  0  0  0
  145.5283  133.7104  152.6880 H   0  0  0  0  0  0  0  0  0  0  0  0
  147.1091  134.3837  152.3591 H   0  0  0  0  0  0  0  0  0  0  0  0
  152.9280  131.0618  157.7907 H   0  0  0  0  0  0  0  0  0  0  0  0
  153.9470  131.5366  156.4310 H   0  0  0  0  0  0  0  0  0  0  0  0
  153.1702  129.9704  156.4493 H   0  0  0  0  0  0  0  0  0  0  0  0
  149.9788  135.1589  157.1097 H   0  0  0  0  0  0  0  0  0  0  0  0
  149.5681  135.4822  155.4296 H   0  0  0  0  0  0  0  0  0  0  0  0
  151.2291  135.6472  155.9602 H   0  0  0  0  0  0  0  0  0  0  0  0
  1  2  1  0  0  0  0
  1 24  1  0  0  0  0
  1 25  1  0  0  0  0
  1 26  1  0  0  0  0
  2  3  1  0  0  0  0
  3  4  1  0  0  0  0
  3 27  1  0  0  0  0
  3 28  1  0  0  0  0
  4  5  1  0  0  0  0
  4 29  1  0  0  0  0
  4 30  1  0  0  0  0
  5 15  1  0  0  0  0
  5  6  1  0  0  0  0
  6  7  1  0  0  0  0
  6 13  2  0  0  0  0
  7 12  1  0  0  0  0
  7  8  1  0  0  0  0
  8  9  1  0  0  0  0
  8 31  1  0  0  0  0
  8 32  1  0  0  0  0
  9 10  1  0  0  0  0
  9 33  1  0  0  0  0
  9 34  1  0  0  0  0
 10 11  1  0  0  0  0
 10 35  1  0  0  0  0
 11 12  1  0  0  0  0
 11 36  1  0  0  0  0
 11 37  1  0  0  0  0
 12 38  1  0  0  0  0
 12 39  1  0  0  0  0
 13 14  1  0  0  0  0
 14 22  1  0  0  0  0
 14 15  2  0  0  0  0
 15 16  1  0  0  0  0
 16 17  2  0  0  0  0
 16 18  1  0  0  0  0
 18 19  1  0  0  0  0
 18 20  1  0  0  0  0
 19 40  1  0  0  0  0
 19 41  1  0  0  0  0
 19 42  1  0  0  0  0
 20 21  2  0  0  0  0
 20 22  1  0  0  0  0
 22 23  1  0  0  0  0
 23 43  1  0  0  0  0
 23 44  1  0  0  0  0
 23 45  1  0  0  0  0
M  END
> <s_m_source_file>
AV-unprocessed.smi

> <i_m_source_file_index>
509

> <i_lp_mmshare_version>
43012

> <i_f3d_flags>
0

> <s_epik_input>
W0NIM11uMWMoPU8pbihbQ0gzXSljKD1PKWMoYzEyKW4oW0NIMl1bQ0gyXU9bQ0gzXSljKG4yKU4zW0NIMl1bQ0gyXVtOSF1bQ0gyXVtDSDJdMw==

> <s_epik_cmdline>
J2VwaWtfcHl0aG9uJywgJy1waCcsICc3LjAnLCAnLXRuJywgJzgnLCAnLW1hJywgJzIwMCcsICctbWV0YWxfYmluZGluZycsICctaW1hZScsICc8aW5maWxlLm1hZT4nLCAnLW9tYWUnLCAnPG91dGZpbGUubWFlPic=

> <r_epik_Ionization_Penalty>
2.51424

> <r_epik_Ionization_Penalty_Charging>
1.27827e-08

> <r_epik_Ionization_Penalty_Neutral>
2.51424

> <r_epik_State_Penalty>
2.67993

> <r_epik_Charging_Adjusted_Penalty>
2.67993

> <i_epik_Tot_Q>
0

> <i_epik_Tot_abs_Q>
0

> <r_epik_Metal_State_Penalty>
2.67967

> <b_epik_Metal_Only>
0

> <s_lp_Force_Field>
OPLS_2005

> <r_lp_Energy>
54.3442

> <b_lp_Chiralities_Consistent>
1

> <s_lp_Variant>
AV-unprocessed.smi:509-2

> <Gold.Version>
5.8.1

> <Gold.Id.Protein>
6NUR|6NUR_protein|mol2

> <Gold.PLP.Fitness>
35.7033

> <Gold.PLP.PLP>
-36.0548

> <Gold.PLP.part.hbond>
-1.0000

> <Gold.PLP.part.metal>
0.0000

> <Gold.PLP.part.buried>
-4.3309

> <Gold.PLP.part.nonpolar>
-30.3071

> <Gold.PLP.part.repulsive>
0.1900

> <Gold.PLP.ligand.clash>
0.0000

> <Gold.PLP.ligand.torsion>
0.3422

> <Gold.PLP.Chemscore.Hbond>
0.0000

> <Gold.PLP.Chemscore.CHOScore>
0.0000

> <Gold.PLP.Chemscore.Metal>
0.0000

> <Gold.PLP.Chemscore.Internal.Correction>
0.3330

> <Gold.Rescore>
     Score         DG    S(hbond)    S(metal)    S(lipo)     H(rot)  DE(clash)    DE(int)     intcor
      9.90     -11.77       0.93        0.00      59.83       1.49       0.03       1.84       ----

> <Gold.Chemscore.Fitness>
9.9036

> <Gold.Chemscore.DG>
-11.7723

> <Gold.Chemscore.ZeroCoef>
-5.4800

> <Gold.Chemscore.Hbond>
0.9314

> <Gold.Chemscore.Metal>
0.0000

> <Gold.Chemscore.Lipo>
59.8271

> <Gold.Chemscore.Internal_Hbond>
0.0000

> <Gold.Chemscore.DEClash>
0.0283

> <Gold.Chemscore.DEInternal>
1.8404

> <Gold.Chemscore.Rot>
1.4915

> <Gold.Chemscore.Internal.Correction>
   9.000000E+99

> <Gold.Chemscore.Hbond.Weighted>
-3.1109

> <Gold.Chemscore.Metal.Weighted>
-0.0000

> <Gold.Chemscore.Lipo.Weighted>
-6.9998

> <Gold.Chemscore.Internal_Hbond.Weighted>
0.0000

> <Gold.Chemscore.DEClash.Weighted>
0.0283

> <Gold.Chemscore.DEInternal.Weighted>
1.8404

> <Gold.Chemscore.Rot.Weighted>
3.8183

> <Gold.Chemscore.Internal.Correction.Weighted>
   9.000000E+99

> <Gold.Protein.RotatedTorsions>
[ 6907 6896 6895 6894 ] final  113.48 input  -60.11 | X-H torsion
[ 7974 7965 7964 7962 ] final -122.58 input  175.53 | X-H torsion
[ 8008 7997 7996 7995 ] final  -60.40 input   59.86 | X-H torsion
[ 10167 10162 10161 10158 ] final -117.60 input  -65.29 | X-H torsion
[ 10718 10713 10712 10709 ] final   61.85 input   66.30 | X-H torsion
[ 10763 10752 10751 10750 ] final -163.64 input  -60.55 | X-H torsion
[ 11005 11000 10999 10996 ] final  108.39 input  -57.11 | X-H torsion

> <Gold.Protein.ActiveResidues>
 VAL166  LYS551  ARG553  GLY616  TRP617  ASP618  TYR619  PRO620  LYS621  CYS622 
 ASP623  PHE694  ASN695  SER759  ASP760  ASP761  ALA762  ILE779  LEU786  VAL792 
 PHE793  MET794  SER795  GLU796  ALA797  LYS798  CYS799  TRP800  GLU811  SER814 

> <Gold.Protein.RotatedAtoms>
  152.4858  133.8370  159.7132 H   0  0  0  0  0  0  0  0  0  0  0  0  # atno 6907 bound_to 6896
  150.8944  133.7191  159.2902 H   0  0  0  0  0  0  0  0  0  0  0  0  # atno 6908 bound_to 6896
  151.4653  135.1045  159.9788 H   0  0  0  0  0  0  0  0  0  0  0  0  # atno 6909 bound_to 6896
  145.0279  140.8043  143.4341 H   0  0  0  0  0  0  0  0  0  0  0  0  # atno 7974 bound_to 7965
  154.4397  140.1040  156.6267 H   0  0  0  0  0  0  0  0  0  0  0  0  # atno 8008 bound_to 7997
  155.5649  140.3488  155.4482 H   0  0  0  0  0  0  0  0  0  0  0  0  # atno 8009 bound_to 7997
  156.0433  140.1287  157.0121 H   0  0  0  0  0  0  0  0  0  0  0  0  # atno 8010 bound_to 7997
  140.0666  143.4917  152.2003 H   0  0  0  0  0  0  0  0  0  0  0  0  # atno 10167 bound_to 10162
  157.5858  130.9017  149.9513 H   0  0  0  0  0  0  0  0  0  0  0  0  # atno 10718 bound_to 10713
  154.7103  135.3005  154.9206 H   0  0  0  0  0  0  0  0  0  0  0  0  # atno 10763 bound_to 10752
  154.0110  135.6695  153.4769 H   0  0  0  0  0  0  0  0  0  0  0  0  # atno 10764 bound_to 10752
  153.0750  135.5040  154.8298 H   0  0  0  0  0  0  0  0  0  0  0  0  # atno 10765 bound_to 10752
  139.8843  134.9429  156.5965 H   0  0  0  0  0  0  0  0  0  0  0  0  # atno 11005 bound_to 11000
  145.1809  139.2352  143.5293 LP  0  0  0  0  0  0  0  0  0  0  0  0  # atno 17320 bound_to 7965
  146.3494  140.1582  142.8591 LP  0  0  0  0  0  0  0  0  0  0  0  0  # atno 17321 bound_to 7965
  139.5861  144.7531  151.3517 LP  0  0  0  0  0  0  0  0  0  0  0  0  # atno 17342 bound_to 10162
  140.7146  143.7301  150.7630 LP  0  0  0  0  0  0  0  0  0  0  0  0  # atno 17343 bound_to 10162
  156.0907  130.3663  150.0401 LP  0  0  0  0  0  0  0  0  0  0  0  0  # atno 17370 bound_to 10713
  156.8532  130.9466  151.3624 LP  0  0  0  0  0  0  0  0  0  0  0  0  # atno 17371 bound_to 10713
  140.7916  133.8577  155.8651 LP  0  0  0  0  0  0  0  0  0  0  0  0  # atno 17394 bound_to 11000
  140.9672  134.1579  157.4606 LP  0  0  0  0  0  0  0  0  0  0  0  0  # atno 17395 bound_to 11000

$$$$
