AV-unprocessed.smi:473|AV-procd|sdf|2664|dock1
  -GOLD-   2262023 73D 1   1.00000     0.00000
 Structure written by MMmdl.
 43 45  0  0  0  0  0  0  0  0  2 V2000
  152.4044  143.7072  160.8046 C   0  0  0  0  0  0  0  0  0  0  0  0
  152.1044  142.8033  159.6211 C   0  0  0  0  0  0  0  0  0  0  0  0
  151.2163  143.2683  158.6248 C   0  0  0  0  0  0  0  0  0  0  0  0
  150.9644  142.4200  157.5530 C   0  0  0  0  0  0  0  0  0  0  0  0
  150.1552  142.5832  156.4262 N   0  3  0  0  0  0  0  0  0  0  0  0
  150.2299  141.4684  155.6472 C   0  0  0  0  0  0  0  0  0  0  0  0
  151.0750  140.5961  156.2600 N   0  0  0  0  0  0  0  0  0  0  0  0
  151.4980  139.2490  155.8527 C   0  0  0  0  0  0  0  0  0  0  0  0
  150.5828  138.6281  154.7761 C   0  0  1  0  0  0  0  0  0  0  0  0
  150.7974  139.1977  153.4998 O   0  0  0  0  0  0  0  0  0  0  0  0
  150.7173  137.1005  154.6674 C   0  0  0  0  0  0  0  0  0  0  0  0
  150.2014  136.4951  155.8413 O   0  0  0  0  0  0  0  0  0  0  0  0
  151.1046  135.5844  156.4456 C   0  0  0  0  0  0  0  0  0  0  0  0
  150.6601  134.1998  156.0927 C   0  0  0  0  0  0  0  0  0  0  0  0
  150.2938  133.6140  154.9123 C   0  0  0  0  0  0  0  0  0  0  0  0
  149.9804  132.2595  155.2131 C   0  0  0  0  0  0  0  0  0  0  0  0
  150.1798  132.1162  156.5565 C   0  0  0  0  0  0  0  0  0  0  0  0
  150.5947  133.2886  157.1080 O   0  0  0  0  0  0  0  0  0  0  0  0
  151.5589  141.1474  157.4522 C   0  0  0  0  0  0  0  0  0  0  0  0
  152.4377  140.6746  158.4244 C   0  0  0  0  0  0  0  0  0  0  0  0
  152.7082  141.5232  159.5212 C   0  0  0  0  0  0  0  0  0  0  0  0
  153.6652  141.0340  160.5953 C   0  0  0  0  0  0  0  0  0  0  0  0
  151.8290  144.6322  160.7566 H   0  0  0  0  0  0  0  0  0  0  0  0
  153.4618  143.9718  160.8237 H   0  0  0  0  0  0  0  0  0  0  0  0
  152.1542  143.2092  161.7418 H   0  0  0  0  0  0  0  0  0  0  0  0
  150.7547  144.2425  158.6930 H   0  0  0  0  0  0  0  0  0  0  0  0
  149.7108  141.3052  154.7135 H   0  0  0  0  0  0  0  0  0  0  0  0
  152.5356  139.2944  155.5219 H   0  0  0  0  0  0  0  0  0  0  0  0
  151.4945  138.6231  156.7459 H   0  0  0  0  0  0  0  0  0  0  0  0
  149.5477  138.8565  155.0332 H   0  0  0  0  0  0  0  0  0  0  0  0
  149.9608  139.2991  153.0727 H   0  0  0  0  0  0  0  0  0  0  0  0
  150.1477  136.7469  153.8065 H   0  0  0  0  0  0  0  0  0  0  0  0
  151.7581  136.8138  154.5066 H   0  0  0  0  0  0  0  0  0  0  0  0
  152.1190  135.7570  156.0835 H   0  0  0  0  0  0  0  0  0  0  0  0
  151.1069  135.7114  157.5290 H   0  0  0  0  0  0  0  0  0  0  0  0
  150.2566  134.1015  153.9493 H   0  0  0  0  0  0  0  0  0  0  0  0
  149.6519  131.4874  154.5331 H   0  0  0  0  0  0  0  0  0  0  0  0
  150.0805  131.2913  157.2466 H   0  0  0  0  0  0  0  0  0  0  0  0
  152.9025  139.7025  158.3467 H   0  0  0  0  0  0  0  0  0  0  0  0
  154.0589  140.0448  160.3585 H   0  0  0  0  0  0  0  0  0  0  0  0
  153.1588  140.9685  161.5586 H   0  0  0  0  0  0  0  0  0  0  0  0
  154.5120  141.7135  160.6934 H   0  0  0  0  0  0  0  0  0  0  0  0
  149.5917  143.3939  156.2035 H   0  0  0  0  0  0  0  0  0  0  0  0
  1  2  1  0  0  0  0
  1 23  1  0  0  0  0
  1 24  1  0  0  0  0
  1 25  1  0  0  0  0
  2 21  1  0  0  0  0
  2  3  2  0  0  0  0
  3  4  1  0  0  0  0
  3 26  1  0  0  0  0
  4 19  2  0  0  0  0
  4  5  1  0  0  0  0
  5  6  2  0  0  0  0
  5 43  1  0  0  0  0
  6  7  1  0  0  0  0
  6 27  1  0  0  0  0
  7  8  1  0  0  0  0
  7 19  1  0  0  0  0
  8  9  1  0  0  0  0
  8 28  1  0  0  0  0
  8 29  1  0  0  0  0
  9 10  1  0  0  0  0
  9 11  1  0  0  0  0
  9 30  1  0  0  0  0
 10 31  1  0  0  0  0
 11 12  1  0  0  0  0
 11 32  1  0  0  0  0
 11 33  1  0  0  0  0
 12 13  1  0  0  0  0
 13 14  1  0  0  0  0
 13 34  1  0  0  0  0
 13 35  1  0  0  0  0
 14 18  1  0  0  0  0
 14 15  2  0  0  0  0
 15 16  1  0  0  0  0
 15 36  1  0  0  0  0
 16 17  2  0  0  0  0
 16 37  1  0  0  0  0
 17 18  1  0  0  0  0
 17 38  1  0  0  0  0
 19 20  1  0  0  0  0
 20 21  2  0  0  0  0
 20 39  1  0  0  0  0
 21 22  1  0  0  0  0
 22 40  1  0  0  0  0
 22 41  1  0  0  0  0
 22 42  1  0  0  0  0
M  CHG  1   5   1
M  END
> <s_m_source_file>
AV-unprocessed.smi

> <i_m_source_file_index>
473

> <i_lp_mmshare_version>
43012

> <i_f3d_flags>
0

> <s_epik_input>
W0NIM11jKFtjSF0xKWMoW0NIM10pW2NIXWMoYzEyKW4oW2NIXW4yKVtDSDJdW0NASF0oW09IXSlbQ0gyXU9bQ0gyXWMzW2NIXVtjSF1bY0hdbzM=

> <s_epik_cmdline>
J2VwaWtfcHl0aG9uJywgJy1waCcsICc3LjAnLCAnLXRuJywgJzgnLCAnLW1hJywgJzIwMCcsICctbWV0YWxfYmluZGluZycsICctaW1hZScsICc8aW5maWxlLm1hZT4nLCAnLW9tYWUnLCAnPG91dGZpbGUubWFlPic=

> <r_epik_Ionization_Penalty>
1.03981

> <r_epik_Ionization_Penalty_Charging>
1.03981

> <r_epik_Ionization_Penalty_Neutral>
9.34185e-07

> <r_epik_State_Penalty>
1.09172

> <r_epik_Charging_Adjusted_Penalty>
2.13153

> <i_epik_Tot_Q>
1

> <i_epik_Tot_abs_Q>
1

> <r_epik_Metal_State_Penalty>
5.0824

> <b_epik_Metal_Only>
0

> <s_lp_Force_Field>
OPLS_2005

> <r_lp_Energy>
14.3304

> <b_lp_Chiralities_Consistent>
1

> <s_lp_Variant>
AV-unprocessed.smi:473-4

> <Gold.Version>
5.8.1

> <Gold.Id.Protein>
6NUR|6NUR_protein|mol2

> <Gold.PLP.Fitness>
53.3227

> <Gold.PLP.PLP>
-42.6302

> <Gold.PLP.part.hbond>
-4.0000

> <Gold.PLP.part.metal>
0.0000

> <Gold.PLP.part.buried>
-0.8336

> <Gold.PLP.part.nonpolar>
-37.1661

> <Gold.PLP.part.repulsive>
0.1531

> <Gold.PLP.ligand.clash>
0.0000

> <Gold.PLP.ligand.torsion>
1.2243

> <Gold.PLP.Chemscore.Hbond>
4.2787

> <Gold.PLP.Chemscore.CHOScore>
0.0000

> <Gold.PLP.Chemscore.Metal>
0.0000

> <Gold.Chemscore.Hbonds>
donor molecule, donor type, donor heavy atom, donor atom, acceptor molecule, acceptor atom, score
      L1  H     5    43       P1  8028  2.00
      L1  H    10    31       P1  7957  0.47
      P1  H  6896  6907       L1    18  0.66
      P1  H  7989  7998       L1    10  0.85

> <Gold.PLP.Chemscore.Internal.Correction>
0.3049

> <Gold.Rescore>
     Score         DG    S(hbond)    S(metal)    S(lipo)     H(rot)  DE(clash)    DE(int)     intcor
     19.92     -22.38       2.84        0.00     117.88       2.49       1.35       1.12       ----

> <Gold.Chemscore.Fitness>
19.9184

> <Gold.Chemscore.DG>
-22.3793

> <Gold.Chemscore.ZeroCoef>
-5.4800

> <Gold.Chemscore.Hbond>
2.8400

> <Gold.Chemscore.Metal>
0.0000

> <Gold.Chemscore.Lipo>
117.8758

> <Gold.Chemscore.Internal_Hbond>
0.0000

> <Gold.Chemscore.DEClash>
1.3455

> <Gold.Chemscore.DEInternal>
1.1155

> <Gold.Chemscore.Rot>
2.4913

> <Gold.Chemscore.Internal.Correction>
   9.000000E+99

> <Gold.Chemscore.Hbonds>
donor molecule, donor type, donor heavy atom, donor atom, acceptor molecule, acceptor atom, score
      L1  H     5    43       P1  8028  0.98
      L1  H    10    31       P1  7957  0.46
      P1  H  6896  6907       L1    18  0.62
      P1  H  7989  7998       L1    10  0.47

> <Gold.Chemscore.Hbond.Weighted>
-9.4857

> <Gold.Chemscore.Metal.Weighted>
-0.0000

> <Gold.Chemscore.Lipo.Weighted>
-13.7915

> <Gold.Chemscore.Internal_Hbond.Weighted>
0.0000

> <Gold.Chemscore.DEClash.Weighted>
1.3455

> <Gold.Chemscore.DEInternal.Weighted>
1.1155

> <Gold.Chemscore.Rot.Weighted>
6.3778

> <Gold.Chemscore.Internal.Correction.Weighted>
   9.000000E+99

> <Gold.Protein.RotatedTorsions>
[ 6907 6896 6895 6894 ] final -137.55 input  -60.11 | X-H torsion
[ 7974 7965 7964 7962 ] final   29.89 input  175.53 | X-H torsion
[ 8008 7997 7996 7995 ] final  114.90 input   59.86 | X-H torsion
[ 10167 10162 10161 10158 ] final -171.16 input  -65.29 | X-H torsion
[ 10718 10713 10712 10709 ] final   53.64 input   66.30 | X-H torsion
[ 10763 10752 10751 10750 ] final -167.22 input  -60.55 | X-H torsion
[ 11005 11000 10999 10996 ] final  154.72 input  -57.11 | X-H torsion

> <Gold.Protein.ActiveResidues>
 VAL166  LYS551  ARG553  GLY616  TRP617  ASP618  TYR619  PRO620  LYS621  CYS622 
 ASP623  PHE694  ASN695  SER759  ASP760  ASP761  ALA762  ILE779  LEU786  VAL792 
 PHE793  MET794  SER795  GLU796  ALA797  LYS798  CYS799  TRP800  GLU811  SER814 

> <Gold.Protein.RotatedAtoms>
  151.0239  133.5852  159.2667 H   0  0  0  0  0  0  0  0  0  0  0  0  # atno 6907 bound_to 6896
  151.2958  135.0754  159.9230 H   0  0  0  0  0  0  0  0  0  0  0  0  # atno 6908 bound_to 6896
  152.5329  133.9929  159.7913 H   0  0  0  0  0  0  0  0  0  0  0  0  # atno 6909 bound_to 6896
  146.1644  139.6861  142.9011 H   0  0  0  0  0  0  0  0  0  0  0  0  # atno 7974 bound_to 7965
  156.2349  140.2949  156.0286 H   0  0  0  0  0  0  0  0  0  0  0  0  # atno 8008 bound_to 7997
  155.2120  140.0413  157.2952 H   0  0  0  0  0  0  0  0  0  0  0  0  # atno 8009 bound_to 7997
  154.6061  140.2439  155.7736 H   0  0  0  0  0  0  0  0  0  0  0  0  # atno 8010 bound_to 7997
  139.5819  144.1405  152.1525 H   0  0  0  0  0  0  0  0  0  0  0  0  # atno 10167 bound_to 10162
  157.5185  130.8549  149.8527 H   0  0  0  0  0  0  0  0  0  0  0  0  # atno 10718 bound_to 10713
  154.6754  135.2946  154.9686 H   0  0  0  0  0  0  0  0  0  0  0  0  # atno 10763 bound_to 10752
  154.0699  135.6619  153.4827 H   0  0  0  0  0  0  0  0  0  0  0  0  # atno 10764 bound_to 10752
  153.0513  135.5172  154.7770 H   0  0  0  0  0  0  0  0  0  0  0  0  # atno 10765 bound_to 10752
  140.1515  134.8671  157.2460 H   0  0  0  0  0  0  0  0  0  0  0  0  # atno 11005 bound_to 11000
  145.4505  141.0428  143.2807 LP  0  0  0  0  0  0  0  0  0  0  0  0  # atno 17320 bound_to 7965
  144.8072  139.6029  143.7045 LP  0  0  0  0  0  0  0  0  0  0  0  0  # atno 17321 bound_to 7965
  140.0960  144.5580  150.7021 LP  0  0  0  0  0  0  0  0  0  0  0  0  # atno 17342 bound_to 10162
  140.7096  143.2494  151.4623 LP  0  0  0  0  0  0  0  0  0  0  0  0  # atno 17343 bound_to 10162
  156.0337  130.3757  150.1619 LP  0  0  0  0  0  0  0  0  0  0  0  0  # atno 17370 bound_to 10713
  156.9807  130.9863  151.3438 LP  0  0  0  0  0  0  0  0  0  0  0  0  # atno 17371 bound_to 10713
  140.2599  134.3584  155.7410 LP  0  0  0  0  0  0  0  0  0  0  0  0  # atno 17394 bound_to 11000
  141.2199  133.7363  156.9064 LP  0  0  0  0  0  0  0  0  0  0  0  0  # atno 17395 bound_to 11000

$$$$
