AV-unprocessed.smi:241|AV-procd|sdf|1841|dock8
  -GOLD-   2262020453D 1   1.00000     0.00000
 Structure written by MMmdl.
 54 57  0  0  0  0  0  0  0  0  1 V2000
  148.3260  133.2759  158.9558 C   0  0  0  0  0  0  0  0  0  0  0  0
  149.5062  133.1834  158.1782 O   0  0  0  0  0  0  0  0  0  0  0  0
  149.8580  131.8436  157.8770 C   0  0  0  0  0  0  0  0  0  0  0  0
  150.9478  131.8019  156.7890 C   0  0  1  0  0  0  0  0  0  0  0  0
  152.3558  131.7000  157.3811 C   0  0  0  0  0  0  0  0  0  0  0  0
  153.1635  131.1132  156.2239 C   0  0  1  0  0  0  0  0  0  0  0  0
  154.3382  130.4322  156.6396 O   0  0  0  0  0  0  0  0  0  0  0  0
  155.2517  130.1824  155.5836 C   0  0  0  0  0  0  0  0  0  0  0  0
  152.1727  130.1408  155.5786 C   0  0  0  0  0  0  0  0  0  0  0  0
  150.8407  130.6309  155.9174 N   0  0  0  0  0  0  0  0  0  0  0  0
  149.9201  130.5664  154.9220 C   0  0  0  0  0  0  0  0  0  0  0  0
  149.7905  129.4355  154.1796 N   0  0  0  0  0  0  0  0  0  0  0  0
  148.8769  129.3653  153.2073 C   0  0  0  0  0  0  0  0  0  0  0  0
  147.9980  130.2915  152.8208 N   0  0  0  0  0  0  0  0  0  0  0  0
  148.1175  131.4274  153.5660 C   0  0  0  0  0  0  0  0  0  0  0  0
  149.0463  131.6489  154.6217 C   0  0  0  0  0  0  0  0  0  0  0  0
  148.8867  132.9325  155.1306 N   0  0  0  0  0  0  0  0  0  0  0  0
  147.9187  133.4397  154.4172 C   0  0  0  0  0  0  0  0  0  0  0  0
  147.3779  132.5932  153.4757 N   0  0  0  0  0  0  0  0  0  0  0  0
  146.3347  132.8988  152.5421 C   0  0  0  0  0  0  0  0  0  0  0  0
  146.6322  133.6286  151.2308 C   0  0  0  0  0  0  0  0  0  0  0  0
  145.2492  134.3147  151.3055 C   0  0  0  0  0  0  0  0  0  0  0  0
  145.2103  135.8094  150.9437 C   0  0  0  0  0  0  0  0  0  0  0  0
  145.2267  136.0082  149.5456 O   0  0  0  0  0  0  0  0  0  0  0  0
  144.0838  133.5896  150.6009 C   0  0  0  0  0  0  0  0  0  0  0  0
  144.1118  133.7688  149.1996 O   0  0  0  0  0  0  0  0  0  0  0  0
  145.3378  134.0260  152.8205 C   0  0  0  0  0  0  0  0  0  0  0  0
  150.9060  132.7131  156.1901 H   0  0  0  0  0  0  0  0  0  0  0  0
  153.4035  131.8983  155.5042 H   0  0  0  0  0  0  0  0  0  0  0  0
  148.1023  134.3232  159.1581 H   0  0  0  0  0  0  0  0  0  0  0  0
  148.4422  132.7654  159.9127 H   0  0  0  0  0  0  0  0  0  0  0  0
  147.4728  132.8454  158.4297 H   0  0  0  0  0  0  0  0  0  0  0  0
  150.2374  131.3759  158.7871 H   0  0  0  0  0  0  0  0  0  0  0  0
  148.9825  131.2728  157.5618 H   0  0  0  0  0  0  0  0  0  0  0  0
  152.7381  132.6606  157.7271 H   0  0  0  0  0  0  0  0  0  0  0  0
  152.3629  131.0078  158.2248 H   0  0  0  0  0  0  0  0  0  0  0  0
  156.1105  129.6322  155.9679 H   0  0  0  0  0  0  0  0  0  0  0  0
  155.6202  131.1097  155.1443 H   0  0  0  0  0  0  0  0  0  0  0  0
  154.7926  129.5805  154.7982 H   0  0  0  0  0  0  0  0  0  0  0  0
  152.3383  130.0671  154.5026 H   0  0  0  0  0  0  0  0  0  0  0  0
  152.2836  129.1425  156.0037 H   0  0  0  0  0  0  0  0  0  0  0  0
  148.8432  128.4325  152.6644 H   0  0  0  0  0  0  0  0  0  0  0  0
  147.5663  134.4500  154.5663 H   0  0  0  0  0  0  0  0  0  0  0  0
  145.8143  131.9586  152.3516 H   0  0  0  0  0  0  0  0  0  0  0  0
  147.4585  134.3361  151.3230 H   0  0  0  0  0  0  0  0  0  0  0  0
  146.7766  132.9717  150.3724 H   0  0  0  0  0  0  0  0  0  0  0  0
  144.3288  136.2965  151.3610 H   0  0  0  0  0  0  0  0  0  0  0  0
  146.0732  136.3328  151.3563 H   0  0  0  0  0  0  0  0  0  0  0  0
  144.6624  136.7394  149.3430 H   0  0  0  0  0  0  0  0  0  0  0  0
  144.1146  132.5172  150.7936 H   0  0  0  0  0  0  0  0  0  0  0  0
  143.1210  133.9357  150.9784 H   0  0  0  0  0  0  0  0  0  0  0  0
  144.9394  134.1596  148.9635 H   0  0  0  0  0  0  0  0  0  0  0  0
  144.4060  133.6981  153.2823 H   0  0  0  0  0  0  0  0  0  0  0  0
  145.7870  134.8410  153.3910 H   0  0  0  0  0  0  0  0  0  0  0  0
  1  2  1  0  0  0  0
  1 30  1  0  0  0  0
  1 31  1  0  0  0  0
  1 32  1  0  0  0  0
  2  3  1  0  0  0  0
  3  4  1  0  0  0  0
  3 33  1  0  0  0  0
  3 34  1  0  0  0  0
  4 28  1  0  0  0  0
  4 10  1  0  0  0  0
  4  5  1  0  0  0  0
  5  6  1  0  0  0  0
  5 35  1  0  0  0  0
  5 36  1  0  0  0  0
  6 29  1  0  0  0  0
  6  7  1  0  0  0  0
  6  9  1  0  0  0  0
  7  8  1  0  0  0  0
  8 37  1  0  0  0  0
  8 38  1  0  0  0  0
  8 39  1  0  0  0  0
  9 10  1  0  0  0  0
  9 40  1  0  0  0  0
  9 41  1  0  0  0  0
 10 11  1  0  0  0  0
 11 16  1  0  0  0  0
 11 12  2  0  0  0  0
 12 13  1  0  0  0  0
 13 14  2  0  0  0  0
 13 42  1  0  0  0  0
 14 15  1  0  0  0  0
 15 19  1  0  0  0  0
 15 16  2  0  0  0  0
 16 17  1  0  0  0  0
 17 18  2  0  0  0  0
 18 19  1  0  0  0  0
 18 43  1  0  0  0  0
 19 20  1  0  0  0  0
 20 27  1  0  0  0  0
 20 21  1  0  0  0  0
 20 44  1  0  0  0  0
 21 22  1  0  0  0  0
 21 45  1  0  0  0  0
 21 46  1  0  0  0  0
 22 23  1  0  0  0  0
 22 25  1  0  0  0  0
 22 27  1  0  0  0  0
 23 24  1  0  0  0  0
 23 47  1  0  0  0  0
 23 48  1  0  0  0  0
 24 49  1  0  0  0  0
 25 26  1  0  0  0  0
 25 50  1  0  0  0  0
 25 51  1  0  0  0  0
 26 52  1  0  0  0  0
 27 53  1  0  0  0  0
 27 54  1  0  0  0  0
M  END
> <s_m_source_file>
AV-unprocessed.smi

> <i_m_source_file_index>
241

> <i_lp_mmshare_version>
43012

> <i_f3d_flags>
0

> <s_epik_input>
W0NIM11PW0NIMl1bQ0BASF0xW0NIMl1bQ0BASF0oT1tDSDNdKVtDSDJdTjFjKG5bY0hdbjIpYyhjMjMpbltjSF1uM1tDSF0oW0NIMl00KVtDSDJdQzQoW0NIMl1bT0hdKVtDSDJdW09IXQ==

> <s_epik_cmdline>
J2VwaWtfcHl0aG9uJywgJy1waCcsICc3LjAnLCAnLXRuJywgJzgnLCAnLW1hJywgJzIwMCcsICctbWV0YWxfYmluZGluZycsICctaW1hZScsICc8aW5maWxlLm1hZT4nLCAnLW9tYWUnLCAnPG91dGZpbGUubWFlPic=

> <r_lp_tautomer_probability>
1

> <r_epik_Ionization_Penalty>
0.00568677

> <r_epik_Ionization_Penalty_Charging>
0

> <r_epik_Ionization_Penalty_Neutral>
0.00568677

> <r_epik_State_Penalty>
0.00400877

> <r_epik_Charging_Adjusted_Penalty>
0.00400877

> <i_epik_Tot_Q>
0

> <i_epik_Tot_abs_Q>
0

> <r_epik_Metal_State_Penalty>
-0

> <b_epik_Metal_Only>
0

> <s_lp_Force_Field>
OPLS_2005

> <r_lp_Energy>
53.235

> <b_lp_Chiralities_Consistent>
1

> <s_lp_Variant>
AV-unprocessed.smi:241-2

> <Gold.Version>
5.8.1

> <Gold.Id.Protein>
6NUR|6NUR_protein|mol2

> <Gold.PLP.Fitness>
43.8860

> <Gold.PLP.PLP>
-37.3062

> <Gold.PLP.part.hbond>
-4.1604

> <Gold.PLP.part.metal>
0.0000

> <Gold.PLP.part.buried>
-7.2093

> <Gold.PLP.part.nonpolar>
-28.4369

> <Gold.PLP.part.repulsive>
2.6067

> <Gold.PLP.ligand.clash>
0.0000

> <Gold.PLP.ligand.torsion>
1.6322

> <Gold.PLP.Chemscore.Hbond>
2.9920

> <Gold.PLP.Chemscore.CHOScore>
0.0000

> <Gold.PLP.Chemscore.Metal>
0.0000

> <Gold.Chemscore.Hbonds>
donor molecule, donor type, donor heavy atom, donor atom, acceptor molecule, acceptor atom, score
      L1  H    24    49       P1 10171  1.00
      L1  H    26    52       P1  7921  0.99
      P1  H  6896  6907       L1     2  1.00

> <Gold.PLP.Chemscore.Internal.Correction>
0.8682

> <Gold.Rescore>
     Score         DG    S(hbond)    S(metal)    S(lipo)     H(rot)  DE(clash)    DE(int)     intcor
      8.54     -11.54       2.65        0.00      63.09       3.97       0.15       2.86       ----

> <Gold.Chemscore.Fitness>
8.5359

> <Gold.Chemscore.DG>
-11.5450

> <Gold.Chemscore.ZeroCoef>
-5.4800

> <Gold.Chemscore.Hbond>
2.6509

> <Gold.Chemscore.Metal>
0.0000

> <Gold.Chemscore.Lipo>
63.0864

> <Gold.Chemscore.Internal_Hbond>
0.0000

> <Gold.Chemscore.DEClash>
0.1461

> <Gold.Chemscore.DEInternal>
2.8630

> <Gold.Chemscore.Rot>
3.9727

> <Gold.Chemscore.Internal.Correction>
   9.000000E+99

> <Gold.Chemscore.Hbonds>
donor molecule, donor type, donor heavy atom, donor atom, acceptor molecule, acceptor atom, score
      L1  H    24    49       P1 10171  0.90
      L1  H    26    52       P1  7921  0.94
      P1  H  6896  6907       L1     2  0.17

> <Gold.Chemscore.Hbond.Weighted>
-8.8541

> <Gold.Chemscore.Metal.Weighted>
-0.0000

> <Gold.Chemscore.Lipo.Weighted>
-7.3811

> <Gold.Chemscore.Internal_Hbond.Weighted>
0.0000

> <Gold.Chemscore.DEClash.Weighted>
0.1461

> <Gold.Chemscore.DEInternal.Weighted>
2.8630

> <Gold.Chemscore.Rot.Weighted>
10.1702

> <Gold.Chemscore.Internal.Correction.Weighted>
   9.000000E+99

> <Gold.Protein.RotatedTorsions>
[ 6907 6896 6895 6894 ] final -131.78 input  -60.11 | X-H torsion
[ 7974 7965 7964 7962 ] final  -47.69 input  175.53 | X-H torsion
[ 8008 7997 7996 7995 ] final   10.74 input   59.86 | X-H torsion
[ 10167 10162 10161 10158 ] final  -53.69 input  -65.29 | X-H torsion
[ 10718 10713 10712 10709 ] final  -36.95 input   66.30 | X-H torsion
[ 10763 10752 10751 10750 ] final  -31.12 input  -60.55 | X-H torsion
[ 11005 11000 10999 10996 ] final -163.42 input  -57.11 | X-H torsion

> <Gold.Protein.ActiveResidues>
 VAL166  LYS551  ARG553  GLY616  TRP617  ASP618  TYR619  PRO620  LYS621  CYS622 
 ASP623  PHE694  ASN695  SER759  ASP760  ASP761  ALA762  ILE779  LEU786  VAL792 
 PHE793  MET794  SER795  GLU796  ALA797  LYS798  CYS799  TRP800  GLU811  SER814 

> <Gold.Protein.RotatedAtoms>
  150.9548  133.6509  159.2764 H   0  0  0  0  0  0  0  0  0  0  0  0  # atno 6907 bound_to 6896
  151.3853  135.0945  159.9518 H   0  0  0  0  0  0  0  0  0  0  0  0  # atno 6908 bound_to 6896
  152.5124  133.9074  159.7526 H   0  0  0  0  0  0  0  0  0  0  0  0  # atno 6909 bound_to 6896
  145.9590  140.7498  142.9467 H   0  0  0  0  0  0  0  0  0  0  0  0  # atno 7974 bound_to 7965
  154.7975  140.2846  155.5946 H   0  0  0  0  0  0  0  0  0  0  0  0  # atno 8008 bound_to 7997
  156.2973  140.2593  156.2765 H   0  0  0  0  0  0  0  0  0  0  0  0  # atno 8009 bound_to 7997
  154.9597  140.0378  157.2173 H   0  0  0  0  0  0  0  0  0  0  0  0  # atno 8010 bound_to 7997
  140.6471  143.2542  151.4828 H   0  0  0  0  0  0  0  0  0  0  0  0  # atno 10167 bound_to 10162
  156.3208  130.4265  149.7962 H   0  0  0  0  0  0  0  0  0  0  0  0  # atno 10718 bound_to 10713
  153.7921  135.6897  153.4870 H   0  0  0  0  0  0  0  0  0  0  0  0  # atno 10763 bound_to 10752
  153.1742  135.4531  154.9942 H   0  0  0  0  0  0  0  0  0  0  0  0  # atno 10764 bound_to 10752
  154.8040  135.3349  154.7416 H   0  0  0  0  0  0  0  0  0  0  0  0  # atno 10765 bound_to 10752
  140.5982  134.4974  157.5202 H   0  0  0  0  0  0  0  0  0  0  0  0  # atno 11005 bound_to 11000
  144.6811  140.2559  143.7325 LP  0  0  0  0  0  0  0  0  0  0  0  0  # atno 17320 bound_to 7965
  145.8066  139.1986  143.2017 LP  0  0  0  0  0  0  0  0  0  0  0  0  # atno 17321 bound_to 7965
  139.5683  144.1990  152.1798 LP  0  0  0  0  0  0  0  0  0  0  0  0  # atno 17342 bound_to 10162
  140.1278  144.5315  150.6821 LP  0  0  0  0  0  0  0  0  0  0  0  0  # atno 17343 bound_to 10162
  156.5270  130.8241  151.3224 LP  0  0  0  0  0  0  0  0  0  0  0  0  # atno 17370 bound_to 10713
  157.7411  130.9864  150.2424 LP  0  0  0  0  0  0  0  0  0  0  0  0  # atno 17371 bound_to 10713
  139.9244  134.8085  156.1114 LP  0  0  0  0  0  0  0  0  0  0  0  0  # atno 17394 bound_to 11000
  141.0890  133.6722  156.2498 LP  0  0  0  0  0  0  0  0  0  0  0  0  # atno 17395 bound_to 11000

$$$$
