AV-unprocessed.smi:2297|AV-procd|sdf|9223|dock9
  -GOLD-   2272012443D 1   1.00000     0.00000
 Structure written by MMmdl.
 44 45  0  0  0  0  0  0  0  0  1 V2000
  153.1710  140.8196  160.4279 C   0  0  0  0  0  0  0  0  0  0  0  0
  152.5261  141.7710  159.4407 C   0  0  0  0  0  0  0  0  0  0  0  0
  152.4949  143.1552  159.7028 C   0  0  0  0  0  0  0  0  0  0  0  0
  151.8962  144.0352  158.7805 C   0  0  0  0  0  0  0  0  0  0  0  0
  151.8638  145.5219  159.0705 C   0  0  0  0  0  0  0  0  0  0  0  0
  151.3296  143.5256  157.5941 C   0  0  0  0  0  0  0  0  0  0  0  0
  151.3512  142.1433  157.3174 C   0  0  0  0  0  0  0  0  0  0  0  0
  150.7744  141.7350  156.1342 O   0  0  0  0  0  0  0  0  0  0  0  0
  150.6805  140.3401  155.8753 C   0  0  0  0  0  0  0  0  0  0  0  0
  149.6055  140.1057  154.8028 C   0  0  1  0  0  0  0  0  0  0  0  0
  149.7987  141.0840  153.8013 O   0  0  0  0  0  0  0  0  0  0  0  0
  149.7108  138.7015  154.1645 C   0  0  0  0  0  0  0  0  0  0  0  0
  149.3869  137.6325  155.1237 N   0  0  0  0  0  0  0  0  0  0  0  0
  148.0831  137.6404  155.6478 C   0  0  0  0  0  0  0  0  0  0  0  0
  147.6862  136.7490  156.4958 N   0  0  0  0  0  0  0  0  0  0  0  0
  148.5628  135.7417  156.9091 C   0  0  0  0  0  0  0  0  0  0  0  0
  147.9954  134.7475  157.9067 C   0  0  0  0  0  0  0  0  0  0  0  0
  149.8365  135.6740  156.4343 C   0  0  0  0  0  0  0  0  0  0  0  0
  150.8351  134.6005  156.8493 C   0  0  0  0  0  0  0  0  0  0  0  0
  150.3022  136.6812  155.4672 C   0  0  0  0  0  0  0  0  0  0  0  0
  151.4402  136.6757  154.9941 O   0  0  0  0  0  0  0  0  0  0  0  0
  151.9564  141.2675  158.2536 C   0  0  0  0  0  0  0  0  0  0  0  0
  153.5074  141.3421  161.3239 H   0  0  0  0  0  0  0  0  0  0  0  0
  154.0336  140.3314  159.9734 H   0  0  0  0  0  0  0  0  0  0  0  0
  152.4608  140.0496  160.7305 H   0  0  0  0  0  0  0  0  0  0  0  0
  152.9299  143.5449  160.6120 H   0  0  0  0  0  0  0  0  0  0  0  0
  151.4318  146.0815  158.2403 H   0  0  0  0  0  0  0  0  0  0  0  0
  152.8732  145.8961  159.2437 H   0  0  0  0  0  0  0  0  0  0  0  0
  151.2665  145.7186  159.9612 H   0  0  0  0  0  0  0  0  0  0  0  0
  150.8704  144.1990  156.8851 H   0  0  0  0  0  0  0  0  0  0  0  0
  151.6437  139.9746  155.5148 H   0  0  0  0  0  0  0  0  0  0  0  0
  150.4292  139.7941  156.7864 H   0  0  0  0  0  0  0  0  0  0  0  0
  148.6229  140.2585  155.2510 H   0  0  0  0  0  0  0  0  0  0  0  0
  149.4745  140.7442  152.9813 H   0  0  0  0  0  0  0  0  0  0  0  0
  149.0980  138.6405  153.2632 H   0  0  0  0  0  0  0  0  0  0  0  0
  150.7275  138.5422  153.7993 H   0  0  0  0  0  0  0  0  0  0  0  0
  147.4373  138.4422  155.2856 H   0  0  0  0  0  0  0  0  0  0  0  0
  148.5673  134.7684  158.8348 H   0  0  0  0  0  0  0  0  0  0  0  0
  148.0278  133.7370  157.4986 H   0  0  0  0  0  0  0  0  0  0  0  0
  146.9567  134.9763  158.1485 H   0  0  0  0  0  0  0  0  0  0  0  0
  151.1703  134.0408  155.9755 H   0  0  0  0  0  0  0  0  0  0  0  0
  150.4257  133.8845  157.5598 H   0  0  0  0  0  0  0  0  0  0  0  0
  151.7087  135.0593  157.3131 H   0  0  0  0  0  0  0  0  0  0  0  0
  151.9981  140.2027  158.0808 H   0  0  0  0  0  0  0  0  0  0  0  0
  1  2  1  0  0  0  0
  1 23  1  0  0  0  0
  1 24  1  0  0  0  0
  1 25  1  0  0  0  0
  2 22  1  0  0  0  0
  2  3  2  0  0  0  0
  3  4  1  0  0  0  0
  3 26  1  0  0  0  0
  4  5  1  0  0  0  0
  4  6  2  0  0  0  0
  5 27  1  0  0  0  0
  5 28  1  0  0  0  0
  5 29  1  0  0  0  0
  6  7  1  0  0  0  0
  6 30  1  0  0  0  0
  7  8  1  0  0  0  0
  7 22  2  0  0  0  0
  8  9  1  0  0  0  0
  9 10  1  0  0  0  0
  9 31  1  0  0  0  0
  9 32  1  0  0  0  0
 10 11  1  0  0  0  0
 10 12  1  0  0  0  0
 10 33  1  0  0  0  0
 11 34  1  0  0  0  0
 12 13  1  0  0  0  0
 12 35  1  0  0  0  0
 12 36  1  0  0  0  0
 13 20  1  0  0  0  0
 13 14  1  0  0  0  0
 14 15  2  0  0  0  0
 14 37  1  0  0  0  0
 15 16  1  0  0  0  0
 16 17  1  0  0  0  0
 16 18  2  0  0  0  0
 17 38  1  0  0  0  0
 17 39  1  0  0  0  0
 17 40  1  0  0  0  0
 18 19  1  0  0  0  0
 18 20  1  0  0  0  0
 19 41  1  0  0  0  0
 19 42  1  0  0  0  0
 19 43  1  0  0  0  0
 20 21  2  0  0  0  0
 22 44  1  0  0  0  0
M  END
> <s_m_source_file>
AV-unprocessed.smi

> <i_m_source_file_index>
2297

> <i_lp_mmshare_version>
43012

> <i_f3d_flags>
0

> <s_epik_input>
W0NIM11jMVtjSF1jKFtDSDNdKVtjSF1jKFtjSF0xKU9bQ0gyXVtDQEhdKFtPSF0pW0NIMl1uMltjSF1uYyhbQ0gzXSljKFtDSDNdKWMyPU8=

> <s_epik_cmdline>
J2VwaWtfcHl0aG9uJywgJy1waCcsICc3LjAnLCAnLXRuJywgJzgnLCAnLW1hJywgJzIwMCcsICctbWV0YWxfYmluZGluZycsICctaW1hZScsICc8aW5maWxlLm1hZT4nLCAnLW9tYWUnLCAnPG91dGZpbGUubWFlPic=

> <r_lp_tautomer_probability>
1

> <r_epik_Ionization_Penalty>
3.72236e-05

> <r_epik_Ionization_Penalty_Charging>
8.38864e-08

> <r_epik_Ionization_Penalty_Neutral>
3.71397e-05

> <r_epik_State_Penalty>
-0

> <r_epik_Charging_Adjusted_Penalty>
8.38864e-08

> <i_epik_Tot_Q>
0

> <i_epik_Tot_abs_Q>
0

> <r_epik_Metal_State_Penalty>
-0

> <b_epik_Metal_Only>
0

> <s_lp_Force_Field>
OPLS_2005

> <r_lp_Energy>
22.4286

> <b_lp_Chiralities_Consistent>
1

> <s_lp_Variant>
AV-unprocessed.smi:2297-2

> <Gold.Version>
5.8.1

> <Gold.Id.Protein>
6NUR|6NUR_protein|mol2

> <Gold.PLP.Fitness>
49.1125

> <Gold.PLP.PLP>
-42.7426

> <Gold.PLP.part.hbond>
-4.0000

> <Gold.PLP.part.metal>
0.0000

> <Gold.PLP.part.buried>
-4.6422

> <Gold.PLP.part.nonpolar>
-34.4851

> <Gold.PLP.part.repulsive>
0.2308

> <Gold.PLP.ligand.clash>
0.0000

> <Gold.PLP.ligand.torsion>
0.2735

> <Gold.PLP.Chemscore.Hbond>
2.2842

> <Gold.PLP.Chemscore.CHOScore>
0.0000

> <Gold.PLP.Chemscore.Metal>
0.0000

> <Gold.Chemscore.Hbonds>
donor molecule, donor type, donor heavy atom, donor atom, acceptor molecule, acceptor atom, score
      L1  H    11    34       P1  7957  1.00
      P1  H  7989  7998       L1    11  0.30
      P1  H 10752 10765       L1    21  1.00

> <Gold.PLP.Chemscore.Internal.Correction>
0.0641

> <Gold.Rescore>
     Score         DG    S(hbond)    S(metal)    S(lipo)     H(rot)  DE(clash)    DE(int)     intcor
     19.18     -19.74       1.96        0.00     116.79       2.32       0.10       0.46       ----

> <Gold.Chemscore.Fitness>
19.1803

> <Gold.Chemscore.DG>
-19.7407

> <Gold.Chemscore.ZeroCoef>
-5.4800

> <Gold.Chemscore.Hbond>
1.9594

> <Gold.Chemscore.Metal>
0.0000

> <Gold.Chemscore.Lipo>
116.7919

> <Gold.Chemscore.Internal_Hbond>
0.0000

> <Gold.Chemscore.DEClash>
0.0969

> <Gold.Chemscore.DEInternal>
0.4634

> <Gold.Chemscore.Rot>
2.3236

> <Gold.Chemscore.Internal.Correction>
   9.000000E+99

> <Gold.Chemscore.Hbonds>
donor molecule, donor type, donor heavy atom, donor atom, acceptor molecule, acceptor atom, score
      L1  H    11    34       P1  7957  0.97
      P1  H  7989  7998       L1    11  0.02
      P1  H 10752 10765       L1    21  0.95

> <Gold.Chemscore.Hbond.Weighted>
-6.5444

> <Gold.Chemscore.Metal.Weighted>
-0.0000

> <Gold.Chemscore.Lipo.Weighted>
-13.6647

> <Gold.Chemscore.Internal_Hbond.Weighted>
0.0000

> <Gold.Chemscore.DEClash.Weighted>
0.0969

> <Gold.Chemscore.DEInternal.Weighted>
0.4634

> <Gold.Chemscore.Rot.Weighted>
5.9484

> <Gold.Chemscore.Internal.Correction.Weighted>
   9.000000E+99

> <Gold.Protein.RotatedTorsions>
[ 6907 6896 6895 6894 ] final  -72.45 input  -60.11 | X-H torsion
[ 7974 7965 7964 7962 ] final -172.05 input  175.53 | X-H torsion
[ 8008 7997 7996 7995 ] final -125.82 input   59.86 | X-H torsion
[ 10167 10162 10161 10158 ] final -166.58 input  -65.29 | X-H torsion
[ 10718 10713 10712 10709 ] final  -63.05 input   66.30 | X-H torsion
[ 10763 10752 10751 10750 ] final  159.60 input  -60.55 | X-H torsion
[ 11005 11000 10999 10996 ] final  128.74 input  -57.11 | X-H torsion

> <Gold.Protein.ActiveResidues>
 VAL166  LYS551  ARG553  GLY616  TRP617  ASP618  TYR619  PRO620  LYS621  CYS622 
 ASP623  PHE694  ASN695  SER759  ASP760  ASP761  ALA762  ILE779  LEU786  VAL792 
 PHE793  MET794  SER795  GLU796  ALA797  LYS798  CYS799  TRP800  GLU811  SER814 

> <Gold.Protein.RotatedAtoms>
  150.7170  134.5162  159.5630 H   0  0  0  0  0  0  0  0  0  0  0  0  # atno 6907 bound_to 6896
  152.2727  134.7912  160.0420 H   0  0  0  0  0  0  0  0  0  0  0  0  # atno 6908 bound_to 6896
  151.8586  133.3417  159.3733 H   0  0  0  0  0  0  0  0  0  0  0  0  # atno 6909 bound_to 6896
  144.7150  140.1831  143.6356 H   0  0  0  0  0  0  0  0  0  0  0  0  # atno 7974 bound_to 7965
  155.2196  140.0421  157.2946 H   0  0  0  0  0  0  0  0  0  0  0  0  # atno 8008 bound_to 7997
  154.5958  140.2439  155.7829 H   0  0  0  0  0  0  0  0  0  0  0  0  # atno 8009 bound_to 7997
  156.2289  140.2945  156.0147 H   0  0  0  0  0  0  0  0  0  0  0  0  # atno 8010 bound_to 7997
  139.6105  144.0824  152.1837 H   0  0  0  0  0  0  0  0  0  0  0  0  # atno 10167 bound_to 10162
  156.0816  130.4216  150.1222 H   0  0  0  0  0  0  0  0  0  0  0  0  # atno 10718 bound_to 10713
  154.2343  135.2777  155.2878 H   0  0  0  0  0  0  0  0  0  0  0  0  # atno 10763 bound_to 10752
  154.5598  135.5650  153.7000 H   0  0  0  0  0  0  0  0  0  0  0  0  # atno 10764 bound_to 10752
  153.0013  135.6295  154.2486 H   0  0  0  0  0  0  0  0  0  0  0  0  # atno 10765 bound_to 10752
  139.9577  134.9609  156.9045 H   0  0  0  0  0  0  0  0  0  0  0  0  # atno 11005 bound_to 11000
  145.8838  139.2337  143.1590 LP  0  0  0  0  0  0  0  0  0  0  0  0  # atno 17320 bound_to 7965
  145.9969  140.8554  143.0038 LP  0  0  0  0  0  0  0  0  0  0  0  0  # atno 17321 bound_to 7965
  140.0442  144.5984  150.7387 LP  0  0  0  0  0  0  0  0  0  0  0  0  # atno 17342 bound_to 10162
  140.7316  143.2696  151.3932 LP  0  0  0  0  0  0  0  0  0  0  0  0  # atno 17343 bound_to 10162
  156.9252  130.9696  151.3542 LP  0  0  0  0  0  0  0  0  0  0  0  0  # atno 17370 bound_to 10713
  157.5935  130.8460  149.8694 LP  0  0  0  0  0  0  0  0  0  0  0  0  # atno 17371 bound_to 10713
  140.5572  134.0570  155.7387 LP  0  0  0  0  0  0  0  0  0  0  0  0  # atno 17394 bound_to 11000
  141.1250  133.9398  157.2653 LP  0  0  0  0  0  0  0  0  0  0  0  0  # atno 17395 bound_to 11000

$$$$
