AV-unprocessed.smi:2420|AV-procd|sdf|9554|dock2
  -GOLD-   2272013183D 1   1.00000     0.00000
 Structure written by MMmdl.
 33 34  0  0  0  0  0  0  0  0  1 V2000
  147.3548  138.9154  153.3779 C   0  0  0  0  0  0  0  0  0  0  0  0
  147.1462  140.3881  152.9961 C   0  0  0  0  0  0  0  0  0  0  0  0
  147.5053  141.3712  154.1062 C   0  0  0  0  0  0  0  0  0  0  0  0
  149.0027  141.3192  154.4235 C   0  0  0  0  0  0  0  0  0  0  0  0
  149.4926  142.2172  155.4667 N   0  0  0  0  0  0  0  0  0  0  0  0
  150.2781  141.8593  156.4929 C   0  0  0  0  0  0  0  0  0  0  0  0
  150.6938  140.7139  156.6691 O   0  0  0  0  0  0  0  0  0  0  0  0
  150.5720  142.9110  157.2749 N   0  0  0  0  0  0  0  0  0  0  0  0
  151.4029  142.9080  158.4246 C   0  0  0  0  0  0  0  0  0  0  0  0
  152.0439  141.7041  158.7831 C   0  0  0  0  0  0  0  0  0  0  0  0
  152.8877  141.6973  159.9117 C   0  0  0  0  0  0  0  0  0  0  0  0
  153.1304  142.7918  160.6638 N   0  0  0  0  0  0  0  0  0  0  0  0
  152.5357  143.9491  160.3024 C   0  0  0  0  0  0  0  0  0  0  0  0
  151.6742  144.0669  159.1927 C   0  0  0  0  0  0  0  0  0  0  0  0
  151.1546  145.2758  158.8697 F   0  0  0  0  0  0  0  0  0  0  0  0
  146.7520  142.6884  154.1684 C   0  0  0  0  0  0  0  0  0  0  0  0
  146.5020  141.6294  155.2131 C   0  0  0  0  0  0  0  0  0  0  0  0
  147.0087  138.2596  152.5788 H   0  0  0  0  0  0  0  0  0  0  0  0
  146.7984  138.6588  154.2796 H   0  0  0  0  0  0  0  0  0  0  0  0
  148.4053  138.6860  153.5529 H   0  0  0  0  0  0  0  0  0  0  0  0
  147.7213  140.6287  152.1011 H   0  0  0  0  0  0  0  0  0  0  0  0
  146.0988  140.5288  152.7270 H   0  0  0  0  0  0  0  0  0  0  0  0
  149.2520  140.3110  154.7522 H   0  0  0  0  0  0  0  0  0  0  0  0
  149.5649  141.4781  153.5017 H   0  0  0  0  0  0  0  0  0  0  0  0
  149.2090  143.1837  155.4001 H   0  0  0  0  0  0  0  0  0  0  0  0
  150.2730  143.8173  156.9469 H   0  0  0  0  0  0  0  0  0  0  0  0
  151.8862  140.7991  158.2147 H   0  0  0  0  0  0  0  0  0  0  0  0
  153.3837  140.7877  160.2168 H   0  0  0  0  0  0  0  0  0  0  0  0
  152.7644  144.8128  160.9092 H   0  0  0  0  0  0  0  0  0  0  0  0
  147.2821  143.5835  154.4842 H   0  0  0  0  0  0  0  0  0  0  0  0
  145.9649  142.8602  153.4371 H   0  0  0  0  0  0  0  0  0  0  0  0
  145.5525  141.0996  155.1691 H   0  0  0  0  0  0  0  0  0  0  0  0
  146.8793  141.8159  156.2164 H   0  0  0  0  0  0  0  0  0  0  0  0
  1  2  1  0  0  0  0
  1 18  1  0  0  0  0
  1 19  1  0  0  0  0
  1 20  1  0  0  0  0
  2  3  1  0  0  0  0
  2 21  1  0  0  0  0
  2 22  1  0  0  0  0
  3 17  1  0  0  0  0
  3  4  1  0  0  0  0
  3 16  1  0  0  0  0
  4  5  1  0  0  0  0
  4 23  1  0  0  0  0
  4 24  1  0  0  0  0
  5  6  1  0  0  0  0
  5 25  1  0  0  0  0
  6  7  2  0  0  0  0
  6  8  1  0  0  0  0
  8  9  1  0  0  0  0
  8 26  1  0  0  0  0
  9 14  1  0  0  0  0
  9 10  2  0  0  0  0
 10 11  1  0  0  0  0
 10 27  1  0  0  0  0
 11 12  2  0  0  0  0
 11 28  1  0  0  0  0
 12 13  1  0  0  0  0
 13 14  2  0  0  0  0
 13 29  1  0  0  0  0
 14 15  1  0  0  0  0
 16 17  1  0  0  0  0
 16 30  1  0  0  0  0
 16 31  1  0  0  0  0
 17 32  1  0  0  0  0
 17 33  1  0  0  0  0
M  END
> <s_m_source_file>
AV-unprocessed.smi

> <i_m_source_file_index>
2420

> <i_lp_mmshare_version>
43012

> <i_f3d_flags>
0

> <s_epik_input>
W0NIM11bQ0gyXUMxKFtDSDJdW0NIMl0xKVtDSDJdW05IXUMoPU8pW05IXWMyW2NIXVtjSF1uW2NIXWMyRg==

> <s_epik_cmdline>
J2VwaWtfcHl0aG9uJywgJy1waCcsICc3LjAnLCAnLXRuJywgJzgnLCAnLW1hJywgJzIwMCcsICctbWV0YWxfYmluZGluZycsICctaW1hZScsICc8aW5maWxlLm1hZT4nLCAnLW9tYWUnLCAnPG91dGZpbGUubWFlPic=

> <r_epik_Ionization_Penalty>
0.00332283

> <r_epik_Ionization_Penalty_Charging>
0

> <r_epik_Ionization_Penalty_Neutral>
0.00332283

> <r_epik_State_Penalty>
0.00231995

> <r_epik_Charging_Adjusted_Penalty>
0.00231995

> <i_epik_Tot_Q>
0

> <i_epik_Tot_abs_Q>
0

> <r_epik_Metal_State_Penalty>
-0

> <b_epik_Metal_Only>
0

> <s_lp_Force_Field>
OPLS_2005

> <r_lp_Energy>
25.9136

> <b_lp_Chiralities_Consistent>
1

> <s_lp_Variant>
AV-unprocessed.smi:2420-1

> <Gold.Version>
5.8.1

> <Gold.Id.Protein>
6NUR|6NUR_protein|mol2

> <Gold.PLP.Fitness>
44.1194

> <Gold.PLP.PLP>
-40.4566

> <Gold.PLP.part.hbond>
-1.9842

> <Gold.PLP.part.metal>
0.0000

> <Gold.PLP.part.buried>
-3.5738

> <Gold.PLP.part.nonpolar>
-34.3405

> <Gold.PLP.part.repulsive>
0.2292

> <Gold.PLP.ligand.clash>
1.9184

> <Gold.PLP.ligand.torsion>
0.6295

> <Gold.PLP.Chemscore.Hbond>
1.8480

> <Gold.PLP.Chemscore.CHOScore>
0.0000

> <Gold.PLP.Chemscore.Metal>
0.0000

> <Gold.Chemscore.Hbonds>
donor molecule, donor type, donor heavy atom, donor atom, acceptor molecule, acceptor atom, score
      L1  H     5    25       P1  8028  1.00
      L1  H     8    26       P1  8028  0.74

> <Gold.PLP.Chemscore.Internal.Correction>
1.2962

> <Gold.Rescore>
     Score         DG    S(hbond)    S(metal)    S(lipo)     H(rot)  DE(clash)    DE(int)     intcor
     16.93     -19.14       1.94        0.00      92.38       1.41       0.05       2.17       ----

> <Gold.Chemscore.Fitness>
16.9256

> <Gold.Chemscore.DG>
-19.1432

> <Gold.Chemscore.ZeroCoef>
-5.4800

> <Gold.Chemscore.Hbond>
1.9350

> <Gold.Chemscore.Metal>
0.0000

> <Gold.Chemscore.Lipo>
92.3830

> <Gold.Chemscore.Internal_Hbond>
0.0000

> <Gold.Chemscore.DEClash>
0.0463

> <Gold.Chemscore.DEInternal>
2.1713

> <Gold.Chemscore.Rot>
1.4096

> <Gold.Chemscore.Internal.Correction>
   9.000000E+99

> <Gold.Chemscore.Hbonds>
donor molecule, donor type, donor heavy atom, donor atom, acceptor molecule, acceptor atom, score
      L1  H     5    25       P1  8028  0.98
      L1  H     8    26       P1  8028  0.72

> <Gold.Chemscore.Hbond.Weighted>
-6.4629

> <Gold.Chemscore.Metal.Weighted>
-0.0000

> <Gold.Chemscore.Lipo.Weighted>
-10.8088

> <Gold.Chemscore.Internal_Hbond.Weighted>
0.0000

> <Gold.Chemscore.DEClash.Weighted>
0.0463

> <Gold.Chemscore.DEInternal.Weighted>
2.1713

> <Gold.Chemscore.Rot.Weighted>
3.6085

> <Gold.Chemscore.Internal.Correction.Weighted>
   9.000000E+99

> <Gold.Protein.RotatedTorsions>
[ 6907 6896 6895 6894 ] final    8.11 input  -60.11 | X-H torsion
[ 7974 7965 7964 7962 ] final  154.05 input  175.53 | X-H torsion
[ 8008 7997 7996 7995 ] final   77.52 input   59.86 | X-H torsion
[ 10167 10162 10161 10158 ] final  160.09 input  -65.29 | X-H torsion
[ 10718 10713 10712 10709 ] final  -81.76 input   66.30 | X-H torsion
[ 10763 10752 10751 10750 ] final   31.68 input  -60.55 | X-H torsion
[ 11005 11000 10999 10996 ] final   52.18 input  -57.11 | X-H torsion

> <Gold.Protein.ActiveResidues>
 VAL166  LYS551  ARG553  GLY616  TRP617  ASP618  TYR619  PRO620  LYS621  CYS622 
 ASP623  PHE694  ASN695  SER759  ASP760  ASP761  ALA762  ILE779  LEU786  VAL792 
 PHE793  MET794  SER795  GLU796  ALA797  LYS798  CYS799  TRP800  GLU811  SER814 

> <Gold.Protein.RotatedAtoms>
  151.7008  135.0930  160.0250 H   0  0  0  0  0  0  0  0  0  0  0  0  # atno 6907 bound_to 6896
  152.3722  133.6429  159.6104 H   0  0  0  0  0  0  0  0  0  0  0  0  # atno 6908 bound_to 6896
  150.7682  133.9168  159.3427 H   0  0  0  0  0  0  0  0  0  0  0  0  # atno 6909 bound_to 6896
  144.8114  139.6882  143.6140 H   0  0  0  0  0  0  0  0  0  0  0  0  # atno 7974 bound_to 7965
  155.8427  140.3461  155.5642 H   0  0  0  0  0  0  0  0  0  0  0  0  # atno 8008 bound_to 7997
  155.8123  140.0900  157.1916 H   0  0  0  0  0  0  0  0  0  0  0  0  # atno 8009 bound_to 7997
  154.4005  140.1445  156.3389 H   0  0  0  0  0  0  0  0  0  0  0  0  # atno 8010 bound_to 7997
  139.4837  144.4668  151.8631 H   0  0  0  0  0  0  0  0  0  0  0  0  # atno 10167 bound_to 10162
  156.0044  130.4613  150.4002 H   0  0  0  0  0  0  0  0  0  0  0  0  # atno 10718 bound_to 10713
  153.0302  135.6433  154.1237 H   0  0  0  0  0  0  0  0  0  0  0  0  # atno 10763 bound_to 10752
  154.0960  135.2863  155.3263 H   0  0  0  0  0  0  0  0  0  0  0  0  # atno 10764 bound_to 10752
  154.6432  135.5452  153.7876 H   0  0  0  0  0  0  0  0  0  0  0  0  # atno 10765 bound_to 10752
  140.0870  134.5260  155.8889 H   0  0  0  0  0  0  0  0  0  0  0  0  # atno 11005 bound_to 11000
  146.2413  139.6006  142.9490 LP  0  0  0  0  0  0  0  0  0  0  0  0  # atno 17320 bound_to 7965
  145.5315  141.0426  143.2380 LP  0  0  0  0  0  0  0  0  0  0  0  0  # atno 17321 bound_to 7965
  140.4134  144.2339  150.5888 LP  0  0  0  0  0  0  0  0  0  0  0  0  # atno 17342 bound_to 10162
  140.4945  143.2337  151.8770 LP  0  0  0  0  0  0  0  0  0  0  0  0  # atno 17343 bound_to 10162
  157.2071  131.0452  151.2619 LP  0  0  0  0  0  0  0  0  0  0  0  0  # atno 17370 bound_to 10713
  157.3922  130.7288  149.6706 LP  0  0  0  0  0  0  0  0  0  0  0  0  # atno 17371 bound_to 10713
  141.2066  133.6656  156.6251 LP  0  0  0  0  0  0  0  0  0  0  0  0  # atno 17394 bound_to 11000
  140.3406  134.7852  157.4394 LP  0  0  0  0  0  0  0  0  0  0  0  0  # atno 17395 bound_to 11000

$$$$
