AV-unprocessed.smi:1015|AV-procd|sdf|4436|dock9
  -GOLD-   22720 2393D 1   1.00000     0.00000
 Structure written by MMmdl.
 42 43  0  0  0  0  0  0  0  0  1 V2000
  152.3842  142.6783  158.6788 C   0  0  0  0  0  0  0  0  0  0  0  0
  152.1155  141.2877  158.6488 O   0  0  0  0  0  0  0  0  0  0  0  0
  151.1062  140.9475  157.7118 C   0  0  0  0  0  0  0  0  0  0  0  0
  151.6925  140.8948  156.2908 C   0  0  0  0  0  0  0  0  0  0  0  0
  150.7417  140.5741  155.2242 N   0  0  0  0  0  0  0  0  0  0  0  0
  149.6276  141.5225  155.2290 C   0  0  0  0  0  0  0  0  0  0  0  0
  148.6407  141.2846  154.0741 C   0  0  0  0  0  0  0  0  0  0  0  0
  148.0817  139.8514  154.1184 C   0  0  0  0  0  0  0  0  0  0  0  0
  147.1275  139.5822  152.9354 C   0  0  0  0  0  0  0  0  0  0  0  0
  146.5768  138.2330  152.9768 N   0  0  0  0  0  0  0  0  0  0  0  0
  146.4154  137.4322  151.9125 C   0  0  0  0  0  0  0  0  0  0  0  0
  146.8205  137.7089  150.7839 O   0  0  0  0  0  0  0  0  0  0  0  0
  145.6468  136.1339  152.1531 C   0  0  0  0  0  0  0  0  0  0  0  0
  144.5685  136.3534  153.0993 N   0  0  0  0  0  0  0  0  0  0  0  0
  143.5595  137.2271  153.0914 C   0  0  0  0  0  0  0  0  0  0  0  0
  142.8046  137.1119  154.1734 N   0  0  0  0  0  0  0  0  0  0  0  0
  143.4164  136.0873  154.8764 N   0  0  0  0  0  0  0  0  0  0  0  0
  144.4637  135.6334  154.2442 N   0  0  0  0  0  0  0  0  0  0  0  0
  149.2580  138.8543  154.1794 C   0  0  0  0  0  0  0  0  0  0  0  0
  150.2241  139.2072  155.3224 C   0  0  0  0  0  0  0  0  0  0  0  0
  153.1583  142.8855  159.4176 H   0  0  0  0  0  0  0  0  0  0  0  0
  151.4951  143.2471  158.9538 H   0  0  0  0  0  0  0  0  0  0  0  0
  152.7405  143.0309  157.7101 H   0  0  0  0  0  0  0  0  0  0  0  0
  150.7075  139.9657  157.9713 H   0  0  0  0  0  0  0  0  0  0  0  0
  150.2758  141.6544  157.7550 H   0  0  0  0  0  0  0  0  0  0  0  0
  152.2128  141.8277  156.0688 H   0  0  0  0  0  0  0  0  0  0  0  0
  152.4626  140.1223  156.2984 H   0  0  0  0  0  0  0  0  0  0  0  0
  149.0957  141.4634  156.1801 H   0  0  0  0  0  0  0  0  0  0  0  0
  150.0116  142.5406  155.1549 H   0  0  0  0  0  0  0  0  0  0  0  0
  147.8259  142.0072  154.1314 H   0  0  0  0  0  0  0  0  0  0  0  0
  149.1455  141.4595  153.1229 H   0  0  0  0  0  0  0  0  0  0  0  0
  147.5118  139.7506  155.0435 H   0  0  0  0  0  0  0  0  0  0  0  0
  146.3175  140.3135  152.9233 H   0  0  0  0  0  0  0  0  0  0  0  0
  147.6613  139.6983  151.9917 H   0  0  0  0  0  0  0  0  0  0  0  0
  146.2160  137.9173  153.8658 H   0  0  0  0  0  0  0  0  0  0  0  0
  145.2238  135.7667  151.2172 H   0  0  0  0  0  0  0  0  0  0  0  0
  146.3179  135.3620  152.5335 H   0  0  0  0  0  0  0  0  0  0  0  0
  143.3857  137.9466  152.3048 H   0  0  0  0  0  0  0  0  0  0  0  0
  148.8929  137.8365  154.3222 H   0  0  0  0  0  0  0  0  0  0  0  0
  149.7984  138.8601  153.2318 H   0  0  0  0  0  0  0  0  0  0  0  0
  151.0449  138.4924  155.2927 H   0  0  0  0  0  0  0  0  0  0  0  0
  149.7235  139.0674  156.2819 H   0  0  0  0  0  0  0  0  0  0  0  0
  1  2  1  0  0  0  0
  1 21  1  0  0  0  0
  1 22  1  0  0  0  0
  1 23  1  0  0  0  0
  2  3  1  0  0  0  0
  3  4  1  0  0  0  0
  3 24  1  0  0  0  0
  3 25  1  0  0  0  0
  4  5  1  0  0  0  0
  4 26  1  0  0  0  0
  4 27  1  0  0  0  0
  5 20  1  0  0  0  0
  5  6  1  0  0  0  0
  6  7  1  0  0  0  0
  6 28  1  0  0  0  0
  6 29  1  0  0  0  0
  7  8  1  0  0  0  0
  7 30  1  0  0  0  0
  7 31  1  0  0  0  0
  8  9  1  0  0  0  0
  8 19  1  0  0  0  0
  8 32  1  0  0  0  0
  9 10  1  0  0  0  0
  9 33  1  0  0  0  0
  9 34  1  0  0  0  0
 10 11  1  0  0  0  0
 10 35  1  0  0  0  0
 11 12  2  0  0  0  0
 11 13  1  0  0  0  0
 13 14  1  0  0  0  0
 13 36  1  0  0  0  0
 13 37  1  0  0  0  0
 14 18  1  0  0  0  0
 14 15  1  0  0  0  0
 15 16  2  0  0  0  0
 15 38  1  0  0  0  0
 16 17  1  0  0  0  0
 17 18  2  0  0  0  0
 19 20  1  0  0  0  0
 19 39  1  0  0  0  0
 19 40  1  0  0  0  0
 20 41  1  0  0  0  0
 20 42  1  0  0  0  0
M  END
> <s_m_source_file>
AV-unprocessed.smi

> <i_m_source_file_index>
1015

> <i_lp_mmshare_version>
43012

> <i_f3d_flags>
0

> <s_epik_input>
W0NIM11PW0NIMl1bQ0gyXU4xW0NIMl1bQ0gyXVtDSF0oW0NIMl1bQ0gyXTEpW0NIMl1bTkhdQyg9TylbQ0gyXW4yW2NIXW5ubjI=

> <s_epik_cmdline>
J2VwaWtfcHl0aG9uJywgJy1waCcsICc3LjAnLCAnLXRuJywgJzgnLCAnLW1hJywgJzIwMCcsICctbWV0YWxfYmluZGluZycsICctaW1hZScsICc8aW5maWxlLm1hZT4nLCAnLW9tYWUnLCAnPG91dGZpbGUubWFlPic=

> <r_lp_tautomer_probability>
1

> <r_epik_Ionization_Penalty>
2.39972

> <r_epik_Ionization_Penalty_Charging>
0

> <r_epik_Ionization_Penalty_Neutral>
2.39972

> <r_epik_State_Penalty>
2.55755

> <r_epik_Charging_Adjusted_Penalty>
2.55755

> <i_epik_Tot_Q>
0

> <i_epik_Tot_abs_Q>
0

> <r_epik_Metal_State_Penalty>
2.55755

> <b_epik_Metal_Only>
0

> <s_lp_Force_Field>
OPLS_2005

> <r_lp_Energy>
27.1713

> <b_lp_Chiralities_Consistent>
1

> <s_lp_Variant>
AV-unprocessed.smi:1015-3

> <Gold.Version>
5.8.1

> <Gold.Id.Protein>
6NUR|6NUR_protein|mol2

> <Gold.PLP.Fitness>
39.5893

> <Gold.PLP.PLP>
-28.6577

> <Gold.PLP.part.hbond>
-1.9456

> <Gold.PLP.part.metal>
0.0000

> <Gold.PLP.part.buried>
0.1644

> <Gold.PLP.part.nonpolar>
-28.4667

> <Gold.PLP.part.repulsive>
1.4096

> <Gold.PLP.ligand.clash>
0.0000

> <Gold.PLP.ligand.torsion>
0.5757

> <Gold.PLP.Chemscore.Hbond>
2.0000

> <Gold.PLP.Chemscore.CHOScore>
2.0000

> <Gold.PLP.Chemscore.Metal>
0.0000

> <Gold.Chemscore.Hbonds>
donor molecule, donor type, donor heavy atom, donor atom, acceptor molecule, acceptor atom, score
      P1  H  7954  7966       L1    12  1.00
      P1  H  7989  7998       L1     5  0.96
      L1  C    15    38       P1 10171  0.82
      L1  C    15    38       P1 10175  0.95

> <Gold.PLP.Chemscore.Internal.Correction>
0.0831

> <Gold.Rescore>
     Score         DG    S(hbond)    S(metal)    S(lipo)     H(rot)  DE(clash)    DE(int)     intcor
      7.51      -9.23       1.14        0.00      67.84       3.12       1.25       0.47       ----

> <Gold.Chemscore.Fitness>
7.5139

> <Gold.Chemscore.DG>
-9.2332

> <Gold.Chemscore.ZeroCoef>
-5.4800

> <Gold.Chemscore.Hbond>
1.1388

> <Gold.Chemscore.Metal>
0.0000

> <Gold.Chemscore.Lipo>
67.8386

> <Gold.Chemscore.Internal_Hbond>
0.0000

> <Gold.Chemscore.DEClash>
1.2466

> <Gold.Chemscore.DEInternal>
0.4727

> <Gold.Chemscore.Rot>
3.1201

> <Gold.Chemscore.Internal.Correction>
   9.000000E+99

> <Gold.Chemscore.Hbonds>
donor molecule, donor type, donor heavy atom, donor atom, acceptor molecule, acceptor atom, score
      P1  H  7954  7966       L1    12  0.99
      P1  H  7989  7998       L1     5  0.22

> <Gold.Chemscore.Hbond.Weighted>
-3.8035

> <Gold.Chemscore.Metal.Weighted>
-0.0000

> <Gold.Chemscore.Lipo.Weighted>
-7.9371

> <Gold.Chemscore.Internal_Hbond.Weighted>
0.0000

> <Gold.Chemscore.DEClash.Weighted>
1.2466

> <Gold.Chemscore.DEInternal.Weighted>
0.4727

> <Gold.Chemscore.Rot.Weighted>
7.9874

> <Gold.Chemscore.Internal.Correction.Weighted>
   9.000000E+99

> <Gold.Protein.RotatedTorsions>
[ 6907 6896 6895 6894 ] final   36.27 input  -60.11 | X-H torsion
[ 7974 7965 7964 7962 ] final  151.50 input  175.53 | X-H torsion
[ 8008 7997 7996 7995 ] final  -62.43 input   59.86 | X-H torsion
[ 10167 10162 10161 10158 ] final    7.93 input  -65.29 | X-H torsion
[ 10718 10713 10712 10709 ] final   59.67 input   66.30 | X-H torsion
[ 10763 10752 10751 10750 ] final  -86.03 input  -60.55 | X-H torsion
[ 11005 11000 10999 10996 ] final   -8.82 input  -57.11 | X-H torsion

> <Gold.Protein.ActiveResidues>
 VAL166  LYS551  ARG553  GLY616  TRP617  ASP618  TYR619  PRO620  LYS621  CYS622 
 ASP623  PHE694  ASN695  SER759  ASP760  ASP761  ALA762  ILE779  LEU786  VAL792 
 PHE793  MET794  SER795  GLU796  ALA797  LYS798  CYS799  TRP800  GLU811  SER814 

> <Gold.Protein.RotatedAtoms>
  152.1275  134.9160  160.0560 H   0  0  0  0  0  0  0  0  0  0  0  0  # atno 6907 bound_to 6896
  152.0277  133.3919  159.4292 H   0  0  0  0  0  0  0  0  0  0  0  0  # atno 6908 bound_to 6896
  150.6853  134.3477  159.4939 H   0  0  0  0  0  0  0  0  0  0  0  0  # atno 6909 bound_to 6896
  144.8288  139.6546  143.6068 H   0  0  0  0  0  0  0  0  0  0  0  0  # atno 7974 bound_to 7965
  154.4499  140.0996  156.6586 H   0  0  0  0  0  0  0  0  0  0  0  0  # atno 8008 bound_to 7997
  155.5319  140.3481  155.4409 H   0  0  0  0  0  0  0  0  0  0  0  0  # atno 8009 bound_to 7997
  156.0658  140.1337  156.9876 H   0  0  0  0  0  0  0  0  0  0  0  0  # atno 8010 bound_to 7997
  140.6343  143.7921  150.7338 H   0  0  0  0  0  0  0  0  0  0  0  0  # atno 10167 bound_to 10162
  157.5693  130.8895  149.9241 H   0  0  0  0  0  0  0  0  0  0  0  0  # atno 10718 bound_to 10713
  154.6178  135.5464  153.7543 H   0  0  0  0  0  0  0  0  0  0  0  0  # atno 10763 bound_to 10752
  153.0224  135.6405  154.1484 H   0  0  0  0  0  0  0  0  0  0  0  0  # atno 10764 bound_to 10752
  154.1420  135.2908  155.3138 H   0  0  0  0  0  0  0  0  0  0  0  0  # atno 10765 bound_to 10752
  140.7275  133.8776  155.8867 H   0  0  0  0  0  0  0  0  0  0  0  0  # atno 11005 bound_to 11000
  146.2592  139.6371  142.9374 LP  0  0  0  0  0  0  0  0  0  0  0  0  # atno 17320 bound_to 7965
  145.4941  141.0438  143.2576 LP  0  0  0  0  0  0  0  0  0  0  0  0  # atno 17321 bound_to 7965
  140.1539  143.4333  152.2112 LP  0  0  0  0  0  0  0  0  0  0  0  0  # atno 17342 bound_to 10162
  139.5555  144.7369  151.4307 LP  0  0  0  0  0  0  0  0  0  0  0  0  # atno 17343 bound_to 10162
  156.0740  130.3681  150.0717 LP  0  0  0  0  0  0  0  0  0  0  0  0  # atno 17370 bound_to 10713
  156.8871  130.9576  151.3593 LP  0  0  0  0  0  0  0  0  0  0  0  0  # atno 17371 bound_to 10713
  140.9950  134.1228  157.4372 LP  0  0  0  0  0  0  0  0  0  0  0  0  # atno 17394 bound_to 11000
  139.8834  135.0051  156.6295 LP  0  0  0  0  0  0  0  0  0  0  0  0  # atno 17395 bound_to 11000

$$$$
