AV-unprocessed.smi:113|AV-procd|sdf|1106|dock3
  -GOLD-   2262018223D 1   1.00000     0.00000
 Structure written by MMmdl.
 53 56  0  0  0  0  0  0  0  0  2 V2000
  148.9525  141.3840  154.9189 C   0  0  0  0  0  0  0  0  0  0  0  0
  149.9357  141.2319  156.0600 C   0  0  0  0  0  0  0  0  0  0  0  0
  150.4206  139.9750  156.4703 C   0  0  0  0  0  0  0  0  0  0  0  0
  151.3414  139.8880  157.5439 C   0  0  0  0  0  0  0  0  0  0  0  0
  151.8823  138.5341  158.0157 C   0  0  0  0  0  0  0  0  0  0  0  0
  150.9948  137.3873  157.8832 N   0  0  0  0  0  0  0  0  0  0  0  0
  149.9527  137.2426  158.8308 C   0  0  0  0  0  0  0  0  0  0  0  0
  149.7999  138.0515  159.7485 O   0  0  0  0  0  0  0  0  0  0  0  0
  149.1044  136.0627  158.6468 C   0  0  0  0  0  0  0  0  0  0  0  0
  147.9568  135.8467  159.6208 C   0  0  0  0  0  0  0  0  0  0  0  0
  149.3591  135.2013  157.6325 C   0  0  0  0  0  0  0  0  0  0  0  0
  150.3989  135.3578  156.7289 N   0  0  0  0  0  0  0  0  0  0  0  0
  150.6641  134.3555  155.6214 C   0  0  1  0  0  0  0  0  0  0  0  0
  150.9916  132.9823  156.2088 C   0  0  0  0  0  0  0  0  0  0  0  0
  149.6156  132.3570  156.3001 C   0  0  2  0  0  0  0  0  0  0  0  0
  149.6899  130.9460  156.3446 O   0  0  0  0  0  0  0  0  0  0  0  0
  148.8970  132.9340  155.0665 C   0  0  2  0  0  0  0  0  0  0  0  0
  149.0384  132.1191  153.7649 C   0  0  0  0  0  0  0  0  0  0  0  0
  148.3430  132.7428  152.7057 O   0  0  0  0  0  0  0  0  0  0  0  0
  149.5192  134.2010  154.8334 O   0  0  0  0  0  0  0  0  0  0  0  0
  151.2598  136.4685  156.8438 C   0  0  0  0  0  0  0  0  0  0  0  0
  152.2151  136.6124  156.0769 O   0  0  0  0  0  0  0  0  0  0  0  0
  151.7548  141.0926  158.1764 C   0  0  0  0  0  0  0  0  0  0  0  0
  152.6742  141.1019  159.2527 C   0  0  0  0  0  0  0  0  0  0  0  0
  153.0620  142.3165  159.8519 C   0  0  0  0  0  0  0  0  0  0  0  0
  152.5375  143.5368  159.3870 C   0  0  0  0  0  0  0  0  0  0  0  0
  151.6210  143.5458  158.3193 C   0  0  0  0  0  0  0  0  0  0  0  0
  151.2328  142.3323  157.7175 C   0  0  0  0  0  0  0  0  0  0  0  0
  150.3553  142.3472  156.6917 N   0  3  0  0  0  0  0  0  0  0  0  0
  148.4901  140.4279  154.6714 H   0  0  0  0  0  0  0  0  0  0  0  0
  149.4608  141.7581  154.0299 H   0  0  0  0  0  0  0  0  0  0  0  0
  148.1597  142.0841  155.1844 H   0  0  0  0  0  0  0  0  0  0  0  0
  150.0787  139.0906  155.9536 H   0  0  0  0  0  0  0  0  0  0  0  0
  152.8073  138.2944  157.4888 H   0  0  0  0  0  0  0  0  0  0  0  0
  152.1783  138.5921  159.0644 H   0  0  0  0  0  0  0  0  0  0  0  0
  147.3848  134.9494  159.3830 H   0  0  0  0  0  0  0  0  0  0  0  0
  147.2707  136.6941  159.5963 H   0  0  0  0  0  0  0  0  0  0  0  0
  148.3351  135.7406  160.6380 H   0  0  0  0  0  0  0  0  0  0  0  0
  148.7106  134.3437  157.5405 H   0  0  0  0  0  0  0  0  0  0  0  0
  151.4657  134.7832  155.0170 H   0  0  0  0  0  0  0  0  0  0  0  0
  151.6203  132.4458  155.4966 H   0  0  0  0  0  0  0  0  0  0  0  0
  151.5161  133.0481  157.1628 H   0  0  0  0  0  0  0  0  0  0  0  0
  149.1189  132.7091  157.2050 H   0  0  0  0  0  0  0  0  0  0  0  0
  150.4548  130.7011  156.8433 H   0  0  0  0  0  0  0  0  0  0  0  0
  147.8398  133.0992  155.2785 H   0  0  0  0  0  0  0  0  0  0  0  0
  150.0879  132.0640  153.4746 H   0  0  0  0  0  0  0  0  0  0  0  0
  148.6895  131.0941  153.8932 H   0  0  0  0  0  0  0  0  0  0  0  0
  148.4179  132.1991  151.9364 H   0  0  0  0  0  0  0  0  0  0  0  0
  153.0986  140.1864  159.6361 H   0  0  0  0  0  0  0  0  0  0  0  0
  153.7660  142.3109  160.6716 H   0  0  0  0  0  0  0  0  0  0  0  0
  152.8391  144.4654  159.8494 H   0  0  0  0  0  0  0  0  0  0  0  0
  151.2216  144.4859  157.9668 H   0  0  0  0  0  0  0  0  0  0  0  0
  149.9922  143.2470  156.3779 H   0  0  0  0  0  0  0  0  0  0  0  0
  1  2  1  0  0  0  0
  1 30  1  0  0  0  0
  1 31  1  0  0  0  0
  1 32  1  0  0  0  0
  2 29  1  0  0  0  0
  2  3  2  0  0  0  0
  3  4  1  0  0  0  0
  3 33  1  0  0  0  0
  4  5  1  0  0  0  0
  4 23  2  0  0  0  0
  5  6  1  0  0  0  0
  5 34  1  0  0  0  0
  5 35  1  0  0  0  0
  6 21  1  0  0  0  0
  6  7  1  0  0  0  0
  7  8  2  0  0  0  0
  7  9  1  0  0  0  0
  9 10  1  0  0  0  0
  9 11  2  0  0  0  0
 10 36  1  0  0  0  0
 10 37  1  0  0  0  0
 10 38  1  0  0  0  0
 11 12  1  0  0  0  0
 11 39  1  0  0  0  0
 12 13  1  0  0  0  0
 12 21  1  0  0  0  0
 13 20  1  0  0  0  0
 13 14  1  0  0  0  0
 13 40  1  0  0  0  0
 14 15  1  0  0  0  0
 14 41  1  0  0  0  0
 14 42  1  0  0  0  0
 15 16  1  0  0  0  0
 15 17  1  0  0  0  0
 15 43  1  0  0  0  0
 16 44  1  0  0  0  0
 17 18  1  0  0  0  0
 17 20  1  0  0  0  0
 17 45  1  0  0  0  0
 18 19  1  0  0  0  0
 18 46  1  0  0  0  0
 18 47  1  0  0  0  0
 19 48  1  0  0  0  0
 21 22  2  0  0  0  0
 23 28  1  0  0  0  0
 23 24  1  0  0  0  0
 24 25  2  0  0  0  0
 24 49  1  0  0  0  0
 25 26  1  0  0  0  0
 25 50  1  0  0  0  0
 26 27  2  0  0  0  0
 26 51  1  0  0  0  0
 27 28  1  0  0  0  0
 27 52  1  0  0  0  0
 28 29  2  0  0  0  0
 29 53  1  0  0  0  0
M  CHG  1  29   1
M  END
> <s_m_source_file>
AV-unprocessed.smi

> <i_m_source_file_index>
113

> <i_lp_mmshare_version>
43012

> <i_f3d_flags>
0

> <s_epik_input>
W2NIXTFbY0hdW2NIXVtjSF1jKGMxMiluYyhbQ0gzXSlbY0hdYzJbQ0gyXW4zYyg9TyljKFtDSDNdKVtjSF1uKGMzPU8pW0NAQEhdNFtDSDJdW0NAQEhdKFtPSF0pW0NASF0oTzQpW0NIMl1bT0hd

> <s_epik_cmdline>
J2VwaWtfcHl0aG9uJywgJy1waCcsICc3LjAnLCAnLXRuJywgJzgnLCAnLW1hJywgJzIwMCcsICctbWV0YWxfYmluZGluZycsICctaW1hZScsICc8aW5maWxlLm1hZT4nLCAnLW9tYWUnLCAnPG91dGZpbGUubWFlPic=

> <r_lp_tautomer_probability>
1

> <r_epik_Ionization_Penalty>
0.705471

> <r_epik_Ionization_Penalty_Charging>
0.70547

> <r_epik_Ionization_Penalty_Neutral>
1.19947e-07

> <r_epik_State_Penalty>
0.728574

> <r_epik_Charging_Adjusted_Penalty>
1.43404

> <i_epik_Tot_Q>
1

> <i_epik_Tot_abs_Q>
1

> <r_epik_Metal_State_Penalty>
4.61665

> <b_epik_Metal_Only>
0

> <s_epik_Chemistry_Notes>
This compound contains an acetal/aminal-like group ( X-CH(R)-Y where X, Y are N, S, or O) that may be acid/base labile, releasing an aldehyde.

> <s_lp_Force_Field>
OPLS_2005

> <r_lp_Energy>
45.4749

> <b_lp_Chiralities_Consistent>
1

> <s_lp_Variant>
AV-unprocessed.smi:113-16

> <Gold.Version>
5.8.1

> <Gold.Id.Protein>
6NUR|6NUR_protein|mol2

> <Gold.PLP.Fitness>
58.0617

> <Gold.PLP.PLP>
-47.2493

> <Gold.PLP.part.hbond>
-4.7756

> <Gold.PLP.part.metal>
0.0000

> <Gold.PLP.part.buried>
-4.5060

> <Gold.PLP.part.nonpolar>
-37.9106

> <Gold.PLP.part.repulsive>
0.2747

> <Gold.PLP.ligand.clash>
0.0000

> <Gold.PLP.ligand.torsion>
0.6066

> <Gold.PLP.Chemscore.Hbond>
4.0000

> <Gold.PLP.Chemscore.CHOScore>
0.0000

> <Gold.PLP.Chemscore.Metal>
0.0000

> <Gold.Chemscore.Hbonds>
donor molecule, donor type, donor heavy atom, donor atom, acceptor molecule, acceptor atom, score
      L1  H    19    48       P1 10747  0.59
      L1  H    29    53       P1  8028  2.00
      P1  H 10752 10765       L1    22  0.93

> <Gold.PLP.Chemscore.Internal.Correction>
0.0257

> <Gold.Rescore>
     Score         DG    S(hbond)    S(metal)    S(lipo)     H(rot)  DE(clash)    DE(int)     intcor
     20.79     -21.33       2.98        0.00     116.32       3.01       0.02       0.52       ----

> <Gold.Chemscore.Fitness>
20.7878

> <Gold.Chemscore.DG>
-21.3259

> <Gold.Chemscore.ZeroCoef>
-5.4800

> <Gold.Chemscore.Hbond>
2.9783

> <Gold.Chemscore.Metal>
0.0000

> <Gold.Chemscore.Lipo>
116.3185

> <Gold.Chemscore.Internal_Hbond>
0.0000

> <Gold.Chemscore.DEClash>
0.0174

> <Gold.Chemscore.DEInternal>
0.5207

> <Gold.Chemscore.Rot>
3.0120

> <Gold.Chemscore.Internal.Correction>
   9.000000E+99

> <Gold.Chemscore.Hbonds>
donor molecule, donor type, donor heavy atom, donor atom, acceptor molecule, acceptor atom, score
      L1  H    19    48       P1 10747  0.58
      L1  H    29    53       P1  8028  0.98
      P1  H  6931  6943       L1     8  0.01
      P1  H 10752 10765       L1    22  0.90

> <Gold.Chemscore.Hbond.Weighted>
-9.9474

> <Gold.Chemscore.Metal.Weighted>
-0.0000

> <Gold.Chemscore.Lipo.Weighted>
-13.6093

> <Gold.Chemscore.Internal_Hbond.Weighted>
0.0000

> <Gold.Chemscore.DEClash.Weighted>
0.0174

> <Gold.Chemscore.DEInternal.Weighted>
0.5207

> <Gold.Chemscore.Rot.Weighted>
7.7108

> <Gold.Chemscore.Internal.Correction.Weighted>
   9.000000E+99

> <Gold.Protein.RotatedTorsions>
[ 6907 6896 6895 6894 ] final  -65.60 input  -60.11 | X-H torsion
[ 7974 7965 7964 7962 ] final  -86.78 input  175.53 | X-H torsion
[ 8008 7997 7996 7995 ] final   22.98 input   59.86 | X-H torsion
[ 10167 10162 10161 10158 ] final  -24.82 input  -65.29 | X-H torsion
[ 10718 10713 10712 10709 ] final   32.21 input   66.30 | X-H torsion
[ 10763 10752 10751 10750 ] final -171.15 input  -60.55 | X-H torsion
[ 11005 11000 10999 10996 ] final  141.08 input  -57.11 | X-H torsion

> <Gold.Protein.ActiveResidues>
 VAL166  LYS551  ARG553  GLY616  TRP617  ASP618  TYR619  PRO620  LYS621  CYS622 
 ASP623  PHE694  ASN695  SER759  ASP760  ASP761  ALA762  ILE779  LEU786  VAL792 
 PHE793  MET794  SER795  GLU796  ALA797  LYS798  CYS799  TRP800  GLU811  SER814 

> <Gold.Protein.RotatedAtoms>
  150.7515  134.6138  159.6099 H   0  0  0  0  0  0  0  0  0  0  0  0  # atno 6907 bound_to 6896
  152.3464  134.7062  160.0258 H   0  0  0  0  0  0  0  0  0  0  0  0  # atno 6908 bound_to 6896
  151.7497  133.3290  159.3424 H   0  0  0  0  0  0  0  0  0  0  0  0  # atno 6909 bound_to 6896
  145.4753  140.9558  143.1894 H   0  0  0  0  0  0  0  0  0  0  0  0  # atno 7974 bound_to 7965
  154.9740  140.3093  155.4975 H   0  0  0  0  0  0  0  0  0  0  0  0  # atno 8008 bound_to 7997
  156.2962  140.2279  156.4773 H   0  0  0  0  0  0  0  0  0  0  0  0  # atno 8009 bound_to 7997
  154.7851  140.0443  157.1145 H   0  0  0  0  0  0  0  0  0  0  0  0  # atno 8010 bound_to 7997
  140.7287  143.4319  151.0788 H   0  0  0  0  0  0  0  0  0  0  0  0  # atno 10167 bound_to 10162
  157.2823  130.7261  149.6563 H   0  0  0  0  0  0  0  0  0  0  0  0  # atno 10718 bound_to 10713
  154.6337  135.2890  155.0186 H   0  0  0  0  0  0  0  0  0  0  0  0  # atno 10763 bound_to 10752
  154.1338  135.6529  153.4931 H   0  0  0  0  0  0  0  0  0  0  0  0  # atno 10764 bound_to 10752
  153.0292  135.5316  154.7175 H   0  0  0  0  0  0  0  0  0  0  0  0  # atno 10765 bound_to 10752
  140.0375  134.9321  157.0780 H   0  0  0  0  0  0  0  0  0  0  0  0  # atno 11005 bound_to 11000
  144.7921  139.6308  143.7109 LP  0  0  0  0  0  0  0  0  0  0  0  0  # atno 17320 bound_to 7965
  146.2373  139.5930  142.9515 LP  0  0  0  0  0  0  0  0  0  0  0  0  # atno 17321 bound_to 7965
  139.7977  143.8128  152.3159 LP  0  0  0  0  0  0  0  0  0  0  0  0  # atno 17342 bound_to 10162
  139.8134  144.7326  150.9667 LP  0  0  0  0  0  0  0  0  0  0  0  0  # atno 17343 bound_to 10162
  155.9664  130.4334  150.5005 LP  0  0  0  0  0  0  0  0  0  0  0  0  # atno 17370 bound_to 10713
  157.2951  131.0634  151.2107 LP  0  0  0  0  0  0  0  0  0  0  0  0  # atno 17371 bound_to 10713
  140.4123  134.1968  155.7163 LP  0  0  0  0  0  0  0  0  0  0  0  0  # atno 17394 bound_to 11000
  141.1865  133.8301  157.1065 LP  0  0  0  0  0  0  0  0  0  0  0  0  # atno 17395 bound_to 11000

$$$$
