AV-unprocessed.smi:1395|AV-procd|sdf|5670|dock6
  -GOLD-   22720 5293D 1   1.00000     0.00000
 Structure written by MMmdl.
 43 44  0  0  0  0  0  0  0  0  2 V2000
  151.3120  144.5679  159.3085 C   0  0  0  0  0  0  0  0  0  0  0  0
  151.9065  143.2168  159.6720 C   0  0  0  0  0  0  0  0  0  0  0  0
  152.7512  143.1153  160.7980 C   0  0  0  0  0  0  0  0  0  0  0  0
  153.3013  141.8663  161.1329 C   0  0  0  0  0  0  0  0  0  0  0  0
  152.9810  140.7641  160.3222 C   0  0  0  0  0  0  0  0  0  0  0  0
  152.1742  140.8518  159.2451 N   0  0  0  0  0  0  0  0  0  0  0  0
  151.6353  142.0502  158.9075 C   0  0  0  0  0  0  0  0  0  0  0  0
  150.7741  142.2155  157.7855 N   0  0  0  0  0  0  0  0  0  0  0  0
  150.6117  141.3979  156.7298 C   0  0  0  0  0  0  0  0  0  0  0  0
  151.2201  140.3438  156.5429 O   0  0  0  0  0  0  0  0  0  0  0  0
  149.6864  141.8731  155.8829 N   0  0  0  0  0  0  0  0  0  0  0  0
  149.2728  141.2200  154.6442 C   0  0  2  0  0  0  0  0  0  0  0  0
  147.9994  141.8861  154.0981 C   0  0  0  0  0  0  0  0  0  0  0  0
  147.4887  141.1640  152.8393 C   0  0  0  0  0  0  0  0  0  0  0  0
  147.2506  139.7226  153.1074 N   0  3  1  0  0  0  0  0  0  0  0  0
  146.6217  139.0249  151.9564 C   0  0  0  0  0  0  0  0  0  0  0  0
  145.7788  137.8163  152.3775 C   0  0  0  0  0  0  0  0  0  0  0  0
  144.4532  137.9502  152.2996 N   0  0  0  0  0  0  0  0  0  0  0  0
  146.3104  136.7834  152.7811 O   0  0  0  0  0  0  0  0  0  0  0  0
  148.4828  139.0481  153.5957 C   0  0  0  0  0  0  0  0  0  0  0  0
  149.0106  139.7195  154.8733 C   0  0  0  0  0  0  0  0  0  0  0  0
  151.6267  145.3416  160.0097 H   0  0  0  0  0  0  0  0  0  0  0  0
  150.2227  144.5231  159.3261 H   0  0  0  0  0  0  0  0  0  0  0  0
  151.6319  144.8698  158.3107 H   0  0  0  0  0  0  0  0  0  0  0  0
  152.9770  143.9829  161.4004 H   0  0  0  0  0  0  0  0  0  0  0  0
  153.9513  141.7560  161.9884 H   0  0  0  0  0  0  0  0  0  0  0  0
  153.3818  139.7861  160.5437 H   0  0  0  0  0  0  0  0  0  0  0  0
  150.2094  143.0516  157.7961 H   0  0  0  0  0  0  0  0  0  0  0  0
  149.2365  142.7476  156.1114 H   0  0  0  0  0  0  0  0  0  0  0  0
  150.0645  141.3351  153.9009 H   0  0  0  0  0  0  0  0  0  0  0  0
  147.2187  141.8783  154.8606 H   0  0  0  0  0  0  0  0  0  0  0  0
  148.1949  142.9341  153.8669 H   0  0  0  0  0  0  0  0  0  0  0  0
  146.5622  141.6357  152.5095 H   0  0  0  0  0  0  0  0  0  0  0  0
  148.2070  141.2700  152.0246 H   0  0  0  0  0  0  0  0  0  0  0  0
  145.9483  139.7072  151.4358 H   0  0  0  0  0  0  0  0  0  0  0  0
  147.3852  138.7278  151.2354 H   0  0  0  0  0  0  0  0  0  0  0  0
  143.8474  137.1850  152.5595 H   0  0  0  0  0  0  0  0  0  0  0  0
  144.0568  138.8206  151.9742 H   0  0  0  0  0  0  0  0  0  0  0  0
  148.2806  137.9971  153.8032 H   0  0  0  0  0  0  0  0  0  0  0  0
  149.2468  139.0736  152.8170 H   0  0  0  0  0  0  0  0  0  0  0  0
  149.9248  139.2194  155.1954 H   0  0  0  0  0  0  0  0  0  0  0  0
  148.2861  139.5864  155.6782 H   0  0  0  0  0  0  0  0  0  0  0  0
  146.5764  139.6819  153.8591 H   0  0  0  0  0  0  0  0  0  0  0  0
  1  2  1  0  0  0  0
  1 22  1  0  0  0  0
  1 23  1  0  0  0  0
  1 24  1  0  0  0  0
  2  7  1  0  0  0  0
  2  3  2  0  0  0  0
  3  4  1  0  0  0  0
  3 25  1  0  0  0  0
  4  5  2  0  0  0  0
  4 26  1  0  0  0  0
  5  6  1  0  0  0  0
  5 27  1  0  0  0  0
  6  7  2  0  0  0  0
  7  8  1  0  0  0  0
  8  9  1  0  0  0  0
  8 28  1  0  0  0  0
  9 10  2  0  0  0  0
  9 11  1  0  0  0  0
 11 12  1  0  0  0  0
 11 29  1  0  0  0  0
 12 21  1  0  0  0  0
 12 13  1  0  0  0  0
 12 30  1  0  0  0  0
 13 14  1  0  0  0  0
 13 31  1  0  0  0  0
 13 32  1  0  0  0  0
 14 15  1  0  0  0  0
 14 33  1  0  0  0  0
 14 34  1  0  0  0  0
 15 16  1  0  0  0  0
 15 20  1  0  0  0  0
 15 43  1  0  0  0  0
 16 17  1  0  0  0  0
 16 35  1  0  0  0  0
 16 36  1  0  0  0  0
 17 18  1  0  0  0  0
 17 19  2  0  0  0  0
 18 37  1  0  0  0  0
 18 38  1  0  0  0  0
 20 21  1  0  0  0  0
 20 39  1  0  0  0  0
 20 40  1  0  0  0  0
 21 41  1  0  0  0  0
 21 42  1  0  0  0  0
M  CHG  1  15   1
M  END
> <s_m_source_file>
AV-unprocessed.smi

> <i_m_source_file_index>
1395

> <i_lp_mmshare_version>
43012

> <i_f3d_flags>
0

> <s_epik_input>
W0NIM11jMVtjSF1bY0hdW2NIXW5jMVtOSF1DKD1PKVtOSF1bQ0hdMltDSDJdW0NIMl1OKFtDSDJdW0NIMl0yKVtDSDJdQyg9TylbTkgyXQ==

> <s_epik_cmdline>
J2VwaWtfcHl0aG9uJywgJy1waCcsICc3LjAnLCAnLXRuJywgJzgnLCAnLW1hJywgJzIwMCcsICctbWV0YWxfYmluZGluZycsICctaW1hZScsICc8aW5maWxlLm1hZT4nLCAnLW9tYWUnLCAnPG91dGZpbGUubWFlPic=

> <r_epik_Ionization_Penalty>
0.83893

> <r_epik_Ionization_Penalty_Charging>
0.838844

> <r_epik_Ionization_Penalty_Neutral>
8.62421e-05

> <r_epik_State_Penalty>
0.8734

> <r_epik_Charging_Adjusted_Penalty>
1.71224

> <i_epik_Tot_Q>
1

> <i_epik_Tot_abs_Q>
1

> <r_epik_Metal_State_Penalty>
0.890705

> <b_epik_Metal_Only>
0

> <s_lp_Force_Field>
OPLS_2005

> <r_lp_Energy>
13.5717

> <b_lp_Chiralities_Consistent>
1

> <s_lp_Variant>
AV-unprocessed.smi:1395-2

> <Gold.Version>
5.8.1

> <Gold.Id.Protein>
6NUR|6NUR_protein|mol2

> <Gold.PLP.Fitness>
45.9894

> <Gold.PLP.PLP>
-41.1944

> <Gold.PLP.part.hbond>
-3.5010

> <Gold.PLP.part.metal>
0.0000

> <Gold.PLP.part.buried>
-2.2727

> <Gold.PLP.part.nonpolar>
-35.8220

> <Gold.PLP.part.repulsive>
1.0068

> <Gold.PLP.ligand.clash>
0.0000

> <Gold.PLP.ligand.torsion>
0.6114

> <Gold.PLP.Chemscore.Hbond>
2.0000

> <Gold.PLP.Chemscore.CHOScore>
0.0000

> <Gold.PLP.Chemscore.Metal>
0.0000

> <Gold.Chemscore.Hbonds>
donor molecule, donor type, donor heavy atom, donor atom, acceptor molecule, acceptor atom, score
      L1  H    11    29       P1  8028  0.93
      L1  H    18    38       P1 10175  0.90

> <Gold.PLP.Chemscore.Internal.Correction>
0.0177

> <Gold.Rescore>
     Score         DG    S(hbond)    S(metal)    S(lipo)     H(rot)  DE(clash)    DE(int)     intcor
     15.01     -18.22       1.92        0.00      97.00       1.96       0.25       2.96       ----

> <Gold.Chemscore.Fitness>
15.0126

> <Gold.Chemscore.DG>
-18.2191

> <Gold.Chemscore.ZeroCoef>
-5.4800

> <Gold.Chemscore.Hbond>
1.9202

> <Gold.Chemscore.Metal>
0.0000

> <Gold.Chemscore.Lipo>
96.9974

> <Gold.Chemscore.Internal_Hbond>
0.0000

> <Gold.Chemscore.DEClash>
0.2481

> <Gold.Chemscore.DEInternal>
2.9583

> <Gold.Chemscore.Rot>
1.9622

> <Gold.Chemscore.Internal.Correction>
   9.000000E+99

> <Gold.Chemscore.Hbonds>
donor molecule, donor type, donor heavy atom, donor atom, acceptor molecule, acceptor atom, score
      L1  H    11    29       P1  8028  0.84
      L1  H    18    38       P1 10175  0.88

> <Gold.Chemscore.Hbond.Weighted>
-6.4136

> <Gold.Chemscore.Metal.Weighted>
-0.0000

> <Gold.Chemscore.Lipo.Weighted>
-11.3487

> <Gold.Chemscore.Internal_Hbond.Weighted>
0.0000

> <Gold.Chemscore.DEClash.Weighted>
0.2481

> <Gold.Chemscore.DEInternal.Weighted>
2.9583

> <Gold.Chemscore.Rot.Weighted>
5.0232

> <Gold.Chemscore.Internal.Correction.Weighted>
   9.000000E+99

> <Gold.Protein.RotatedTorsions>
[ 6907 6896 6895 6894 ] final -135.34 input  -60.11 | X-H torsion
[ 7974 7965 7964 7962 ] final   60.58 input  175.53 | X-H torsion
[ 8008 7997 7996 7995 ] final  -64.19 input   59.86 | X-H torsion
[ 10167 10162 10161 10158 ] final   38.10 input  -65.29 | X-H torsion
[ 10718 10713 10712 10709 ] final -114.23 input   66.30 | X-H torsion
[ 10763 10752 10751 10750 ] final -138.52 input  -60.55 | X-H torsion
[ 11005 11000 10999 10996 ] final -172.95 input  -57.11 | X-H torsion

> <Gold.Protein.ActiveResidues>
 VAL166  LYS551  ARG553  GLY616  TRP617  ASP618  TYR619  PRO620  LYS621  CYS622 
 ASP623  PHE694  ASN695  SER759  ASP760  ASP761  ALA762  ILE779  LEU786  VAL792 
 PHE793  MET794  SER795  GLU796  ALA797  LYS798  CYS799  TRP800  GLU811  SER814 

> <Gold.Protein.RotatedAtoms>
  150.9967  133.6096  159.2700 H   0  0  0  0  0  0  0  0  0  0  0  0  # atno 6907 bound_to 6896
  151.3297  135.0837  159.9344 H   0  0  0  0  0  0  0  0  0  0  0  0  # atno 6908 bound_to 6896
  152.5262  133.9599  159.7766 H   0  0  0  0  0  0  0  0  0  0  0  0  # atno 6909 bound_to 6896
  145.8944  139.3535  143.0630 H   0  0  0  0  0  0  0  0  0  0  0  0  # atno 7974 bound_to 7965
  154.4597  140.0959  156.6858 H   0  0  0  0  0  0  0  0  0  0  0  0  # atno 8008 bound_to 7997
  155.5031  140.3474  155.4356 H   0  0  0  0  0  0  0  0  0  0  0  0  # atno 8009 bound_to 7997
  156.0847  140.1382  156.9657 H   0  0  0  0  0  0  0  0  0  0  0  0  # atno 8010 bound_to 7997
  140.3968  144.1777  150.6132 H   0  0  0  0  0  0  0  0  0  0  0  0  # atno 10167 bound_to 10162
  156.0816  130.6015  150.8747 H   0  0  0  0  0  0  0  0  0  0  0  0  # atno 10718 bound_to 10713
  154.8634  135.3609  154.5399 H   0  0  0  0  0  0  0  0  0  0  0  0  # atno 10763 bound_to 10752
  153.6021  135.7012  153.5385 H   0  0  0  0  0  0  0  0  0  0  0  0  # atno 10764 bound_to 10752
  153.3282  135.4132  155.1435 H   0  0  0  0  0  0  0  0  0  0  0  0  # atno 10765 bound_to 10752
  140.4912  134.5983  157.4955 H   0  0  0  0  0  0  0  0  0  0  0  0  # atno 11005 bound_to 11000
  145.8868  140.9328  143.0572 LP  0  0  0  0  0  0  0  0  0  0  0  0  # atno 17320 bound_to 7965
  144.6732  140.0853  143.7467 LP  0  0  0  0  0  0  0  0  0  0  0  0  # atno 17321 bound_to 7965
  140.4781  143.2388  151.8994 LP  0  0  0  0  0  0  0  0  0  0  0  0  # atno 17342 bound_to 10162
  139.4786  144.5298  151.8683 LP  0  0  0  0  0  0  0  0  0  0  0  0  # atno 17343 bound_to 10162
  157.5936  131.0944  150.9079 LP  0  0  0  0  0  0  0  0  0  0  0  0  # atno 17370 bound_to 10713
  156.9250  130.5329  149.5279 LP  0  0  0  0  0  0  0  0  0  0  0  0  # atno 17371 bound_to 10713
  139.9768  134.7202  155.9935 LP  0  0  0  0  0  0  0  0  0  0  0  0  # atno 17394 bound_to 11000
  141.1483  133.6552  156.3934 LP  0  0  0  0  0  0  0  0  0  0  0  0  # atno 17395 bound_to 11000

$$$$
