AV-unprocessed.smi:21|AV-procd|sdf|147|dock4
  -GOLD-   2262015363D 1   1.00000     0.00000
 Structure written by MMmdl.
 62 65  0  0  0  0  0  0  0  0  2 V2000
  152.0253  144.2481  158.4016 C   0  0  0  0  0  0  0  0  0  0  0  0
  152.3026  142.8641  158.5433 O   0  0  0  0  0  0  0  0  0  0  0  0
  151.1364  142.0551  158.6120 C   0  0  1  0  0  0  0  0  0  0  0  0
  150.5186  141.9955  157.2221 C   0  0  0  0  0  0  0  0  0  0  0  0
  151.2330  140.8254  156.5387 C   0  0  2  0  0  0  0  0  0  0  0  0
  150.4446  140.2036  155.3609 C   0  0  0  0  0  0  0  0  0  0  0  0
  151.0685  138.9970  154.8144 N   0  0  0  0  0  0  0  0  0  0  0  0
  152.1477  139.1530  153.8478 C   0  0  0  0  0  0  0  0  0  0  0  0
  150.3003  137.8791  154.7609 C   0  0  0  0  0  0  0  0  0  0  0  0
  150.8593  136.7563  154.2394 N   0  0  0  0  0  0  0  0  0  0  0  0
  150.1823  135.6053  154.2283 C   0  0  0  0  0  0  0  0  0  0  0  0
  148.9634  135.3515  154.7057 N   0  0  0  0  0  0  0  0  0  0  0  0
  148.3963  136.4726  155.2346 C   0  0  0  0  0  0  0  0  0  0  0  0
  148.9757  137.7727  155.2800 C   0  0  0  0  0  0  0  0  0  0  0  0
  148.0942  138.6546  155.8965 N   0  0  0  0  0  0  0  0  0  0  0  0
  147.0648  137.9178  156.2110 C   0  0  0  0  0  0  0  0  0  0  0  0
  147.1826  136.5854  155.8892 N   0  0  0  0  0  0  0  0  0  0  0  0
  146.2215  135.5358  156.1742 C   0  0  0  0  0  0  0  0  0  0  0  0
  144.8096  135.7790  155.5737 C   0  0  2  0  0  0  0  0  0  0  0  0
  143.8271  134.7303  156.1443 C   0  0  0  0  0  0  0  0  0  0  0  0
  144.3589  133.4226  156.0736 O   0  0  0  0  0  0  0  0  0  0  0  0
  144.7641  135.8594  154.0170 C   0  0  1  0  0  0  0  0  0  0  0  0
  145.1852  134.5837  153.3033 C   0  0  0  0  0  0  0  0  0  0  0  0
  144.6132  134.7873  151.9077 C   0  0  0  0  0  0  0  0  0  0  0  0
  143.3612  135.4169  152.1288 O   0  0  0  0  0  0  0  0  0  0  0  0
  143.3743  136.0749  153.3921 C   0  0  0  0  0  0  0  0  0  0  0  0
  151.4480  139.8491  157.6303 N   0  3  1  0  0  0  0  0  0  0  0  0
  152.5953  138.9389  157.4217 C   0  0  0  0  0  0  0  0  0  0  0  0
  151.5047  140.5930  158.9125 C   0  0  0  0  0  0  0  0  0  0  0  0
  150.4234  142.4641  159.3302 H   0  0  0  0  0  0  0  0  0  0  0  0
  152.2094  141.1727  156.1959 H   0  0  0  0  0  0  0  0  0  0  0  0
  152.9611  144.8063  158.3770 H   0  0  0  0  0  0  0  0  0  0  0  0
  151.4294  144.6277  159.2321 H   0  0  0  0  0  0  0  0  0  0  0  0
  151.4934  144.4481  157.4705 H   0  0  0  0  0  0  0  0  0  0  0  0
  149.4517  141.7855  157.3086 H   0  0  0  0  0  0  0  0  0  0  0  0
  150.6310  142.9355  156.6843 H   0  0  0  0  0  0  0  0  0  0  0  0
  149.4470  139.9230  155.6988 H   0  0  0  0  0  0  0  0  0  0  0  0
  150.2858  140.9474  154.5793 H   0  0  0  0  0  0  0  0  0  0  0  0
  152.6684  138.2085  153.6865 H   0  0  0  0  0  0  0  0  0  0  0  0
  152.8781  139.8754  154.2120 H   0  0  0  0  0  0  0  0  0  0  0  0
  151.7678  139.5108  152.8909 H   0  0  0  0  0  0  0  0  0  0  0  0
  150.6977  134.7632  153.7902 H   0  0  0  0  0  0  0  0  0  0  0  0
  146.2032  138.3221  156.7225 H   0  0  0  0  0  0  0  0  0  0  0  0
  146.6276  134.5919  155.8085 H   0  0  0  0  0  0  0  0  0  0  0  0
  146.1553  135.4415  157.2588 H   0  0  0  0  0  0  0  0  0  0  0  0
  144.4585  136.7402  155.9508 H   0  0  0  0  0  0  0  0  0  0  0  0
  143.5941  134.9552  157.1856 H   0  0  0  0  0  0  0  0  0  0  0  0
  142.8763  134.7518  155.6121 H   0  0  0  0  0  0  0  0  0  0  0  0
  143.7676  132.8841  155.5704 H   0  0  0  0  0  0  0  0  0  0  0  0
  145.4216  136.6627  153.6806 H   0  0  0  0  0  0  0  0  0  0  0  0
  146.2654  134.4347  153.2894 H   0  0  0  0  0  0  0  0  0  0  0  0
  144.7237  133.7124  153.7706 H   0  0  0  0  0  0  0  0  0  0  0  0
  145.2499  135.4557  151.3264 H   0  0  0  0  0  0  0  0  0  0  0  0
  144.5012  133.8540  151.3556 H   0  0  0  0  0  0  0  0  0  0  0  0
  142.5900  135.6301  154.0048 H   0  0  0  0  0  0  0  0  0  0  0  0
  143.1441  137.1309  153.2584 H   0  0  0  0  0  0  0  0  0  0  0  0
  153.5326  139.4940  157.3657 H   0  0  0  0  0  0  0  0  0  0  0  0
  152.4791  138.3697  156.4995 H   0  0  0  0  0  0  0  0  0  0  0  0
  152.6683  138.2272  158.2447 H   0  0  0  0  0  0  0  0  0  0  0  0
  152.4836  140.5154  159.3876 H   0  0  0  0  0  0  0  0  0  0  0  0
  150.7800  140.1478  159.5945 H   0  0  0  0  0  0  0  0  0  0  0  0
  150.6134  139.2818  157.6730 H   0  0  0  0  0  0  0  0  0  0  0  0
  1  2  1  0  0  0  0
  1 32  1  0  0  0  0
  1 33  1  0  0  0  0
  1 34  1  0  0  0  0
  2  3  1  0  0  0  0
  3 30  1  0  0  0  0
  3 29  1  0  0  0  0
  3  4  1  0  0  0  0
  4  5  1  0  0  0  0
  4 35  1  0  0  0  0
  4 36  1  0  0  0  0
  5 31  1  0  0  0  0
  5  6  1  0  0  0  0
  5 27  1  0  0  0  0
  6  7  1  0  0  0  0
  6 37  1  0  0  0  0
  6 38  1  0  0  0  0
  7  8  1  0  0  0  0
  7  9  1  0  0  0  0
  8 39  1  0  0  0  0
  8 40  1  0  0  0  0
  8 41  1  0  0  0  0
  9 14  1  0  0  0  0
  9 10  2  0  0  0  0
 10 11  1  0  0  0  0
 11 12  2  0  0  0  0
 11 42  1  0  0  0  0
 12 13  1  0  0  0  0
 13 17  1  0  0  0  0
 13 14  2  0  0  0  0
 14 15  1  0  0  0  0
 15 16  2  0  0  0  0
 16 17  1  0  0  0  0
 16 43  1  0  0  0  0
 17 18  1  0  0  0  0
 18 19  1  0  0  0  0
 18 44  1  0  0  0  0
 18 45  1  0  0  0  0
 19 20  1  0  0  0  0
 19 22  1  0  0  0  0
 19 46  1  0  0  0  0
 20 21  1  0  0  0  0
 20 47  1  0  0  0  0
 20 48  1  0  0  0  0
 21 49  1  0  0  0  0
 22 26  1  0  0  0  0
 22 23  1  0  0  0  0
 22 50  1  0  0  0  0
 23 24  1  0  0  0  0
 23 51  1  0  0  0  0
 23 52  1  0  0  0  0
 24 25  1  0  0  0  0
 24 53  1  0  0  0  0
 24 54  1  0  0  0  0
 25 26  1  0  0  0  0
 26 55  1  0  0  0  0
 26 56  1  0  0  0  0
 27 28  1  0  0  0  0
 27 29  1  0  0  0  0
 27 62  1  0  0  0  0
 28 57  1  0  0  0  0
 28 58  1  0  0  0  0
 28 59  1  0  0  0  0
 29 60  1  0  0  0  0
 29 61  1  0  0  0  0
M  CHG  1  27   1
M  END
> <s_m_source_file>
AV-unprocessed.smi

> <i_m_source_file_index>
21

> <i_lp_mmshare_version>
43012

> <i_f3d_flags>
0

> <s_epik_input>
W0NIM11PW0NASF0xW0NIMl1bQ0BIXShOKFtDSDNdKVtDSDJdMSlbQ0gyXU4oW0NIM10pYyhuW2NIXW4yKWMoYzIzKW5bY0hdbjNbQ0gyXVtDQEhdKFtDSDJdW09IXSlbQ0BASF00W0NIMl1bQ0gyXU9bQ0gyXTQ=

> <s_epik_cmdline>
J2VwaWtfcHl0aG9uJywgJy1waCcsICc3LjAnLCAnLXRuJywgJzgnLCAnLW1hJywgJzIwMCcsICctbWV0YWxfYmluZGluZycsICctaW1hZScsICc8aW5maWxlLm1hZT4nLCAnLW9tYWUnLCAnPG91dGZpbGUubWFlPic=

> <r_lp_tautomer_probability>
1

> <r_epik_Ionization_Penalty>
0.0157465

> <r_epik_Ionization_Penalty_Charging>
0.015354

> <r_epik_Ionization_Penalty_Neutral>
0.000392529

> <r_epik_State_Penalty>
0.0120612

> <r_epik_Charging_Adjusted_Penalty>
0.0274152

> <i_epik_Tot_Q>
1

> <i_epik_Tot_abs_Q>
1

> <r_epik_Metal_State_Penalty>
0.0121253

> <b_epik_Metal_Only>
0

> <s_lp_Force_Field>
OPLS_2005

> <r_lp_Energy>
57.9391

> <b_lp_Chiralities_Consistent>
1

> <s_lp_Variant>
AV-unprocessed.smi:21-27

> <Gold.Version>
5.8.1

> <Gold.Id.Protein>
6NUR|6NUR_protein|mol2

> <Gold.PLP.Fitness>
43.7002

> <Gold.PLP.PLP>
-37.9046

> <Gold.PLP.part.hbond>
-2.0000

> <Gold.PLP.part.metal>
0.0000

> <Gold.PLP.part.buried>
-6.1876

> <Gold.PLP.part.nonpolar>
-30.9173

> <Gold.PLP.part.repulsive>
0.5788

> <Gold.PLP.ligand.clash>
0.0000

> <Gold.PLP.ligand.torsion>
0.5559

> <Gold.PLP.Chemscore.Hbond>
2.0000

> <Gold.PLP.Chemscore.CHOScore>
0.0000

> <Gold.PLP.Chemscore.Metal>
0.0000

> <Gold.Chemscore.Hbonds>
donor molecule, donor type, donor heavy atom, donor atom, acceptor molecule, acceptor atom, score
      L1  H    21    49       P1 10957  1.00
      P1  H 10752 10765       L1    10  0.09
      L1  C    11    42       P1  7949  0.09

> <Gold.PLP.Chemscore.Internal.Correction>
0.9074

> <Gold.Rescore>
     Score         DG    S(hbond)    S(metal)    S(lipo)     H(rot)  DE(clash)    DE(int)     intcor
      9.97     -13.14       1.88        0.00      79.19       3.08       0.07       3.10       ----

> <Gold.Chemscore.Fitness>
9.9673

> <Gold.Chemscore.DG>
-13.1391

> <Gold.Chemscore.ZeroCoef>
-5.4800

> <Gold.Chemscore.Hbond>
1.8767

> <Gold.Chemscore.Metal>
0.0000

> <Gold.Chemscore.Lipo>
79.1891

> <Gold.Chemscore.Internal_Hbond>
0.0000

> <Gold.Chemscore.DEClash>
0.0723

> <Gold.Chemscore.DEInternal>
3.0995

> <Gold.Chemscore.Rot>
3.0758

> <Gold.Chemscore.Internal.Correction>
   9.000000E+99

> <Gold.Chemscore.Hbonds>
donor molecule, donor type, donor heavy atom, donor atom, acceptor molecule, acceptor atom, score
      L1  H    21    49       P1 10957  1.00
      P1  H 10752 10765       L1    10  0.01

> <Gold.Chemscore.Hbond.Weighted>
-6.2681

> <Gold.Chemscore.Metal.Weighted>
-0.0000

> <Gold.Chemscore.Lipo.Weighted>
-9.2651

> <Gold.Chemscore.Internal_Hbond.Weighted>
0.0000

> <Gold.Chemscore.DEClash.Weighted>
0.0723

> <Gold.Chemscore.DEInternal.Weighted>
3.0995

> <Gold.Chemscore.Rot.Weighted>
7.8741

> <Gold.Chemscore.Internal.Correction.Weighted>
   9.000000E+99

> <Gold.Protein.RotatedTorsions>
[ 6907 6896 6895 6894 ] final    7.86 input  -60.11 | X-H torsion
[ 7974 7965 7964 7962 ] final   83.12 input  175.53 | X-H torsion
[ 8008 7997 7996 7995 ] final   70.02 input   59.86 | X-H torsion
[ 10167 10162 10161 10158 ] final  133.68 input  -65.29 | X-H torsion
[ 10718 10713 10712 10709 ] final -113.51 input   66.30 | X-H torsion
[ 10763 10752 10751 10750 ] final  174.30 input  -60.55 | X-H torsion
[ 11005 11000 10999 10996 ] final  -87.39 input  -57.11 | X-H torsion

> <Gold.Protein.ActiveResidues>
 VAL166  LYS551  ARG553  GLY616  TRP617  ASP618  TYR619  PRO620  LYS621  CYS622 
 ASP623  PHE694  ASN695  SER759  ASP760  ASP761  ALA762  ILE779  LEU786  VAL792 
 PHE793  MET794  SER795  GLU796  ALA797  LYS798  CYS799  TRP800  GLU811  SER814 

> <Gold.Protein.RotatedAtoms>
  151.6967  135.0937  160.0243 H   0  0  0  0  0  0  0  0  0  0  0  0  # atno 6907 bound_to 6896
  152.3745  133.6459  159.6121 H   0  0  0  0  0  0  0  0  0  0  0  0  # atno 6908 bound_to 6896
  150.7699  133.9131  159.3417 H   0  0  0  0  0  0  0  0  0  0  0  0  # atno 6909 bound_to 6896
  145.6161  139.2377  143.2165 H   0  0  0  0  0  0  0  0  0  0  0  0  # atno 7974 bound_to 7965
  155.7325  140.3491  155.5066 H   0  0  0  0  0  0  0  0  0  0  0  0  # atno 8008 bound_to 7997
  155.9169  140.1060  157.1258 H   0  0  0  0  0  0  0  0  0  0  0  0  # atno 8009 bound_to 7997
  154.4064  140.1257  156.4616 H   0  0  0  0  0  0  0  0  0  0  0  0  # atno 8010 bound_to 7997
  139.5287  144.6604  151.5030 H   0  0  0  0  0  0  0  0  0  0  0  0  # atno 10167 bound_to 10162
  156.0771  130.5977  150.8652 H   0  0  0  0  0  0  0  0  0  0  0  0  # atno 10718 bound_to 10713
  154.4520  135.2765  155.1774 H   0  0  0  0  0  0  0  0  0  0  0  0  # atno 10763 bound_to 10752
  154.3598  135.6132  153.5688 H   0  0  0  0  0  0  0  0  0  0  0  0  # atno 10764 bound_to 10752
  152.9848  135.5831  154.4866 H   0  0  0  0  0  0  0  0  0  0  0  0  # atno 10765 bound_to 10752
  141.1617  133.7509  156.9300 H   0  0  0  0  0  0  0  0  0  0  0  0  # atno 11005 bound_to 11000
  146.1467  140.6983  142.9341 LP  0  0  0  0  0  0  0  0  0  0  0  0  # atno 17320 bound_to 7965
  144.7250  140.4495  143.6980 LP  0  0  0  0  0  0  0  0  0  0  0  0  # atno 17321 bound_to 7965
  140.6450  143.8813  150.6728 LP  0  0  0  0  0  0  0  0  0  0  0  0  # atno 17342 bound_to 10162
  140.2159  143.3846  152.1681 LP  0  0  0  0  0  0  0  0  0  0  0  0  # atno 17343 bound_to 10162
  157.5872  131.0945  150.9178 LP  0  0  0  0  0  0  0  0  0  0  0  0  # atno 17370 bound_to 10713
  156.9361  130.5367  149.5279 LP  0  0  0  0  0  0  0  0  0  0  0  0  # atno 17371 bound_to 10713
  140.1393  134.9304  157.2445 LP  0  0  0  0  0  0  0  0  0  0  0  0  # atno 17394 bound_to 11000
  140.2856  134.3299  155.7330 LP  0  0  0  0  0  0  0  0  0  0  0  0  # atno 17395 bound_to 11000

$$$$
