AV-unprocessed.smi:2391|AV-procd|sdf|9486|dock2
  -GOLD-   2272013113D 1   1.00000     0.00000
 Structure written by MMmdl.
 34 35  0  0  0  0  0  0  0  0  2 V2000
  149.7291  141.0798  158.2299 O   0  0  0  0  0  0  0  0  0  0  0  0
  150.5158  141.5469  157.4035 C   0  0  0  0  0  0  0  0  0  0  0  0
  151.2939  142.6418  157.5698 N   0  5  0  0  0  0  0  0  0  0  0  0
  151.4888  143.1560  158.7935 C   0  0  0  0  0  0  0  0  0  0  0  0
  151.8056  144.5237  158.9521 C   0  0  0  0  0  0  0  0  0  0  0  0
  152.0132  145.0166  160.2513 C   0  0  0  0  0  0  0  0  0  0  0  0
  151.8946  144.1022  161.3111 C   0  0  0  0  0  0  0  0  0  0  0  0
  151.5964  142.7999  161.1151 N   0  0  0  0  0  0  0  0  0  0  0  0
  151.4009  142.3396  159.8743 N   0  0  0  0  0  0  0  0  0  0  0  0
  150.6546  140.9684  156.2015 N   0  0  0  0  0  0  0  0  0  0  0  0
  149.9599  139.7748  155.7116 C   0  0  1  0  0  0  0  0  0  0  0  0
  149.1753  140.1230  154.4193 C   0  0  0  0  0  0  0  0  0  0  0  0
  148.3847  141.4360  154.4907 C   0  0  0  0  0  0  0  0  0  0  0  0
  147.3840  141.3588  153.3359 C   0  0  0  0  0  0  0  0  0  0  0  0
  147.1319  139.8645  153.0951 C   0  0  0  0  0  0  0  0  0  0  0  0
  148.0959  139.1087  154.0186 C   0  0  0  0  0  0  0  0  0  0  0  0
  150.9956  138.6421  155.5273 C   0  0  0  0  0  0  0  0  0  0  0  0
  151.9105  139.0062  154.6277 F   0  0  0  0  0  0  0  0  0  0  0  0
  151.6326  138.3860  156.6693 F   0  0  0  0  0  0  0  0  0  0  0  0
  150.4025  137.5248  155.1046 F   0  0  0  0  0  0  0  0  0  0  0  0
  151.8846  145.1799  158.0975 H   0  0  0  0  0  0  0  0  0  0  0  0
  152.2541  146.0543  160.4278 H   0  0  0  0  0  0  0  0  0  0  0  0
  152.0428  144.4181  162.3331 H   0  0  0  0  0  0  0  0  0  0  0  0
  151.3145  141.3925  155.5662 H   0  0  0  0  0  0  0  0  0  0  0  0
  149.2440  139.4347  156.4617 H   0  0  0  0  0  0  0  0  0  0  0  0
  149.8815  140.2080  153.5915 H   0  0  0  0  0  0  0  0  0  0  0  0
  147.8452  141.4927  155.4373 H   0  0  0  0  0  0  0  0  0  0  0  0
  149.0230  142.3175  154.4222 H   0  0  0  0  0  0  0  0  0  0  0  0
  146.4659  141.9030  153.5581 H   0  0  0  0  0  0  0  0  0  0  0  0
  147.8198  141.8041  152.4409 H   0  0  0  0  0  0  0  0  0  0  0  0
  146.0971  139.5920  153.3047 H   0  0  0  0  0  0  0  0  0  0  0  0
  147.3288  139.6177  152.0512 H   0  0  0  0  0  0  0  0  0  0  0  0
  148.5117  138.2264  153.5314 H   0  0  0  0  0  0  0  0  0  0  0  0
  147.5561  138.7727  154.9051 H   0  0  0  0  0  0  0  0  0  0  0  0
  1  2  2  0  0  0  0
  2  3  1  0  0  0  0
  2 10  1  0  0  0  0
  3  4  1  0  0  0  0
  4  9  1  0  0  0  0
  4  5  2  0  0  0  0
  5  6  1  0  0  0  0
  5 21  1  0  0  0  0
  6  7  2  0  0  0  0
  6 22  1  0  0  0  0
  7  8  1  0  0  0  0
  7 23  1  0  0  0  0
  8  9  2  0  0  0  0
 10 11  1  0  0  0  0
 10 24  1  0  0  0  0
 11 12  1  0  0  0  0
 11 17  1  0  0  0  0
 11 25  1  0  0  0  0
 12 16  1  0  0  0  0
 12 13  1  0  0  0  0
 12 26  1  0  0  0  0
 13 14  1  0  0  0  0
 13 27  1  0  0  0  0
 13 28  1  0  0  0  0
 14 15  1  0  0  0  0
 14 29  1  0  0  0  0
 14 30  1  0  0  0  0
 15 16  1  0  0  0  0
 15 31  1  0  0  0  0
 15 32  1  0  0  0  0
 16 33  1  0  0  0  0
 16 34  1  0  0  0  0
 17 18  1  0  0  0  0
 17 19  1  0  0  0  0
 17 20  1  0  0  0  0
M  CHG  1   3  -1
M  END
> <s_m_source_file>
AV-unprocessed.smi

> <i_m_source_file_index>
2391

> <i_lp_mmshare_version>
43012

> <i_f3d_flags>
0

> <s_epik_input>
W0NIMl0xW0NIMl1bQ0gyXVtDSDJdW0NIXTFbQ0BIXShDKEYpKEYpRilbTkhdQyg9TylbTkhdYzJbY0hdW2NIXVtjSF1ubjI=

> <s_epik_cmdline>
J2VwaWtfcHl0aG9uJywgJy1waCcsICc3LjAnLCAnLXRuJywgJzgnLCAnLW1hJywgJzIwMCcsICctbWV0YWxfYmluZGluZycsICctaW1hZScsICc8aW5maWxlLm1hZT4nLCAnLW9tYWUnLCAnPG91dGZpbGUubWFlPic=

> <r_lp_tautomer_probability>
1

> <r_epik_Ionization_Penalty>
8.90766

> <r_epik_Ionization_Penalty_Charging>
5.82661

> <r_epik_Ionization_Penalty_Neutral>
3.08106

> <r_epik_State_Penalty>
5.83894

> <r_epik_Charging_Adjusted_Penalty>
11.6655

> <i_epik_Tot_Q>
-1

> <i_epik_Tot_abs_Q>
1

> <r_epik_Metal_State_Penalty>
1.80768

> <b_epik_Metal_Only>
1

> <s_lp_Force_Field>
OPLS_2005

> <r_lp_Energy>
28.2955

> <b_lp_Chiralities_Consistent>
1

> <s_lp_Variant>
AV-unprocessed.smi:2391-6

> <Gold.Version>
5.8.1

> <Gold.Id.Protein>
6NUR|6NUR_protein|mol2

> <Gold.PLP.Fitness>
39.2049

> <Gold.PLP.PLP>
-38.9781

> <Gold.PLP.part.hbond>
-1.9746

> <Gold.PLP.part.metal>
0.0000

> <Gold.PLP.part.buried>
-5.8893

> <Gold.PLP.part.nonpolar>
-31.9373

> <Gold.PLP.part.repulsive>
0.3042

> <Gold.PLP.ligand.clash>
0.0000

> <Gold.PLP.ligand.torsion>
0.4415

> <Gold.PLP.Chemscore.Hbond>
0.2371

> <Gold.PLP.Chemscore.CHOScore>
0.0000

> <Gold.PLP.Chemscore.Metal>
0.0000

> <Gold.Chemscore.Hbonds>
donor molecule, donor type, donor heavy atom, donor atom, acceptor molecule, acceptor atom, score
      P1  H  6933  6945       L1     8  0.25

> <Gold.PLP.Chemscore.Internal.Correction>
0.3983

> <Gold.Rescore>
     Score         DG    S(hbond)    S(metal)    S(lipo)     H(rot)  DE(clash)    DE(int)     intcor
      9.24     -11.41       0.02        0.00      78.88       1.32       0.01       2.17       ----

> <Gold.Chemscore.Fitness>
9.2359

> <Gold.Chemscore.DG>
-11.4122

> <Gold.Chemscore.ZeroCoef>
-5.4800

> <Gold.Chemscore.Hbond>
0.0230

> <Gold.Chemscore.Metal>
0.0000

> <Gold.Chemscore.Lipo>
78.8795

> <Gold.Chemscore.Internal_Hbond>
0.0000

> <Gold.Chemscore.DEClash>
0.0081

> <Gold.Chemscore.DEInternal>
2.1682

> <Gold.Chemscore.Rot>
1.3179

> <Gold.Chemscore.Internal.Correction>
   9.000000E+99

> <Gold.Chemscore.Hbonds>
donor molecule, donor type, donor heavy atom, donor atom, acceptor molecule, acceptor atom, score
      P1  H  6933  6945       L1     8  0.08

> <Gold.Chemscore.Hbond.Weighted>
-0.0770

> <Gold.Chemscore.Metal.Weighted>
-0.0000

> <Gold.Chemscore.Lipo.Weighted>
-9.2289

> <Gold.Chemscore.Internal_Hbond.Weighted>
0.0000

> <Gold.Chemscore.DEClash.Weighted>
0.0081

> <Gold.Chemscore.DEInternal.Weighted>
2.1682

> <Gold.Chemscore.Rot.Weighted>
3.3737

> <Gold.Chemscore.Internal.Correction.Weighted>
   9.000000E+99

> <Gold.Protein.RotatedTorsions>
[ 6907 6896 6895 6894 ] final  -92.89 input  -60.11 | X-H torsion
[ 7974 7965 7964 7962 ] final  -44.17 input  175.53 | X-H torsion
[ 8008 7997 7996 7995 ] final  146.91 input   59.86 | X-H torsion
[ 10167 10162 10161 10158 ] final   -8.78 input  -65.29 | X-H torsion
[ 10718 10713 10712 10709 ] final -144.37 input   66.30 | X-H torsion
[ 10763 10752 10751 10750 ] final  109.64 input  -60.55 | X-H torsion
[ 11005 11000 10999 10996 ] final -147.11 input  -57.11 | X-H torsion

> <Gold.Protein.ActiveResidues>
 VAL166  LYS551  ARG553  GLY616  TRP617  ASP618  TYR619  PRO620  LYS621  CYS622 
 ASP623  PHE694  ASN695  SER759  ASP760  ASP761  ALA762  ILE779  LEU786  VAL792 
 PHE793  MET794  SER795  GLU796  ALA797  LYS798  CYS799  TRP800  GLU811  SER814 

> <Gold.Protein.RotatedAtoms>
  150.6913  134.2053  159.4337 H   0  0  0  0  0  0  0  0  0  0  0  0  # atno 6907 bound_to 6896
  152.0017  134.9922  160.0574 H   0  0  0  0  0  0  0  0  0  0  0  0  # atno 6908 bound_to 6896
  152.1572  133.4524  159.4880 H   0  0  0  0  0  0  0  0  0  0  0  0  # atno 6909 bound_to 6896
  145.9947  140.7142  142.9300 H   0  0  0  0  0  0  0  0  0  0  0  0  # atno 7974 bound_to 7965
  156.2841  140.2170  156.5452 H   0  0  0  0  0  0  0  0  0  0  0  0  # atno 8008 bound_to 7997
  154.7336  140.0493  157.0771 H   0  0  0  0  0  0  0  0  0  0  0  0  # atno 8009 bound_to 7997
  155.0321  140.3136  155.4758 H   0  0  0  0  0  0  0  0  0  0  0  0  # atno 8010 bound_to 7997
  140.7069  143.5931  150.8874 H   0  0  0  0  0  0  0  0  0  0  0  0  # atno 10167 bound_to 10162
  156.3692  130.7779  151.1957 H   0  0  0  0  0  0  0  0  0  0  0  0  # atno 10718 bound_to 10713
  153.4376  135.3773  155.2208 H   0  0  0  0  0  0  0  0  0  0  0  0  # atno 10763 bound_to 10752
  154.8752  135.3855  154.4192 H   0  0  0  0  0  0  0  0  0  0  0  0  # atno 10764 bound_to 10752
  153.4733  135.7087  153.6044 H   0  0  0  0  0  0  0  0  0  0  0  0  # atno 10765 bound_to 10752
  140.7750  134.3145  157.5063 H   0  0  0  0  0  0  0  0  0  0  0  0  # atno 11005 bound_to 11000
  144.6900  140.3130  143.7245 LP  0  0  0  0  0  0  0  0  0  0  0  0  # atno 17320 bound_to 7965
  145.7578  139.1814  143.2284 LP  0  0  0  0  0  0  0  0  0  0  0  0  # atno 17321 bound_to 7965
  139.9656  143.6114  152.2989 LP  0  0  0  0  0  0  0  0  0  0  0  0  # atno 17342 bound_to 10162
  139.6683  144.7661  151.1832 LP  0  0  0  0  0  0  0  0  0  0  0  0  # atno 17343 bound_to 10162
  157.7482  131.0377  150.4468 LP  0  0  0  0  0  0  0  0  0  0  0  0  # atno 17370 bound_to 10713
  156.4693  130.4049  149.6528 LP  0  0  0  0  0  0  0  0  0  0  0  0  # atno 17371 bound_to 10713
  139.8750  134.9284  156.3449 LP  0  0  0  0  0  0  0  0  0  0  0  0  # atno 17394 bound_to 11000
  140.9537  133.7434  156.0307 LP  0  0  0  0  0  0  0  0  0  0  0  0  # atno 17395 bound_to 11000

$$$$
