AV-unprocessed.smi:158|AV-procd|sdf|1338|dock4
  -GOLD-   2262019 33D 1   1.00000     0.00000
 Structure written by MMmdl.
 31 33  0  0  0  0  0  0  0  0  1 V2000
  149.8336  134.0899  155.0801 N   0  0  0  0  0  0  0  0  0  0  0  0
  149.5143  135.3917  155.1121 C   0  0  0  0  0  0  0  0  0  0  0  0
  148.2149  135.7402  154.9633 N   0  0  0  0  0  0  0  0  0  0  0  0
  147.8543  137.0291  154.9882 C   0  0  0  0  0  0  0  0  0  0  0  0
  146.1746  137.3628  154.7865 Cl  0  0  0  0  0  0  0  0  0  0  0  0
  148.6506  138.0903  155.1507 N   0  0  0  0  0  0  0  0  0  0  0  0
  149.9616  137.7449  155.3022 C   0  0  0  0  0  0  0  0  0  0  0  0
  150.4725  136.4191  155.2934 C   0  0  0  0  0  0  0  0  0  0  0  0
  151.8490  136.4406  155.4712 N   0  0  0  0  0  0  0  0  0  0  0  0
  152.1311  137.7115  155.5788 C   0  0  0  0  0  0  0  0  0  0  0  0
  151.0546  138.5676  155.4909 N   0  0  0  0  0  0  0  0  0  0  0  0
  151.0714  140.0632  155.5783 C   0  0  1  0  0  0  0  0  0  0  0  0
  150.4136  140.5660  154.4550 O   0  0  0  0  0  0  0  0  0  0  0  0
  149.4628  141.5519  154.8427 C   0  0  1  0  0  0  0  0  0  0  0  0
  148.3251  141.6009  153.8099 C   0  0  0  0  0  0  0  0  0  0  0  0
  148.0720  140.3126  153.2906 O   0  0  0  0  0  0  0  0  0  0  0  0
  149.0370  141.1304  156.2528 C   0  0  2  0  0  0  0  0  0  0  0  0
  148.5800  142.2288  157.0168 O   0  0  0  0  0  0  0  0  0  0  0  0
  150.3316  140.5803  156.8247 C   0  0  1  0  0  0  0  0  0  0  0  0
  150.1233  139.6138  157.7220 F   0  0  0  0  0  0  0  0  0  0  0  0
  152.1290  140.3291  155.5658 H   0  0  0  0  0  0  0  0  0  0  0  0
  149.9920  142.5064  154.8750 H   0  0  0  0  0  0  0  0  0  0  0  0
  148.2733  140.3534  156.2158 H   0  0  0  0  0  0  0  0  0  0  0  0
  150.9373  141.3604  157.2881 H   0  0  0  0  0  0  0  0  0  0  0  0
  150.7969  133.8064  155.1883 H   0  0  0  0  0  0  0  0  0  0  0  0
  149.1120  133.3957  154.9493 H   0  0  0  0  0  0  0  0  0  0  0  0
  153.1417  138.0622  155.7298 H   0  0  0  0  0  0  0  0  0  0  0  0
  147.4094  141.9591  154.2808 H   0  0  0  0  0  0  0  0  0  0  0  0
  148.5583  142.2888  152.9967 H   0  0  0  0  0  0  0  0  0  0  0  0
  148.6405  140.1706  152.5491 H   0  0  0  0  0  0  0  0  0  0  0  0
  148.6902  143.0174  156.5084 H   0  0  0  0  0  0  0  0  0  0  0  0
  1  2  1  0  0  0  0
  1 25  1  0  0  0  0
  1 26  1  0  0  0  0
  2  8  1  0  0  0  0
  2  3  2  0  0  0  0
  3  4  1  0  0  0  0
  4  5  1  0  0  0  0
  4  6  2  0  0  0  0
  6  7  1  0  0  0  0
  7 11  1  0  0  0  0
  7  8  2  0  0  0  0
  8  9  1  0  0  0  0
  9 10  2  0  0  0  0
 10 11  1  0  0  0  0
 10 27  1  0  0  0  0
 11 12  1  0  0  0  0
 12 21  1  0  0  0  0
 12 19  1  0  0  0  0
 12 13  1  0  0  0  0
 13 14  1  0  0  0  0
 14 22  1  0  0  0  0
 14 15  1  0  0  0  0
 14 17  1  0  0  0  0
 15 16  1  0  0  0  0
 15 28  1  0  0  0  0
 15 29  1  0  0  0  0
 16 30  1  0  0  0  0
 17 23  1  0  0  0  0
 17 18  1  0  0  0  0
 17 19  1  0  0  0  0
 18 31  1  0  0  0  0
 19 24  1  0  0  0  0
 19 20  1  0  0  0  0
M  END
> <s_m_source_file>
AV-unprocessed.smi

> <i_m_source_file_index>
158

> <i_lp_mmshare_version>
43012

> <i_f3d_flags>
0

> <s_epik_input>
Q2xjKG4xKW5jKFtOSDJdKWMoYzEyKW5bY0hdbjJbQ0BASF0zT1tDQEhdKFtDSDJdW09IXSlbQ0BASF0oW09IXSlbQ0BASF0zRg==

> <s_epik_cmdline>
J2VwaWtfcHl0aG9uJywgJy1waCcsICc3LjAnLCAnLXRuJywgJzgnLCAnLW1hJywgJzIwMCcsICctbWV0YWxfYmluZGluZycsICctaW1hZScsICc8aW5maWxlLm1hZT4nLCAnLW9tYWUnLCAnPG91dGZpbGUubWFlPic=

> <r_lp_tautomer_probability>
1

> <r_epik_Ionization_Penalty>
6.51543e-05

> <r_epik_Ionization_Penalty_Charging>
0

> <r_epik_Ionization_Penalty_Neutral>
6.51543e-05

> <r_epik_State_Penalty>
-0

> <r_epik_Charging_Adjusted_Penalty>
0

> <i_epik_Tot_Q>
0

> <i_epik_Tot_abs_Q>
0

> <r_epik_Metal_State_Penalty>
-0

> <b_epik_Metal_Only>
0

> <s_epik_Chemistry_Notes>
This compound contains an acetal/aminal-like group ( X-CH(R)-Y where X, Y are N, S, or O) that may be acid/base labile, releasing an aldehyde.

> <s_lp_Force_Field>
OPLS_2005

> <r_lp_Energy>
35.9184

> <b_lp_Chiralities_Consistent>
1

> <s_lp_Variant>
AV-unprocessed.smi:158-16

> <Gold.Version>
5.8.1

> <Gold.Id.Protein>
6NUR|6NUR_protein|mol2

> <Gold.PLP.Fitness>
36.2592

> <Gold.PLP.PLP>
-25.1145

> <Gold.PLP.part.hbond>
-3.8220

> <Gold.PLP.part.metal>
0.0000

> <Gold.PLP.part.buried>
-2.6426

> <Gold.PLP.part.nonpolar>
-18.4697

> <Gold.PLP.part.repulsive>
0.4300

> <Gold.PLP.ligand.clash>
0.0000

> <Gold.PLP.ligand.torsion>
0.3482

> <Gold.PLP.Chemscore.Hbond>
3.9360

> <Gold.PLP.Chemscore.CHOScore>
0.0000

> <Gold.PLP.Chemscore.Metal>
0.0000

> <Gold.Chemscore.Hbonds>
donor molecule, donor type, donor heavy atom, donor atom, acceptor molecule, acceptor atom, score
      L1  H    16    30       P1  7957  1.00
      L1  H    18    31       P1  8028  1.00
      P1  H  7989  7998       L1    13  0.93
      P1  H 10752 10765       L1     9  1.00

> <Gold.PLP.Chemscore.Internal.Correction>
0.0331

> <Gold.Rescore>
     Score         DG    S(hbond)    S(metal)    S(lipo)     H(rot)  DE(clash)    DE(int)     intcor
     10.15     -11.62       3.18        0.00      30.13       3.12       0.38       1.09       ----

> <Gold.Chemscore.Fitness>
10.1541

> <Gold.Chemscore.DG>
-11.6208

> <Gold.Chemscore.ZeroCoef>
-5.4800

> <Gold.Chemscore.Hbond>
3.1769

> <Gold.Chemscore.Metal>
0.0000

> <Gold.Chemscore.Lipo>
30.1285

> <Gold.Chemscore.Internal_Hbond>
0.0000

> <Gold.Chemscore.DEClash>
0.3752

> <Gold.Chemscore.DEInternal>
1.0915

> <Gold.Chemscore.Rot>
3.1230

> <Gold.Chemscore.Internal.Correction>
   9.000000E+99

> <Gold.Chemscore.Hbonds>
donor molecule, donor type, donor heavy atom, donor atom, acceptor molecule, acceptor atom, score
      L1  H    16    30       P1  7957  1.00
      L1  H    18    31       P1  8028  0.92
      P1  H  7989  7998       L1    13  0.30
      P1  H 10752 10765       L1     9  0.81

> <Gold.Chemscore.Hbond.Weighted>
-10.6107

> <Gold.Chemscore.Metal.Weighted>
-0.0000

> <Gold.Chemscore.Lipo.Weighted>
-3.5250

> <Gold.Chemscore.Internal_Hbond.Weighted>
0.0000

> <Gold.Chemscore.DEClash.Weighted>
0.3752

> <Gold.Chemscore.DEInternal.Weighted>
1.0915

> <Gold.Chemscore.Rot.Weighted>
7.9950

> <Gold.Chemscore.Internal.Correction.Weighted>
   9.000000E+99

> <Gold.Protein.RotatedTorsions>
[ 6907 6896 6895 6894 ] final  100.49 input  -60.11 | X-H torsion
[ 7974 7965 7964 7962 ] final  -43.52 input  175.53 | X-H torsion
[ 8008 7997 7996 7995 ] final   89.47 input   59.86 | X-H torsion
[ 10167 10162 10161 10158 ] final  103.34 input  -65.29 | X-H torsion
[ 10718 10713 10712 10709 ] final   38.21 input   66.30 | X-H torsion
[ 10763 10752 10751 10750 ] final  174.33 input  -60.55 | X-H torsion
[ 11005 11000 10999 10996 ] final  135.64 input  -57.11 | X-H torsion

> <Gold.Protein.ActiveResidues>
 VAL166  LYS551  ARG553  GLY616  TRP617  ASP618  TYR619  PRO620  LYS621  CYS622 
 ASP623  PHE694  ASN695  SER759  ASP760  ASP761  ALA762  ILE779  LEU786  VAL792 
 PHE793  MET794  SER795  GLU796  ALA797  LYS798  CYS799  TRP800  GLU811  SER814 

> <Gold.Protein.RotatedAtoms>
  152.5371  134.0268  159.8006 H   0  0  0  0  0  0  0  0  0  0  0  0  # atno 6907 bound_to 6896
  151.0446  133.5669  159.2655 H   0  0  0  0  0  0  0  0  0  0  0  0  # atno 6908 bound_to 6896
  151.2626  135.0666  159.9157 H   0  0  0  0  0  0  0  0  0  0  0  0  # atno 6909 bound_to 6896
  146.0011  140.7073  142.9270 H   0  0  0  0  0  0  0  0  0  0  0  0  # atno 7974 bound_to 7965
  156.0004  140.3360  155.6840 H   0  0  0  0  0  0  0  0  0  0  0  0  # atno 8008 bound_to 7997
  155.6298  140.0684  157.2670 H   0  0  0  0  0  0  0  0  0  0  0  0  # atno 8009 bound_to 7997
  154.4247  140.1761  156.1448 H   0  0  0  0  0  0  0  0  0  0  0  0  # atno 8010 bound_to 7997
  139.7272  144.7045  151.0780 H   0  0  0  0  0  0  0  0  0  0  0  0  # atno 10167 bound_to 10162
  157.3561  130.7624  149.7013 H   0  0  0  0  0  0  0  0  0  0  0  0  # atno 10718 bound_to 10713
  154.4524  135.2765  155.1771 H   0  0  0  0  0  0  0  0  0  0  0  0  # atno 10763 bound_to 10752
  154.3593  135.6133  153.5686 H   0  0  0  0  0  0  0  0  0  0  0  0  # atno 10764 bound_to 10752
  152.9848  135.5830  154.4871 H   0  0  0  0  0  0  0  0  0  0  0  0  # atno 10765 bound_to 10752
  139.9993  134.9485  157.0036 H   0  0  0  0  0  0  0  0  0  0  0  0  # atno 11005 bound_to 11000
  144.6920  140.3235  143.7228 LP  0  0  0  0  0  0  0  0  0  0  0  0  # atno 17320 bound_to 7965
  145.7486  139.1786  143.2335 LP  0  0  0  0  0  0  0  0  0  0  0  0  # atno 17321 bound_to 7965
  140.7765  143.5090  150.9676 LP  0  0  0  0  0  0  0  0  0  0  0  0  # atno 17342 bound_to 10162
  139.8778  143.7110  152.3160 LP  0  0  0  0  0  0  0  0  0  0  0  0  # atno 17343 bound_to 10162
  155.9729  130.4127  150.4044 LP  0  0  0  0  0  0  0  0  0  0  0  0  # atno 17370 bound_to 10713
  157.2114  131.0461  151.2597 LP  0  0  0  0  0  0  0  0  0  0  0  0  # atno 17371 bound_to 10713
  140.4758  134.1340  155.7209 LP  0  0  0  0  0  0  0  0  0  0  0  0  # atno 17394 bound_to 11000
  141.1629  133.8758  157.1797 LP  0  0  0  0  0  0  0  0  0  0  0  0  # atno 17395 bound_to 11000

$$$$
