AV-unprocessed.smi:652|AV-procd|sdf|3192|dock6
  -GOLD-   22720 0113D 1   1.00000     0.00000
 Structure written by MMmdl.
 48 49  0  0  0  0  0  0  0  0  2 V2000
  150.9570  140.7036  157.3239 C   0  0  0  0  0  0  0  0  0  0  0  0
  150.8409  142.0162  156.5378 C   0  0  0  0  0  0  0  0  0  0  0  0
  150.8406  143.2390  157.4686 C   0  0  0  0  0  0  0  0  0  0  0  0
  149.6261  141.9913  155.7277 N   0  0  0  0  0  0  0  0  0  0  0  0
  149.2900  141.0260  154.8572 C   0  0  0  0  0  0  0  0  0  0  0  0
  149.9950  140.0426  154.6311 O   0  0  0  0  0  0  0  0  0  0  0  0
  147.9569  141.2018  154.1252 C   0  0  0  0  0  0  0  0  0  0  0  0
  146.8770  140.2212  154.6275 C   0  0  0  0  0  0  0  0  0  0  0  0
  146.2449  139.4525  153.5258 N   0  3  1  0  0  0  0  0  0  0  0  0
  147.1855  139.1953  152.4091 C   0  0  0  0  0  0  0  0  0  0  0  0
  146.4820  138.4326  151.2748 C   0  0  0  0  0  0  0  0  0  0  0  0
  145.9325  137.2246  151.7847 O   0  0  0  0  0  0  0  0  0  0  0  0
  144.9465  137.4622  152.7840 C   0  0  1  0  0  0  0  0  0  0  0  0
  144.3526  136.1138  153.2133 C   0  0  0  0  0  0  0  0  0  0  0  0
  143.8815  135.3406  152.0722 N   0  0  0  0  0  0  0  0  0  0  0  0
  144.5572  134.1786  151.6756 C   0  0  0  0  0  0  0  0  0  0  0  0
  143.8709  133.2169  150.9076 C   0  0  0  0  0  0  0  0  0  0  0  0
  144.5751  132.0603  150.5302 C   0  0  0  0  0  0  0  0  0  0  0  0
  145.9133  131.9529  150.9507 C   0  0  0  0  0  0  0  0  0  0  0  0
  146.5233  132.9082  151.6878 N   0  0  0  0  0  0  0  0  0  0  0  0
  145.8518  134.0084  152.0458 N   0  0  0  0  0  0  0  0  0  0  0  0
  145.6146  138.1847  153.9701 C   0  0  0  0  0  0  0  0  0  0  0  0
  151.8729  140.6815  157.9153 H   0  0  0  0  0  0  0  0  0  0  0  0
  150.9794  139.8439  156.6531 H   0  0  0  0  0  0  0  0  0  0  0  0
  150.1174  140.5721  158.0075 H   0  0  0  0  0  0  0  0  0  0  0  0
  151.7085  142.0833  155.8788 H   0  0  0  0  0  0  0  0  0  0  0  0
  151.7507  143.2735  158.0682 H   0  0  0  0  0  0  0  0  0  0  0  0
  149.9923  143.2177  158.1535 H   0  0  0  0  0  0  0  0  0  0  0  0
  150.7880  144.1688  156.9013 H   0  0  0  0  0  0  0  0  0  0  0  0
  148.9895  142.7667  155.8439 H   0  0  0  0  0  0  0  0  0  0  0  0
  147.6209  142.2332  154.2340 H   0  0  0  0  0  0  0  0  0  0  0  0
  148.1377  141.0416  153.0617 H   0  0  0  0  0  0  0  0  0  0  0  0
  147.3365  139.5098  155.3159 H   0  0  0  0  0  0  0  0  0  0  0  0
  146.1110  140.7507  155.1966 H   0  0  0  0  0  0  0  0  0  0  0  0
  147.5771  140.1391  152.0276 H   0  0  0  0  0  0  0  0  0  0  0  0
  148.0369  138.6185  152.7744 H   0  0  0  0  0  0  0  0  0  0  0  0
  145.6987  139.0414  150.8207 H   0  0  0  0  0  0  0  0  0  0  0  0
  147.1949  138.1915  150.4860 H   0  0  0  0  0  0  0  0  0  0  0  0
  144.1517  138.0910  152.3776 H   0  0  0  0  0  0  0  0  0  0  0  0
  145.0906  135.5351  153.7707 H   0  0  0  0  0  0  0  0  0  0  0  0
  143.5094  136.2897  153.8825 H   0  0  0  0  0  0  0  0  0  0  0  0
  143.1594  135.7264  151.4809 H   0  0  0  0  0  0  0  0  0  0  0  0
  142.8403  133.3578  150.6163 H   0  0  0  0  0  0  0  0  0  0  0  0
  144.1086  131.2844  149.9415 H   0  0  0  0  0  0  0  0  0  0  0  0
  146.5053  131.0874  150.6929 H   0  0  0  0  0  0  0  0  0  0  0  0
  146.3696  137.5419  154.4260 H   0  0  0  0  0  0  0  0  0  0  0  0
  144.8623  138.3839  154.7322 H   0  0  0  0  0  0  0  0  0  0  0  0
  145.5095  140.0341  153.1500 H   0  0  0  0  0  0  0  0  0  0  0  0
  1  2  1  0  0  0  0
  1 23  1  0  0  0  0
  1 24  1  0  0  0  0
  1 25  1  0  0  0  0
  2  3  1  0  0  0  0
  2  4  1  0  0  0  0
  2 26  1  0  0  0  0
  3 27  1  0  0  0  0
  3 28  1  0  0  0  0
  3 29  1  0  0  0  0
  4  5  1  0  0  0  0
  4 30  1  0  0  0  0
  5  6  2  0  0  0  0
  5  7  1  0  0  0  0
  7  8  1  0  0  0  0
  7 31  1  0  0  0  0
  7 32  1  0  0  0  0
  8  9  1  0  0  0  0
  8 33  1  0  0  0  0
  8 34  1  0  0  0  0
  9 22  1  0  0  0  0
  9 10  1  0  0  0  0
  9 48  1  0  0  0  0
 10 11  1  0  0  0  0
 10 35  1  0  0  0  0
 10 36  1  0  0  0  0
 11 12  1  0  0  0  0
 11 37  1  0  0  0  0
 11 38  1  0  0  0  0
 12 13  1  0  0  0  0
 13 14  1  0  0  0  0
 13 22  1  0  0  0  0
 13 39  1  0  0  0  0
 14 15  1  0  0  0  0
 14 40  1  0  0  0  0
 14 41  1  0  0  0  0
 15 16  1  0  0  0  0
 15 42  1  0  0  0  0
 16 21  1  0  0  0  0
 16 17  2  0  0  0  0
 17 18  1  0  0  0  0
 17 43  1  0  0  0  0
 18 19  2  0  0  0  0
 18 44  1  0  0  0  0
 19 20  1  0  0  0  0
 19 45  1  0  0  0  0
 20 21  2  0  0  0  0
 22 46  1  0  0  0  0
 22 47  1  0  0  0  0
M  CHG  1   9   1
M  END
> <s_m_source_file>
AV-unprocessed.smi

> <i_m_source_file_index>
652

> <i_lp_mmshare_version>
43012

> <i_f3d_flags>
0

> <s_epik_input>
W0NIM11bQ0hdKFtDSDNdKVtOSF1DKD1PKVtDSDJdW0NIMl1OMVtDSDJdW0NIMl1PW0NASF0oW0NIMl0xKVtDSDJdW05IXWMyW2NIXVtjSF1bY0hdbm4y

> <s_epik_cmdline>
J2VwaWtfcHl0aG9uJywgJy1waCcsICc3LjAnLCAnLXRuJywgJzgnLCAnLW1hJywgJzIwMCcsICctbWV0YWxfYmluZGluZycsICctaW1hZScsICc8aW5maWxlLm1hZT4nLCAnLW9tYWUnLCAnPG91dGZpbGUubWFlPic=

> <r_lp_tautomer_probability>
0.999978

> <r_epik_Ionization_Penalty>
0.433079

> <r_epik_Ionization_Penalty_Charging>
0.413784

> <r_epik_Ionization_Penalty_Neutral>
0.0192945

> <r_epik_State_Penalty>
0.425138

> <r_epik_Charging_Adjusted_Penalty>
0.838922

> <i_epik_Tot_Q>
1

> <i_epik_Tot_abs_Q>
1

> <r_epik_Metal_State_Penalty>
0.422073

> <b_epik_Metal_Only>
0

> <s_lp_Force_Field>
OPLS_2005

> <r_lp_Energy>
21.6039

> <b_lp_Chiralities_Consistent>
1

> <s_lp_Variant>
AV-unprocessed.smi:652-1

> <Gold.Version>
5.8.1

> <Gold.Id.Protein>
6NUR|6NUR_protein|mol2

> <Gold.PLP.Fitness>
48.2131

> <Gold.PLP.PLP>
-35.3907

> <Gold.PLP.part.hbond>
-3.0000

> <Gold.PLP.part.metal>
0.0000

> <Gold.PLP.part.buried>
-0.9461

> <Gold.PLP.part.nonpolar>
-33.0364

> <Gold.PLP.part.repulsive>
1.1354

> <Gold.PLP.ligand.clash>
0.0000

> <Gold.PLP.ligand.torsion>
0.9840

> <Gold.PLP.Chemscore.Hbond>
3.8960

> <Gold.PLP.Chemscore.CHOScore>
1.0000

> <Gold.PLP.Chemscore.Metal>
0.0000

> <Gold.Chemscore.Hbonds>
donor molecule, donor type, donor heavy atom, donor atom, acceptor molecule, acceptor atom, score
      L1  H     4    30       P1  8028  0.85
      L1  H     9    48       P1 10175  2.00
      P1  H  7989  7998       L1     6  0.70
      L1  C    19    45       P1 10747  1.00

> <Gold.PLP.Chemscore.Internal.Correction>
0.1024

> <Gold.Rescore>
     Score         DG    S(hbond)    S(metal)    S(lipo)     H(rot)  DE(clash)    DE(int)     intcor
     13.83     -18.91       2.50        0.00      92.87       2.26       3.96       1.13       ----

> <Gold.Chemscore.Fitness>
13.8266

> <Gold.Chemscore.DG>
-18.9096

> <Gold.Chemscore.ZeroCoef>
-5.4800

> <Gold.Chemscore.Hbond>
2.4994

> <Gold.Chemscore.Metal>
0.0000

> <Gold.Chemscore.Lipo>
92.8689

> <Gold.Chemscore.Internal_Hbond>
0.0000

> <Gold.Chemscore.DEClash>
3.9563

> <Gold.Chemscore.DEInternal>
1.1266

> <Gold.Chemscore.Rot>
2.2594

> <Gold.Chemscore.Internal.Correction>
   9.000000E+99

> <Gold.Chemscore.Hbonds>
donor molecule, donor type, donor heavy atom, donor atom, acceptor molecule, acceptor atom, score
      L1  H     4    30       P1  8028  0.82
      L1  H     9    48       P1 10175  0.95
      P1  H  7989  7998       L1     6  0.27

> <Gold.Chemscore.Hbond.Weighted>
-8.3481

> <Gold.Chemscore.Metal.Weighted>
-0.0000

> <Gold.Chemscore.Lipo.Weighted>
-10.8657

> <Gold.Chemscore.Internal_Hbond.Weighted>
0.0000

> <Gold.Chemscore.DEClash.Weighted>
3.9563

> <Gold.Chemscore.DEInternal.Weighted>
1.1266

> <Gold.Chemscore.Rot.Weighted>
5.7841

> <Gold.Chemscore.Internal.Correction.Weighted>
   9.000000E+99

> <Gold.Protein.RotatedTorsions>
[ 6907 6896 6895 6894 ] final  148.55 input  -60.11 | X-H torsion
[ 7974 7965 7964 7962 ] final -105.87 input  175.53 | X-H torsion
[ 8008 7997 7996 7995 ] final -175.64 input   59.86 | X-H torsion
[ 10167 10162 10161 10158 ] final   23.98 input  -65.29 | X-H torsion
[ 10718 10713 10712 10709 ] final   18.37 input   66.30 | X-H torsion
[ 10763 10752 10751 10750 ] final  -30.13 input  -60.55 | X-H torsion
[ 11005 11000 10999 10996 ] final -108.37 input  -57.11 | X-H torsion

> <Gold.Protein.ActiveResidues>
 VAL166  LYS551  ARG553  GLY616  TRP617  ASP618  TYR619  PRO620  LYS621  CYS622 
 ASP623  PHE694  ASN695  SER759  ASP760  ASP761  ALA762  ILE779  LEU786  VAL792 
 PHE793  MET794  SER795  GLU796  ALA797  LYS798  CYS799  TRP800  GLU811  SER814 

> <Gold.Protein.RotatedAtoms>
  152.1400  133.4458  159.4761 H   0  0  0  0  0  0  0  0  0  0  0  0  # atno 6907 bound_to 6896
  150.6885  134.2317  159.4446 H   0  0  0  0  0  0  0  0  0  0  0  0  # atno 6908 bound_to 6896
  152.0207  134.9824  160.0621 H   0  0  0  0  0  0  0  0  0  0  0  0  # atno 6909 bound_to 6896
  145.2250  140.9149  143.3237 H   0  0  0  0  0  0  0  0  0  0  0  0  # atno 7974 bound_to 7965
  155.9851  140.1189  157.0691 H   0  0  0  0  0  0  0  0  0  0  0  0  # atno 8008 bound_to 7997
  154.4194  140.1137  156.5556 H   0  0  0  0  0  0  0  0  0  0  0  0  # atno 8009 bound_to 7997
  155.6419  140.3473  155.4720 H   0  0  0  0  0  0  0  0  0  0  0  0  # atno 8010 bound_to 7997
  140.5225  143.9978  150.6424 H   0  0  0  0  0  0  0  0  0  0  0  0  # atno 10167 bound_to 10162
  157.0954  130.6445  149.5859 H   0  0  0  0  0  0  0  0  0  0  0  0  # atno 10718 bound_to 10713
  153.7760  135.6909  153.4897 H   0  0  0  0  0  0  0  0  0  0  0  0  # atno 10763 bound_to 10752
  153.1843  135.4494  155.0067 H   0  0  0  0  0  0  0  0  0  0  0  0  # atno 10764 bound_to 10752
  154.8100  135.3373  154.7266 H   0  0  0  0  0  0  0  0  0  0  0  0  # atno 10765 bound_to 10752
  141.0905  133.9063  157.2086 H   0  0  0  0  0  0  0  0  0  0  0  0  # atno 11005 bound_to 11000
  144.9729  139.3861  143.6300 LP  0  0  0  0  0  0  0  0  0  0  0  0  # atno 17320 bound_to 7965
  146.3367  139.8835  142.8820 LP  0  0  0  0  0  0  0  0  0  0  0  0  # atno 17321 bound_to 7965
  140.3331  143.3065  152.0667 LP  0  0  0  0  0  0  0  0  0  0  0  0  # atno 17342 bound_to 10162
  139.4928  144.6495  151.6705 LP  0  0  0  0  0  0  0  0  0  0  0  0  # atno 17343 bound_to 10162
  155.9887  130.4932  150.7182 LP  0  0  0  0  0  0  0  0  0  0  0  0  # atno 17370 bound_to 10713
  157.4686  131.0891  151.0668 LP  0  0  0  0  0  0  0  0  0  0  0  0  # atno 17371 bound_to 10713
  139.9730  135.0122  156.9560 LP  0  0  0  0  0  0  0  0  0  0  0  0  # atno 17394 bound_to 11000
  140.5263  134.0857  155.7304 LP  0  0  0  0  0  0  0  0  0  0  0  0  # atno 17395 bound_to 11000

$$$$
