#       Name:                AV-unprocessed.smi:836
#       Creating user name   scv26
#       Creation time:       Fri Mar 27 01:34:47 2020


#       File generated by GOLD software.
#

@<TRIPOS>MOLECULE
AV-unprocessed.smi:836
    41    42     1
SMALL
NO_CHARGES


@<TRIPOS>ATOM
      1 ****        -4.6907  -1.7525   1.5261 C.3            1 S1                 0.0000
      2 ****        -3.2199  -1.3179   1.4581 C.3            1 S1                 0.0000
      3 ****        -3.0377   0.1321   1.9455 C.3            1 S1                 0.0000
      4 ****        -1.5667   0.5725   1.8778 C.3            1 S1                 0.0000
      5 ****        -0.9922   0.4034   0.4573 C.3            1 S1                 0.0000
      6 ****         0.4252   0.7485   0.4316 N.am           1 S1                 0.0000
      7 ****         0.9247   1.9889   0.3133 C.2            1 S1                 0.0000
      8 ****         0.2254   2.9981   0.2282 O.2            1 S1                 0.0000
      9 ****         2.4496   2.1116   0.2955 C.3            1 S1                 0.0000
     10 ****         3.0177   1.4817  -0.8837 N.pl3          1 S1                 0.0000
     11 ****         3.1230   1.9902  -2.1605 C.2            1 S1                 0.0000
     12 ****         3.7153   1.0314  -2.9309 C.2            1 S1                 0.0000
     13 ****         3.9417  -0.0485  -2.0286 C.2            1 S1                 0.0000
     14 ****         4.5670  -1.3887  -2.3124 C.3            1 S1                 0.0000
     15 ****         4.9273  -1.4695  -3.5933 F              1 S1                 0.0000
     16 ****         5.6480  -1.5576  -1.5511 F              1 S1                 0.0000
     17 ****         3.6938  -2.3611  -2.0502 F              1 S1                 0.0000
     18 ****         3.5210   0.2311  -0.8023 N.2            1 S1                 0.0000
     19 ****        -1.1767  -1.0435  -0.0351 C.3            1 S1                 0.0000
     20 ****        -2.6487  -1.4807   0.0367 C.3            1 S1                 0.0000
     21 ****        -5.3174  -1.1333   0.8836 H              1 S1                 0.0000
     22 ****        -5.0768  -1.6745   2.5428 H              1 S1                 0.0000
     23 ****        -4.8086  -2.7887   1.2081 H              1 S1                 0.0000
     24 ****        -2.6542  -1.9705   2.1247 H              1 S1                 0.0000
     25 ****        -3.6445   0.8048   1.3379 H              1 S1                 0.0000
     26 ****        -3.4004   0.2304   2.9692 H              1 S1                 0.0000
     27 ****        -1.4833   1.6121   2.1965 H              1 S1                 0.0000
     28 ****        -0.9810  -0.0155   2.5859 H              1 S1                 0.0000
     29 ****        -1.5322   1.0642  -0.2240 H              1 S1                 0.0000
     30 ****         1.0806  -0.0174   0.4943 H              1 S1                 0.0000
     31 ****         2.7405   3.1629   0.3040 H              1 S1                 0.0000
     32 ****         2.8687   1.6551   1.1937 H              1 S1                 0.0000
     33 ****         2.7690   2.9793  -2.4114 H              1 S1                 0.0000
     34 ****         3.9507   1.0907  -3.9833 H              1 S1                 0.0000
     35 ****        -0.8160  -1.1375  -1.0601 H              1 S1                 0.0000
     36 ****        -0.5703  -1.7202   0.5688 H              1 S1                 0.0000
     37 ****        -2.7361  -2.5193  -0.2839 H              1 S1                 0.0000
     38 ****        -3.2372  -0.8907  -0.6673 H              1 S1                 0.0000
     39 ****        -0.7713   2.9187   0.2455 LP             1 S1                 0.0000
     40 ****         0.6539   3.8975   0.1417 LP             1 S1                 0.0000
     41 ****         3.5666  -0.3559   0.0060 LP             1 S1                 0.0000
@<TRIPOS>BOND
    1    1    2 1     
    2    1   21 1     
    3    1   22 1     
    4    1   23 1     
    5    2   20 1     
    6    2    3 1     
    7    2   24 1     
    8    3    4 1     
    9    3   25 1     
   10    3   26 1     
   11    4    5 1     
   12    4   27 1     
   13    4   28 1     
   14    5    6 1     
   15    5   19 1     
   16    5   29 1     
   17    6    7 am    
   18    6   30 1     
   19    7    8 2     
   20    7    9 1     
   21    9   10 1     
   22    9   31 1     
   23    9   32 1     
   24   10   18 1     
   25   10   11 1     
   26   11   12 2     
   27   11   33 1     
   28   12   13 1     
   29   12   34 1     
   30   13   14 1     
   31   13   18 2     
   32   14   15 1     
   33   14   16 1     
   34   14   17 1     
   35   19   20 1     
   36   19   35 1     
   37   19   36 1     
   38   20   37 1     
   39   20   38 1     
   40    8   39 1     
   41    8   40 1     
   42   18   41 1     
@<TRIPOS>SUBSTRUCTURE
      1 S1             1
@<TRIPOS>SET
LONE_PAIRS      STATIC     ATOMS    <user>   **** ""
3 39 40 41
DONOR_HYDROGENS      STATIC     ATOMS    <user>   **** ""
1 30
ATOM$BLUE        STATIC     ATOMS    COLORGROUP SYSTEM
3 39 40 41
ATOM$RED        STATIC     ATOMS    COLORGROUP SYSTEM
1 30
