#       Name:                AV-unprocessed.smi:1672
#       Creating user name   scv26
#       Creation time:       Fri Mar 27 07:44:25 2020


#       File generated by GOLD software.
#

@<TRIPOS>MOLECULE
AV-unprocessed.smi:1672
    53    55     1
SMALL
NO_CHARGES


@<TRIPOS>ATOM
      1 ****        -4.2554  -3.0976   2.0262 C.3            1 S1                 0.0000
      2 ****        -4.2355  -1.5737   1.8132 C.3            1 S1                 0.0000
      3 ****        -3.6739  -1.1719   0.4374 C.3            1 S1                 0.0000
      4 ****        -2.1463  -1.3430   0.3596 C.3            1 S1                 0.0000
      5 ****        -1.4661  -0.5805   1.4399 N.4            1 S1                 1.0000
      6 ****         0.0159  -0.6018   1.3343 C.3            1 S1                 0.0000
      7 ****         0.5498   0.3486   0.2442 C.3            1 S1                 0.0000
      8 ****         0.2041   1.6759   0.5898 O.3            1 S1                 0.0000
      9 ****         2.0801   0.2387   0.0944 C.3            1 S1                 0.0000
     10 ****         2.6053   1.1204  -0.9402 N.pl3          1 S1                 0.0000
     11 ****         3.2598   2.3014  -0.7974 C.2            1 S1                 0.0000
     12 ****         3.5564   2.8982   0.5443 C.3            1 S1                 0.0000
     13 ****         4.6677   2.2961   1.1718 O.3            1 S1                 0.0000
     14 ****         3.6285   2.8999  -1.9303 N.2            1 S1                 0.0000
     15 ****         3.1794   2.0239  -2.8989 C.ar           1 S1                 0.0000
     16 ****         3.2661   2.0880  -4.3079 C.ar           1 S1                 0.0000
     17 ****         2.7261   1.0565  -5.1039 C.ar           1 S1                 0.0000
     18 ****         2.0933  -0.0514  -4.5040 C.ar           1 S1                 0.0000
     19 ****         1.9956  -0.1349  -3.1016 C.ar           1 S1                 0.0000
     20 ****         2.5358   0.8980  -2.3120 C.ar           1 S1                 0.0000
     21 ****        -1.9407  -0.9977   2.7845 C.3            1 S1                 0.0000
     22 ****        -3.4650  -0.8275   2.9176 C.3            1 S1                 0.0000
     23 ****        -3.2550  -3.5292   2.0113 H              1 S1                 0.0000
     24 ****        -4.8389  -3.5921   1.2491 H              1 S1                 0.0000
     25 ****        -4.7088  -3.3511   2.9849 H              1 S1                 0.0000
     26 ****        -5.2744  -1.2432   1.8548 H              1 S1                 0.0000
     27 ****        -4.1572  -1.7494  -0.3515 H              1 S1                 0.0000
     28 ****        -3.9220  -0.1277   0.2413 H              1 S1                 0.0000
     29 ****        -1.8768  -2.3977   0.4286 H              1 S1                 0.0000
     30 ****        -1.8085  -1.0013  -0.6177 H              1 S1                 0.0000
     31 ****         0.4570  -0.3093   2.2888 H              1 S1                 0.0000
     32 ****         0.3477  -1.6244   1.1482 H              1 S1                 0.0000
     33 ****         0.0913   0.1211  -0.7174 H              1 S1                 0.0000
     34 ****         0.5143   2.2541  -0.0914 H              1 S1                 0.0000
     35 ****         2.5756   0.4457   1.0428 H              1 S1                 0.0000
     36 ****         2.3535  -0.7839  -0.1689 H              1 S1                 0.0000
     37 ****         3.7593   3.9633   0.4272 H              1 S1                 0.0000
     38 ****         2.6830   2.8169   1.1909 H              1 S1                 0.0000
     39 ****         4.4745   1.3824   1.3141 H              1 S1                 0.0000
     40 ****         3.7498   2.9318  -4.7774 H              1 S1                 0.0000
     41 ****         2.7993   1.1155  -6.1800 H              1 S1                 0.0000
     42 ****         1.6839  -0.8375  -5.1216 H              1 S1                 0.0000
     43 ****         1.5127  -0.9831  -2.6398 H              1 S1                 0.0000
     44 ****        -1.6507  -2.0324   2.9719 H              1 S1                 0.0000
     45 ****        -1.4522  -0.3925   3.5492 H              1 S1                 0.0000
     46 ****        -3.7069   0.2349   2.8654 H              1 S1                 0.0000
     47 ****        -3.7950  -1.1634   3.9013 H              1 S1                 0.0000
     48 ****        -1.7385   0.3869   1.3356 H              1 S1                 0.0000
     49 ****         0.6318   1.9201   1.4601 LP             1 S1                 0.0000
     50 ****        -0.7893   1.7550   0.6728 LP             1 S1                 0.0000
     51 ****         4.8433   2.7440   2.0485 LP             1 S1                 0.0000
     52 ****         5.4735   2.3829   0.5859 LP             1 S1                 0.0000
     53 ****         4.1107   3.7679  -2.0492 LP             1 S1                 0.0000
@<TRIPOS>BOND
    1    1    2 1     
    2    1   23 1     
    3    1   24 1     
    4    1   25 1     
    5    2   22 1     
    6    2    3 1     
    7    2   26 1     
    8    3    4 1     
    9    3   27 1     
   10    3   28 1     
   11    4    5 1     
   12    4   29 1     
   13    4   30 1     
   14    5    6 1     
   15    5   21 1     
   16    5   48 1     
   17    6    7 1     
   18    6   31 1     
   19    6   32 1     
   20    7    8 1     
   21    7    9 1     
   22    7   33 1     
   23    8   34 1     
   24    9   10 1     
   25    9   35 1     
   26    9   36 1     
   27   10   20 1     
   28   10   11 1     
   29   11   12 1     
   30   11   14 2     
   31   12   13 1     
   32   12   37 1     
   33   12   38 1     
   34   13   39 1     
   35   14   15 1     
   36   15   20 ar    
   37   15   16 ar    
   38   16   17 ar    
   39   16   40 1     
   40   17   18 ar    
   41   17   41 1     
   42   18   19 ar    
   43   18   42 1     
   44   19   20 ar    
   45   19   43 1     
   46   21   22 1     
   47   21   44 1     
   48   21   45 1     
   49   22   46 1     
   50   22   47 1     
   51    8   49 1     
   52    8   50 1     
   53   13   51 1     
   54   13   52 1     
   55   14   53 1     
@<TRIPOS>SUBSTRUCTURE
      1 S1             1
@<TRIPOS>SET
LONE_PAIRS      STATIC     ATOMS    <user>   **** ""
5 49 50 51 52 53
DONOR_HYDROGENS      STATIC     ATOMS    <user>   **** ""
3 48 34 39
ATOM$BLUE        STATIC     ATOMS    COLORGROUP SYSTEM
5 49 50 51 52 53
ATOM$RED        STATIC     ATOMS    COLORGROUP SYSTEM
3 48 34 39
