AV-unprocessed.smi:221|AV-procd|sdf|1699|dock10
  -GOLD-   2262020153D 1   1.00000     0.00000
 Structure written by MMmdl.
 50 53  0  0  0  0  0  0  0  0  1 V2000
  143.8263  136.5359  151.9047 N   0  0  0  0  0  0  0  0  0  0  0  0
  144.2855  135.4241  151.3253 C   0  0  0  0  0  0  0  0  0  0  0  0
  144.7263  135.4229  150.1768 O   0  0  0  0  0  0  0  0  0  0  0  0
  144.2343  134.1355  152.1677 C   0  0  1  0  0  0  0  0  0  0  0  0
  143.3991  133.0358  151.4867 C   0  0  0  0  0  0  0  0  0  0  0  0
  144.4063  132.2221  150.6735 C   0  0  1  0  0  0  0  0  0  0  0  0
  144.6087  132.7985  149.4876 F   0  0  0  0  0  0  0  0  0  0  0  0
  145.6824  132.3010  151.5127 C   0  0  0  0  0  0  0  0  0  0  0  0
  145.5495  133.5114  152.3189 N   0  0  0  0  0  0  0  0  0  0  0  0
  146.5260  133.9272  153.1733 C   0  0  0  0  0  0  0  0  0  0  0  0
  147.5928  133.1051  153.3618 N   0  0  0  0  0  0  0  0  0  0  0  0
  148.5882  133.4499  154.1819 C   0  0  0  0  0  0  0  0  0  0  0  0
  148.7211  134.5583  154.9094 N   0  0  0  0  0  0  0  0  0  0  0  0
  147.6569  135.3917  154.7340 C   0  0  0  0  0  0  0  0  0  0  0  0
  146.5257  135.1601  153.8965 C   0  0  0  0  0  0  0  0  0  0  0  0
  145.6550  136.2417  153.9949 N   0  0  0  0  0  0  0  0  0  0  0  0
  146.2335  137.0568  154.8324 C   0  0  0  0  0  0  0  0  0  0  0  0
  147.4388  136.6221  155.3286 N   0  0  0  0  0  0  0  0  0  0  0  0
  148.2890  137.3245  156.2734 C   0  0  0  0  0  0  0  0  0  0  0  0
  149.6475  137.7824  155.6798 C   0  0  1  0  0  0  0  0  0  0  0  0
  149.5458  139.1479  154.9523 C   0  0  0  0  0  0  0  0  0  0  0  0
  150.8097  139.6101  154.5218 O   0  0  0  0  0  0  0  0  0  0  0  0
  150.7335  137.8224  156.7865 C   0  0  1  0  0  0  0  0  0  0  0  0
  150.3780  138.6585  158.0050 C   0  0  0  0  0  0  0  0  0  0  0  0
  151.3555  138.1345  159.0485 C   0  0  0  0  0  0  0  0  0  0  0  0
  151.4760  136.7453  158.7757 O   0  0  0  0  0  0  0  0  0  0  0  0
  151.0292  136.4698  157.4509 C   0  0  0  0  0  0  0  0  0  0  0  0
  143.7959  134.3524  153.1421 H   0  0  0  0  0  0  0  0  0  0  0  0
  144.0810  131.1988  150.4846 H   0  0  0  0  0  0  0  0  0  0  0  0
  143.8420  137.4079  151.3960 H   0  0  0  0  0  0  0  0  0  0  0  0
  143.4696  136.5027  152.8485 H   0  0  0  0  0  0  0  0  0  0  0  0
  142.9576  132.3966  152.2525 H   0  0  0  0  0  0  0  0  0  0  0  0
  142.5790  133.4187  150.8772 H   0  0  0  0  0  0  0  0  0  0  0  0
  145.7508  131.4396  152.1785 H   0  0  0  0  0  0  0  0  0  0  0  0
  146.5740  132.3193  150.8843 H   0  0  0  0  0  0  0  0  0  0  0  0
  149.3933  132.7349  154.2665 H   0  0  0  0  0  0  0  0  0  0  0  0
  145.7917  138.0004  155.1180 H   0  0  0  0  0  0  0  0  0  0  0  0
  147.7412  138.1845  156.6604 H   0  0  0  0  0  0  0  0  0  0  0  0
  148.4456  136.6566  157.1203 H   0  0  0  0  0  0  0  0  0  0  0  0
  149.9627  137.0364  154.9482 H   0  0  0  0  0  0  0  0  0  0  0  0
  148.8682  139.0836  154.1004 H   0  0  0  0  0  0  0  0  0  0  0  0
  149.1477  139.9202  155.6085 H   0  0  0  0  0  0  0  0  0  0  0  0
  151.3418  138.8625  154.2955 H   0  0  0  0  0  0  0  0  0  0  0  0
  151.6626  138.2118  156.3663 H   0  0  0  0  0  0  0  0  0  0  0  0
  150.4863  139.7309  157.8410 H   0  0  0  0  0  0  0  0  0  0  0  0
  149.3524  138.4607  158.3202 H   0  0  0  0  0  0  0  0  0  0  0  0
  152.3325  138.6024  158.9229 H   0  0  0  0  0  0  0  0  0  0  0  0
  151.0190  138.3155  160.0694 H   0  0  0  0  0  0  0  0  0  0  0  0
  150.1265  135.8612  157.5181 H   0  0  0  0  0  0  0  0  0  0  0  0
  151.7803  135.8974  156.9060 H   0  0  0  0  0  0  0  0  0  0  0  0
  1  2  1  0  0  0  0
  1 30  1  0  0  0  0
  1 31  1  0  0  0  0
  2  3  2  0  0  0  0
  2  4  1  0  0  0  0
  4 28  1  0  0  0  0
  4  9  1  0  0  0  0
  4  5  1  0  0  0  0
  5  6  1  0  0  0  0
  5 32  1  0  0  0  0
  5 33  1  0  0  0  0
  6 29  1  0  0  0  0
  6  7  1  0  0  0  0
  6  8  1  0  0  0  0
  8  9  1  0  0  0  0
  8 34  1  0  0  0  0
  8 35  1  0  0  0  0
  9 10  1  0  0  0  0
 10 15  1  0  0  0  0
 10 11  2  0  0  0  0
 11 12  1  0  0  0  0
 12 13  2  0  0  0  0
 12 36  1  0  0  0  0
 13 14  1  0  0  0  0
 14 18  1  0  0  0  0
 14 15  2  0  0  0  0
 15 16  1  0  0  0  0
 16 17  2  0  0  0  0
 17 18  1  0  0  0  0
 17 37  1  0  0  0  0
 18 19  1  0  0  0  0
 19 20  1  0  0  0  0
 19 38  1  0  0  0  0
 19 39  1  0  0  0  0
 20 21  1  0  0  0  0
 20 23  1  0  0  0  0
 20 40  1  0  0  0  0
 21 22  1  0  0  0  0
 21 41  1  0  0  0  0
 21 42  1  0  0  0  0
 22 43  1  0  0  0  0
 23 27  1  0  0  0  0
 23 24  1  0  0  0  0
 23 44  1  0  0  0  0
 24 25  1  0  0  0  0
 24 45  1  0  0  0  0
 24 46  1  0  0  0  0
 25 26  1  0  0  0  0
 25 47  1  0  0  0  0
 25 48  1  0  0  0  0
 26 27  1  0  0  0  0
 27 49  1  0  0  0  0
 27 50  1  0  0  0  0
M  END
> <s_m_source_file>
AV-unprocessed.smi

> <i_m_source_file_index>
221

> <i_lp_mmshare_version>
43012

> <i_f3d_flags>
0

> <s_epik_input>
W05IMl1DKD1PKVtDQEBIXTFbQ0gyXVtDQEBIXShGKVtDSDJdTjFjKG5bY0hdbjIpYyhjMjMpbltjSF1uM1tDSDJdW0NASF0oW0NIMl1bT0hdKVtDQEBIXTRbQ0gyXVtDSDJdT1tDSDJdNA==

> <s_epik_cmdline>
J2VwaWtfcHl0aG9uJywgJy1waCcsICc3LjAnLCAnLXRuJywgJzgnLCAnLW1hJywgJzIwMCcsICctbWV0YWxfYmluZGluZycsICctaW1hZScsICc8aW5maWxlLm1hZT4nLCAnLW9tYWUnLCAnPG91dGZpbGUubWFlPic=

> <r_lp_tautomer_probability>
1

> <r_epik_Ionization_Penalty>
0.000818822

> <r_epik_Ionization_Penalty_Charging>
0

> <r_epik_Ionization_Penalty_Neutral>
0.000818822

> <r_epik_State_Penalty>
0.000440551

> <r_epik_Charging_Adjusted_Penalty>
0.000440551

> <i_epik_Tot_Q>
0

> <i_epik_Tot_abs_Q>
0

> <r_epik_Metal_State_Penalty>
-0

> <b_epik_Metal_Only>
0

> <s_lp_Force_Field>
OPLS_2005

> <r_lp_Energy>
47.9731

> <b_lp_Chiralities_Consistent>
1

> <s_lp_Variant>
AV-unprocessed.smi:221-14

> <Gold.Version>
5.8.1

> <Gold.Id.Protein>
6NUR|6NUR_protein|mol2

> <Gold.PLP.Fitness>
39.6266

> <Gold.PLP.PLP>
-32.0687

> <Gold.PLP.part.hbond>
-3.0000

> <Gold.PLP.part.metal>
0.0000

> <Gold.PLP.part.buried>
-7.0405

> <Gold.PLP.part.nonpolar>
-23.4389

> <Gold.PLP.part.repulsive>
1.8090

> <Gold.PLP.ligand.clash>
0.0000

> <Gold.PLP.ligand.torsion>
0.4872

> <Gold.PLP.Chemscore.Hbond>
2.8160

> <Gold.PLP.Chemscore.CHOScore>
0.0000

> <Gold.PLP.Chemscore.Metal>
0.0000

> <Gold.Chemscore.Hbonds>
donor molecule, donor type, donor heavy atom, donor atom, acceptor molecule, acceptor atom, score
      L1  H     1    30       P1 10171  1.00
      P1  H  6896  6907       L1    26  0.86
      P1  H  7989  7998       L1    22  0.95

> <Gold.PLP.Chemscore.Internal.Correction>
0.0843

> <Gold.Rescore>
     Score         DG    S(hbond)    S(metal)    S(lipo)     H(rot)  DE(clash)    DE(int)     intcor
      8.11     -11.87       2.57        0.00      53.60       3.31       0.44       3.32       ----

> <Gold.Chemscore.Fitness>
8.1105

> <Gold.Chemscore.DG>
-11.8678

> <Gold.Chemscore.ZeroCoef>
-5.4800

> <Gold.Chemscore.Hbond>
2.5712

> <Gold.Chemscore.Metal>
0.0000

> <Gold.Chemscore.Lipo>
53.5963

> <Gold.Chemscore.Internal_Hbond>
0.0000

> <Gold.Chemscore.DEClash>
0.4391

> <Gold.Chemscore.DEInternal>
3.3182

> <Gold.Chemscore.Rot>
3.3089

> <Gold.Chemscore.Internal.Correction>
   9.000000E+99

> <Gold.Chemscore.Hbonds>
donor molecule, donor type, donor heavy atom, donor atom, acceptor molecule, acceptor atom, score
      L1  H     1    30       P1 10171  0.97
      P1  H  6896  6907       L1    26  0.71
      P1  H  7989  7998       L1    22  0.22

> <Gold.Chemscore.Hbond.Weighted>
-8.5879

> <Gold.Chemscore.Metal.Weighted>
-0.0000

> <Gold.Chemscore.Lipo.Weighted>
-6.2708

> <Gold.Chemscore.Internal_Hbond.Weighted>
0.0000

> <Gold.Chemscore.DEClash.Weighted>
0.4391

> <Gold.Chemscore.DEInternal.Weighted>
3.3182

> <Gold.Chemscore.Rot.Weighted>
8.4709

> <Gold.Chemscore.Internal.Correction.Weighted>
   9.000000E+99

> <Gold.Protein.RotatedTorsions>
[ 6907 6896 6895 6894 ] final   -6.40 input  -60.11 | X-H torsion
[ 7974 7965 7964 7962 ] final  -66.94 input  175.53 | X-H torsion
[ 8008 7997 7996 7995 ] final  -71.95 input   59.86 | X-H torsion
[ 10167 10162 10161 10158 ] final   65.72 input  -65.29 | X-H torsion
[ 10718 10713 10712 10709 ] final   77.17 input   66.30 | X-H torsion
[ 10763 10752 10751 10750 ] final  152.09 input  -60.55 | X-H torsion
[ 11005 11000 10999 10996 ] final  -58.48 input  -57.11 | X-H torsion

> <Gold.Protein.ActiveResidues>
 VAL166  LYS551  ARG553  GLY616  TRP617  ASP618  TYR619  PRO620  LYS621  CYS622 
 ASP623  PHE694  ASN695  SER759  ASP760  ASP761  ALA762  ILE779  LEU786  VAL792 
 PHE793  MET794  SER795  GLU796  ALA797  LYS798  CYS799  TRP800  GLU811  SER814 

> <Gold.Protein.RotatedAtoms>
  151.4662  135.1042  159.9738 H   0  0  0  0  0  0  0  0  0  0  0  0  # atno 6907 bound_to 6896
  152.4834  133.8307  159.7112 H   0  0  0  0  0  0  0  0  0  0  0  0  # atno 6908 bound_to 6896
  150.8923  133.7166  159.2928 H   0  0  0  0  0  0  0  0  0  0  0  0  # atno 6909 bound_to 6896
  145.7354  140.8978  143.0558 H   0  0  0  0  0  0  0  0  0  0  0  0  # atno 7974 bound_to 7965
  154.5128  140.0806  156.8022 H   0  0  0  0  0  0  0  0  0  0  0  0  # atno 8008 bound_to 7997
  155.3748  140.3425  155.4226 H   0  0  0  0  0  0  0  0  0  0  0  0  # atno 8009 bound_to 7997
  156.1592  140.1583  156.8627 H   0  0  0  0  0  0  0  0  0  0  0  0  # atno 8010 bound_to 7997
  140.1082  144.4842  150.6994 H   0  0  0  0  0  0  0  0  0  0  0  0  # atno 10167 bound_to 10162
  157.6700  130.9809  150.1602 H   0  0  0  0  0  0  0  0  0  0  0  0  # atno 10718 bound_to 10713
  154.1144  135.2837  155.3223 H   0  0  0  0  0  0  0  0  0  0  0  0  # atno 10763 bound_to 10752
  154.6467  135.5383  153.7856 H   0  0  0  0  0  0  0  0  0  0  0  0  # atno 10764 bound_to 10752
  153.0334  135.6500  154.1301 H   0  0  0  0  0  0  0  0  0  0  0  0  # atno 10765 bound_to 10752
  141.1209  133.6612  156.4926 H   0  0  0  0  0  0  0  0  0  0  0  0  # atno 11005 bound_to 11000
  144.6883  139.9388  143.7474 LP  0  0  0  0  0  0  0  0  0  0  0  0  # atno 17320 bound_to 7965
  146.0498  139.3500  143.0646 LP  0  0  0  0  0  0  0  0  0  0  0  0  # atno 17321 bound_to 7965
  140.6940  143.2393  151.5052 LP  0  0  0  0  0  0  0  0  0  0  0  0  # atno 17342 bound_to 10162
  139.5633  144.2102  152.1726 LP  0  0  0  0  0  0  0  0  0  0  0  0  # atno 17343 bound_to 10162
  156.2380  130.3688  149.8369 LP  0  0  0  0  0  0  0  0  0  0  0  0  # atno 17370 bound_to 10713
  156.6177  130.8613  151.3468 LP  0  0  0  0  0  0  0  0  0  0  0  0  # atno 17371 bound_to 10713
  140.4511  134.6928  157.5040 LP  0  0  0  0  0  0  0  0  0  0  0  0  # atno 17394 bound_to 11000
  140.0165  134.6611  155.9302 LP  0  0  0  0  0  0  0  0  0  0  0  0  # atno 17395 bound_to 11000

$$$$
