AV-unprocessed.smi:2159|AV-procd|sdf|8796|dock3
  -GOLD-   2272011573D 1   1.00000     0.00000
 Structure written by MMmdl.
 48 50  0  0  0  0  0  0  0  0  2 V2000
  152.0568  137.2757  155.3390 O   0  0  0  0  0  0  0  0  0  0  0  0
  151.4184  137.3140  156.3915 C   0  0  0  0  0  0  0  0  0  0  0  0
  151.3059  138.6173  157.1877 C   0  0  0  0  0  0  0  0  0  0  0  0
  152.6512  139.0722  157.7881 C   0  0  0  0  0  0  0  0  0  0  0  0
  152.5071  140.3282  158.5281 N   0  0  0  0  0  0  0  0  0  0  0  0
  151.8435  141.4074  158.0712 C   0  0  0  0  0  0  0  0  0  0  0  0
  151.3525  141.5619  156.9535 O   0  0  0  0  0  0  0  0  0  0  0  0
  151.6953  142.4107  159.2056 C   0  0  2  0  0  0  0  0  0  0  0  0
  151.7305  143.9227  158.9789 C   0  0  0  0  0  0  0  0  0  0  0  0
  151.5314  144.5884  160.3668 C   0  0  0  0  0  0  0  0  0  0  0  0
  152.4834  144.0445  161.4731 C   0  0  0  0  0  0  0  0  0  0  0  0
  152.5583  142.4957  161.5348 C   0  0  0  0  0  0  0  0  0  0  0  0
  152.8424  142.0102  160.1126 C   0  0  1  0  0  0  0  0  0  0  0  0
  152.9975  140.5375  159.7648 C   0  0  0  0  0  0  0  0  0  0  0  0
  153.5438  139.7140  160.4981 O   0  0  0  0  0  0  0  0  0  0  0  0
  150.8002  136.2423  156.9116 N   0  0  0  0  0  0  0  0  0  0  0  0
  150.7965  134.9121  156.3140 C   0  0  0  0  0  0  0  0  0  0  0  0
  150.4407  134.9653  154.8184 C   0  0  0  0  0  0  0  0  0  0  0  0
  149.7429  133.7041  154.3486 C   0  0  0  0  0  0  0  0  0  0  0  0
  150.0221  132.4363  154.9036 C   0  0  0  0  0  0  0  0  0  0  0  0
  149.3318  131.3054  154.4190 C   0  0  0  0  0  0  0  0  0  0  0  0
  148.3786  131.4659  153.3919 C   0  0  0  0  0  0  0  0  0  0  0  0
  148.1383  132.7554  152.8750 C   0  0  0  0  0  0  0  0  0  0  0  0
  148.8194  133.8141  153.3660 N   0  3  0  0  0  0  0  0  0  0  0  0
  150.9086  139.4024  156.5423 H   0  0  0  0  0  0  0  0  0  0  0  0
  150.5744  138.4656  157.9823 H   0  0  0  0  0  0  0  0  0  0  0  0
  153.0515  138.3044  158.4531 H   0  0  0  0  0  0  0  0  0  0  0  0
  153.3929  139.1920  156.9961 H   0  0  0  0  0  0  0  0  0  0  0  0
  150.7411  142.1648  159.6776 H   0  0  0  0  0  0  0  0  0  0  0  0
  152.6801  144.2278  158.5368 H   0  0  0  0  0  0  0  0  0  0  0  0
  150.9421  144.2311  158.2915 H   0  0  0  0  0  0  0  0  0  0  0  0
  151.6466  145.6690  160.2785 H   0  0  0  0  0  0  0  0  0  0  0  0
  150.5018  144.4234  160.6874 H   0  0  0  0  0  0  0  0  0  0  0  0
  153.4854  144.4342  161.2886 H   0  0  0  0  0  0  0  0  0  0  0  0
  152.1843  144.4387  162.4447 H   0  0  0  0  0  0  0  0  0  0  0  0
  153.3467  142.1792  162.2184 H   0  0  0  0  0  0  0  0  0  0  0  0
  151.6223  142.0781  161.9084 H   0  0  0  0  0  0  0  0  0  0  0  0
  153.7691  142.4810  159.7756 H   0  0  0  0  0  0  0  0  0  0  0  0
  150.2969  136.3582  157.7794 H   0  0  0  0  0  0  0  0  0  0  0  0
  151.7872  134.4757  156.4451 H   0  0  0  0  0  0  0  0  0  0  0  0
  150.1005  134.2670  156.8533 H   0  0  0  0  0  0  0  0  0  0  0  0
  149.7906  135.8168  154.6122 H   0  0  0  0  0  0  0  0  0  0  0  0
  151.3436  135.1185  154.2256 H   0  0  0  0  0  0  0  0  0  0  0  0
  150.7549  132.3291  155.6902 H   0  0  0  0  0  0  0  0  0  0  0  0
  149.5312  130.3265  154.8298 H   0  0  0  0  0  0  0  0  0  0  0  0
  147.8400  130.6123  153.0067 H   0  0  0  0  0  0  0  0  0  0  0  0
  147.4283  132.9706  152.0895 H   0  0  0  0  0  0  0  0  0  0  0  0
  148.6303  134.7385  152.9768 H   0  0  0  0  0  0  0  0  0  0  0  0
  1  2  2  0  0  0  0
  2  3  1  0  0  0  0
  2 16  1  0  0  0  0
  3  4  1  0  0  0  0
  3 25  1  0  0  0  0
  3 26  1  0  0  0  0
  4  5  1  0  0  0  0
  4 27  1  0  0  0  0
  4 28  1  0  0  0  0
  5 14  1  0  0  0  0
  5  6  1  0  0  0  0
  6  7  2  0  0  0  0
  6  8  1  0  0  0  0
  8 13  1  0  0  0  0
  8  9  1  0  0  0  0
  8 29  1  0  0  0  0
  9 10  1  0  0  0  0
  9 30  1  0  0  0  0
  9 31  1  0  0  0  0
 10 11  1  0  0  0  0
 10 32  1  0  0  0  0
 10 33  1  0  0  0  0
 11 12  1  0  0  0  0
 11 34  1  0  0  0  0
 11 35  1  0  0  0  0
 12 13  1  0  0  0  0
 12 36  1  0  0  0  0
 12 37  1  0  0  0  0
 13 14  1  0  0  0  0
 13 38  1  0  0  0  0
 14 15  2  0  0  0  0
 16 17  1  0  0  0  0
 16 39  1  0  0  0  0
 17 18  1  0  0  0  0
 17 40  1  0  0  0  0
 17 41  1  0  0  0  0
 18 19  1  0  0  0  0
 18 42  1  0  0  0  0
 18 43  1  0  0  0  0
 19 24  1  0  0  0  0
 19 20  2  0  0  0  0
 20 21  1  0  0  0  0
 20 44  1  0  0  0  0
 21 22  2  0  0  0  0
 21 45  1  0  0  0  0
 22 23  1  0  0  0  0
 22 46  1  0  0  0  0
 23 24  2  0  0  0  0
 23 47  1  0  0  0  0
 24 48  1  0  0  0  0
M  CHG  1  24   1
M  END
> <s_m_source_file>
AV-unprocessed.smi

> <i_m_source_file_index>
2159

> <i_lp_mmshare_version>
43012

> <i_f3d_flags>
0

> <s_epik_input>
bjFbY0hdW2NIXVtjSF1bY0hdYzFbQ0gyXVtDSDJdW05IXUMoPU8pW0NIMl1bQ0gyXU4oQzI9TylDKD1PKVtDQEhdKFtDQEBIXTIzKVtDSDJdW0NIMl1bQ0gyXVtDSDJdMw==

> <s_epik_cmdline>
J2VwaWtfcHl0aG9uJywgJy1waCcsICc3LjAnLCAnLXRuJywgJzgnLCAnLW1hJywgJzIwMCcsICctbWV0YWxfYmluZGluZycsICctaW1hZScsICc8aW5maWxlLm1hZT4nLCAnLW9tYWUnLCAnPG91dGZpbGUubWFlPic=

> <r_lp_tautomer_probability>
1

> <r_epik_Ionization_Penalty>
1.85146

> <r_epik_Ionization_Penalty_Charging>
1.85146

> <r_epik_Ionization_Penalty_Neutral>
2.95922e-08

> <r_epik_State_Penalty>
1.96899

> <r_epik_Charging_Adjusted_Penalty>
3.82044

> <i_epik_Tot_Q>
1

> <i_epik_Tot_abs_Q>
1

> <r_epik_Metal_State_Penalty>
1.99467

> <b_epik_Metal_Only>
0

> <s_lp_Force_Field>
OPLS_2005

> <r_lp_Energy>
35.9889

> <b_lp_Chiralities_Consistent>
1

> <s_lp_Variant>
AV-unprocessed.smi:2159-6

> <Gold.Version>
5.8.1

> <Gold.Id.Protein>
6NUR|6NUR_protein|mol2

> <Gold.PLP.Fitness>
53.3660

> <Gold.PLP.PLP>
-46.1815

> <Gold.PLP.part.hbond>
-2.0000

> <Gold.PLP.part.metal>
0.0000

> <Gold.PLP.part.buried>
-6.1667

> <Gold.PLP.part.nonpolar>
-37.9887

> <Gold.PLP.part.repulsive>
0.2117

> <Gold.PLP.ligand.clash>
0.0000

> <Gold.PLP.ligand.torsion>
0.8125

> <Gold.PLP.Chemscore.Hbond>
2.9120

> <Gold.PLP.Chemscore.CHOScore>
0.0000

> <Gold.PLP.Chemscore.Metal>
0.0000

> <Gold.Chemscore.Hbonds>
donor molecule, donor type, donor heavy atom, donor atom, acceptor molecule, acceptor atom, score
      L1  H    24    48       P1  7948  2.00
      P1  H 10752 10765       L1     1  0.88

> <Gold.PLP.Chemscore.Internal.Correction>
0.0736

> <Gold.Rescore>
     Score         DG    S(hbond)    S(metal)    S(lipo)     H(rot)  DE(clash)    DE(int)     intcor
     15.50     -18.94       1.80        0.00     109.47       2.10       0.06       3.38       ----

> <Gold.Chemscore.Fitness>
15.5032

> <Gold.Chemscore.DG>
-18.9436

> <Gold.Chemscore.ZeroCoef>
-5.4800

> <Gold.Chemscore.Hbond>
1.8027

> <Gold.Chemscore.Metal>
0.0000

> <Gold.Chemscore.Lipo>
109.4693

> <Gold.Chemscore.Internal_Hbond>
0.0000

> <Gold.Chemscore.DEClash>
0.0580

> <Gold.Chemscore.DEInternal>
3.3824

> <Gold.Chemscore.Rot>
2.0959

> <Gold.Chemscore.Internal.Correction>
   9.000000E+99

> <Gold.Chemscore.Hbonds>
donor molecule, donor type, donor heavy atom, donor atom, acceptor molecule, acceptor atom, score
      L1  H    24    48       P1  7948  0.29
      P1  H 10752 10765       L1     1  0.81

> <Gold.Chemscore.Hbond.Weighted>
-6.0212

> <Gold.Chemscore.Metal.Weighted>
-0.0000

> <Gold.Chemscore.Lipo.Weighted>
-12.8079

> <Gold.Chemscore.Internal_Hbond.Weighted>
0.0000

> <Gold.Chemscore.DEClash.Weighted>
0.0580

> <Gold.Chemscore.DEInternal.Weighted>
3.3824

> <Gold.Chemscore.Rot.Weighted>
5.3655

> <Gold.Chemscore.Internal.Correction.Weighted>
   9.000000E+99

> <Gold.Protein.RotatedTorsions>
[ 6907 6896 6895 6894 ] final  -40.59 input  -60.11 | X-H torsion
[ 7974 7965 7964 7962 ] final -105.91 input  175.53 | X-H torsion
[ 8008 7997 7996 7995 ] final -175.45 input   59.86 | X-H torsion
[ 10167 10162 10161 10158 ] final  -68.77 input  -65.29 | X-H torsion
[ 10718 10713 10712 10709 ] final  122.94 input   66.30 | X-H torsion
[ 10763 10752 10751 10750 ] final -172.51 input  -60.55 | X-H torsion
[ 11005 11000 10999 10996 ] final   -6.12 input  -57.11 | X-H torsion

> <Gold.Protein.ActiveResidues>
 VAL166  LYS551  ARG553  GLY616  TRP617  ASP618  TYR619  PRO620  LYS621  CYS622 
 ASP623  PHE694  ASN695  SER759  ASP760  ASP761  ALA762  ILE779  LEU786  VAL792 
 PHE793  MET794  SER795  GLU796  ALA797  LYS798  CYS799  TRP800  GLU811  SER814 

> <Gold.Protein.RotatedAtoms>
  150.9767  134.9130  159.7819 H   0  0  0  0  0  0  0  0  0  0  0  0  # atno 6907 bound_to 6896
  152.5208  134.3467  159.9246 H   0  0  0  0  0  0  0  0  0  0  0  0  # atno 6908 bound_to 6896
  151.3474  133.3897  159.2711 H   0  0  0  0  0  0  0  0  0  0  0  0  # atno 6909 bound_to 6896
  145.2244  140.9147  143.3240 H   0  0  0  0  0  0  0  0  0  0  0  0  # atno 7974 bound_to 7965
  155.9828  140.1185  157.0711 H   0  0  0  0  0  0  0  0  0  0  0  0  # atno 8008 bound_to 7997
  154.4188  140.1141  156.5526 H   0  0  0  0  0  0  0  0  0  0  0  0  # atno 8009 bound_to 7997
  155.6448  140.3473  155.4730 H   0  0  0  0  0  0  0  0  0  0  0  0  # atno 8010 bound_to 7997
  140.5482  143.2312  151.6962 H   0  0  0  0  0  0  0  0  0  0  0  0  # atno 10167 bound_to 10162
  157.5703  131.1083  150.8379 H   0  0  0  0  0  0  0  0  0  0  0  0  # atno 10718 bound_to 10713
  154.6184  135.2872  155.0354 H   0  0  0  0  0  0  0  0  0  0  0  0  # atno 10763 bound_to 10752
  154.1558  135.6496  153.4978 H   0  0  0  0  0  0  0  0  0  0  0  0  # atno 10764 bound_to 10752
  153.0225  135.5366  154.6964 H   0  0  0  0  0  0  0  0  0  0  0  0  # atno 10765 bound_to 10752
  140.6986  133.9009  155.8667 H   0  0  0  0  0  0  0  0  0  0  0  0  # atno 11005 bound_to 11000
  144.9735  139.3856  143.6297 LP  0  0  0  0  0  0  0  0  0  0  0  0  # atno 17320 bound_to 7965
  146.3368  139.8843  142.8819 LP  0  0  0  0  0  0  0  0  0  0  0  0  # atno 17321 bound_to 7965
  139.5016  144.3861  152.0327 LP  0  0  0  0  0  0  0  0  0  0  0  0  # atno 17342 bound_to 10162
  140.2976  144.3683  150.6070 LP  0  0  0  0  0  0  0  0  0  0  0  0  # atno 17343 bound_to 10162
  156.8852  130.5193  149.5289 LP  0  0  0  0  0  0  0  0  0  0  0  0  # atno 17370 bound_to 10713
  156.0749  130.5773  150.9454 LP  0  0  0  0  0  0  0  0  0  0  0  0  # atno 17371 bound_to 10713
  141.0183  134.0925  157.4148 LP  0  0  0  0  0  0  0  0  0  0  0  0  # atno 17394 bound_to 11000
  139.8903  135.0111  156.6729 LP  0  0  0  0  0  0  0  0  0  0  0  0  # atno 17395 bound_to 11000

$$$$
