#       Name:                AV-unprocessed.smi:3165
#       Creating user name   scv26
#       Creation time:       Fri Mar 27 17:51:43 2020


#       File generated by GOLD software.
#

@<TRIPOS>MOLECULE
AV-unprocessed.smi:3165
    41    42     1
SMALL
NO_CHARGES


@<TRIPOS>ATOM
      1 ****        -2.1319  -0.8405  -0.8710 C.3            1 S1                 0.0000
      2 ****        -1.5353  -0.1476   0.3701 C.3            1 S1                 0.0000
      3 ****        -1.9966  -0.8066   1.6874 C.3            1 S1                 0.0000
      4 ****        -3.4399  -0.8191   1.8464 N.pl3          1 S1                 0.0000
      5 ****        -4.2905  -1.9042   1.8867 C.2            1 S1                 0.0000
      6 ****        -5.5556  -1.4219   2.0636 C.2            1 S1                 0.0000
      7 ****        -5.3744  -0.0121   2.1280 C.2            1 S1                 0.0000
      8 ****        -4.1063   0.3452   2.0023 N.2            1 S1                 0.0000
      9 ****        -0.0560  -0.1406   0.3226 N.4            1 S1                 1.0000
     10 ****         0.5471   0.7974  -0.6482 C.3            1 S1                 0.0000
     11 ****         2.0779   0.7949  -0.5332 C.3            1 S1                 0.0000
     12 ****         2.7224   1.8734  -1.4255 C.3            1 S1                 0.0000
     13 ****         4.2516   1.7844  -1.3622 C.3            1 S1                 0.0000
     14 ****         4.7004   0.3546  -1.6817 C.3            1 S1                 0.0000
     15 ****         3.9564  -0.6506  -0.7888 C.3            1 S1                 0.0000
     16 ****         2.5494  -0.4878  -0.9425 O.3            1 S1                 0.0000
     17 ****        -3.2218  -0.8295  -0.8482 H              1 S1                 0.0000
     18 ****        -1.8133  -1.8815  -0.9345 H              1 S1                 0.0000
     19 ****        -1.8359  -0.3445  -1.7949 H              1 S1                 0.0000
     20 ****        -1.8705   0.8907   0.3816 H              1 S1                 0.0000
     21 ****        -1.6368  -1.8354   1.7400 H              1 S1                 0.0000
     22 ****        -1.5679  -0.2834   2.5435 H              1 S1                 0.0000
     23 ****        -3.9305  -2.9175   1.7855 H              1 S1                 0.0000
     24 ****        -6.4711  -1.9895   2.1384 H              1 S1                 0.0000
     25 ****        -6.1210   0.7565   2.2636 H              1 S1                 0.0000
     26 ****         0.2763   0.1247   1.2388 H              1 S1                 0.0000
     27 ****         0.2519   0.5368  -1.6645 H              1 S1                 0.0000
     28 ****         0.1673   1.8002  -0.4489 H              1 S1                 0.0000
     29 ****         2.3581   0.9708   0.5072 H              1 S1                 0.0000
     30 ****         2.3931   1.7433  -2.4574 H              1 S1                 0.0000
     31 ****         2.3954   2.8666  -1.1163 H              1 S1                 0.0000
     32 ****         4.7037   2.4901  -2.0597 H              1 S1                 0.0000
     33 ****         4.5955   2.0638  -0.3655 H              1 S1                 0.0000
     34 ****         4.4959   0.1308  -2.7294 H              1 S1                 0.0000
     35 ****         5.7779   0.2574  -1.5456 H              1 S1                 0.0000
     36 ****         4.2257  -1.6693  -1.0680 H              1 S1                 0.0000
     37 ****         4.2362  -0.5234   0.2582 H              1 S1                 0.0000
     38 ****         0.2715  -1.0754   0.1237 H              1 S1                 0.0000
     39 ****        -3.7265   1.2701   2.0190 LP             1 S1                 0.0000
     40 ****         2.3192  -0.6169  -1.9071 LP             1 S1                 0.0000
     41 ****         2.0881  -1.1848  -0.3935 LP             1 S1                 0.0000
@<TRIPOS>BOND
    1    1    2 1     
    2    1   17 1     
    3    1   18 1     
    4    1   19 1     
    5    2    3 1     
    6    2    9 1     
    7    2   20 1     
    8    3    4 1     
    9    3   21 1     
   10    3   22 1     
   11    4    8 1     
   12    4    5 1     
   13    5    6 2     
   14    5   23 1     
   15    6    7 1     
   16    6   24 1     
   17    7    8 2     
   18    7   25 1     
   19    9   10 1     
   20    9   26 1     
   21    9   38 1     
   22   10   11 1     
   23   10   27 1     
   24   10   28 1     
   25   11   16 1     
   26   11   12 1     
   27   11   29 1     
   28   12   13 1     
   29   12   30 1     
   30   12   31 1     
   31   13   14 1     
   32   13   32 1     
   33   13   33 1     
   34   14   15 1     
   35   14   34 1     
   36   14   35 1     
   37   15   16 1     
   38   15   36 1     
   39   15   37 1     
   40    8   39 1     
   41   16   40 1     
   42   16   41 1     
@<TRIPOS>SUBSTRUCTURE
      1 S1             1
@<TRIPOS>SET
LONE_PAIRS      STATIC     ATOMS    <user>   **** ""
3 39 40 41
DONOR_HYDROGENS      STATIC     ATOMS    <user>   **** ""
2 26 38
ATOM$BLUE        STATIC     ATOMS    COLORGROUP SYSTEM
3 39 40 41
ATOM$RED        STATIC     ATOMS    COLORGROUP SYSTEM
2 26 38
